MODEL 1
REMARK VINA RESULT:    -6.142      0.000      0.000
REMARK INTER + INTRA:         -12.869
REMARK INTER:                 -10.630
REMARK INTRA:                  -2.239
REMARK UNBOUND:                -2.239
REMARK SMILES OC[C@@H]1O[C@H](O)[C@H](O)[C@H](O)[C@@H]1O[C@@H]1O[C@H](CO)[C@@H](O[C@H]2O[C@H](CO)[C@H](O)[C@@H](O)[C@H]2O)[C@@H](O)[C@@H]1O
REMARK SMILES IDX 18 1 15 2 14 3 13 4 33 5 31 6 19 7 20 8 22 9 25 10 21 11
REMARK SMILES IDX 27 12 29 13 23 14 24 15 26 17 28 19 30 21 16 23 17 24 32 26
REMARK SMILES IDX 34 28 12 30 11 31 3 32 9 33 4 34 7 35 5 36 2 37 1 38 10 40
REMARK SMILES IDX 8 42 6 44
REMARK H PARENT 24 16 26 18 28 20 30 22 17 25 32 27 34 29 1 39 10 41 8 43 6 45
REMARK Flexibility Score: inf
ROOT
ATOM      1  C   UNL     1      37.148   0.634  45.537  1.00  0.00     0.184 C 
ATOM      2  C   UNL     1      36.429   1.516  44.495  1.00  0.00     0.178 C 
ATOM      3  O   UNL     1      37.337   2.171  43.612  1.00  0.00    -0.341 OA
ATOM      4  C   UNL     1      38.350   2.952  44.250  1.00  0.00     0.282 C 
ATOM      5  C   UNL     1      39.097   2.180  45.365  1.00  0.00     0.202 C 
ATOM      6  C   UNL     1      38.105   1.525  46.348  1.00  0.00     0.180 C 
ENDROOT
BRANCH   1   7
ATOM      7  O   UNL     1      37.875  -0.350  44.815  1.00  0.00    -0.341 OA
BRANCH   7   8
ATOM      8  C   UNL     1      37.209  -1.603  44.729  1.00  0.00     0.282 C 
ATOM      9  C   UNL     1      37.290  -1.651  42.373  1.00  0.00     0.178 C 
ATOM     10  C   UNL     1      38.212  -2.900  42.348  1.00  0.00     0.177 C 
ATOM     11  O   UNL     1      36.451  -1.668  43.520  1.00  0.00    -0.341 OA
ATOM     12  C   UNL     1      39.147  -2.824  43.569  1.00  0.00     0.179 C 
ATOM     13  C   UNL     1      38.263  -2.739  44.836  1.00  0.00     0.202 C 
BRANCH   9  14
ATOM     14  C   UNL     1      36.431  -1.546  41.113  1.00  0.00     0.191 C 
BRANCH  14  15
ATOM     15  O   UNL     1      36.811  -2.525  40.181  1.00  0.00    -0.394 OA
ATOM     16  H   UNL     1      37.436  -2.094  39.537  1.00  0.00     0.210 HD
ENDBRANCH  14  15
ENDBRANCH   9  14
BRANCH  10  17
ATOM     17  O   UNL     1      37.499  -4.125  42.374  1.00  0.00    -0.387 OA
ATOM     18  H   UNL     1      37.676  -4.641  41.538  1.00  0.00     0.211 HD
ENDBRANCH  10  17
BRANCH  12  19
ATOM     19  O   UNL     1      39.976  -1.693  43.471  1.00  0.00    -0.387 OA
ATOM     20  H   UNL     1      40.435  -1.744  42.590  1.00  0.00     0.211 HD
ENDBRANCH  12  19
BRANCH  13  21
ATOM     21  O   UNL     1      39.002  -2.611  46.041  1.00  0.00    -0.385 OA
ATOM     22  H   UNL     1      38.936  -1.676  46.389  1.00  0.00     0.211 HD
ENDBRANCH  13  21
ENDBRANCH   7   8
ENDBRANCH   1   7
BRANCH   2  23
ATOM     23  C   UNL     1      35.375   2.459  45.115  1.00  0.00     0.191 C 
BRANCH  23  24
ATOM     24  O   UNL     1      34.877   3.342  44.149  1.00  0.00    -0.394 OA
ATOM     25  H   UNL     1      35.643   3.616  43.579  1.00  0.00     0.210 HD
ENDBRANCH  23  24
ENDBRANCH   2  23
BRANCH   6  26
ATOM     26  O   UNL     1      38.815   0.786  47.306  1.00  0.00    -0.387 OA
ATOM     27  H   UNL     1      39.585   1.332  47.594  1.00  0.00     0.211 HD
ENDBRANCH   6  26
BRANCH   5  28
ATOM     28  O   UNL     1      40.021   3.010  46.032  1.00  0.00    -0.385 OA
ATOM     29  H   UNL     1      40.508   3.534  45.346  1.00  0.00     0.211 HD
ENDBRANCH   5  28
BRANCH   4  30
ATOM     30  O   UNL     1      37.787   4.151  44.758  1.00  0.00    -0.341 OA
BRANCH  30  31
ATOM     31  C   UNL     1      38.397   5.336  44.278  1.00  0.00     0.184 C 
ATOM     32  C   UNL     1      37.642   6.573  44.802  1.00  0.00     0.178 C 
ATOM     33  C   UNL     1      38.448   5.348  42.755  1.00  0.00     0.180 C 
ATOM     34  O   UNL     1      38.250   7.797  44.413  1.00  0.00    -0.342 OA
ATOM     35  C   UNL     1      39.133   6.658  42.305  1.00  0.00     0.201 C 
ATOM     36  C   UNL     1      38.586   7.934  43.010  1.00  0.00     0.279 C 
BRANCH  32  37
ATOM     37  C   UNL     1      36.094   6.613  44.602  1.00  0.00     0.191 C 
BRANCH  37  38
ATOM     38  O   UNL     1      35.401   5.910  45.618  1.00  0.00    -0.394 OA
ATOM     39  H   UNL     1      34.609   5.445  45.223  1.00  0.00     0.210 HD
ENDBRANCH  37  38
ENDBRANCH  32  37
BRANCH  33  40
ATOM     40  O   UNL     1      37.161   5.177  42.210  1.00  0.00    -0.387 OA
ATOM     41  H   UNL     1      37.229   5.306  41.227  1.00  0.00     0.211 HD
ENDBRANCH  33  40
BRANCH  35  42
ATOM     42  O   UNL     1      39.109   6.806  40.901  1.00  0.00    -0.385 OA
ATOM     43  H   UNL     1      39.447   7.723  40.698  1.00  0.00     0.211 HD
ENDBRANCH  35  42
BRANCH  36  44
ATOM     44  O   UNL     1      37.559   8.606  42.309  1.00  0.00    -0.366 OA
ATOM     45  H   UNL     1      37.886   9.514  42.039  1.00  0.00     0.213 HD
ENDBRANCH  36  44
ENDBRANCH  30  31
ENDBRANCH   4  30
TORSDOF 18
ENDMDL
MODEL 2
REMARK VINA RESULT:    -6.058      3.053      5.241
REMARK INTER + INTRA:         -12.725
REMARK INTER:                 -10.120
REMARK INTRA:                  -2.605
REMARK UNBOUND:                -2.239
REMARK SMILES OC[C@@H]1O[C@H](O)[C@H](O)[C@H](O)[C@@H]1O[C@@H]1O[C@H](CO)[C@@H](O[C@H]2O[C@H](CO)[C@H](O)[C@@H](O)[C@H]2O)[C@@H](O)[C@@H]1O
REMARK SMILES IDX 18 1 15 2 14 3 13 4 33 5 31 6 19 7 20 8 22 9 25 10 21 11
REMARK SMILES IDX 27 12 29 13 23 14 24 15 26 17 28 19 30 21 16 23 17 24 32 26
REMARK SMILES IDX 34 28 12 30 11 31 3 32 9 33 4 34 7 35 5 36 2 37 1 38 10 40
REMARK SMILES IDX 8 42 6 44
REMARK H PARENT 24 16 26 18 28 20 30 22 17 25 32 27 34 29 1 39 10 41 8 43 6 45
REMARK Flexibility Score: inf
ROOT
ATOM      1  C   UNL     1      38.771   1.592  40.103  1.00  0.00     0.184 C 
ATOM      2  C   UNL     1      38.222   1.618  41.545  1.00  0.00     0.178 C 
ATOM      3  O   UNL     1      37.070   2.449  41.677  1.00  0.00    -0.341 OA
ATOM      4  C   UNL     1      37.236   3.795  41.227  1.00  0.00     0.282 C 
ATOM      5  C   UNL     1      37.844   3.888  39.806  1.00  0.00     0.202 C 
ATOM      6  C   UNL     1      39.122   3.033  39.692  1.00  0.00     0.180 C 
ENDROOT
BRANCH   1   7
ATOM      7  O   UNL     1      37.737   1.077  39.277  1.00  0.00    -0.341 OA
BRANCH   7   8
ATOM      8  C   UNL     1      37.852  -0.317  39.020  1.00  0.00     0.282 C 
ATOM      9  C   UNL     1      35.550  -0.579  38.586  1.00  0.00     0.178 C 
ATOM     10  C   UNL     1      35.790  -0.970  37.102  1.00  0.00     0.177 C 
ATOM     11  O   UNL     1      36.645  -0.982  39.397  1.00  0.00    -0.341 OA
ATOM     12  C   UNL     1      37.014  -0.184  36.597  1.00  0.00     0.179 C 
ATOM     13  C   UNL     1      38.207  -0.523  37.522  1.00  0.00     0.202 C 
BRANCH   9  14
ATOM     14  C   UNL     1      34.258  -1.182  39.138  1.00  0.00     0.191 C 
BRANCH  14  15
ATOM     15  O   UNL     1      33.434  -1.613  38.086  1.00  0.00    -0.394 OA
ATOM     16  H   UNL     1      33.313  -2.596  38.188  1.00  0.00     0.210 HD
ENDBRANCH  14  15
ENDBRANCH   9  14
BRANCH  10  17
ATOM     17  O   UNL     1      36.009  -2.358  36.916  1.00  0.00    -0.387 OA
ATOM     18  H   UNL     1      36.825  -2.503  36.360  1.00  0.00     0.211 HD
ENDBRANCH  10  17
BRANCH  12  19
ATOM     19  O   UNL     1      36.746   1.196  36.626  1.00  0.00    -0.387 OA
ATOM     20  H   UNL     1      36.460   1.418  37.552  1.00  0.00     0.211 HD
ENDBRANCH  12  19
BRANCH  13  21
ATOM     21  O   UNL     1      39.398   0.178  37.198  1.00  0.00    -0.385 OA
ATOM     22  H   UNL     1      40.100   0.005  37.890  1.00  0.00     0.211 HD
ENDBRANCH  13  21
ENDBRANCH   7   8
ENDBRANCH   1   7
BRANCH   2  23
ATOM     23  C   UNL     1      39.309   1.889  42.608  1.00  0.00     0.191 C 
BRANCH  23  24
ATOM     24  O   UNL     1      38.723   2.163  43.850  1.00  0.00    -0.394 OA
ATOM     25  H   UNL     1      37.816   1.760  43.843  1.00  0.00     0.210 HD
ENDBRANCH  23  24
ENDBRANCH   2  23
BRANCH   6  26
ATOM     26  O   UNL     1      39.609   3.092  38.378  1.00  0.00    -0.387 OA
ATOM     27  H   UNL     1      39.599   2.175  38.014  1.00  0.00     0.211 HD
ENDBRANCH   6  26
BRANCH   5  28
ATOM     28  O   UNL     1      38.078   5.227  39.436  1.00  0.00    -0.385 OA
ATOM     29  H   UNL     1      38.027   5.783  40.256  1.00  0.00     0.211 HD
ENDBRANCH   5  28
BRANCH   4  30
ATOM     30  O   UNL     1      38.019   4.524  42.159  1.00  0.00    -0.341 OA
BRANCH  30  31
ATOM     31  C   UNL     1      37.343   5.604  42.777  1.00  0.00     0.184 C 
ATOM     32  C   UNL     1      38.349   6.699  43.184  1.00  0.00     0.178 C 
ATOM     33  C   UNL     1      36.551   5.133  43.990  1.00  0.00     0.180 C 
ATOM     34  O   UNL     1      37.723   7.844  43.745  1.00  0.00    -0.342 OA
ATOM     35  C   UNL     1      35.834   6.356  44.604  1.00  0.00     0.201 C 
ATOM     36  C   UNL     1      36.751   7.600  44.792  1.00  0.00     0.279 C 
BRANCH  32  37
ATOM     37  C   UNL     1      39.596   6.261  44.015  1.00  0.00     0.191 C 
BRANCH  37  38
ATOM     38  O   UNL     1      39.968   4.918  43.762  1.00  0.00    -0.394 OA
ATOM     39  H   UNL     1      39.876   4.381  44.600  1.00  0.00     0.210 HD
ENDBRANCH  37  38
ENDBRANCH  32  37
BRANCH  33  40
ATOM     40  O   UNL     1      37.385   4.460  44.903  1.00  0.00    -0.387 OA
ATOM     41  H   UNL     1      37.315   3.486  44.717  1.00  0.00     0.211 HD
ENDBRANCH  33  40
BRANCH  35  42
ATOM     42  O   UNL     1      35.175   6.027  45.808  1.00  0.00    -0.385 OA
ATOM     43  H   UNL     1      35.658   6.497  46.544  1.00  0.00     0.211 HD
ENDBRANCH  35  42
BRANCH  36  44
ATOM     44  O   UNL     1      37.348   7.711  46.069  1.00  0.00    -0.366 OA
ATOM     45  H   UNL     1      38.207   7.197  46.074  1.00  0.00     0.213 HD
ENDBRANCH  36  44
ENDBRANCH  30  31
ENDBRANCH   4  30
TORSDOF 18
ENDMDL
MODEL 3
REMARK VINA RESULT:    -5.554      2.873      8.526
REMARK INTER + INTRA:         -11.851
REMARK INTER:                  -9.453
REMARK INTRA:                  -2.398
REMARK UNBOUND:                -2.239
REMARK SMILES OC[C@@H]1O[C@H](O)[C@H](O)[C@H](O)[C@@H]1O[C@@H]1O[C@H](CO)[C@@H](O[C@H]2O[C@H](CO)[C@H](O)[C@@H](O)[C@H]2O)[C@@H](O)[C@@H]1O
REMARK SMILES IDX 18 1 15 2 14 3 13 4 33 5 31 6 19 7 20 8 22 9 25 10 21 11
REMARK SMILES IDX 27 12 29 13 23 14 24 15 26 17 28 19 30 21 16 23 17 24 32 26
REMARK SMILES IDX 34 28 12 30 11 31 3 32 9 33 4 34 7 35 5 36 2 37 1 38 10 40
REMARK SMILES IDX 8 42 6 44
REMARK H PARENT 24 16 26 18 28 20 30 22 17 25 32 27 34 29 1 39 10 41 8 43 6 45
REMARK Flexibility Score: inf
ROOT
ATOM      1  C   UNL     1      35.857   1.865  42.561  1.00  0.00     0.184 C 
ATOM      2  C   UNL     1      36.804   0.661  42.371  1.00  0.00     0.178 C 
ATOM      3  O   UNL     1      37.594   0.768  41.188  1.00  0.00    -0.341 OA
ATOM      4  C   UNL     1      36.855   0.964  39.979  1.00  0.00     0.282 C 
ATOM      5  C   UNL     1      35.823   2.113  40.080  1.00  0.00     0.202 C 
ATOM      6  C   UNL     1      34.936   1.955  41.332  1.00  0.00     0.180 C 
ENDROOT
BRANCH   1   7
ATOM      7  O   UNL     1      36.674   3.023  42.658  1.00  0.00    -0.341 OA
BRANCH   7   8
ATOM      8  C   UNL     1      36.892   3.456  43.994  1.00  0.00     0.282 C 
ATOM      9  C   UNL     1      38.157   5.334  43.335  1.00  0.00     0.178 C 
ATOM     10  C   UNL     1      37.112   6.337  43.893  1.00  0.00     0.177 C 
ATOM     11  O   UNL     1      38.150   4.129  44.087  1.00  0.00    -0.341 OA
ATOM     12  C   UNL     1      35.714   5.719  43.706  1.00  0.00     0.179 C 
ATOM     13  C   UNL     1      35.701   4.353  44.431  1.00  0.00     0.202 C 
BRANCH   9  14
ATOM     14  C   UNL     1      39.569   5.920  43.324  1.00  0.00     0.191 C 
BRANCH  14  15
ATOM     15  O   UNL     1      40.089   5.961  44.628  1.00  0.00    -0.394 OA
ATOM     16  H   UNL     1      39.484   5.420  45.206  1.00  0.00     0.210 HD
ENDBRANCH  14  15
ENDBRANCH   9  14
BRANCH  10  17
ATOM     17  O   UNL     1      37.311   6.652  45.261  1.00  0.00    -0.387 OA
ATOM     18  H   UNL     1      36.848   5.980  45.836  1.00  0.00     0.211 HD
ENDBRANCH  10  17
BRANCH  12  19
ATOM     19  O   UNL     1      35.440   5.553  42.337  1.00  0.00    -0.387 OA
ATOM     20  H   UNL     1      34.766   4.826  42.261  1.00  0.00     0.211 HD
ENDBRANCH  12  19
BRANCH  13  21
ATOM     21  O   UNL     1      34.478   3.645  44.295  1.00  0.00    -0.385 OA
ATOM     22  H   UNL     1      33.760   4.258  43.965  1.00  0.00     0.211 HD
ENDBRANCH  13  21
ENDBRANCH   7   8
ENDBRANCH   1   7
BRANCH   2  23
ATOM     23  C   UNL     1      36.098  -0.703  42.527  1.00  0.00     0.191 C 
BRANCH  23  24
ATOM     24  O   UNL     1      36.906  -1.733  42.030  1.00  0.00    -0.394 OA
ATOM     25  H   UNL     1      37.113  -1.514  41.084  1.00  0.00     0.210 HD
ENDBRANCH  23  24
ENDBRANCH   2  23
BRANCH   6  26
ATOM     26  O   UNL     1      34.056   3.044  41.423  1.00  0.00    -0.387 OA
ATOM     27  H   UNL     1      33.369   2.932  40.723  1.00  0.00     0.211 HD
ENDBRANCH   6  26
BRANCH   5  28
ATOM     28  O   UNL     1      35.053   2.215  38.905  1.00  0.00    -0.385 OA
ATOM     29  H   UNL     1      34.604   1.342  38.760  1.00  0.00     0.211 HD
ENDBRANCH   5  28
BRANCH   4  30
ATOM     30  O   UNL     1      36.224  -0.247  39.596  1.00  0.00    -0.341 OA
BRANCH  30  31
ATOM     31  C   UNL     1      36.658  -0.768  38.352  1.00  0.00     0.184 C 
ATOM     32  C   UNL     1      35.464  -0.898  37.385  1.00  0.00     0.178 C 
ATOM     33  C   UNL     1      37.347  -2.115  38.532  1.00  0.00     0.180 C 
ATOM     34  O   UNL     1      35.848  -1.348  36.093  1.00  0.00    -0.342 OA
ATOM     35  C   UNL     1      37.801  -2.615  37.142  1.00  0.00     0.201 C 
ATOM     36  C   UNL     1      36.702  -2.517  36.043  1.00  0.00     0.279 C 
BRANCH  32  37
ATOM     37  C   UNL     1      34.195  -1.647  37.901  1.00  0.00     0.191 C 
BRANCH  37  38
ATOM     38  O   UNL     1      33.840  -1.263  39.217  1.00  0.00    -0.394 OA
ATOM     39  H   UNL     1      33.568  -2.070  39.740  1.00  0.00     0.210 HD
ENDBRANCH  37  38
ENDBRANCH  32  37
BRANCH  33  40
ATOM     40  O   UNL     1      36.505  -3.023  39.202  1.00  0.00    -0.387 OA
ATOM     41  H   UNL     1      37.054  -3.506  39.875  1.00  0.00     0.211 HD
ENDBRANCH  33  40
BRANCH  35  42
ATOM     42  O   UNL     1      38.340  -3.918  37.204  1.00  0.00    -0.385 OA
ATOM     43  H   UNL     1      37.570  -4.553  37.194  1.00  0.00     0.211 HD
ENDBRANCH  35  42
BRANCH  36  44
ATOM     44  O   UNL     1      35.937  -3.692  35.861  1.00  0.00    -0.366 OA
ATOM     45  H   UNL     1      35.949  -4.225  36.709  1.00  0.00     0.213 HD
ENDBRANCH  36  44
ENDBRANCH  30  31
ENDBRANCH   4  30
TORSDOF 18
ENDMDL
MODEL 4
REMARK VINA RESULT:    -5.496      2.943      7.763
REMARK INTER + INTRA:         -11.751
REMARK INTER:                  -9.588
REMARK INTRA:                  -2.164
REMARK UNBOUND:                -2.239
REMARK SMILES OC[C@@H]1O[C@H](O)[C@H](O)[C@H](O)[C@@H]1O[C@@H]1O[C@H](CO)[C@@H](O[C@H]2O[C@H](CO)[C@H](O)[C@@H](O)[C@H]2O)[C@@H](O)[C@@H]1O
REMARK SMILES IDX 18 1 15 2 14 3 13 4 33 5 31 6 19 7 20 8 22 9 25 10 21 11
REMARK SMILES IDX 27 12 29 13 23 14 24 15 26 17 28 19 30 21 16 23 17 24 32 26
REMARK SMILES IDX 34 28 12 30 11 31 3 32 9 33 4 34 7 35 5 36 2 37 1 38 10 40
REMARK SMILES IDX 8 42 6 44
REMARK H PARENT 24 16 26 18 28 20 30 22 17 25 32 27 34 29 1 39 10 41 8 43 6 45
REMARK Flexibility Score: inf
ROOT
ATOM      1  C   UNL     1      36.246   1.909  42.447  1.00  0.00     0.184 C 
ATOM      2  C   UNL     1      36.090   0.385  42.267  1.00  0.00     0.178 C 
ATOM      3  O   UNL     1      37.147  -0.187  41.499  1.00  0.00    -0.341 OA
ATOM      4  C   UNL     1      37.355   0.406  40.215  1.00  0.00     0.282 C 
ATOM      5  C   UNL     1      37.463   1.949  40.271  1.00  0.00     0.202 C 
ATOM      6  C   UNL     1      36.283   2.561  41.054  1.00  0.00     0.180 C 
ENDROOT
BRANCH   1   7
ATOM      7  O   UNL     1      37.474   2.121  43.129  1.00  0.00    -0.341 OA
BRANCH   7   8
ATOM      8  C   UNL     1      37.360   2.058  44.544  1.00  0.00     0.282 C 
ATOM      9  C   UNL     1      39.248   0.664  44.782  1.00  0.00     0.178 C 
ATOM     10  C   UNL     1      40.045   1.741  45.568  1.00  0.00     0.177 C 
ATOM     11  O   UNL     1      37.852   0.802  45.016  1.00  0.00    -0.341 OA
ATOM     12  C   UNL     1      39.648   3.122  45.017  1.00  0.00     0.179 C 
ATOM     13  C   UNL     1      38.115   3.267  45.163  1.00  0.00     0.202 C 
BRANCH   9  14
ATOM     14  C   UNL     1      39.688  -0.754  45.142  1.00  0.00     0.191 C 
BRANCH  14  15
ATOM     15  O   UNL     1      39.136  -1.138  46.375  1.00  0.00    -0.394 OA
ATOM     16  H   UNL     1      39.800  -0.909  47.081  1.00  0.00     0.210 HD
ENDBRANCH  14  15
ENDBRANCH   9  14
BRANCH  10  17
ATOM     17  O   UNL     1      39.810   1.704  46.966  1.00  0.00    -0.387 OA
ATOM     18  H   UNL     1      40.055   0.807  47.330  1.00  0.00     0.211 HD
ENDBRANCH  10  17
BRANCH  12  19
ATOM     19  O   UNL     1      40.026   3.228  43.666  1.00  0.00    -0.387 OA
ATOM     20  H   UNL     1      40.124   4.198  43.467  1.00  0.00     0.211 HD
ENDBRANCH  12  19
BRANCH  13  21
ATOM     21  O   UNL     1      37.603   4.484  44.642  1.00  0.00    -0.385 OA
ATOM     22  H   UNL     1      37.162   5.012  45.368  1.00  0.00     0.211 HD
ENDBRANCH  13  21
ENDBRANCH   7   8
ENDBRANCH   1   7
BRANCH   2  23
ATOM     23  C   UNL     1      34.681  -0.034  41.794  1.00  0.00     0.191 C 
BRANCH  23  24
ATOM     24  O   UNL     1      33.696   0.654  42.514  1.00  0.00    -0.394 OA
ATOM     25  H   UNL     1      32.856   0.131  42.437  1.00  0.00     0.210 HD
ENDBRANCH  23  24
ENDBRANCH   2  23
BRANCH   6  26
ATOM     26  O   UNL     1      36.446   3.951  41.136  1.00  0.00    -0.387 OA
ATOM     27  H   UNL     1      37.329   4.125  41.542  1.00  0.00     0.211 HD
ENDBRANCH   6  26
BRANCH   5  28
ATOM     28  O   UNL     1      37.574   2.503  38.980  1.00  0.00    -0.385 OA
ATOM     29  H   UNL     1      36.692   2.413  38.534  1.00  0.00     0.211 HD
ENDBRANCH   5  28
BRANCH   4  30
ATOM     30  O   UNL     1      36.326   0.005  39.324  1.00  0.00    -0.341 OA
BRANCH  30  31
ATOM     31  C   UNL     1      36.472  -1.307  38.810  1.00  0.00     0.184 C 
ATOM     32  C   UNL     1      37.257  -1.275  37.484  1.00  0.00     0.178 C 
ATOM     33  C   UNL     1      35.115  -1.971  38.610  1.00  0.00     0.180 C 
ATOM     34  O   UNL     1      37.500  -2.571  36.955  1.00  0.00    -0.342 OA
ATOM     35  C   UNL     1      35.352  -3.396  38.061  1.00  0.00     0.201 C 
ATOM     36  C   UNL     1      36.359  -3.460  36.875  1.00  0.00     0.279 C 
BRANCH  32  37
ATOM     37  C   UNL     1      36.769  -0.286  36.380  1.00  0.00     0.191 C 
BRANCH  37  38
ATOM     38  O   UNL     1      37.064   1.064  36.696  1.00  0.00    -0.394 OA
ATOM     39  H   UNL     1      37.980   1.123  37.090  1.00  0.00     0.210 HD
ENDBRANCH  37  38
ENDBRANCH  32  37
BRANCH  33  40
ATOM     40  O   UNL     1      34.291  -1.186  37.782  1.00  0.00    -0.387 OA
ATOM     41  H   UNL     1      33.863  -1.790  37.119  1.00  0.00     0.211 HD
ENDBRANCH  33  40
BRANCH  35  42
ATOM     42  O   UNL     1      34.139  -4.038  37.730  1.00  0.00    -0.385 OA
ATOM     43  H   UNL     1      33.422  -3.605  38.273  1.00  0.00     0.211 HD
ENDBRANCH  35  42
BRANCH  36  44
ATOM     44  O   UNL     1      35.769  -3.409  35.591  1.00  0.00    -0.366 OA
ATOM     45  H   UNL     1      34.833  -3.063  35.675  1.00  0.00     0.213 HD
ENDBRANCH  36  44
ENDBRANCH  30  31
ENDBRANCH   4  30
TORSDOF 18
ENDMDL
MODEL 5
REMARK VINA RESULT:    -5.444      2.802      5.071
REMARK INTER + INTRA:         -11.661
REMARK INTER:                  -9.954
REMARK INTRA:                  -1.707
REMARK UNBOUND:                -2.239
REMARK SMILES OC[C@@H]1O[C@H](O)[C@H](O)[C@H](O)[C@@H]1O[C@@H]1O[C@H](CO)[C@@H](O[C@H]2O[C@H](CO)[C@H](O)[C@@H](O)[C@H]2O)[C@@H](O)[C@@H]1O
REMARK SMILES IDX 18 1 15 2 14 3 13 4 33 5 31 6 19 7 20 8 22 9 25 10 21 11
REMARK SMILES IDX 27 12 29 13 23 14 24 15 26 17 28 19 30 21 16 23 17 24 32 26
REMARK SMILES IDX 34 28 12 30 11 31 3 32 9 33 4 34 7 35 5 36 2 37 1 38 10 40
REMARK SMILES IDX 8 42 6 44
REMARK H PARENT 24 16 26 18 28 20 30 22 17 25 32 27 34 29 1 39 10 41 8 43 6 45
REMARK Flexibility Score: inf
ROOT
ATOM      1  C   UNL     1      35.487  -0.845  41.002  1.00  0.00     0.184 C 
ATOM      2  C   UNL     1      35.045   0.631  40.926  1.00  0.00     0.178 C 
ATOM      3  O   UNL     1      36.149   1.528  40.807  1.00  0.00    -0.341 OA
ATOM      4  C   UNL     1      37.147   1.401  41.822  1.00  0.00     0.282 C 
ATOM      5  C   UNL     1      37.619  -0.059  42.028  1.00  0.00     0.202 C 
ATOM      6  C   UNL     1      36.420  -1.010  42.214  1.00  0.00     0.180 C 
ENDROOT
BRANCH   1   7
ATOM      7  O   UNL     1      36.181  -1.132  39.797  1.00  0.00    -0.341 OA
BRANCH   7   8
ATOM      8  C   UNL     1      35.401  -0.929  38.626  1.00  0.00     0.282 C 
ATOM      9  C   UNL     1      37.099   0.277  37.522  1.00  0.00     0.178 C 
ATOM     10  C   UNL     1      37.259  -0.800  36.415  1.00  0.00     0.177 C 
ATOM     11  O   UNL     1      35.764   0.306  38.007  1.00  0.00    -0.341 OA
ATOM     12  C   UNL     1      37.001  -2.177  37.053  1.00  0.00     0.179 C 
ATOM     13  C   UNL     1      35.588  -2.149  37.682  1.00  0.00     0.202 C 
BRANCH   9  14
ATOM     14  C   UNL     1      37.494   1.670  37.030  1.00  0.00     0.191 C 
BRANCH  14  15
ATOM     15  O   UNL     1      36.847   2.657  37.792  1.00  0.00    -0.394 OA
ATOM     16  H   UNL     1      37.461   2.906  38.536  1.00  0.00     0.210 HD
ENDBRANCH  14  15
ENDBRANCH   9  14
BRANCH  10  17
ATOM     17  O   UNL     1      36.379  -0.614  35.319  1.00  0.00    -0.387 OA
ATOM     18  H   UNL     1      35.465  -0.937  35.557  1.00  0.00     0.211 HD
ENDBRANCH  10  17
BRANCH  12  19
ATOM     19  O   UNL     1      37.971  -2.443  38.035  1.00  0.00    -0.387 OA
ATOM     20  H   UNL     1      37.567  -3.084  38.679  1.00  0.00     0.211 HD
ENDBRANCH  12  19
BRANCH  13  21
ATOM     21  O   UNL     1      35.237  -3.349  38.355  1.00  0.00    -0.385 OA
ATOM     22  H   UNL     1      34.589  -3.155  39.092  1.00  0.00     0.211 HD
ENDBRANCH  13  21
ENDBRANCH   7   8
ENDBRANCH   1   7
BRANCH   2  23
ATOM     23  C   UNL     1      34.040   1.027  42.029  1.00  0.00     0.191 C 
BRANCH  23  24
ATOM     24  O   UNL     1      33.687   2.377  41.911  1.00  0.00    -0.394 OA
ATOM     25  H   UNL     1      34.154   2.867  42.637  1.00  0.00     0.210 HD
ENDBRANCH  23  24
ENDBRANCH   2  23
BRANCH   6  26
ATOM     26  O   UNL     1      36.882  -2.329  42.337  1.00  0.00    -0.387 OA
ATOM     27  H   UNL     1      36.973  -2.525  43.300  1.00  0.00     0.211 HD
ENDBRANCH   6  26
BRANCH   5  28
ATOM     28  O   UNL     1      38.533  -0.157  43.097  1.00  0.00    -0.385 OA
ATOM     29  H   UNL     1      38.020  -0.079  43.942  1.00  0.00     0.211 HD
ENDBRANCH   5  28
BRANCH   4  30
ATOM     30  O   UNL     1      36.672   1.953  43.039  1.00  0.00    -0.341 OA
BRANCH  30  31
ATOM     31  C   UNL     1      36.707   3.368  43.096  1.00  0.00     0.184 C 
ATOM     32  C   UNL     1      38.164   3.860  43.214  1.00  0.00     0.178 C 
ATOM     33  C   UNL     1      35.873   3.891  44.259  1.00  0.00     0.180 C 
ATOM     34  O   UNL     1      38.271   5.277  43.202  1.00  0.00    -0.342 OA
ATOM     35  C   UNL     1      35.948   5.435  44.251  1.00  0.00     0.201 C 
ATOM     36  C   UNL     1      37.392   5.998  44.099  1.00  0.00     0.279 C 
BRANCH  32  37
ATOM     37  C   UNL     1      39.051   3.227  44.331  1.00  0.00     0.191 C 
BRANCH  37  38
ATOM     38  O   UNL     1      40.120   4.073  44.715  1.00  0.00    -0.394 OA
ATOM     39  H   UNL     1      40.978   3.719  44.344  1.00  0.00     0.210 HD
ENDBRANCH  37  38
ENDBRANCH  32  37
BRANCH  33  40
ATOM     40  O   UNL     1      36.294   3.319  45.474  1.00  0.00    -0.387 OA
ATOM     41  H   UNL     1      36.637   4.052  46.051  1.00  0.00     0.211 HD
ENDBRANCH  33  40
BRANCH  35  42
ATOM     42  O   UNL     1      35.301   5.996  45.373  1.00  0.00    -0.385 OA
ATOM     43  H   UNL     1      35.977   6.550  45.854  1.00  0.00     0.211 HD
ENDBRANCH  35  42
BRANCH  36  44
ATOM     44  O   UNL     1      38.046   6.291  45.318  1.00  0.00    -0.366 OA
ATOM     45  H   UNL     1      37.460   6.010  46.080  1.00  0.00     0.213 HD
ENDBRANCH  36  44
ENDBRANCH  30  31
ENDBRANCH   4  30
TORSDOF 18
ENDMDL
MODEL 6
REMARK VINA RESULT:    -5.317      2.624      4.239
REMARK INTER + INTRA:         -11.441
REMARK INTER:                  -9.108
REMARK INTRA:                  -2.333
REMARK UNBOUND:                -2.239
REMARK SMILES OC[C@@H]1O[C@H](O)[C@H](O)[C@H](O)[C@@H]1O[C@@H]1O[C@H](CO)[C@@H](O[C@H]2O[C@H](CO)[C@H](O)[C@@H](O)[C@H]2O)[C@@H](O)[C@@H]1O
REMARK SMILES IDX 18 1 15 2 14 3 13 4 33 5 31 6 19 7 20 8 22 9 25 10 21 11
REMARK SMILES IDX 27 12 29 13 23 14 24 15 26 17 28 19 30 21 16 23 17 24 32 26
REMARK SMILES IDX 34 28 12 30 11 31 3 32 9 33 4 34 7 35 5 36 2 37 1 38 10 40
REMARK SMILES IDX 8 42 6 44
REMARK H PARENT 24 16 26 18 28 20 30 22 17 25 32 27 34 29 1 39 10 41 8 43 6 45
REMARK Flexibility Score: inf
ROOT
ATOM      1  C   UNL     1      35.468  -0.273  41.245  1.00  0.00     0.184 C 
ATOM      2  C   UNL     1      35.331   1.203  40.815  1.00  0.00     0.178 C 
ATOM      3  O   UNL     1      36.591   1.868  40.731  1.00  0.00    -0.341 OA
ATOM      4  C   UNL     1      37.390   1.809  41.915  1.00  0.00     0.282 C 
ATOM      5  C   UNL     1      37.540   0.373  42.473  1.00  0.00     0.202 C 
ATOM      6  C   UNL     1      36.167  -0.315  42.615  1.00  0.00     0.180 C 
ENDROOT
BRANCH   1   7
ATOM      7  O   UNL     1      36.262  -0.918  40.260  1.00  0.00    -0.341 OA
BRANCH   7   8
ATOM      8  C   UNL     1      35.595  -1.100  39.018  1.00  0.00     0.282 C 
ATOM      9  C   UNL     1      37.175   0.172  37.815  1.00  0.00     0.178 C 
ATOM     10  C   UNL     1      37.641  -1.049  36.976  1.00  0.00     0.177 C 
ATOM     11  O   UNL     1      35.808   0.039  38.181  1.00  0.00    -0.341 OA
ATOM     12  C   UNL     1      37.553  -2.300  37.869  1.00  0.00     0.179 C 
ATOM     13  C   UNL     1      36.094  -2.421  38.370  1.00  0.00     0.202 C 
BRANCH   9  14
ATOM     14  C   UNL     1      37.377   1.492  37.072  1.00  0.00     0.191 C 
BRANCH  14  15
ATOM     15  O   UNL     1      36.715   2.535  37.741  1.00  0.00    -0.394 OA
ATOM     16  H   UNL     1      36.480   3.222  37.060  1.00  0.00     0.210 HD
ENDBRANCH  14  15
ENDBRANCH   9  14
BRANCH  10  17
ATOM     17  O   UNL     1      36.872  -1.250  35.803  1.00  0.00    -0.387 OA
ATOM     18  H   UNL     1      36.328  -2.083  35.889  1.00  0.00     0.211 HD
ENDBRANCH  10  17
BRANCH  12  19
ATOM     19  O   UNL     1      38.438  -2.179  38.955  1.00  0.00    -0.387 OA
ATOM     20  H   UNL     1      38.634  -3.101  39.274  1.00  0.00     0.211 HD
ENDBRANCH  12  19
BRANCH  13  21
ATOM     21  O   UNL     1      35.881  -3.512  39.252  1.00  0.00    -0.385 OA
ATOM     22  H   UNL     1      34.933  -3.517  39.572  1.00  0.00     0.211 HD
ENDBRANCH  13  21
ENDBRANCH   7   8
ENDBRANCH   1   7
BRANCH   2  23
ATOM     23  C   UNL     1      34.271   1.981  41.624  1.00  0.00     0.191 C 
BRANCH  23  24
ATOM     24  O   UNL     1      34.317   3.345  41.312  1.00  0.00    -0.394 OA
ATOM     25  H   UNL     1      34.746   3.808  42.078  1.00  0.00     0.210 HD
ENDBRANCH  23  24
ENDBRANCH   2  23
BRANCH   6  26
ATOM     26  O   UNL     1      36.347  -1.632  43.064  1.00  0.00    -0.387 OA
ATOM     27  H   UNL     1      36.260  -1.626  44.048  1.00  0.00     0.211 HD
ENDBRANCH   6  26
BRANCH   5  28
ATOM     28  O   UNL     1      38.254   0.367  43.688  1.00  0.00    -0.385 OA
ATOM     29  H   UNL     1      38.817   1.184  43.713  1.00  0.00     0.211 HD
ENDBRANCH   5  28
BRANCH   4  30
ATOM     30  O   UNL     1      36.858   2.679  42.901  1.00  0.00    -0.341 OA
BRANCH  30  31
ATOM     31  C   UNL     1      37.621   3.852  43.123  1.00  0.00     0.184 C 
ATOM     32  C   UNL     1      36.944   4.732  44.192  1.00  0.00     0.178 C 
ATOM     33  C   UNL     1      37.811   4.635  41.830  1.00  0.00     0.180 C 
ATOM     34  O   UNL     1      37.701   5.892  44.513  1.00  0.00    -0.342 OA
ATOM     35  C   UNL     1      38.658   5.889  42.145  1.00  0.00     0.201 C 
ATOM     36  C   UNL     1      38.175   6.683  43.395  1.00  0.00     0.279 C 
BRANCH  32  37
ATOM     37  C   UNL     1      35.432   5.069  43.999  1.00  0.00     0.191 C 
BRANCH  37  38
ATOM     38  O   UNL     1      34.593   3.961  44.271  1.00  0.00    -0.394 OA
ATOM     39  H   UNL     1      35.132   3.227  44.684  1.00  0.00     0.210 HD
ENDBRANCH  37  38
ENDBRANCH  32  37
BRANCH  33  40
ATOM     40  O   UNL     1      36.569   4.936  41.240  1.00  0.00    -0.387 OA
ATOM     41  H   UNL     1      35.925   5.132  41.972  1.00  0.00     0.211 HD
ENDBRANCH  33  40
BRANCH  35  42
ATOM     42  O   UNL     1      38.776   6.737  41.022  1.00  0.00    -0.385 OA
ATOM     43  H   UNL     1      37.897   7.195  40.909  1.00  0.00     0.211 HD
ENDBRANCH  35  42
BRANCH  36  44
ATOM     44  O   UNL     1      37.286   7.746  43.117  1.00  0.00    -0.366 OA
ATOM     45  H   UNL     1      37.814   8.557  42.862  1.00  0.00     0.213 HD
ENDBRANCH  36  44
ENDBRANCH  30  31
ENDBRANCH   4  30
TORSDOF 18
ENDMDL
MODEL 7
REMARK VINA RESULT:    -5.315      2.975      7.579
REMARK INTER + INTRA:         -11.438
REMARK INTER:                  -9.588
REMARK INTRA:                  -1.850
REMARK UNBOUND:                -2.239
REMARK SMILES OC[C@@H]1O[C@H](O)[C@H](O)[C@H](O)[C@@H]1O[C@@H]1O[C@H](CO)[C@@H](O[C@H]2O[C@H](CO)[C@H](O)[C@@H](O)[C@H]2O)[C@@H](O)[C@@H]1O
REMARK SMILES IDX 18 1 15 2 14 3 13 4 33 5 31 6 19 7 20 8 22 9 25 10 21 11
REMARK SMILES IDX 27 12 29 13 23 14 24 15 26 17 28 19 30 21 16 23 17 24 32 26
REMARK SMILES IDX 34 28 12 30 11 31 3 32 9 33 4 34 7 35 5 36 2 37 1 38 10 40
REMARK SMILES IDX 8 42 6 44
REMARK H PARENT 24 16 26 18 28 20 30 22 17 25 32 27 34 29 1 39 10 41 8 43 6 45
REMARK Flexibility Score: inf
ROOT
ATOM      1  C   UNL     1      36.221  -0.487  43.311  1.00  0.00     0.184 C 
ATOM      2  C   UNL     1      37.391  -1.199  42.599  1.00  0.00     0.178 C 
ATOM      3  O   UNL     1      37.971  -0.401  41.568  1.00  0.00    -0.341 OA
ATOM      4  C   UNL     1      37.055   0.075  40.579  1.00  0.00     0.282 C 
ATOM      5  C   UNL     1      35.805   0.754  41.189  1.00  0.00     0.202 C 
ATOM      6  C   UNL     1      35.152  -0.143  42.260  1.00  0.00     0.180 C 
ENDROOT
BRANCH   1   7
ATOM      7  O   UNL     1      36.749   0.697  43.891  1.00  0.00    -0.341 OA
BRANCH   7   8
ATOM      8  C   UNL     1      36.805   0.661  45.311  1.00  0.00     0.282 C 
ATOM      9  C   UNL     1      39.111   0.169  45.355  1.00  0.00     0.178 C 
ATOM     10  C   UNL     1      39.468   1.513  46.046  1.00  0.00     0.177 C 
ATOM     11  O   UNL     1      37.810  -0.261  45.735  1.00  0.00    -0.341 OA
ATOM     12  C   UNL     1      38.490   2.585  45.532  1.00  0.00     0.179 C 
ATOM     13  C   UNL     1      37.054   2.101  45.839  1.00  0.00     0.202 C 
BRANCH   9  14
ATOM     14  C   UNL     1      40.125  -0.929  45.674  1.00  0.00     0.191 C 
BRANCH  14  15
ATOM     15  O   UNL     1      39.464  -2.101  46.079  1.00  0.00    -0.394 OA
ATOM     16  H   UNL     1      40.044  -2.870  45.829  1.00  0.00     0.210 HD
ENDBRANCH  14  15
ENDBRANCH   9  14
BRANCH  10  17
ATOM     17  O   UNL     1      39.402   1.452  47.461  1.00  0.00    -0.387 OA
ATOM     18  H   UNL     1      39.486   2.369  47.847  1.00  0.00     0.211 HD
ENDBRANCH  10  17
BRANCH  12  19
ATOM     19  O   UNL     1      38.662   2.770  44.149  1.00  0.00    -0.387 OA
ATOM     20  H   UNL     1      37.983   2.205  43.693  1.00  0.00     0.211 HD
ENDBRANCH  12  19
BRANCH  13  21
ATOM     21  O   UNL     1      36.042   2.978  45.368  1.00  0.00    -0.385 OA
ATOM     22  H   UNL     1      35.209   2.464  45.161  1.00  0.00     0.211 HD
ENDBRANCH  13  21
ENDBRANCH   7   8
ENDBRANCH   1   7
BRANCH   2  23
ATOM     23  C   UNL     1      37.052  -2.638  42.154  1.00  0.00     0.191 C 
BRANCH  23  24
ATOM     24  O   UNL     1      36.764  -3.440  43.265  1.00  0.00    -0.394 OA
ATOM     25  H   UNL     1      37.443  -4.165  43.288  1.00  0.00     0.210 HD
ENDBRANCH  23  24
ENDBRANCH   2  23
BRANCH   6  26
ATOM     26  O   UNL     1      34.061   0.529  42.831  1.00  0.00    -0.387 OA
ATOM     27  H   UNL     1      34.245   0.631  43.796  1.00  0.00     0.211 HD
ENDBRANCH   6  26
BRANCH   5  28
ATOM     28  O   UNL     1      34.885   1.126  40.188  1.00  0.00    -0.385 OA
ATOM     29  H   UNL     1      34.694   2.093  40.295  1.00  0.00     0.211 HD
ENDBRANCH   5  28
BRANCH   4  30
ATOM     30  O   UNL     1      36.682  -0.987  39.716  1.00  0.00    -0.341 OA
BRANCH  30  31
ATOM     31  C   UNL     1      37.250  -0.917  38.420  1.00  0.00     0.184 C 
ATOM     32  C   UNL     1      36.167  -0.558  37.383  1.00  0.00     0.178 C 
ATOM     33  C   UNL     1      37.928  -2.230  38.048  1.00  0.00     0.180 C 
ATOM     34  O   UNL     1      36.689  -0.402  36.071  1.00  0.00    -0.342 OA
ATOM     35  C   UNL     1      38.531  -2.078  36.633  1.00  0.00     0.201 C 
ATOM     36  C   UNL     1      37.555  -1.460  35.590  1.00  0.00     0.279 C 
BRANCH  32  37
ATOM     37  C   UNL     1      34.857  -1.408  37.383  1.00  0.00     0.191 C 
BRANCH  37  38
ATOM     38  O   UNL     1      34.016  -1.103  38.481  1.00  0.00    -0.394 OA
ATOM     39  H   UNL     1      33.134  -0.773  38.146  1.00  0.00     0.210 HD
ENDBRANCH  37  38
ENDBRANCH  32  37
BRANCH  33  40
ATOM     40  O   UNL     1      37.028  -3.307  38.156  1.00  0.00    -0.387 OA
ATOM     41  H   UNL     1      36.112  -2.954  37.998  1.00  0.00     0.211 HD
ENDBRANCH  33  40
BRANCH  35  42
ATOM     42  O   UNL     1      39.073  -3.293  36.162  1.00  0.00    -0.385 OA
ATOM     43  H   UNL     1      39.976  -3.391  36.575  1.00  0.00     0.211 HD
ENDBRANCH  35  42
BRANCH  36  44
ATOM     44  O   UNL     1      36.824  -2.402  34.830  1.00  0.00    -0.366 OA
ATOM     45  H   UNL     1      36.833  -3.284  35.304  1.00  0.00     0.213 HD
ENDBRANCH  36  44
ENDBRANCH  30  31
ENDBRANCH   4  30
TORSDOF 18
ENDMDL
MODEL 8
REMARK VINA RESULT:    -5.308      2.587      8.297
REMARK INTER + INTRA:         -11.426
REMARK INTER:                  -8.884
REMARK INTRA:                  -2.542
REMARK UNBOUND:                -2.239
REMARK SMILES OC[C@@H]1O[C@H](O)[C@H](O)[C@H](O)[C@@H]1O[C@@H]1O[C@H](CO)[C@@H](O[C@H]2O[C@H](CO)[C@H](O)[C@@H](O)[C@H]2O)[C@@H](O)[C@@H]1O
REMARK SMILES IDX 18 1 15 2 14 3 13 4 33 5 31 6 19 7 20 8 22 9 25 10 21 11
REMARK SMILES IDX 27 12 29 13 23 14 24 15 26 17 28 19 30 21 16 23 17 24 32 26
REMARK SMILES IDX 34 28 12 30 11 31 3 32 9 33 4 34 7 35 5 36 2 37 1 38 10 40
REMARK SMILES IDX 8 42 6 44
REMARK H PARENT 24 16 26 18 28 20 30 22 17 25 32 27 34 29 1 39 10 41 8 43 6 45
REMARK Flexibility Score: inf
ROOT
ATOM      1  C   UNL     1      37.334   1.551  43.220  1.00  0.00     0.184 C 
ATOM      2  C   UNL     1      38.188   1.255  41.969  1.00  0.00     0.178 C 
ATOM      3  O   UNL     1      37.493   1.532  40.754  1.00  0.00    -0.341 OA
ATOM      4  C   UNL     1      36.231   0.876  40.612  1.00  0.00     0.282 C 
ATOM      5  C   UNL     1      35.313   1.055  41.846  1.00  0.00     0.202 C 
ATOM      6  C   UNL     1      36.057   0.696  43.148  1.00  0.00     0.180 C 
ENDROOT
BRANCH   1   7
ATOM      7  O   UNL     1      37.011   2.934  43.182  1.00  0.00    -0.341 OA
BRANCH   7   8
ATOM      8  C   UNL     1      36.851   3.518  44.468  1.00  0.00     0.282 C 
ATOM      9  C   UNL     1      38.327   5.298  44.007  1.00  0.00     0.178 C 
ATOM     10  C   UNL     1      37.206   6.366  44.122  1.00  0.00     0.177 C 
ATOM     11  O   UNL     1      38.053   4.188  44.851  1.00  0.00    -0.341 OA
ATOM     12  C   UNL     1      35.899   5.740  43.603  1.00  0.00     0.179 C 
ATOM     13  C   UNL     1      35.621   4.467  44.437  1.00  0.00     0.202 C 
BRANCH   9  14
ATOM     14  C   UNL     1      39.704   5.869  44.346  1.00  0.00     0.191 C 
BRANCH  14  15
ATOM     15  O   UNL     1      39.923   5.821  45.732  1.00  0.00    -0.394 OA
ATOM     16  H   UNL     1      40.904   5.719  45.874  1.00  0.00     0.210 HD
ENDBRANCH  14  15
ENDBRANCH   9  14
BRANCH  10  17
ATOM     17  O   UNL     1      37.013   6.836  45.445  1.00  0.00    -0.387 OA
ATOM     18  H   UNL     1      37.876   7.172  45.818  1.00  0.00     0.211 HD
ENDBRANCH  10  17
BRANCH  12  19
ATOM     19  O   UNL     1      36.027   5.418  42.240  1.00  0.00    -0.387 OA
ATOM     20  H   UNL     1      36.565   4.583  42.188  1.00  0.00     0.211 HD
ENDBRANCH  12  19
BRANCH  13  21
ATOM     21  O   UNL     1      34.463   3.757  44.027  1.00  0.00    -0.385 OA
ATOM     22  H   UNL     1      33.848   4.363  43.520  1.00  0.00     0.211 HD
ENDBRANCH  13  21
ENDBRANCH   7   8
ENDBRANCH   1   7
BRANCH   2  23
ATOM     23  C   UNL     1      38.856  -0.137  42.000  1.00  0.00     0.191 C 
BRANCH  23  24
ATOM     24  O   UNL     1      39.320  -0.487  40.726  1.00  0.00    -0.394 OA
ATOM     25  H   UNL     1      39.920   0.243  40.421  1.00  0.00     0.210 HD
ENDBRANCH  23  24
ENDBRANCH   2  23
BRANCH   6  26
ATOM     26  O   UNL     1      35.216   0.928  44.247  1.00  0.00    -0.387 OA
ATOM     27  H   UNL     1      35.426   0.250  44.932  1.00  0.00     0.211 HD
ENDBRANCH   6  26
BRANCH   5  28
ATOM     28  O   UNL     1      34.119   0.319  41.708  1.00  0.00    -0.385 OA
ATOM     29  H   UNL     1      33.362   0.959  41.748  1.00  0.00     0.211 HD
ENDBRANCH   5  28
BRANCH   4  30
ATOM     30  O   UNL     1      36.430  -0.500  40.328  1.00  0.00    -0.341 OA
BRANCH  30  31
ATOM     31  C   UNL     1      35.921  -0.921  39.075  1.00  0.00     0.184 C 
ATOM     32  C   UNL     1      35.671  -2.442  39.086  1.00  0.00     0.178 C 
ATOM     33  C   UNL     1      36.871  -0.546  37.943  1.00  0.00     0.180 C 
ATOM     34  O   UNL     1      35.090  -2.915  37.878  1.00  0.00    -0.342 OA
ATOM     35  C   UNL     1      36.248  -1.024  36.612  1.00  0.00     0.201 C 
ATOM     36  C   UNL     1      35.725  -2.490  36.647  1.00  0.00     0.279 C 
BRANCH  32  37
ATOM     37  C   UNL     1      36.839  -3.362  39.561  1.00  0.00     0.191 C 
BRANCH  37  38
ATOM     38  O   UNL     1      37.413  -2.920  40.778  1.00  0.00    -0.394 OA
ATOM     39  H   UNL     1      38.397  -2.795  40.657  1.00  0.00     0.210 HD
ENDBRANCH  37  38
ENDBRANCH  32  37
BRANCH  33  40
ATOM     40  O   UNL     1      38.157  -1.068  38.176  1.00  0.00    -0.387 OA
ATOM     41  H   UNL     1      38.817  -0.358  37.958  1.00  0.00     0.211 HD
ENDBRANCH  33  40
BRANCH  35  42
ATOM     42  O   UNL     1      37.124  -0.825  35.523  1.00  0.00    -0.385 OA
ATOM     43  H   UNL     1      38.032  -0.664  35.905  1.00  0.00     0.211 HD
ENDBRANCH  35  42
BRANCH  36  44
ATOM     44  O   UNL     1      36.647  -3.461  36.195  1.00  0.00    -0.366 OA
ATOM     45  H   UNL     1      36.200  -4.047  35.517  1.00  0.00     0.213 HD
ENDBRANCH  36  44
ENDBRANCH  30  31
ENDBRANCH   4  30
TORSDOF 18
ENDMDL
MODEL 9
REMARK VINA RESULT:    -5.257      1.927      4.262
REMARK INTER + INTRA:         -11.338
REMARK INTER:                 -10.978
REMARK INTRA:                  -0.360
REMARK UNBOUND:                -2.239
REMARK SMILES OC[C@@H]1O[C@H](O)[C@H](O)[C@H](O)[C@@H]1O[C@@H]1O[C@H](CO)[C@@H](O[C@H]2O[C@H](CO)[C@H](O)[C@@H](O)[C@H]2O)[C@@H](O)[C@@H]1O
REMARK SMILES IDX 18 1 15 2 14 3 13 4 33 5 31 6 19 7 20 8 22 9 25 10 21 11
REMARK SMILES IDX 27 12 29 13 23 14 24 15 26 17 28 19 30 21 16 23 17 24 32 26
REMARK SMILES IDX 34 28 12 30 11 31 3 32 9 33 4 34 7 35 5 36 2 37 1 38 10 40
REMARK SMILES IDX 8 42 6 44
REMARK H PARENT 24 16 26 18 28 20 30 22 17 25 32 27 34 29 1 39 10 41 8 43 6 45
REMARK Flexibility Score: inf
ROOT
ATOM      1  C   UNL     1      38.052   1.017  41.558  1.00  0.00     0.184 C 
ATOM      2  C   UNL     1      38.886   2.049  42.346  1.00  0.00     0.178 C 
ATOM      3  O   UNL     1      38.124   2.716  43.351  1.00  0.00    -0.341 OA
ATOM      4  C   UNL     1      36.930   3.351  42.887  1.00  0.00     0.282 C 
ATOM      5  C   UNL     1      36.044   2.418  42.027  1.00  0.00     0.202 C 
ATOM      6  C   UNL     1      36.866   1.748  40.907  1.00  0.00     0.180 C 
ENDROOT
BRANCH   1   7
ATOM      7  O   UNL     1      37.591   0.056  42.496  1.00  0.00    -0.341 OA
BRANCH   7   8
ATOM      8  C   UNL     1      38.590  -0.869  42.905  1.00  0.00     0.282 C 
ATOM      9  C   UNL     1      38.619  -0.084  45.128  1.00  0.00     0.178 C 
ATOM     10  C   UNL     1      38.093  -1.430  45.697  1.00  0.00     0.177 C 
ATOM     11  O   UNL     1      39.382  -0.300  43.949  1.00  0.00    -0.341 OA
ATOM     12  C   UNL     1      37.129  -2.039  44.663  1.00  0.00     0.179 C 
ATOM     13  C   UNL     1      37.901  -2.195  43.332  1.00  0.00     0.202 C 
BRANCH   9  14
ATOM     14  C   UNL     1      39.461   0.682  46.148  1.00  0.00     0.191 C 
BRANCH  14  15
ATOM     15  O   UNL     1      39.014   0.410  47.451  1.00  0.00    -0.394 OA
ATOM     16  H   UNL     1      38.021   0.479  47.445  1.00  0.00     0.210 HD
ENDBRANCH  14  15
ENDBRANCH   9  14
BRANCH  10  17
ATOM     17  O   UNL     1      39.126  -2.359  45.985  1.00  0.00    -0.387 OA
ATOM     18  H   UNL     1      38.773  -3.094  46.560  1.00  0.00     0.211 HD
ENDBRANCH  10  17
BRANCH  12  19
ATOM     19  O   UNL     1      36.015  -1.198  44.490  1.00  0.00    -0.387 OA
ATOM     20  H   UNL     1      35.860  -0.738  45.358  1.00  0.00     0.211 HD
ENDBRANCH  12  19
BRANCH  13  21
ATOM     21  O   UNL     1      37.110  -2.702  42.268  1.00  0.00    -0.385 OA
ATOM     22  H   UNL     1      37.658  -3.304  41.686  1.00  0.00     0.211 HD
ENDBRANCH  13  21
ENDBRANCH   7   8
ENDBRANCH   1   7
BRANCH   2  23
ATOM     23  C   UNL     1      39.691   3.005  41.439  1.00  0.00     0.191 C 
BRANCH  23  24
ATOM     24  O   UNL     1      40.116   2.343  40.281  1.00  0.00    -0.394 OA
ATOM     25  H   UNL     1      39.756   1.418  40.323  1.00  0.00     0.210 HD
ENDBRANCH  23  24
ENDBRANCH   2  23
BRANCH   6  26
ATOM     26  O   UNL     1      36.045   0.867  40.187  1.00  0.00    -0.387 OA
ATOM     27  H   UNL     1      36.633   0.284  39.649  1.00  0.00     0.211 HD
ENDBRANCH   6  26
BRANCH   5  28
ATOM     28  O   UNL     1      34.926   3.105  41.513  1.00  0.00    -0.385 OA
ATOM     29  H   UNL     1      34.960   3.044  40.523  1.00  0.00     0.211 HD
ENDBRANCH   5  28
BRANCH   4  30
ATOM     30  O   UNL     1      37.256   4.534  42.176  1.00  0.00    -0.341 OA
BRANCH  30  31
ATOM     31  C   UNL     1      36.885   5.734  42.830  1.00  0.00     0.184 C 
ATOM     32  C   UNL     1      38.128   6.614  43.074  1.00  0.00     0.178 C 
ATOM     33  C   UNL     1      36.172   5.444  44.146  1.00  0.00     0.180 C 
ATOM     34  O   UNL     1      37.810   7.867  43.663  1.00  0.00    -0.342 OA
ATOM     35  C   UNL     1      35.789   6.793  44.795  1.00  0.00     0.201 C 
ATOM     36  C   UNL     1      36.947   7.833  44.826  1.00  0.00     0.279 C 
BRANCH  32  37
ATOM     37  C   UNL     1      39.358   5.949  43.766  1.00  0.00     0.191 C 
BRANCH  37  38
ATOM     38  O   UNL     1      39.282   6.013  45.180  1.00  0.00    -0.394 OA
ATOM     39  H   UNL     1      39.908   5.345  45.580  1.00  0.00     0.210 HD
ENDBRANCH  37  38
ENDBRANCH  32  37
BRANCH  33  40
ATOM     40  O   UNL     1      36.967   4.632  44.977  1.00  0.00    -0.387 OA
ATOM     41  H   UNL     1      36.875   4.968  45.908  1.00  0.00     0.211 HD
ENDBRANCH  33  40
BRANCH  35  42
ATOM     42  O   UNL     1      35.233   6.616  46.080  1.00  0.00    -0.385 OA
ATOM     43  H   UNL     1      34.560   7.341  46.210  1.00  0.00     0.211 HD
ENDBRANCH  35  42
BRANCH  36  44
ATOM     44  O   UNL     1      37.708   7.840  46.018  1.00  0.00    -0.366 OA
ATOM     45  H   UNL     1      37.216   8.362  46.718  1.00  0.00     0.213 HD
ENDBRANCH  36  44
ENDBRANCH  30  31
ENDBRANCH   4  30
TORSDOF 18
ENDMDL
