MODEL 1
REMARK VINA RESULT:    -3.693      0.000      0.000
REMARK INTER + INTRA:          -4.531
REMARK INTER:                  -4.449
REMARK INTRA:                  -0.083
REMARK UNBOUND:                -0.083
REMARK SMILES CC[C@@H](C)[C@@H]([NH3+])C(=O)[O-]
REMARK SMILES IDX 3 1 4 2 5 3 6 4 7 8 8 9 9 10 2 11 1 12
REMARK H PARENT 6 5 6 6 6 7
REMARK Flexibility Score: inf
ROOT
ATOM      1  C   UNL     1      16.968  45.884  25.307  1.00  0.00     0.050 C 
ATOM      2  C   UNL     1      16.892  44.405  24.876  1.00  0.00     0.014 C 
ENDROOT
BRANCH   1   3
ATOM      3  C   UNL     1      16.395  46.129  26.739  1.00  0.00     0.230 C 
BRANCH   3   4
ATOM      4  N   UNL     1      14.932  46.279  26.729  1.00  0.00    -0.350 N 
ATOM      5  H   UNL     1      14.577  46.659  27.634  1.00  0.00     0.345 HD
ATOM      6  H   UNL     1      14.478  45.355  26.540  1.00  0.00     0.345 HD
ATOM      7  H   UNL     1      14.656  46.937  25.963  1.00  0.00     0.345 HD
ENDBRANCH   3   4
BRANCH   3   8
ATOM      8  C   UNL     1      16.815  45.060  27.721  1.00  0.00     0.099 C 
ATOM      9  O   UNL     1      15.983  44.195  28.102  1.00  0.00    -0.544 OA
ATOM     10  O   UNL     1      18.104  45.040  28.238  1.00  0.00    -0.544 OA
ENDBRANCH   3   8
ENDBRANCH   1   3
BRANCH   1  11
ATOM     11  C   UNL     1      18.417  46.424  25.199  1.00  0.00     0.006 C 
ATOM     12  C   UNL     1      18.559  47.867  25.684  1.00  0.00     0.004 C 
ENDBRANCH   1  11
TORSDOF 4
ENDMDL
MODEL 2
REMARK VINA RESULT:    -3.672      0.926      2.341
REMARK INTER + INTRA:          -4.506
REMARK INTER:                  -4.352
REMARK INTRA:                  -0.153
REMARK UNBOUND:                -0.083
REMARK SMILES CC[C@@H](C)[C@@H]([NH3+])C(=O)[O-]
REMARK SMILES IDX 3 1 4 2 5 3 6 4 7 8 8 9 9 10 2 11 1 12
REMARK H PARENT 6 5 6 6 6 7
REMARK Flexibility Score: inf
ROOT
ATOM      1  C   UNL     1      17.514  45.875  25.846  1.00  0.00     0.050 C 
ATOM      2  C   UNL     1      18.004  47.023  24.940  1.00  0.00     0.014 C 
ENDROOT
BRANCH   1   3
ATOM      3  C   UNL     1      16.589  46.368  27.003  1.00  0.00     0.230 C 
BRANCH   3   4
ATOM      4  N   UNL     1      15.168  46.126  26.713  1.00  0.00    -0.350 N 
ATOM      5  H   UNL     1      14.644  47.019  26.578  1.00  0.00     0.345 HD
ATOM      6  H   UNL     1      14.730  45.583  27.493  1.00  0.00     0.345 HD
ATOM      7  H   UNL     1      15.083  45.559  25.837  1.00  0.00     0.345 HD
ENDBRANCH   3   4
BRANCH   3   8
ATOM      8  C   UNL     1      16.968  45.775  28.341  1.00  0.00     0.099 C 
ATOM      9  O   UNL     1      17.703  46.424  29.130  1.00  0.00    -0.544 OA
ATOM     10  O   UNL     1      16.540  44.502  28.698  1.00  0.00    -0.544 OA
ENDBRANCH   3   8
ENDBRANCH   1   3
BRANCH   1  11
ATOM     11  C   UNL     1      16.810  44.770  25.017  1.00  0.00     0.006 C 
ATOM     12  C   UNL     1      17.220  43.356  25.430  1.00  0.00     0.004 C 
ENDBRANCH   1  11
TORSDOF 4
ENDMDL
MODEL 3
REMARK VINA RESULT:    -3.539      2.271      3.104
REMARK INTER + INTRA:          -4.345
REMARK INTER:                  -4.285
REMARK INTRA:                  -0.061
REMARK UNBOUND:                -0.083
REMARK SMILES CC[C@@H](C)[C@@H]([NH3+])C(=O)[O-]
REMARK SMILES IDX 3 1 4 2 5 3 6 4 7 8 8 9 9 10 2 11 1 12
REMARK H PARENT 6 5 6 6 6 7
REMARK Flexibility Score: inf
ROOT
ATOM      1  C   UNL     1      17.408  44.853  24.876  1.00  0.00     0.050 C 
ATOM      2  C   UNL     1      16.189  45.799  24.899  1.00  0.00     0.014 C 
ENDROOT
BRANCH   1   3
ATOM      3  C   UNL     1      18.730  45.557  25.315  1.00  0.00     0.230 C 
BRANCH   3   4
ATOM      4  N   UNL     1      18.780  46.959  24.875  1.00  0.00    -0.350 N 
ATOM      5  H   UNL     1      18.082  47.154  24.124  1.00  0.00     0.345 HD
ATOM      6  H   UNL     1      19.738  47.191  24.524  1.00  0.00     0.345 HD
ATOM      7  H   UNL     1      18.573  47.586  25.688  1.00  0.00     0.345 HD
ENDBRANCH   3   4
BRANCH   3   8
ATOM      8  C   UNL     1      18.973  45.457  26.803  1.00  0.00     0.099 C 
ATOM      9  O   UNL     1      18.338  46.200  27.596  1.00  0.00    -0.544 OA
ATOM     10  O   UNL     1      19.920  44.573  27.308  1.00  0.00    -0.544 OA
ENDBRANCH   3   8
ENDBRANCH   1   3
BRANCH   1  11
ATOM     11  C   UNL     1      17.150  43.590  25.736  1.00  0.00     0.006 C 
ATOM     12  C   UNL     1      15.780  43.595  26.416  1.00  0.00     0.004 C 
ENDBRANCH   1  11
TORSDOF 4
ENDMDL
MODEL 4
REMARK VINA RESULT:    -3.446      2.350      3.456
REMARK INTER + INTRA:          -4.234
REMARK INTER:                  -4.131
REMARK INTRA:                  -0.103
REMARK UNBOUND:                -0.083
REMARK SMILES CC[C@@H](C)[C@@H]([NH3+])C(=O)[O-]
REMARK SMILES IDX 3 1 4 2 5 3 6 4 7 8 8 9 9 10 2 11 1 12
REMARK H PARENT 6 5 6 6 6 7
REMARK Flexibility Score: inf
ROOT
ATOM      1  C   UNL     1      17.568  44.933  26.334  1.00  0.00     0.050 C 
ATOM      2  C   UNL     1      17.127  44.697  24.875  1.00  0.00     0.014 C 
ENDROOT
BRANCH   1   3
ATOM      3  C   UNL     1      17.534  46.438  26.743  1.00  0.00     0.230 C 
BRANCH   3   4
ATOM      4  N   UNL     1      17.417  46.611  28.199  1.00  0.00    -0.350 N 
ATOM      5  H   UNL     1      16.900  47.485  28.444  1.00  0.00     0.345 HD
ATOM      6  H   UNL     1      18.368  46.639  28.634  1.00  0.00     0.345 HD
ATOM      7  H   UNL     1      16.899  45.797  28.605  1.00  0.00     0.345 HD
ENDBRANCH   3   4
BRANCH   3   8
ATOM      8  C   UNL     1      18.717  47.212  26.208  1.00  0.00     0.099 C 
ATOM      9  O   UNL     1      19.855  47.056  26.723  1.00  0.00    -0.544 OA
ATOM     10  O   UNL     1      18.557  48.123  25.171  1.00  0.00    -0.544 OA
ENDBRANCH   3   8
ENDBRANCH   1   3
BRANCH   1  11
ATOM     11  C   UNL     1      16.724  44.080  27.317  1.00  0.00     0.006 C 
ATOM     12  C   UNL     1      15.257  43.961  26.901  1.00  0.00     0.004 C 
ENDBRANCH   1  11
TORSDOF 4
ENDMDL
MODEL 5
REMARK VINA RESULT:    -3.384     17.471     18.283
REMARK INTER + INTRA:          -4.159
REMARK INTER:                  -4.071
REMARK INTRA:                  -0.089
REMARK UNBOUND:                -0.083
REMARK SMILES CC[C@@H](C)[C@@H]([NH3+])C(=O)[O-]
REMARK SMILES IDX 3 1 4 2 5 3 6 4 7 8 8 9 9 10 2 11 1 12
REMARK H PARENT 6 5 6 6 6 7
REMARK Flexibility Score: inf
ROOT
ATOM      1  C   UNL     1      23.708  30.809  32.165  1.00  0.00     0.050 C 
ATOM      2  C   UNL     1      22.272  30.685  32.715  1.00  0.00     0.014 C 
ENDROOT
BRANCH   1   3
ATOM      3  C   UNL     1      24.650  29.670  32.665  1.00  0.00     0.230 C 
BRANCH   3   4
ATOM      4  N   UNL     1      25.450  29.097  31.572  1.00  0.00    -0.350 N 
ATOM      5  H   UNL     1      26.360  29.596  31.457  1.00  0.00     0.345 HD
ATOM      6  H   UNL     1      24.915  29.144  30.674  1.00  0.00     0.345 HD
ATOM      7  H   UNL     1      25.649  28.090  31.778  1.00  0.00     0.345 HD
ENDBRANCH   3   4
BRANCH   3   8
ATOM      8  C   UNL     1      25.542  30.113  33.802  1.00  0.00     0.099 C 
ATOM      9  O   UNL     1      26.016  31.280  33.812  1.00  0.00    -0.544 OA
ATOM     10  O   UNL     1      25.875  29.234  34.825  1.00  0.00    -0.544 OA
ENDBRANCH   3   8
ENDBRANCH   1   3
BRANCH   1  11
ATOM     11  C   UNL     1      23.708  30.878  30.616  1.00  0.00     0.006 C 
ATOM     12  C   UNL     1      22.304  30.994  30.020  1.00  0.00     0.004 C 
ENDBRANCH   1  11
TORSDOF 4
ENDMDL
MODEL 6
REMARK VINA RESULT:    -3.359     16.458     17.222
REMARK INTER + INTRA:          -4.129
REMARK INTER:                  -4.032
REMARK INTRA:                  -0.097
REMARK UNBOUND:                -0.083
REMARK SMILES CC[C@@H](C)[C@@H]([NH3+])C(=O)[O-]
REMARK SMILES IDX 3 1 4 2 5 3 6 4 7 8 8 9 9 10 2 11 1 12
REMARK H PARENT 6 5 6 6 6 7
REMARK Flexibility Score: inf
ROOT
ATOM      1  C   UNL     1      22.777  31.054  31.603  1.00  0.00     0.050 C 
ATOM      2  C   UNL     1      22.045  30.963  30.248  1.00  0.00     0.014 C 
ENDROOT
BRANCH   1   3
ATOM      3  C   UNL     1      22.210  30.064  32.667  1.00  0.00     0.230 C 
BRANCH   3   4
ATOM      4  N   UNL     1      23.263  29.539  33.549  1.00  0.00    -0.350 N 
ATOM      5  H   UNL     1      23.618  28.614  33.220  1.00  0.00     0.345 HD
ATOM      6  H   UNL     1      22.898  29.442  34.525  1.00  0.00     0.345 HD
ATOM      7  H   UNL     1      24.065  30.212  33.570  1.00  0.00     0.345 HD
ENDBRANCH   3   4
BRANCH   3   8
ATOM      8  C   UNL     1      21.086  30.667  33.479  1.00  0.00     0.099 C 
ATOM      9  O   UNL     1      21.190  31.841  33.921  1.00  0.00    -0.544 OA
ATOM     10  O   UNL     1      19.948  29.925  33.773  1.00  0.00    -0.544 OA
ENDBRANCH   3   8
ENDBRANCH   1   3
BRANCH   1  11
ATOM     11  C   UNL     1      24.304  30.850  31.426  1.00  0.00     0.006 C 
ATOM     12  C   UNL     1      24.679  30.272  30.061  1.00  0.00     0.004 C 
ENDBRANCH   1  11
TORSDOF 4
ENDMDL
MODEL 7
REMARK VINA RESULT:    -3.346      2.363      3.109
REMARK INTER + INTRA:          -4.113
REMARK INTER:                  -3.987
REMARK INTRA:                  -0.126
REMARK UNBOUND:                -0.083
REMARK SMILES CC[C@@H](C)[C@@H]([NH3+])C(=O)[O-]
REMARK SMILES IDX 3 1 4 2 5 3 6 4 7 8 8 9 9 10 2 11 1 12
REMARK H PARENT 6 5 6 6 6 7
REMARK Flexibility Score: inf
ROOT
ATOM      1  C   UNL     1      17.274  44.054  26.255  1.00  0.00     0.050 C 
ATOM      2  C   UNL     1      17.573  42.566  26.534  1.00  0.00     0.014 C 
ENDROOT
BRANCH   1   3
ATOM      3  C   UNL     1      18.559  44.938  26.239  1.00  0.00     0.230 C 
BRANCH   3   4
ATOM      4  N   UNL     1      18.923  45.356  24.876  1.00  0.00    -0.350 N 
ATOM      5  H   UNL     1      18.080  45.485  24.273  1.00  0.00     0.345 HD
ATOM      6  H   UNL     1      19.554  44.645  24.440  1.00  0.00     0.345 HD
ATOM      7  H   UNL     1      19.441  46.265  24.918  1.00  0.00     0.345 HD
ENDBRANCH   3   4
BRANCH   3   8
ATOM      8  C   UNL     1      18.449  46.138  27.152  1.00  0.00     0.099 C 
ATOM      9  O   UNL     1      18.395  47.297  26.664  1.00  0.00    -0.544 OA
ATOM     10  O   UNL     1      18.441  45.978  28.532  1.00  0.00    -0.544 OA
ENDBRANCH   3   8
ENDBRANCH   1   3
BRANCH   1  11
ATOM     11  C   UNL     1      16.476  44.225  24.937  1.00  0.00     0.006 C 
ATOM     12  C   UNL     1      15.305  45.201  25.065  1.00  0.00     0.004 C 
ENDBRANCH   1  11
TORSDOF 4
ENDMDL
MODEL 8
REMARK VINA RESULT:    -3.328      1.758      2.620
REMARK INTER + INTRA:          -4.092
REMARK INTER:                  -3.961
REMARK INTRA:                  -0.131
REMARK UNBOUND:                -0.083
REMARK SMILES CC[C@@H](C)[C@@H]([NH3+])C(=O)[O-]
REMARK SMILES IDX 3 1 4 2 5 3 6 4 7 8 8 9 9 10 2 11 1 12
REMARK H PARENT 6 5 6 6 6 7
REMARK Flexibility Score: inf
ROOT
ATOM      1  C   UNL     1      16.705  44.740  25.940  1.00  0.00     0.050 C 
ATOM      2  C   UNL     1      15.593  44.642  24.876  1.00  0.00     0.014 C 
ENDROOT
BRANCH   1   3
ATOM      3  C   UNL     1      16.780  46.146  26.612  1.00  0.00     0.230 C 
BRANCH   3   4
ATOM      4  N   UNL     1      15.460  46.614  27.061  1.00  0.00    -0.350 N 
ATOM      5  H   UNL     1      15.195  47.516  26.606  1.00  0.00     0.345 HD
ATOM      6  H   UNL     1      15.457  46.737  28.100  1.00  0.00     0.345 HD
ATOM      7  H   UNL     1      14.737  45.897  26.818  1.00  0.00     0.345 HD
ENDBRANCH   3   4
BRANCH   3   8
ATOM      8  C   UNL     1      17.777  46.194  27.747  1.00  0.00     0.099 C 
ATOM      9  O   UNL     1      17.382  46.421  28.921  1.00  0.00    -0.544 OA
ATOM     10  O   UNL     1      19.135  46.024  27.505  1.00  0.00    -0.544 OA
ENDBRANCH   3   8
ENDBRANCH   1   3
BRANCH   1  11
ATOM     11  C   UNL     1      16.551  43.630  27.012  1.00  0.00     0.006 C 
ATOM     12  C   UNL     1      17.631  42.551  26.920  1.00  0.00     0.004 C 
ENDBRANCH   1  11
TORSDOF 4
ENDMDL
