MODEL 1
REMARK VINA RESULT:    -2.933      0.000      0.000
REMARK INTER + INTRA:          -2.839
REMARK INTER:                  -4.305
REMARK INTRA:                   1.466
REMARK UNBOUND:                 1.466
REMARK SMILES O=c1c(O[C@@H]2O[C@H](CO)[C@H](O)[C@@H](O)[C@@H]2O)c(-c2ccc(O)c(O)c2)oc2cc(O)cc(O)c12
REMARK SMILES IDX 4 1 3 2 16 3 25 4 2 5 26 6 1 7 33 8 27 9 31 10 28 11 30 12
REMARK SMILES IDX 17 13 18 14 19 15 20 16 24 17 22 18 21 19 23 21 32 23 29 25
REMARK SMILES IDX 5 27 14 28 6 29 12 30 7 31 10 32 15 33 13 35 8 37 9 38 11 40
REMARK H PARENT 21 20 23 22 32 24 29 26 15 34 13 36 9 39 11 41
REMARK Flexibility Score: inf
ROOT
ATOM      1  O   UNL     1      46.615  34.379 100.944  1.00  0.00    -0.454 OA
ENDROOT
BRANCH   1   2
ATOM      2  C   UNL     1      46.728  35.779 100.819  1.00  0.00     0.214 A 
ATOM      3  C   UNL     1      46.700  36.355  99.543  1.00  0.00     0.180 A 
ATOM      4  O   UNL     1      46.862  37.665  99.380  1.00  0.00    -0.452 OA
ATOM      5  C   UNL     1      46.696  36.646 101.920  1.00  0.00     0.239 A 
ATOM      6  C   UNL     1      46.968  38.509 100.403  1.00  0.00     0.146 A 
ATOM      7  O   UNL     1      46.388  36.190 103.051  1.00  0.00    -0.285 OA
ATOM      8  C   UNL     1      46.870  38.036 101.730  1.00  0.00     0.111 A 
ATOM      9  C   UNL     1      47.130  39.876 100.142  1.00  0.00     0.094 A 
ATOM     10  C   UNL     1      46.880  38.976 102.797  1.00  0.00     0.134 A 
ATOM     11  C   UNL     1      47.130  40.791 101.192  1.00  0.00     0.123 A 
ATOM     12  C   UNL     1      46.977  40.348 102.515  1.00  0.00     0.093 A 
BRANCH   3  13
ATOM     13  C   UNL     1      46.310  35.531  98.397  1.00  0.00     0.025 A 
ATOM     14  C   UNL     1      46.214  34.147  98.563  1.00  0.00     0.016 A 
ATOM     15  C   UNL     1      46.135  33.314  97.446  1.00  0.00     0.051 A 
ATOM     16  C   UNL     1      46.170  33.863  96.155  1.00  0.00     0.157 A 
ATOM     17  C   UNL     1      46.200  36.088  97.120  1.00  0.00     0.062 A 
ATOM     18  C   UNL     1      46.195  35.258  95.989  1.00  0.00     0.158 A 
BRANCH  16  19
ATOM     19  O   UNL     1      46.174  33.031  95.046  1.00  0.00    -0.504 OA
ATOM     20  H   UNL     1      46.221  33.392  94.095  1.00  0.00     0.293 HD
ENDBRANCH  16  19
BRANCH  18  21
ATOM     21  O   UNL     1      46.233  35.821  94.712  1.00  0.00    -0.504 OA
ATOM     22  H   UNL     1      47.096  35.780  94.182  1.00  0.00     0.293 HD
ENDBRANCH  18  21
ENDBRANCH   3  13
BRANCH  10  23
ATOM     23  O   UNL     1      46.831  38.552 104.124  1.00  0.00    -0.507 OA
ATOM     24  H   UNL     1      46.012  38.735 104.716  1.00  0.00     0.293 HD
ENDBRANCH  10  23
BRANCH  11  25
ATOM     25  O   UNL     1      47.312  42.141 100.912  1.00  0.00    -0.508 OA
ATOM     26  H   UNL     1      47.716  42.768 101.597  1.00  0.00     0.293 HD
ENDBRANCH  11  25
ENDBRANCH   1   2
BRANCH   1  27
ATOM     27  C   UNL     1      47.680  33.415 100.921  1.00  0.00     0.339 C 
ATOM     28  C   UNL     1      48.125  32.933 102.347  1.00  0.00     0.214 C 
ATOM     29  O   UNL     1      47.372  32.379 100.005  1.00  0.00    -0.332 OA
ATOM     30  C   UNL     1      47.476  31.582 102.720  1.00  0.00     0.180 C 
ATOM     31  C   UNL     1      48.125  31.205 100.266  1.00  0.00     0.179 C 
ATOM     32  C   UNL     1      47.559  30.548 101.554  1.00  0.00     0.177 C 
BRANCH  28  33
ATOM     33  O   UNL     1      47.860  33.889 103.339  1.00  0.00    -0.384 OA
ATOM     34  H   UNL     1      48.730  34.210 103.686  1.00  0.00     0.211 HD
ENDBRANCH  28  33
BRANCH  30  35
ATOM     35  O   UNL     1      48.096  31.033 103.865  1.00  0.00    -0.387 OA
ATOM     36  H   UNL     1      47.370  30.664 104.433  1.00  0.00     0.211 HD
ENDBRANCH  30  35
BRANCH  31  37
ATOM     37  C   UNL     1      48.124  30.302  99.009  1.00  0.00     0.191 C 
BRANCH  37  38
ATOM     38  O   UNL     1      46.839  30.139  98.458  1.00  0.00    -0.394 OA
ATOM     39  H   UNL     1      46.502  31.042  98.226  1.00  0.00     0.210 HD
ENDBRANCH  37  38
ENDBRANCH  31  37
BRANCH  32  40
ATOM     40  O   UNL     1      46.267  30.047 101.324  1.00  0.00    -0.387 OA
ATOM     41  H   UNL     1      46.362  29.146 100.914  1.00  0.00     0.211 HD
ENDBRANCH  32  40
ENDBRANCH   1  27
TORSDOF 12
ENDMDL
MODEL 2
REMARK VINA RESULT:    -2.578      1.424      5.318
REMARK INTER + INTRA:          -2.318
REMARK INTER:                  -3.229
REMARK INTRA:                   0.911
REMARK UNBOUND:                 1.466
REMARK SMILES O=c1c(O[C@@H]2O[C@H](CO)[C@H](O)[C@@H](O)[C@@H]2O)c(-c2ccc(O)c(O)c2)oc2cc(O)cc(O)c12
REMARK SMILES IDX 4 1 3 2 16 3 25 4 2 5 26 6 1 7 33 8 27 9 31 10 28 11 30 12
REMARK SMILES IDX 17 13 18 14 19 15 20 16 24 17 22 18 21 19 23 21 32 23 29 25
REMARK SMILES IDX 5 27 14 28 6 29 12 30 7 31 10 32 15 33 13 35 8 37 9 38 11 40
REMARK H PARENT 21 20 23 22 32 24 29 26 15 34 13 36 9 39 11 41
REMARK Flexibility Score: inf
ROOT
ATOM      1  O   UNL     1      46.123  34.819  99.295  1.00  0.00    -0.454 OA
ENDROOT
BRANCH   1   2
ATOM      2  C   UNL     1      46.429  35.813 100.247  1.00  0.00     0.214 A 
ATOM      3  C   UNL     1      46.925  35.429 101.499  1.00  0.00     0.180 A 
ATOM      4  O   UNL     1      47.169  36.333 102.445  1.00  0.00    -0.452 OA
ATOM      5  C   UNL     1      46.424  37.182  99.947  1.00  0.00     0.239 A 
ATOM      6  C   UNL     1      47.049  37.641 102.237  1.00  0.00     0.146 A 
ATOM      7  O   UNL     1      46.311  37.546  98.748  1.00  0.00    -0.285 OA
ATOM      8  C   UNL     1      46.687  38.130 100.962  1.00  0.00     0.111 A 
ATOM      9  C   UNL     1      47.333  38.525 103.286  1.00  0.00     0.094 A 
ATOM     10  C   UNL     1      46.671  39.534 100.744  1.00  0.00     0.134 A 
ATOM     11  C   UNL     1      47.325  39.899 103.062  1.00  0.00     0.123 A 
ATOM     12  C   UNL     1      47.022  40.405 101.788  1.00  0.00     0.093 A 
BRANCH   3  13
ATOM     13  C   UNL     1      47.344  34.042 101.706  1.00  0.00     0.025 A 
ATOM     14  C   UNL     1      47.977  33.365 100.660  1.00  0.00     0.016 A 
ATOM     15  C   UNL     1      48.124  31.979 100.713  1.00  0.00     0.051 A 
ATOM     16  C   UNL     1      47.623  31.259 101.808  1.00  0.00     0.157 A 
ATOM     17  C   UNL     1      46.974  33.346 102.860  1.00  0.00     0.062 A 
ATOM     18  C   UNL     1      47.051  31.946 102.892  1.00  0.00     0.158 A 
BRANCH  16  19
ATOM     19  O   UNL     1      47.697  29.875 101.823  1.00  0.00    -0.504 OA
ATOM     20  H   UNL     1      46.869  29.286 101.882  1.00  0.00     0.293 HD
ENDBRANCH  16  19
BRANCH  18  21
ATOM     21  O   UNL     1      46.545  31.246 103.989  1.00  0.00    -0.504 OA
ATOM     22  H   UNL     1      45.787  30.587 103.845  1.00  0.00     0.293 HD
ENDBRANCH  18  21
ENDBRANCH   3  13
BRANCH  10  23
ATOM     23  O   UNL     1      46.276  40.063  99.516  1.00  0.00    -0.507 OA
ATOM     24  H   UNL     1      45.490  40.720  99.442  1.00  0.00     0.293 HD
ENDBRANCH  10  23
BRANCH  11  25
ATOM     25  O   UNL     1      47.591  40.759 104.123  1.00  0.00    -0.508 OA
ATOM     26  H   UNL     1      46.963  40.822 104.914  1.00  0.00     0.293 HD
ENDBRANCH  11  25
ENDBRANCH   1   2
BRANCH   1  27
ATOM     27  C   UNL     1      46.926  34.410  98.176  1.00  0.00     0.339 C 
ATOM     28  C   UNL     1      46.434  33.081  97.501  1.00  0.00     0.214 C 
ATOM     29  O   UNL     1      47.113  35.500  97.293  1.00  0.00    -0.332 OA
ATOM     30  C   UNL     1      45.580  33.363  96.245  1.00  0.00     0.180 C 
ATOM     31  C   UNL     1      47.482  35.067  95.993  1.00  0.00     0.179 C 
ATOM     32  C   UNL     1      46.229  34.440  95.322  1.00  0.00     0.177 C 
BRANCH  28  33
ATOM     33  O   UNL     1      45.729  32.259  98.393  1.00  0.00    -0.384 OA
ATOM     34  H   UNL     1      44.839  32.666  98.537  1.00  0.00     0.211 HD
ENDBRANCH  28  33
BRANCH  30  35
ATOM     35  O   UNL     1      45.386  32.178  95.501  1.00  0.00    -0.387 OA
ATOM     36  H   UNL     1      45.979  31.489  95.902  1.00  0.00     0.211 HD
ENDBRANCH  30  35
BRANCH  31  37
ATOM     37  C   UNL     1      48.125  36.244  95.219  1.00  0.00     0.191 C 
BRANCH  37  38
ATOM     38  O   UNL     1      47.313  36.713  94.170  1.00  0.00    -0.394 OA
ATOM     39  H   UNL     1      46.841  37.520  94.501  1.00  0.00     0.210 HD
ENDBRANCH  37  38
ENDBRANCH  31  37
BRANCH  32  40
ATOM     40  O   UNL     1      45.265  35.428  95.062  1.00  0.00    -0.387 OA
ATOM     41  H   UNL     1      44.539  35.326  95.734  1.00  0.00     0.211 HD
ENDBRANCH  32  40
ENDBRANCH   1  27
TORSDOF 12
ENDMDL
MODEL 3
REMARK VINA RESULT:    -2.563      1.306      2.394
REMARK INTER + INTRA:          -2.296
REMARK INTER:                  -2.790
REMARK INTRA:                   0.493
REMARK UNBOUND:                 1.466
REMARK SMILES O=c1c(O[C@@H]2O[C@H](CO)[C@H](O)[C@@H](O)[C@@H]2O)c(-c2ccc(O)c(O)c2)oc2cc(O)cc(O)c12
REMARK SMILES IDX 4 1 3 2 16 3 25 4 2 5 26 6 1 7 33 8 27 9 31 10 28 11 30 12
REMARK SMILES IDX 17 13 18 14 19 15 20 16 24 17 22 18 21 19 23 21 32 23 29 25
REMARK SMILES IDX 5 27 14 28 6 29 12 30 7 31 10 32 15 33 13 35 8 37 9 38 11 40
REMARK H PARENT 21 20 23 22 32 24 29 26 15 34 13 36 9 39 11 41
REMARK Flexibility Score: inf
ROOT
ATOM      1  O   UNL     1      47.306  34.713 100.782  1.00  0.00    -0.454 OA
ENDROOT
BRANCH   1   2
ATOM      2  C   UNL     1      47.087  36.102 100.685  1.00  0.00     0.214 A 
ATOM      3  C   UNL     1      47.034  36.699  99.420  1.00  0.00     0.180 A 
ATOM      4  O   UNL     1      46.888  38.015  99.290  1.00  0.00    -0.452 OA
ATOM      5  C   UNL     1      46.746  36.897 101.789  1.00  0.00     0.239 A 
ATOM      6  C   UNL     1      46.694  38.823 100.328  1.00  0.00     0.146 A 
ATOM      7  O   UNL     1      46.457  36.340 102.879  1.00  0.00    -0.285 OA
ATOM      8  C   UNL     1      46.594  38.294 101.634  1.00  0.00     0.111 A 
ATOM      9  C   UNL     1      46.543  40.197 100.101  1.00  0.00     0.094 A 
ATOM     10  C   UNL     1      46.280  39.170 102.709  1.00  0.00     0.134 A 
ATOM     11  C   UNL     1      46.226  41.048 101.158  1.00  0.00     0.123 A 
ATOM     12  C   UNL     1      46.066  40.534 102.454  1.00  0.00     0.093 A 
BRANCH   3  13
ATOM     13  C   UNL     1      46.961  35.847  98.231  1.00  0.00     0.025 A 
ATOM     14  C   UNL     1      46.010  36.138  97.250  1.00  0.00     0.016 A 
ATOM     15  C   UNL     1      45.714  35.197  96.263  1.00  0.00     0.051 A 
ATOM     16  C   UNL     1      46.359  33.950  96.264  1.00  0.00     0.157 A 
ATOM     17  C   UNL     1      47.705  34.666  98.149  1.00  0.00     0.062 A 
ATOM     18  C   UNL     1      47.365  33.685  97.207  1.00  0.00     0.158 A 
BRANCH  16  19
ATOM     19  O   UNL     1      46.007  32.986  95.332  1.00  0.00    -0.504 OA
ATOM     20  H   UNL     1      45.601  32.092  95.601  1.00  0.00     0.293 HD
ENDBRANCH  16  19
BRANCH  18  21
ATOM     21  O   UNL     1      48.015  32.449  97.223  1.00  0.00    -0.504 OA
ATOM     22  H   UNL     1      48.938  32.385  97.641  1.00  0.00     0.293 HD
ENDBRANCH  18  21
ENDBRANCH   3  13
BRANCH  10  23
ATOM     23  O   UNL     1      46.216  38.699 104.019  1.00  0.00    -0.507 OA
ATOM     24  H   UNL     1      47.047  38.679 104.623  1.00  0.00     0.293 HD
ENDBRANCH  10  23
BRANCH  11  25
ATOM     25  O   UNL     1      46.099  42.411 100.913  1.00  0.00    -0.508 OA
ATOM     26  H   UNL     1      45.232  42.898 101.104  1.00  0.00     0.293 HD
ENDBRANCH  11  25
ENDBRANCH   1   2
BRANCH   1  27
ATOM     27  C   UNL     1      46.490  33.748 101.467  1.00  0.00     0.339 C 
ATOM     28  C   UNL     1      45.447  33.032 100.539  1.00  0.00     0.214 C 
ATOM     29  O   UNL     1      47.309  32.882 102.232  1.00  0.00    -0.332 OA
ATOM     30  C   UNL     1      45.952  31.649 100.074  1.00  0.00     0.180 C 
ATOM     31  C   UNL     1      46.642  31.670 102.546  1.00  0.00     0.179 C 
ATOM     32  C   UNL     1      46.557  30.819 101.250  1.00  0.00     0.177 C 
BRANCH  28  33
ATOM     33  O   UNL     1      45.093  33.817  99.431  1.00  0.00    -0.384 OA
ATOM     34  H   UNL     1      44.105  33.876  99.409  1.00  0.00     0.211 HD
ENDBRANCH  28  33
BRANCH  30  35
ATOM     35  O   UNL     1      44.903  30.910  99.483  1.00  0.00    -0.387 OA
ATOM     36  H   UNL     1      44.249  31.572  99.136  1.00  0.00     0.211 HD
ENDBRANCH  30  35
BRANCH  31  37
ATOM     37  C   UNL     1      47.352  30.984 103.739  1.00  0.00     0.191 C 
BRANCH  37  38
ATOM     38  O   UNL     1      48.125  29.876 103.348  1.00  0.00    -0.394 OA
ATOM     39  H   UNL     1      47.498  29.179 103.025  1.00  0.00     0.210 HD
ENDBRANCH  37  38
ENDBRANCH  31  37
BRANCH  32  40
ATOM     40  O   UNL     1      47.835  30.383 100.863  1.00  0.00    -0.387 OA
ATOM     41  H   UNL     1      48.458  30.575 101.613  1.00  0.00     0.211 HD
ENDBRANCH  32  40
ENDBRANCH   1  27
TORSDOF 12
ENDMDL
MODEL 4
REMARK VINA RESULT:    -1.905      6.980     12.946
REMARK INTER + INTRA:          -1.331
REMARK INTER:                  -4.227
REMARK INTRA:                   2.896
REMARK UNBOUND:                 1.466
REMARK SMILES O=c1c(O[C@@H]2O[C@H](CO)[C@H](O)[C@@H](O)[C@@H]2O)c(-c2ccc(O)c(O)c2)oc2cc(O)cc(O)c12
REMARK SMILES IDX 4 1 3 2 16 3 25 4 2 5 26 6 1 7 33 8 27 9 31 10 28 11 30 12
REMARK SMILES IDX 17 13 18 14 19 15 20 16 24 17 22 18 21 19 23 21 32 23 29 25
REMARK SMILES IDX 5 27 14 28 6 29 12 30 7 31 10 32 15 33 13 35 8 37 9 38 11 40
REMARK H PARENT 21 20 23 22 32 24 29 26 15 34 13 36 9 39 11 41
REMARK Flexibility Score: inf
ROOT
ATOM      1  O   UNL     1      46.221  45.898 101.894  1.00  0.00    -0.454 OA
ENDROOT
BRANCH   1   2
ATOM      2  C   UNL     1      44.828  45.896 101.677  1.00  0.00     0.214 A 
ATOM      3  C   UNL     1      44.217  44.740 101.177  1.00  0.00     0.180 A 
ATOM      4  O   UNL     1      42.915  44.719 100.903  1.00  0.00    -0.452 OA
ATOM      5  C   UNL     1      43.991  46.939 102.099  1.00  0.00     0.239 A 
ATOM      6  C   UNL     1      42.107  45.742 101.169  1.00  0.00     0.146 A 
ATOM      7  O   UNL     1      44.459  47.835 102.847  1.00  0.00    -0.285 OA
ATOM      8  C   UNL     1      42.609  46.900 101.802  1.00  0.00     0.111 A 
ATOM      9  C   UNL     1      40.746  45.633 100.855  1.00  0.00     0.094 A 
ATOM     10  C   UNL     1      41.702  47.932 102.168  1.00  0.00     0.134 A 
ATOM     11  C   UNL     1      39.862  46.643 101.226  1.00  0.00     0.123 A 
ATOM     12  C   UNL     1      40.332  47.778 101.906  1.00  0.00     0.093 A 
BRANCH   3  13
ATOM     13  C   UNL     1      44.983  43.494 101.122  1.00  0.00     0.025 A 
ATOM     14  C   UNL     1      44.347  42.330 100.681  1.00  0.00     0.016 A 
ATOM     15  C   UNL     1      44.945  41.087 100.890  1.00  0.00     0.051 A 
ATOM     16  C   UNL     1      46.177  41.001 101.558  1.00  0.00     0.157 A 
ATOM     17  C   UNL     1      46.272  43.422 101.657  1.00  0.00     0.062 A 
ATOM     18  C   UNL     1      46.849  42.175 101.937  1.00  0.00     0.158 A 
BRANCH  16  19
ATOM     19  O   UNL     1      46.731  39.761 101.837  1.00  0.00    -0.504 OA
ATOM     20  H   UNL     1      47.109  39.158 101.110  1.00  0.00     0.293 HD
ENDBRANCH  16  19
BRANCH  18  21
ATOM     21  O   UNL     1      48.074  42.108 102.604  1.00  0.00    -0.504 OA
ATOM     22  H   UNL     1      48.718  42.887 102.526  1.00  0.00     0.293 HD
ENDBRANCH  18  21
ENDBRANCH   3  13
BRANCH  10  23
ATOM     23  O   UNL     1      42.159  49.111 102.753  1.00  0.00    -0.507 OA
ATOM     24  H   UNL     1      42.713  49.102 103.619  1.00  0.00     0.293 HD
ENDBRANCH  10  23
BRANCH  11  25
ATOM     25  O   UNL     1      38.518  46.523 100.888  1.00  0.00    -0.508 OA
ATOM     26  H   UNL     1      38.179  46.818  99.980  1.00  0.00     0.293 HD
ENDBRANCH  11  25
ENDBRANCH   1   2
BRANCH   1  27
ATOM     27  C   UNL     1      47.045  47.020 102.248  1.00  0.00     0.339 C 
ATOM     28  C   UNL     1      47.875  47.596 101.046  1.00  0.00     0.214 C 
ATOM     29  O   UNL     1      46.280  47.974 102.962  1.00  0.00    -0.332 OA
ATOM     30  C   UNL     1      47.191  48.833 100.423  1.00  0.00     0.180 C 
ATOM     31  C   UNL     1      46.881  49.259 102.935  1.00  0.00     0.179 C 
ATOM     32  C   UNL     1      46.701  49.843 101.507  1.00  0.00     0.177 C 
BRANCH  28  33
ATOM     33  O   UNL     1      48.125  46.631 100.060  1.00  0.00    -0.384 OA
ATOM     34  H   UNL     1      47.930  47.042  99.181  1.00  0.00     0.211 HD
ENDBRANCH  28  33
BRANCH  30  35
ATOM     35  O   UNL     1      48.075  49.498  99.543  1.00  0.00    -0.387 OA
ATOM     36  H   UNL     1      48.370  50.325 100.007  1.00  0.00     0.211 HD
ENDBRANCH  30  35
BRANCH  31  37
ATOM     37  C   UNL     1      46.302  50.125 104.080  1.00  0.00     0.191 C 
BRANCH  37  38
ATOM     38  O   UNL     1      44.896  50.096 104.125  1.00  0.00    -0.394 OA
ATOM     39  H   UNL     1      44.600  50.906 104.613  1.00  0.00     0.210 HD
ENDBRANCH  37  38
ENDBRANCH  31  37
BRANCH  32  40
ATOM     40  O   UNL     1      45.347  50.125 101.259  1.00  0.00    -0.387 OA
ATOM     41  H   UNL     1      44.826  49.814 102.046  1.00  0.00     0.211 HD
ENDBRANCH  32  40
ENDBRANCH   1  27
TORSDOF 12
ENDMDL
MODEL 5
REMARK VINA RESULT:    -1.725      1.952      3.260
REMARK INTER + INTRA:          -1.066
REMARK INTER:                  -5.099
REMARK INTRA:                   4.033
REMARK UNBOUND:                 1.466
REMARK SMILES O=c1c(O[C@@H]2O[C@H](CO)[C@H](O)[C@@H](O)[C@@H]2O)c(-c2ccc(O)c(O)c2)oc2cc(O)cc(O)c12
REMARK SMILES IDX 4 1 3 2 16 3 25 4 2 5 26 6 1 7 33 8 27 9 31 10 28 11 30 12
REMARK SMILES IDX 17 13 18 14 19 15 20 16 24 17 22 18 21 19 23 21 32 23 29 25
REMARK SMILES IDX 5 27 14 28 6 29 12 30 7 31 10 32 15 33 13 35 8 37 9 38 11 40
REMARK H PARENT 21 20 23 22 32 24 29 26 15 34 13 36 9 39 11 41
REMARK Flexibility Score: inf
ROOT
ATOM      1  O   UNL     1      45.987  32.573  99.124  1.00  0.00    -0.454 OA
ENDROOT
BRANCH   1   2
ATOM      2  C   UNL     1      46.389  33.723  99.834  1.00  0.00     0.214 A 
ATOM      3  C   UNL     1      46.787  34.861  99.122  1.00  0.00     0.180 A 
ATOM      4  O   UNL     1      47.229  35.944  99.754  1.00  0.00    -0.452 OA
ATOM      5  C   UNL     1      46.250  33.847 101.224  1.00  0.00     0.239 A 
ATOM      6  C   UNL     1      47.236  36.050 101.080  1.00  0.00     0.146 A 
ATOM      7  O   UNL     1      45.591  32.980 101.853  1.00  0.00    -0.285 OA
ATOM      8  C   UNL     1      46.724  35.005 101.881  1.00  0.00     0.111 A 
ATOM      9  C   UNL     1      47.713  37.230 101.666  1.00  0.00     0.094 A 
ATOM     10  C   UNL     1      46.647  35.192 103.288  1.00  0.00     0.134 A 
ATOM     11  C   UNL     1      47.625  37.410 103.044  1.00  0.00     0.123 A 
ATOM     12  C   UNL     1      47.068  36.407 103.853  1.00  0.00     0.093 A 
BRANCH   3  13
ATOM     13  C   UNL     1      46.545  34.920  97.679  1.00  0.00     0.025 A 
ATOM     14  C   UNL     1      45.814  35.992  97.161  1.00  0.00     0.016 A 
ATOM     15  C   UNL     1      45.318  35.934  95.858  1.00  0.00     0.051 A 
ATOM     16  C   UNL     1      45.539  34.793  95.071  1.00  0.00     0.157 A 
ATOM     17  C   UNL     1      46.887  33.847  96.851  1.00  0.00     0.062 A 
ATOM     18  C   UNL     1      46.334  33.746  95.566  1.00  0.00     0.158 A 
BRANCH  16  19
ATOM     19  O   UNL     1      44.978  34.702  93.807  1.00  0.00    -0.504 OA
ATOM     20  H   UNL     1      45.526  34.458  92.984  1.00  0.00     0.293 HD
ENDBRANCH  16  19
BRANCH  18  21
ATOM     21  O   UNL     1      46.561  32.602  94.798  1.00  0.00    -0.504 OA
ATOM     22  H   UNL     1      46.403  31.691  95.215  1.00  0.00     0.293 HD
ENDBRANCH  18  21
ENDBRANCH   3  13
BRANCH  10  23
ATOM     23  O   UNL     1      46.192  34.171 104.121  1.00  0.00    -0.507 OA
ATOM     24  H   UNL     1      46.439  33.189 103.951  1.00  0.00     0.293 HD
ENDBRANCH  10  23
BRANCH  11  25
ATOM     25  O   UNL     1      48.122  38.581 103.606  1.00  0.00    -0.508 OA
ATOM     26  H   UNL     1      48.291  39.402 103.038  1.00  0.00     0.293 HD
ENDBRANCH  11  25
ENDBRANCH   1   2
BRANCH   1  27
ATOM     27  C   UNL     1      45.675  31.280  99.667  1.00  0.00     0.339 C 
ATOM     28  C   UNL     1      46.900  30.567 100.340  1.00  0.00     0.214 C 
ATOM     29  O   UNL     1      44.512  31.364 100.471  1.00  0.00    -0.332 OA
ATOM     30  C   UNL     1      46.893  30.746 101.874  1.00  0.00     0.180 C 
ATOM     31  C   UNL     1      44.419  30.275 101.377  1.00  0.00     0.179 C 
ATOM     32  C   UNL     1      45.483  30.484 102.489  1.00  0.00     0.177 C 
BRANCH  28  33
ATOM     33  O   UNL     1      48.125  30.996  99.807  1.00  0.00    -0.384 OA
ATOM     34  H   UNL     1      47.997  31.915  99.463  1.00  0.00     0.211 HD
ENDBRANCH  28  33
BRANCH  30  35
ATOM     35  O   UNL     1      47.826  29.876 102.480  1.00  0.00    -0.387 OA
ATOM     36  H   UNL     1      48.119  29.237 101.777  1.00  0.00     0.211 HD
ENDBRANCH  30  35
BRANCH  31  37
ATOM     37  C   UNL     1      42.960  30.141 101.876  1.00  0.00     0.191 C 
BRANCH  37  38
ATOM     38  O   UNL     1      42.417  31.367 102.303  1.00  0.00    -0.394 OA
ATOM     39  H   UNL     1      43.113  31.826 102.840  1.00  0.00     0.210 HD
ENDBRANCH  37  38
ENDBRANCH  31  37
BRANCH  32  40
ATOM     40  O   UNL     1      45.145  31.588 103.290  1.00  0.00    -0.387 OA
ATOM     41  H   UNL     1      45.896  32.238 103.239  1.00  0.00     0.211 HD
ENDBRANCH  32  40
ENDBRANCH   1  27
TORSDOF 12
ENDMDL
MODEL 6
REMARK VINA RESULT:    -0.492      1.880      5.831
REMARK INTER + INTRA:           0.744
REMARK INTER:                   0.704
REMARK INTRA:                   0.040
REMARK UNBOUND:                 1.466
REMARK SMILES O=c1c(O[C@@H]2O[C@H](CO)[C@H](O)[C@@H](O)[C@@H]2O)c(-c2ccc(O)c(O)c2)oc2cc(O)cc(O)c12
REMARK SMILES IDX 4 1 3 2 16 3 25 4 2 5 26 6 1 7 33 8 27 9 31 10 28 11 30 12
REMARK SMILES IDX 17 13 18 14 19 15 20 16 24 17 22 18 21 19 23 21 32 23 29 25
REMARK SMILES IDX 5 27 14 28 6 29 12 30 7 31 10 32 15 33 13 35 8 37 9 38 11 40
REMARK H PARENT 21 20 23 22 32 24 29 26 15 34 13 36 9 39 11 41
REMARK Flexibility Score: inf
ROOT
ATOM      1  O   UNL     1      45.538  33.622 100.292  1.00  0.00    -0.454 OA
ENDROOT
BRANCH   1   2
ATOM      2  C   UNL     1      45.910  34.360  99.151  1.00  0.00     0.214 A 
ATOM      3  C   UNL     1      46.290  35.700  99.297  1.00  0.00     0.180 A 
ATOM      4  O   UNL     1      46.592  36.445  98.237  1.00  0.00    -0.452 OA
ATOM      5  C   UNL     1      46.085  33.773  97.889  1.00  0.00     0.239 A 
ATOM      6  C   UNL     1      46.640  35.954  97.002  1.00  0.00     0.146 A 
ATOM      7  O   UNL     1      46.079  32.520  97.791  1.00  0.00    -0.285 OA
ATOM      8  C   UNL     1      46.407  34.580  96.773  1.00  0.00     0.111 A 
ATOM      9  C   UNL     1      46.973  36.807  95.943  1.00  0.00     0.094 A 
ATOM     10  C   UNL     1      46.570  34.064  95.458  1.00  0.00     0.134 A 
ATOM     11  C   UNL     1      47.141  36.294  94.659  1.00  0.00     0.123 A 
ATOM     12  C   UNL     1      46.968  34.922  94.420  1.00  0.00     0.093 A 
BRANCH   3  13
ATOM     13  C   UNL     1      46.530  36.231 100.640  1.00  0.00     0.025 A 
ATOM     14  C   UNL     1      46.471  37.612 100.840  1.00  0.00     0.016 A 
ATOM     15  C   UNL     1      46.973  38.170 102.016  1.00  0.00     0.051 A 
ATOM     16  C   UNL     1      47.553  37.347 102.993  1.00  0.00     0.157 A 
ATOM     17  C   UNL     1      46.975  35.398 101.671  1.00  0.00     0.062 A 
ATOM     18  C   UNL     1      47.548  35.952 102.825  1.00  0.00     0.158 A 
BRANCH  16  19
ATOM     19  O   UNL     1      48.125  37.908 104.125  1.00  0.00    -0.504 OA
ATOM     20  H   UNL     1      47.840  38.816 104.485  1.00  0.00     0.293 HD
ENDBRANCH  16  19
BRANCH  18  21
ATOM     21  O   UNL     1      48.123  35.118 103.785  1.00  0.00    -0.504 OA
ATOM     22  H   UNL     1      48.012  34.114 103.695  1.00  0.00     0.293 HD
ENDBRANCH  18  21
ENDBRANCH   3  13
BRANCH  10  23
ATOM     23  O   UNL     1      46.306  32.725  95.177  1.00  0.00    -0.507 OA
ATOM     24  H   UNL     1      46.532  31.981  95.848  1.00  0.00     0.293 HD
ENDBRANCH  10  23
BRANCH  11  25
ATOM     25  O   UNL     1      47.453  37.163  93.619  1.00  0.00    -0.508 OA
ATOM     26  H   UNL     1      48.415  37.352  93.367  1.00  0.00     0.293 HD
ENDBRANCH  11  25
ENDBRANCH   1   2
BRANCH   1  27
ATOM     27  C   UNL     1      45.521  32.193 100.437  1.00  0.00     0.339 C 
ATOM     28  C   UNL     1      46.903  31.587 100.869  1.00  0.00     0.214 C 
ATOM     29  O   UNL     1      44.417  31.803 101.235  1.00  0.00    -0.332 OA
ATOM     30  C   UNL     1      46.957  31.318 102.389  1.00  0.00     0.180 C 
ATOM     31  C   UNL     1      44.598  30.508 101.786  1.00  0.00     0.179 C 
ATOM     32  C   UNL     1      45.668  30.608 102.907  1.00  0.00     0.177 C 
BRANCH  28  33
ATOM     33  O   UNL     1      47.983  32.393 100.480  1.00  0.00    -0.384 OA
ATOM     34  H   UNL     1      48.781  32.085 100.977  1.00  0.00     0.211 HD
ENDBRANCH  28  33
BRANCH  30  35
ATOM     35  O   UNL     1      48.080  30.524 102.713  1.00  0.00    -0.387 OA
ATOM     36  H   UNL     1      48.393  30.114 101.864  1.00  0.00     0.211 HD
ENDBRANCH  30  35
BRANCH  31  37
ATOM     37  C   UNL     1      43.228  29.940 102.230  1.00  0.00     0.191 C 
BRANCH  37  38
ATOM     38  O   UNL     1      42.325  30.945 102.625  1.00  0.00    -0.394 OA
ATOM     39  H   UNL     1      41.411  30.611 102.435  1.00  0.00     0.210 HD
ENDBRANCH  37  38
ENDBRANCH  31  37
BRANCH  32  40
ATOM     40  O   UNL     1      45.172  31.345 103.995  1.00  0.00    -0.387 OA
ATOM     41  H   UNL     1      44.204  31.507 103.833  1.00  0.00     0.211 HD
ENDBRANCH  32  40
ENDBRANCH   1  27
TORSDOF 12
ENDMDL
MODEL 7
REMARK VINA RESULT:    -0.411      1.644      7.016
REMARK INTER + INTRA:           0.862
REMARK INTER:                  -0.338
REMARK INTRA:                   1.200
REMARK UNBOUND:                 1.466
REMARK SMILES O=c1c(O[C@@H]2O[C@H](CO)[C@H](O)[C@@H](O)[C@@H]2O)c(-c2ccc(O)c(O)c2)oc2cc(O)cc(O)c12
REMARK SMILES IDX 4 1 3 2 16 3 25 4 2 5 26 6 1 7 33 8 27 9 31 10 28 11 30 12
REMARK SMILES IDX 17 13 18 14 19 15 20 16 24 17 22 18 21 19 23 21 32 23 29 25
REMARK SMILES IDX 5 27 14 28 6 29 12 30 7 31 10 32 15 33 13 35 8 37 9 38 11 40
REMARK H PARENT 21 20 23 22 32 24 29 26 15 34 13 36 9 39 11 41
REMARK Flexibility Score: inf
ROOT
ATOM      1  O   UNL     1      46.009  35.836  99.409  1.00  0.00    -0.454 OA
ENDROOT
BRANCH   1   2
ATOM      2  C   UNL     1      46.447  34.863 100.330  1.00  0.00     0.214 A 
ATOM      3  C   UNL     1      47.253  35.255 101.406  1.00  0.00     0.180 A 
ATOM      4  O   UNL     1      47.734  34.358 102.262  1.00  0.00    -0.452 OA
ATOM      5  C   UNL     1      45.976  33.542 100.323  1.00  0.00     0.239 A 
ATOM      6  C   UNL     1      47.414  33.068 102.209  1.00  0.00     0.146 A 
ATOM      7  O   UNL     1      45.004  33.243  99.584  1.00  0.00    -0.285 OA
ATOM      8  C   UNL     1      46.497  32.601 101.240  1.00  0.00     0.111 A 
ATOM      9  C   UNL     1      47.961  32.191 103.154  1.00  0.00     0.094 A 
ATOM     10  C   UNL     1      46.094  31.238 101.276  1.00  0.00     0.134 A 
ATOM     11  C   UNL     1      47.554  30.860 103.189  1.00  0.00     0.123 A 
ATOM     12  C   UNL     1      46.602  30.389 102.272  1.00  0.00     0.093 A 
BRANCH   3  13
ATOM     13  C   UNL     1      47.419  36.681 101.691  1.00  0.00     0.025 A 
ATOM     14  C   UNL     1      47.806  37.072 102.976  1.00  0.00     0.016 A 
ATOM     15  C   UNL     1      47.690  38.407 103.364  1.00  0.00     0.051 A 
ATOM     16  C   UNL     1      47.170  39.357 102.471  1.00  0.00     0.157 A 
ATOM     17  C   UNL     1      47.036  37.648 100.757  1.00  0.00     0.062 A 
ATOM     18  C   UNL     1      46.848  38.978 101.158  1.00  0.00     0.158 A 
BRANCH  16  19
ATOM     19  O   UNL     1      46.980  40.667 102.883  1.00  0.00    -0.504 OA
ATOM     20  H   UNL     1      46.062  41.035 103.123  1.00  0.00     0.293 HD
ENDBRANCH  16  19
BRANCH  18  21
ATOM     21  O   UNL     1      46.327  39.910 100.257  1.00  0.00    -0.504 OA
ATOM     22  H   UNL     1      46.708  40.849 100.247  1.00  0.00     0.293 HD
ENDBRANCH  18  21
ENDBRANCH   3  13
BRANCH  10  23
ATOM     23  O   UNL     1      45.227  30.724 100.313  1.00  0.00    -0.507 OA
ATOM     24  H   UNL     1      45.127  29.712 100.168  1.00  0.00     0.293 HD
ENDBRANCH  10  23
BRANCH  11  25
ATOM     25  O   UNL     1      48.125  30.003 104.124  1.00  0.00    -0.508 OA
ATOM     26  H   UNL     1      47.695  29.857 105.030  1.00  0.00     0.293 HD
ENDBRANCH  11  25
ENDBRANCH   1   2
BRANCH   1  27
ATOM     27  C   UNL     1      45.438  35.611  98.110  1.00  0.00     0.339 C 
ATOM     28  C   UNL     1      45.534  36.853  97.156  1.00  0.00     0.214 C 
ATOM     29  O   UNL     1      45.931  34.398  97.571  1.00  0.00    -0.332 OA
ATOM     30  C   UNL     1      46.730  36.734  96.186  1.00  0.00     0.180 C 
ATOM     31  C   UNL     1      45.781  34.349  96.161  1.00  0.00     0.179 C 
ATOM     32  C   UNL     1      46.821  35.319  95.535  1.00  0.00     0.177 C 
BRANCH  28  33
ATOM     33  O   UNL     1      45.600  38.063  97.861  1.00  0.00    -0.384 OA
ATOM     34  H   UNL     1      45.770  37.848  98.812  1.00  0.00     0.211 HD
ENDBRANCH  28  33
BRANCH  30  35
ATOM     35  O   UNL     1      46.638  37.704  95.163  1.00  0.00    -0.387 OA
ATOM     36  H   UNL     1      47.562  38.027  94.992  1.00  0.00     0.211 HD
ENDBRANCH  30  35
BRANCH  31  37
ATOM     37  C   UNL     1      45.876  32.881  95.682  1.00  0.00     0.191 C 
BRANCH  37  38
ATOM     38  O   UNL     1      45.971  32.771  94.282  1.00  0.00    -0.394 OA
ATOM     39  H   UNL     1      45.327  33.415  93.892  1.00  0.00     0.210 HD
ENDBRANCH  37  38
ENDBRANCH  31  37
BRANCH  32  40
ATOM     40  O   UNL     1      48.125  34.833  95.729  1.00  0.00    -0.387 OA
ATOM     41  H   UNL     1      48.732  35.618  95.792  1.00  0.00     0.211 HD
ENDBRANCH  32  40
ENDBRANCH   1  27
TORSDOF 12
ENDMDL
MODEL 8
REMARK VINA RESULT:    -0.396      1.620      5.863
REMARK INTER + INTRA:           0.884
REMARK INTER:                  -0.758
REMARK INTRA:                   1.643
REMARK UNBOUND:                 1.466
REMARK SMILES O=c1c(O[C@@H]2O[C@H](CO)[C@H](O)[C@@H](O)[C@@H]2O)c(-c2ccc(O)c(O)c2)oc2cc(O)cc(O)c12
REMARK SMILES IDX 4 1 3 2 16 3 25 4 2 5 26 6 1 7 33 8 27 9 31 10 28 11 30 12
REMARK SMILES IDX 17 13 18 14 19 15 20 16 24 17 22 18 21 19 23 21 32 23 29 25
REMARK SMILES IDX 5 27 14 28 6 29 12 30 7 31 10 32 15 33 13 35 8 37 9 38 11 40
REMARK H PARENT 21 20 23 22 32 24 29 26 15 34 13 36 9 39 11 41
REMARK Flexibility Score: inf
ROOT
ATOM      1  O   UNL     1      47.379  34.685 100.866  1.00  0.00    -0.454 OA
ENDROOT
BRANCH   1   2
ATOM      2  C   UNL     1      46.948  34.819  99.531  1.00  0.00     0.214 A 
ATOM      3  C   UNL     1      46.566  36.081  99.060  1.00  0.00     0.180 A 
ATOM      4  O   UNL     1      46.098  36.237  97.824  1.00  0.00    -0.452 OA
ATOM      5  C   UNL     1      47.045  33.781  98.593  1.00  0.00     0.239 A 
ATOM      6  C   UNL     1      46.050  35.242  96.942  1.00  0.00     0.146 A 
ATOM      7  O   UNL     1      47.690  32.744  98.891  1.00  0.00    -0.285 OA
ATOM      8  C   UNL     1      46.544  33.964  97.283  1.00  0.00     0.111 A 
ATOM      9  C   UNL     1      45.549  35.495  95.659  1.00  0.00     0.094 A 
ATOM     10  C   UNL     1      46.577  32.951  96.286  1.00  0.00     0.134 A 
ATOM     11  C   UNL     1      45.594  34.501  94.684  1.00  0.00     0.123 A 
ATOM     12  C   UNL     1      46.132  33.240  94.986  1.00  0.00     0.093 A 
BRANCH   3  13
ATOM     13  C   UNL     1      46.851  37.264  99.875  1.00  0.00     0.025 A 
ATOM     14  C   UNL     1      47.440  37.092 101.130  1.00  0.00     0.016 A 
ATOM     15  C   UNL     1      47.457  38.146 102.043  1.00  0.00     0.051 A 
ATOM     16  C   UNL     1      46.868  39.376 101.710  1.00  0.00     0.157 A 
ATOM     17  C   UNL     1      46.393  38.526  99.489  1.00  0.00     0.062 A 
ATOM     18  C   UNL     1      46.340  39.571 100.423  1.00  0.00     0.158 A 
BRANCH  16  19
ATOM     19  O   UNL     1      46.813  40.397 102.646  1.00  0.00    -0.504 OA
ATOM     20  H   UNL     1      47.152  40.280 103.599  1.00  0.00     0.293 HD
ENDBRANCH  16  19
BRANCH  18  21
ATOM     21  O   UNL     1      45.748  40.787 100.075  1.00  0.00    -0.504 OA
ATOM     22  H   UNL     1      46.198  41.371  99.379  1.00  0.00     0.293 HD
ENDBRANCH  18  21
ENDBRANCH   3  13
BRANCH  10  23
ATOM     23  O   UNL     1      47.013  31.662  96.590  1.00  0.00    -0.507 OA
ATOM     24  H   UNL     1      46.979  30.907  95.894  1.00  0.00     0.293 HD
ENDBRANCH  10  23
BRANCH  11  25
ATOM     25  O   UNL     1      45.073  34.768  93.423  1.00  0.00    -0.508 OA
ATOM     26  H   UNL     1      44.172  34.401  93.140  1.00  0.00     0.293 HD
ENDBRANCH  11  25
ENDBRANCH   1   2
BRANCH   1  27
ATOM     27  C   UNL     1      46.769  33.900 101.903  1.00  0.00     0.339 C 
ATOM     28  C   UNL     1      45.421  33.223 101.469  1.00  0.00     0.214 C 
ATOM     29  O   UNL     1      47.726  33.024 102.471  1.00  0.00    -0.332 OA
ATOM     30  C   UNL     1      45.630  31.749 101.058  1.00  0.00     0.180 C 
ATOM     31  C   UNL     1      47.111  31.938 103.145  1.00  0.00     0.179 C 
ATOM     32  C   UNL     1      46.527  30.977 102.074  1.00  0.00     0.177 C 
BRANCH  28  33
ATOM     33  O   UNL     1      44.777  33.927 100.441  1.00  0.00    -0.384 OA
ATOM     34  H   UNL     1      43.886  34.197 100.774  1.00  0.00     0.211 HD
ENDBRANCH  28  33
BRANCH  30  35
ATOM     35  O   UNL     1      44.388  31.084 100.945  1.00  0.00    -0.387 OA
ATOM     36  H   UNL     1      44.394  30.617 100.068  1.00  0.00     0.211 HD
ENDBRANCH  30  35
BRANCH  31  37
ATOM     37  C   UNL     1      48.124  31.298 104.125  1.00  0.00     0.191 C 
BRANCH  37  38
ATOM     38  O   UNL     1      48.125  29.892 104.064  1.00  0.00    -0.394 OA
ATOM     39  H   UNL     1      47.579  29.631 103.279  1.00  0.00     0.210 HD
ENDBRANCH  37  38
ENDBRANCH  31  37
BRANCH  32  40
ATOM     40  O   UNL     1      47.562  30.354 101.356  1.00  0.00    -0.387 OA
ATOM     41  H   UNL     1      47.476  29.373 101.493  1.00  0.00     0.211 HD
ENDBRANCH  32  40
ENDBRANCH   1  27
TORSDOF 12
ENDMDL
