MODEL 1
REMARK VINA RESULT:    -3.535      0.000      0.000
REMARK INTER + INTRA:          -4.284
REMARK INTER:                  -4.155
REMARK INTRA:                  -0.129
REMARK UNBOUND:                -0.129
REMARK SMILES O=C([O-])CCC(=O)[O-]
REMARK SMILES IDX 4 1 2 2 1 3 3 4 5 5 6 6 7 7 8 8
REMARK H PARENT
REMARK Flexibility Score: inf
ROOT
ATOM      1  C   UNL     1      40.516 -10.743 -43.527  1.00  0.00     0.059 C 
ENDROOT
BRANCH   1   2
ATOM      2  C   UNL     1      40.453  -9.359 -44.092  1.00  0.00     0.042 C 
ATOM      3  O   UNL     1      39.597  -9.071 -44.969  1.00  0.00    -0.550 OA
ATOM      4  O   UNL     1      41.372  -8.399 -43.685  1.00  0.00    -0.550 OA
ENDBRANCH   1   2
BRANCH   1   5
ATOM      5  C   UNL     1      40.800 -11.760 -44.635  1.00  0.00     0.059 C 
BRANCH   5   6
ATOM      6  C   UNL     1      42.273 -11.917 -44.835  1.00  0.00     0.042 C 
ATOM      7  O   UNL     1      42.756 -11.937 -45.998  1.00  0.00    -0.550 OA
ATOM      8  O   UNL     1      43.121 -11.993 -43.737  1.00  0.00    -0.550 OA
ENDBRANCH   5   6
ENDBRANCH   1   5
TORSDOF 3
ENDMDL
MODEL 2
REMARK VINA RESULT:    -3.525      0.111      3.711
REMARK INTER + INTRA:          -4.272
REMARK INTER:                  -4.141
REMARK INTRA:                  -0.131
REMARK UNBOUND:                -0.129
REMARK SMILES O=C([O-])CCC(=O)[O-]
REMARK SMILES IDX 4 1 2 2 1 3 3 4 5 5 6 6 7 7 8 8
REMARK H PARENT
REMARK Flexibility Score: inf
ROOT
ATOM      1  C   UNL     1      40.732 -11.722 -44.641  1.00  0.00     0.059 C 
ENDROOT
BRANCH   1   2
ATOM      2  C   UNL     1      42.207 -11.912 -44.802  1.00  0.00     0.042 C 
ATOM      3  O   UNL     1      42.952 -11.970 -43.789  1.00  0.00    -0.550 OA
ATOM      4  O   UNL     1      42.767 -11.978 -46.072  1.00  0.00    -0.550 OA
ENDBRANCH   1   2
BRANCH   1   5
ATOM      5  C   UNL     1      40.441 -10.717 -43.525  1.00  0.00     0.059 C 
BRANCH   5   6
ATOM      6  C   UNL     1      40.445  -9.322 -44.063  1.00  0.00     0.042 C 
ATOM      7  O   UNL     1      41.319  -8.499 -43.683  1.00  0.00    -0.550 OA
ATOM      8  O   UNL     1      39.513  -8.942 -45.022  1.00  0.00    -0.550 OA
ENDBRANCH   5   6
ENDBRANCH   1   5
TORSDOF 3
ENDMDL
MODEL 3
REMARK VINA RESULT:    -3.505      4.711      6.212
REMARK INTER + INTRA:          -4.248
REMARK INTER:                  -4.118
REMARK INTRA:                  -0.129
REMARK UNBOUND:                -0.129
REMARK SMILES O=C([O-])CCC(=O)[O-]
REMARK SMILES IDX 4 1 2 2 1 3 3 4 5 5 6 6 7 7 8 8
REMARK H PARENT
REMARK Flexibility Score: inf
ROOT
ATOM      1  C   UNL     1      44.960 -11.406 -39.454  1.00  0.00     0.059 C 
ENDROOT
BRANCH   1   2
ATOM      2  C   UNL     1      45.881 -12.547 -39.750  1.00  0.00     0.042 C 
ATOM      3  O   UNL     1      45.429 -13.718 -39.843  1.00  0.00    -0.550 OA
ATOM      4  O   UNL     1      47.247 -12.324 -39.876  1.00  0.00    -0.550 OA
ENDBRANCH   1   2
BRANCH   1   5
ATOM      5  C   UNL     1      43.607 -11.621 -40.135  1.00  0.00     0.059 C 
BRANCH   5   6
ATOM      6  C   UNL     1      43.619 -11.046 -41.516  1.00  0.00     0.042 C 
ATOM      7  O   UNL     1      43.504  -9.804 -41.687  1.00  0.00    -0.550 OA
ATOM      8  O   UNL     1      43.806 -11.877 -42.614  1.00  0.00    -0.550 OA
ENDBRANCH   5   6
ENDBRANCH   1   5
TORSDOF 3
ENDMDL
MODEL 4
REMARK VINA RESULT:    -3.497      4.746      5.628
REMARK INTER + INTRA:          -4.239
REMARK INTER:                  -4.135
REMARK INTRA:                  -0.104
REMARK UNBOUND:                -0.129
REMARK SMILES O=C([O-])CCC(=O)[O-]
REMARK SMILES IDX 4 1 2 2 1 3 3 4 5 5 6 6 7 7 8 8
REMARK H PARENT
REMARK Flexibility Score: inf
ROOT
ATOM      1  C   UNL     1      43.713 -11.670 -40.210  1.00  0.00     0.059 C 
ENDROOT
BRANCH   1   2
ATOM      2  C   UNL     1      43.636 -11.059 -41.574  1.00  0.00     0.042 C 
ATOM      3  O   UNL     1      43.418  -9.826 -41.704  1.00  0.00    -0.550 OA
ATOM      4  O   UNL     1      43.755 -11.860 -42.703  1.00  0.00    -0.550 OA
ENDBRANCH   1   2
BRANCH   1   5
ATOM      5  C   UNL     1      45.077 -11.389 -39.576  1.00  0.00     0.059 C 
BRANCH   5   6
ATOM      6  C   UNL     1      45.965 -12.586 -39.693  1.00  0.00     0.042 C 
ATOM      7  O   UNL     1      45.466 -13.736 -39.817  1.00  0.00    -0.550 OA
ATOM      8  O   UNL     1      47.346 -12.430 -39.714  1.00  0.00    -0.550 OA
ENDBRANCH   5   6
ENDBRANCH   1   5
TORSDOF 3
ENDMDL
MODEL 5
REMARK VINA RESULT:    -3.395      2.781      3.995
REMARK INTER + INTRA:          -4.119
REMARK INTER:                  -4.084
REMARK INTRA:                  -0.034
REMARK UNBOUND:                -0.129
REMARK SMILES O=C([O-])CCC(=O)[O-]
REMARK SMILES IDX 4 1 2 2 1 3 3 4 5 5 6 6 7 7 8 8
REMARK H PARENT
REMARK Flexibility Score: inf
ROOT
ATOM      1  C   UNL     1      43.463 -11.145 -42.288  1.00  0.00     0.059 C 
ENDROOT
BRANCH   1   2
ATOM      2  C   UNL     1      43.704 -11.657 -40.903  1.00  0.00     0.042 C 
ATOM      3  O   UNL     1      42.794 -11.588 -40.035  1.00  0.00    -0.550 OA
ATOM      4  O   UNL     1      44.948 -12.167 -40.556  1.00  0.00    -0.550 OA
ENDBRANCH   1   2
BRANCH   1   5
ATOM      5  C   UNL     1      43.471 -12.297 -43.293  1.00  0.00     0.059 C 
BRANCH   5   6
ATOM      6  C   UNL     1      42.590 -11.979 -44.460  1.00  0.00     0.042 C 
ATOM      7  O   UNL     1      43.061 -11.977 -45.628  1.00  0.00    -0.550 OA
ATOM      8  O   UNL     1      41.236 -11.733 -44.264  1.00  0.00    -0.550 OA
ENDBRANCH   5   6
ENDBRANCH   1   5
TORSDOF 3
ENDMDL
MODEL 6
REMARK VINA RESULT:    -3.319      6.353      7.541
REMARK INTER + INTRA:          -4.030
REMARK INTER:                  -3.849
REMARK INTRA:                  -0.181
REMARK UNBOUND:                -0.129
REMARK SMILES O=C([O-])CCC(=O)[O-]
REMARK SMILES IDX 4 1 2 2 1 3 3 4 5 5 6 6 7 7 8 8
REMARK H PARENT
REMARK Flexibility Score: inf
ROOT
ATOM      1  C   UNL     1      44.857 -11.981 -40.311  1.00  0.00     0.059 C 
ENDROOT
BRANCH   1   2
ATOM      2  C   UNL     1      45.945 -12.717 -39.596  1.00  0.00     0.042 C 
ATOM      3  O   UNL     1      47.145 -12.364 -39.734  1.00  0.00    -0.550 OA
ATOM      4  O   UNL     1      45.639 -13.824 -38.814  1.00  0.00    -0.550 OA
ENDBRANCH   1   2
BRANCH   1   5
ATOM      5  C   UNL     1      43.733 -11.612 -39.341  1.00  0.00     0.059 C 
BRANCH   5   6
ATOM      6  C   UNL     1      44.226 -10.645 -38.312  1.00  0.00     0.042 C 
ATOM      7  O   UNL     1      44.629  -9.503 -38.657  1.00  0.00    -0.550 OA
ATOM      8  O   UNL     1      44.197 -10.986 -36.965  1.00  0.00    -0.550 OA
ENDBRANCH   5   6
ENDBRANCH   1   5
TORSDOF 3
ENDMDL
MODEL 7
REMARK VINA RESULT:    -3.307      4.811      6.062
REMARK INTER + INTRA:          -4.015
REMARK INTER:                  -3.939
REMARK INTRA:                  -0.076
REMARK UNBOUND:                -0.129
REMARK SMILES O=C([O-])CCC(=O)[O-]
REMARK SMILES IDX 4 1 2 2 1 3 3 4 5 5 6 6 7 7 8 8
REMARK H PARENT
REMARK Flexibility Score: inf
ROOT
ATOM      1  C   UNL     1      43.524 -11.396 -39.931  1.00  0.00     0.059 C 
ENDROOT
BRANCH   1   2
ATOM      2  C   UNL     1      43.493 -10.927 -41.351  1.00  0.00     0.042 C 
ATOM      3  O   UNL     1      43.131  -9.751 -41.622  1.00  0.00    -0.550 OA
ATOM      4  O   UNL     1      43.816 -11.802 -42.380  1.00  0.00    -0.550 OA
ENDBRANCH   1   2
BRANCH   1   5
ATOM      5  C   UNL     1      42.265 -10.941 -39.190  1.00  0.00     0.059 C 
BRANCH   5   6
ATOM      6  C   UNL     1      42.629 -10.109 -38.002  1.00  0.00     0.042 C 
ATOM      7  O   UNL     1      43.371 -10.581 -37.100  1.00  0.00    -0.550 OA
ATOM      8  O   UNL     1      42.190  -8.794 -37.911  1.00  0.00    -0.550 OA
ENDBRANCH   5   6
ENDBRANCH   1   5
TORSDOF 3
ENDMDL
MODEL 8
REMARK VINA RESULT:    -3.296     12.021     12.642
REMARK INTER + INTRA:          -4.003
REMARK INTER:                  -3.827
REMARK INTRA:                  -0.175
REMARK UNBOUND:                -0.129
REMARK SMILES O=C([O-])CCC(=O)[O-]
REMARK SMILES IDX 4 1 2 2 1 3 3 4 5 5 6 6 7 7 8 8
REMARK H PARENT
REMARK Flexibility Score: inf
ROOT
ATOM      1  C   UNL     1      44.596 -14.881 -32.721  1.00  0.00     0.059 C 
ENDROOT
BRANCH   1   2
ATOM      2  C   UNL     1      44.139 -13.511 -32.334  1.00  0.00     0.042 C 
ATOM      3  O   UNL     1      44.249 -13.118 -31.143  1.00  0.00    -0.550 OA
ATOM      4  O   UNL     1      43.546 -12.682 -33.279  1.00  0.00    -0.550 OA
ENDBRANCH   1   2
BRANCH   1   5
ATOM      5  C   UNL     1      46.122 -14.975 -32.654  1.00  0.00     0.059 C 
BRANCH   5   6
ATOM      6  C   UNL     1      46.743 -14.184 -33.762  1.00  0.00     0.042 C 
ATOM      7  O   UNL     1      46.521 -14.492 -34.962  1.00  0.00    -0.550 OA
ATOM      8  O   UNL     1      47.528 -13.075 -33.470  1.00  0.00    -0.550 OA
ENDBRANCH   5   6
ENDBRANCH   1   5
TORSDOF 3
ENDMDL
MODEL 9
REMARK VINA RESULT:    -3.294      4.846      5.604
REMARK INTER + INTRA:          -4.000
REMARK INTER:                  -3.926
REMARK INTRA:                  -0.075
REMARK UNBOUND:                -0.129
REMARK SMILES O=C([O-])CCC(=O)[O-]
REMARK SMILES IDX 4 1 2 2 1 3 3 4 5 5 6 6 7 7 8 8
REMARK H PARENT
REMARK Flexibility Score: inf
ROOT
ATOM      1  C   UNL     1      42.332 -10.883 -39.154  1.00  0.00     0.059 C 
ENDROOT
BRANCH   1   2
ATOM      2  C   UNL     1      42.778 -10.064 -37.984  1.00  0.00     0.042 C 
ATOM      3  O   UNL     1      43.493 -10.579 -37.085  1.00  0.00    -0.550 OA
ATOM      4  O   UNL     1      42.365  -8.743 -37.861  1.00  0.00    -0.550 OA
ENDBRANCH   1   2
BRANCH   1   5
ATOM      5  C   UNL     1      43.541 -11.397 -39.938  1.00  0.00     0.059 C 
BRANCH   5   6
ATOM      6  C   UNL     1      43.486 -10.919 -41.355  1.00  0.00     0.042 C 
ATOM      7  O   UNL     1      43.164  -9.729 -41.610  1.00  0.00    -0.550 OA
ATOM      8  O   UNL     1      43.837 -11.774 -42.392  1.00  0.00    -0.550 OA
ENDBRANCH   5   6
ENDBRANCH   1   5
TORSDOF 3
ENDMDL
