MODEL 1
REMARK VINA RESULT:    -3.148      0.000      0.000
REMARK INTER + INTRA:          -3.778
REMARK INTER:                  -3.884
REMARK INTRA:                   0.106
REMARK UNBOUND:                 0.106
REMARK SMILES C=C1CC[C@H]2[C@@H]1[C@@H]1[C@H](CC[C@@H]2C)C1(C)C
REMARK SMILES IDX 6 1 5 2 4 3 3 4 2 5 1 6 11 7 12 8 10 9 7 11 8 12 13 13 14 14
REMARK SMILES IDX 15 15 9 16
REMARK H PARENT
REMARK Flexibility Score: 80.00
ROOT
ATOM      1  C   UNL     1     145.118 146.448 131.438  1.00  0.00     0.022 C 
ATOM      2  C   UNL     1     144.246 146.543 132.733  1.00  0.00    -0.000 C 
ATOM      3  C   UNL     1     145.033 147.411 133.745  1.00  0.00     0.009 C 
ATOM      4  C   UNL     1     146.139 148.130 132.983  1.00  0.00     0.031 C 
ATOM      5  C   UNL     1     146.178 147.488 131.643  1.00  0.00    -0.074 C 
ATOM      6  C   UNL     1     147.026 147.894 130.687  1.00  0.00     0.008 C 
ENDROOT
BRANCH   2   7
ATOM      7  C   UNL     1     143.621 145.288 133.411  1.00  0.00    -0.011 C 
ATOM      8  C   UNL     1     142.310 145.673 134.125  1.00  0.00     0.008 C 
BRANCH   7   9
ATOM      9  C   UNL     1     143.361 144.130 132.439  1.00  0.00     0.004 CG0
ATOM     10  G   UNL     1     144.606 143.256 132.286  1.00  0.00     0.000 G0
ENDBRANCH   7   9
ENDBRANCH   2   7
BRANCH   1  11
ATOM     11  C   UNL     1     145.716 145.163 130.775  1.00  0.00     0.006 C 
ATOM     12  C   UNL     1     145.521 143.685 131.146  1.00  0.00    -0.001 C 
ATOM     13  C   UNL     1     146.859 144.388 131.455  1.00  0.00    -0.029 C 
ATOM     14  C   UNL     1     147.246 144.690 132.908  1.00  0.00     0.012 C 
ATOM     15  C   UNL     1     148.021 144.002 130.532  1.00  0.00     0.012 C 
BRANCH  12  16
ATOM     16  C   UNL     1     144.602 143.253 132.288  1.00  0.00     0.005 CG0
ATOM     17  G   UNL     1     143.358 144.130 132.434  1.00  0.00     0.000 G0
ENDBRANCH  12  16
ENDBRANCH   1  11
TORSDOF 0
ENDMDL
MODEL 2
REMARK VINA RESULT:    -3.108      1.984      4.435
REMARK INTER + INTRA:          -3.729
REMARK INTER:                  -3.824
REMARK INTRA:                   0.095
REMARK UNBOUND:                 0.106
REMARK SMILES C=C1CC[C@H]2[C@@H]1[C@@H]1[C@H](CC[C@@H]2C)C1(C)C
REMARK SMILES IDX 6 1 5 2 4 3 3 4 2 5 1 6 11 7 12 8 10 9 7 11 8 12 13 13 14 14
REMARK SMILES IDX 15 15 9 16
REMARK H PARENT
REMARK Flexibility Score: 80.00
ROOT
ATOM      1  C   UNL     1     145.628 144.412 131.451  1.00  0.00     0.022 C 
ATOM      2  C   UNL     1     146.505 144.329 132.742  1.00  0.00    -0.000 C 
ATOM      3  C   UNL     1     145.724 143.471 133.766  1.00  0.00     0.009 C 
ATOM      4  C   UNL     1     144.615 142.745 133.016  1.00  0.00     0.031 C 
ATOM      5  C   UNL     1     144.569 143.373 131.670  1.00  0.00    -0.074 C 
ATOM      6  C   UNL     1     143.717 142.957 130.722  1.00  0.00     0.008 C 
ENDROOT
BRANCH   2   7
ATOM      7  C   UNL     1     147.133 145.591 133.406  1.00  0.00    -0.011 C 
ATOM      8  C   UNL     1     148.443 145.213 134.125  1.00  0.00     0.008 C 
BRANCH   7   9
ATOM      9  C   UNL     1     147.397 146.736 132.419  1.00  0.00     0.004 CG0
ATOM     10  G   UNL     1     146.155 147.613 132.256  1.00  0.00     0.000 G0
ENDBRANCH   7   9
ENDBRANCH   2   7
BRANCH   1  11
ATOM     11  C   UNL     1     145.027 145.690 130.777  1.00  0.00     0.006 C 
ATOM     12  C   UNL     1     145.227 147.172 131.131  1.00  0.00    -0.001 C 
ATOM     13  C   UNL     1     143.890 146.474 131.457  1.00  0.00    -0.029 C 
ATOM     14  C   UNL     1     143.512 146.188 132.916  1.00  0.00     0.012 C 
ATOM     15  C   UNL     1     142.721 146.851 130.538  1.00  0.00     0.012 C 
BRANCH  12  16
ATOM     16  C   UNL     1     146.154 147.615 132.261  1.00  0.00     0.005 CG0
ATOM     17  G   UNL     1     147.399 146.740 132.407  1.00  0.00     0.000 G0
ENDBRANCH  12  16
ENDBRANCH   1  11
TORSDOF 0
ENDMDL
MODEL 3
REMARK VINA RESULT:    -3.083      1.599      3.199
REMARK INTER + INTRA:          -3.698
REMARK INTER:                  -3.794
REMARK INTRA:                   0.096
REMARK UNBOUND:                 0.106
REMARK SMILES C=C1CC[C@H]2[C@@H]1[C@@H]1[C@H](CC[C@@H]2C)C1(C)C
REMARK SMILES IDX 6 1 5 2 4 3 3 4 2 5 1 6 11 7 12 8 10 9 7 11 8 12 13 13 14 14
REMARK SMILES IDX 15 15 9 16
REMARK H PARENT
REMARK Flexibility Score: 80.00
ROOT
ATOM      1  C   UNL     1     146.429 145.511 131.535  1.00  0.00     0.022 C 
ATOM      2  C   UNL     1     146.497 146.407 132.815  1.00  0.00    -0.000 C 
ATOM      3  C   UNL     1     147.261 145.600 133.892  1.00  0.00     0.009 C 
ATOM      4  C   UNL     1     147.962 144.440 133.196  1.00  0.00     0.031 C 
ATOM      5  C   UNL     1     147.398 144.403 131.822  1.00  0.00    -0.074 C 
ATOM      6  C   UNL     1     147.812 143.513 130.909  1.00  0.00     0.008 C 
ENDROOT
BRANCH   2   7
ATOM      7  C   UNL     1     145.240 147.113 133.406  1.00  0.00    -0.011 C 
ATOM      8  C   UNL     1     145.654 148.412 134.125  1.00  0.00     0.008 C 
BRANCH   7   9
ATOM      9  C   UNL     1     144.161 147.422 132.359  1.00  0.00     0.004 CG0
ATOM     10  G   UNL     1     143.224 146.228 132.173  1.00  0.00     0.000 G0
ENDBRANCH   7   9
ENDBRANCH   2   7
BRANCH   1  11
ATOM     11  C   UNL     1     145.154 144.967 130.809  1.00  0.00     0.006 C 
ATOM     12  C   UNL     1     143.670 145.253 131.084  1.00  0.00    -0.001 C 
ATOM     13  C   UNL     1     144.276 143.887 131.469  1.00  0.00    -0.029 C 
ATOM     14  C   UNL     1     144.469 143.525 132.947  1.00  0.00     0.012 C 
ATOM     15  C   UNL     1     143.881 142.723 130.552  1.00  0.00     0.012 C 
BRANCH  12  16
ATOM     16  C   UNL     1     143.224 146.226 132.174  1.00  0.00     0.005 CG0
ATOM     17  G   UNL     1     144.167 147.416 132.352  1.00  0.00     0.000 G0
ENDBRANCH  12  16
ENDBRANCH   1  11
TORSDOF 0
ENDMDL
MODEL 4
REMARK VINA RESULT:    -3.011      1.552      3.161
REMARK INTER + INTRA:          -3.610
REMARK INTER:                  -3.737
REMARK INTRA:                   0.127
REMARK UNBOUND:                 0.106
REMARK SMILES C=C1CC[C@H]2[C@@H]1[C@@H]1[C@H](CC[C@@H]2C)C1(C)C
REMARK SMILES IDX 6 1 5 2 4 3 3 4 2 5 1 6 11 7 12 8 10 9 7 11 8 12 13 13 14 14
REMARK SMILES IDX 15 15 9 16
REMARK H PARENT
REMARK Flexibility Score: 80.00
ROOT
ATOM      1  C   UNL     1     144.434 145.268 131.529  1.00  0.00     0.022 C 
ATOM      2  C   UNL     1     144.344 144.361 132.800  1.00  0.00    -0.000 C 
ATOM      3  C   UNL     1     143.476 145.116 133.834  1.00  0.00     0.009 C 
ATOM      4  C   UNL     1     142.752 146.241 133.104  1.00  0.00     0.031 C 
ATOM      5  C   UNL     1     143.391 146.319 131.765  1.00  0.00    -0.074 C 
ATOM      6  C   UNL     1     142.981 147.191 130.833  1.00  0.00     0.008 C 
ENDROOT
BRANCH   2   7
ATOM      7  C   UNL     1     145.602 143.721 133.459  1.00  0.00    -0.011 C 
ATOM      8  C   UNL     1     145.226 142.383 134.125  1.00  0.00     0.008 C 
BRANCH   7   9
ATOM      9  C   UNL     1     146.764 143.504 132.481  1.00  0.00     0.004 CG0
ATOM     10  G   UNL     1     147.629 144.759 132.373  1.00  0.00     0.000 G0
ENDBRANCH   7   9
ENDBRANCH   2   7
BRANCH   1  11
ATOM     11  C   UNL     1     145.717 145.888 130.880  1.00  0.00     0.006 C 
ATOM     12  C   UNL     1     147.195 145.695 131.250  1.00  0.00    -0.001 C 
ATOM     13  C   UNL     1     146.483 147.022 131.585  1.00  0.00    -0.029 C 
ATOM     14  C   UNL     1     146.175 147.378 133.045  1.00  0.00     0.012 C 
ATOM     15  C   UNL     1     146.862 148.205 130.686  1.00  0.00     0.012 C 
BRANCH  12  16
ATOM     16  C   UNL     1     147.631 144.756 132.374  1.00  0.00     0.005 CG0
ATOM     17  G   UNL     1     146.764 143.503 132.492  1.00  0.00     0.000 G0
ENDBRANCH  12  16
ENDBRANCH   1  11
TORSDOF 0
ENDMDL
MODEL 5
REMARK VINA RESULT:    -2.449      1.918      3.937
REMARK INTER + INTRA:          -2.915
REMARK INTER:                  -3.013
REMARK INTRA:                   0.097
REMARK UNBOUND:                 0.106
REMARK SMILES C=C1CC[C@H]2[C@@H]1[C@@H]1[C@H](CC[C@@H]2C)C1(C)C
REMARK SMILES IDX 6 1 5 2 4 3 3 4 2 5 1 6 11 7 12 8 10 9 7 11 8 12 13 13 14 14
REMARK SMILES IDX 15 15 9 16
REMARK H PARENT
REMARK Flexibility Score: 80.00
ROOT
ATOM      1  C   UNL     1     144.569 144.711 133.410  1.00  0.00     0.022 C 
ATOM      2  C   UNL     1     143.758 145.177 132.157  1.00  0.00    -0.000 C 
ATOM      3  C   UNL     1     143.784 144.010 131.141  1.00  0.00     0.009 C 
ATOM      4  C   UNL     1     144.248 142.760 131.878  1.00  0.00     0.031 C 
ATOM      5  C   UNL     1     144.746 143.238 133.193  1.00  0.00    -0.074 C 
ATOM      6  C   UNL     1     145.211 142.393 134.125  1.00  0.00     0.008 C 
ENDROOT
BRANCH   2   7
ATOM      7  C   UNL     1     144.007 146.551 131.466  1.00  0.00    -0.011 C 
ATOM      8  C   UNL     1     142.705 147.057 130.814  1.00  0.00     0.008 C 
BRANCH   7   9
ATOM      9  C   UNL     1     144.562 147.623 132.413  1.00  0.00     0.004 CG0
ATOM     10  G   UNL     1     146.086 147.540 132.499  1.00  0.00     0.000 G0
ENDBRANCH   7   9
ENDBRANCH   2   7
BRANCH   1  11
ATOM     11  C   UNL     1     145.868 145.349 134.006  1.00  0.00     0.006 C 
ATOM     12  C   UNL     1     146.608 146.632 133.597  1.00  0.00    -0.001 C 
ATOM     13  C   UNL     1     147.207 145.253 133.253  1.00  0.00    -0.029 C 
ATOM     14  C   UNL     1     147.246 144.778 131.794  1.00  0.00     0.012 C 
ATOM     15  C   UNL     1     148.406 144.835 134.112  1.00  0.00     0.012 C 
BRANCH  12  16
ATOM     16  C   UNL     1     146.092 147.542 132.483  1.00  0.00     0.005 CG0
ATOM     17  G   UNL     1     144.567 147.613 132.411  1.00  0.00     0.000 G0
ENDBRANCH  12  16
ENDBRANCH   1  11
TORSDOF 0
ENDMDL
MODEL 6
REMARK VINA RESULT:    -2.386      1.046      3.621
REMARK INTER + INTRA:          -2.838
REMARK INTER:                  -2.935
REMARK INTRA:                   0.097
REMARK UNBOUND:                 0.106
REMARK SMILES C=C1CC[C@H]2[C@@H]1[C@@H]1[C@H](CC[C@@H]2C)C1(C)C
REMARK SMILES IDX 6 1 5 2 4 3 3 4 2 5 1 6 11 7 12 8 10 9 7 11 8 12 13 13 14 14
REMARK SMILES IDX 15 15 9 16
REMARK H PARENT
REMARK Flexibility Score: 80.00
ROOT
ATOM      1  C   UNL     1     146.129 146.013 133.378  1.00  0.00     0.022 C 
ATOM      2  C   UNL     1     146.961 145.572 132.130  1.00  0.00    -0.000 C 
ATOM      3  C   UNL     1     146.948 146.757 131.135  1.00  0.00     0.009 C 
ATOM      4  C   UNL     1     146.469 147.993 131.887  1.00  0.00     0.031 C 
ATOM      5  C   UNL     1     145.951 147.490 133.185  1.00  0.00    -0.074 C 
ATOM      6  C   UNL     1     145.469 148.316 134.125  1.00  0.00     0.008 C 
ENDROOT
BRANCH   2   7
ATOM      7  C   UNL     1     146.727 144.211 131.410  1.00  0.00    -0.011 C 
ATOM      8  C   UNL     1     148.040 143.719 130.770  1.00  0.00     0.008 C 
BRANCH   7   9
ATOM      9  C   UNL     1     146.159 143.120 132.328  1.00  0.00     0.004 CG0
ATOM     10  G   UNL     1     144.633 143.191 132.380  1.00  0.00     0.000 G0
ENDBRANCH   7   9
ENDBRANCH   2   7
BRANCH   1  11
ATOM     11  C   UNL     1     144.822 145.361 133.941  1.00  0.00     0.006 C 
ATOM     12  C   UNL     1     144.096 144.080 133.501  1.00  0.00    -0.001 C 
ATOM     13  C   UNL     1     143.497 145.462 133.165  1.00  0.00    -0.029 C 
ATOM     14  C   UNL     1     143.482 145.956 131.712  1.00  0.00     0.012 C 
ATOM     15  C   UNL     1     142.280 145.863 134.007  1.00  0.00     0.012 C 
BRANCH  12  16
ATOM     16  C   UNL     1     144.636 143.188 132.385  1.00  0.00     0.005 CG0
ATOM     17  G   UNL     1     146.163 143.126 132.339  1.00  0.00     0.000 G0
ENDBRANCH  12  16
ENDBRANCH   1  11
TORSDOF 0
ENDMDL
MODEL 7
REMARK VINA RESULT:    -2.292      1.762      3.920
REMARK INTER + INTRA:          -2.722
REMARK INTER:                  -2.795
REMARK INTRA:                   0.073
REMARK UNBOUND:                 0.106
REMARK SMILES C=C1CC[C@H]2[C@@H]1[C@@H]1[C@H](CC[C@@H]2C)C1(C)C
REMARK SMILES IDX 6 1 5 2 4 3 3 4 2 5 1 6 11 7 12 8 10 9 7 11 8 12 13 13 14 14
REMARK SMILES IDX 15 15 9 16
REMARK H PARENT
REMARK Flexibility Score: 80.00
ROOT
ATOM      1  C   UNL     1     144.740 146.225 133.390  1.00  0.00     0.022 C 
ATOM      2  C   UNL     1     145.178 147.033 132.125  1.00  0.00    -0.000 C 
ATOM      3  C   UNL     1     144.008 146.961 131.115  1.00  0.00     0.009 C 
ATOM      4  C   UNL     1     142.774 146.472 131.864  1.00  0.00     0.031 C 
ATOM      5  C   UNL     1     143.272 146.004 133.183  1.00  0.00    -0.074 C 
ATOM      6  C   UNL     1     142.445 145.528 134.125  1.00  0.00     0.008 C 
ENDROOT
BRANCH   2   7
ATOM      7  C   UNL     1     146.555 146.813 131.430  1.00  0.00    -0.011 C 
ATOM      8  C   UNL     1     147.011 148.114 130.741  1.00  0.00     0.008 C 
BRANCH   7   9
ATOM      9  C   UNL     1     147.652 146.321 132.384  1.00  0.00     0.004 CG0
ATOM     10  G   UNL     1     147.631 144.797 132.498  1.00  0.00     0.000 G0
ENDBRANCH   7   9
ENDBRANCH   2   7
BRANCH   1  11
ATOM     11  C   UNL     1     145.418 144.952 134.000  1.00  0.00     0.006 C 
ATOM     12  C   UNL     1     146.727 144.252 133.604  1.00  0.00    -0.001 C 
ATOM     13  C   UNL     1     145.370 143.606 133.255  1.00  0.00    -0.029 C 
ATOM     14  C   UNL     1     144.907 143.541 131.794  1.00  0.00     0.012 C 
ATOM     15  C   UNL     1     144.987 142.399 134.120  1.00  0.00     0.012 C 
BRANCH  12  16
ATOM     16  C   UNL     1     147.626 144.790 132.492  1.00  0.00     0.005 CG0
ATOM     17  G   UNL     1     147.634 146.316 132.398  1.00  0.00     0.000 G0
ENDBRANCH  12  16
ENDBRANCH   1  11
TORSDOF 0
ENDMDL
MODEL 8
REMARK VINA RESULT:    -2.109      1.211      3.651
REMARK INTER + INTRA:          -2.497
REMARK INTER:                  -2.606
REMARK INTRA:                   0.109
REMARK UNBOUND:                 0.106
REMARK SMILES C=C1CC[C@H]2[C@@H]1[C@@H]1[C@H](CC[C@@H]2C)C1(C)C
REMARK SMILES IDX 6 1 5 2 4 3 3 4 2 5 1 6 11 7 12 8 10 9 7 11 8 12 13 13 14 14
REMARK SMILES IDX 15 15 9 16
REMARK H PARENT
REMARK Flexibility Score: 80.00
ROOT
ATOM      1  C   UNL     1     146.015 144.649 133.576  1.00  0.00     0.022 C 
ATOM      2  C   UNL     1     145.478 143.764 132.405  1.00  0.00    -0.000 C 
ATOM      3  C   UNL     1     146.588 143.717 131.327  1.00  0.00     0.009 C 
ATOM      4  C   UNL     1     147.879 144.216 131.966  1.00  0.00     0.031 C 
ATOM      5  C   UNL     1     147.475 144.800 133.271  1.00  0.00    -0.074 C 
ATOM      6  C   UNL     1     148.371 145.315 134.125  1.00  0.00     0.008 C 
ENDROOT
BRANCH   2   7
ATOM      7  C   UNL     1     144.070 143.981 131.773  1.00  0.00    -0.011 C 
ATOM      8  C   UNL     1     143.518 142.643 131.243  1.00  0.00     0.008 C 
BRANCH   7   9
ATOM      9  C   UNL     1     143.057 144.613 132.737  1.00  0.00     0.004 CG0
ATOM     10  G   UNL     1     143.150 146.139 132.703  1.00  0.00     0.000 G0
ENDBRANCH   7   9
ENDBRANCH   2   7
BRANCH   1  11
ATOM     11  C   UNL     1     145.416 145.987 134.123  1.00  0.00     0.006 C 
ATOM     12  C   UNL     1     144.119 146.713 133.734  1.00  0.00    -0.001 C 
ATOM     13  C   UNL     1     145.484 147.277 133.286  1.00  0.00    -0.029 C 
ATOM     14  C   UNL     1     145.885 147.223 131.806  1.00  0.00     0.012 C 
ATOM     15  C   UNL     1     145.952 148.522 134.049  1.00  0.00     0.012 C 
BRANCH  12  16
ATOM     16  C   UNL     1     143.152 146.140 132.700  1.00  0.00     0.005 CG0
ATOM     17  G   UNL     1     143.056 144.615 132.734  1.00  0.00     0.000 G0
ENDBRANCH  12  16
ENDBRANCH   1  11
TORSDOF 0
ENDMDL
MODEL 9
REMARK VINA RESULT:    -0.686      2.042      3.469
REMARK INTER + INTRA:          -0.741
REMARK INTER:                  -0.901
REMARK INTRA:                   0.160
REMARK UNBOUND:                 0.106
REMARK SMILES C=C1CC[C@H]2[C@@H]1[C@@H]1[C@H](CC[C@@H]2C)C1(C)C
REMARK SMILES IDX 6 1 5 2 4 3 3 4 2 5 1 6 11 7 12 8 10 9 7 11 8 12 13 13 14 14
REMARK SMILES IDX 15 15 9 16
REMARK H PARENT
REMARK Flexibility Score: 80.00
ROOT
ATOM      1  C   UNL     1     144.765 144.539 132.354  1.00  0.00     0.022 C 
ATOM      2  C   UNL     1     144.600 146.090 132.246  1.00  0.00    -0.000 C 
ATOM      3  C   UNL     1     144.382 146.419 130.749  1.00  0.00     0.009 C 
ATOM      4  C   UNL     1     144.042 145.119 130.030  1.00  0.00     0.031 C 
ATOM      5  C   UNL     1     144.332 144.038 131.008  1.00  0.00    -0.074 C 
ATOM      6  C   UNL     1     144.118 142.746 130.721  1.00  0.00     0.008 C 
ENDROOT
BRANCH   2   7
ATOM      7  C   UNL     1     145.595 147.083 132.916  1.00  0.00    -0.011 C 
ATOM      8  C   UNL     1     144.855 148.368 133.338  1.00  0.00     0.008 C 
BRANCH   7   9
ATOM      9  C   UNL     1     146.333 146.491 134.124  1.00  0.00     0.004 CG0
ATOM     10  G   UNL     1     147.577 145.722 133.680  1.00  0.00     0.000 G0
ENDBRANCH   7   9
ENDBRANCH   2   7
BRANCH   1  11
ATOM     11  C   UNL     1     146.003 143.738 132.877  1.00  0.00     0.006 C 
ATOM     12  C   UNL     1     147.317 144.250 133.487  1.00  0.00    -0.001 C 
ATOM     13  C   UNL     1     147.303 143.677 132.055  1.00  0.00    -0.029 C 
ATOM     14  C   UNL     1     147.509 144.610 130.855  1.00  0.00     0.012 C 
ATOM     15  C   UNL     1     147.915 142.278 131.911  1.00  0.00     0.012 C 
BRANCH  12  16
ATOM     16  C   UNL     1     147.577 145.739 133.712  1.00  0.00     0.005 CG0
ATOM     17  G   UNL     1     146.335 146.515 134.153  1.00  0.00     0.000 G0
ENDBRANCH  12  16
ENDBRANCH   1  11
TORSDOF 0
ENDMDL
