MODEL 1
REMARK VINA RESULT:    -4.009      0.000      0.000
REMARK INTER + INTRA:          -8.262
REMARK INTER:                  -6.821
REMARK INTRA:                  -1.441
REMARK UNBOUND:                -1.441
REMARK SMILES CCCCCCCCCCCCCC(=O)[O-]
REMARK SMILES IDX 8 1 9 2 10 3 11 4 12 5 13 6 14 7 15 8 16 9 7 10 6 11 5 12
REMARK SMILES IDX 4 13 3 14 2 15 1 16
REMARK H PARENT
REMARK Flexibility Score: inf
ROOT
ATOM      1  C   UNL     1      25.636  11.540  20.385  1.00  0.00     0.000 C 
ENDROOT
BRANCH   1   2
ATOM      2  C   UNL     1      24.550  12.601  20.143  1.00  0.00     0.000 C 
BRANCH   2   3
ATOM      3  C   UNL     1      23.132  12.079  20.432  1.00  0.00     0.000 C 
BRANCH   3   4
ATOM      4  C   UNL     1      23.036  10.567  20.709  1.00  0.00     0.000 C 
BRANCH   4   5
ATOM      5  C   UNL     1      22.517  10.222  22.123  1.00  0.00     0.006 C 
BRANCH   5   6
ATOM      6  C   UNL     1      22.372  11.450  23.038  1.00  0.00     0.053 C 
BRANCH   6   7
ATOM      7  C   UNL     1      23.459  11.509  24.066  1.00  0.00     0.041 C 
ATOM      8  O   UNL     1      24.058  12.594  24.293  1.00  0.00    -0.550 OA
ATOM      9  O   UNL     1      23.798  10.373  24.789  1.00  0.00    -0.550 OA
ENDBRANCH   6   7
ENDBRANCH   5   6
ENDBRANCH   4   5
ENDBRANCH   3   4
ENDBRANCH   2   3
ENDBRANCH   1   2
BRANCH   1  10
ATOM     10  C   UNL     1      26.360  11.725  21.729  1.00  0.00     0.000 C 
BRANCH  10  11
ATOM     11  C   UNL     1      26.583  10.406  22.500  1.00  0.00    -0.000 C 
BRANCH  11  12
ATOM     12  C   UNL     1      27.996  10.319  23.102  1.00  0.00    -0.000 C 
BRANCH  12  13
ATOM     13  C   UNL     1      29.093  10.215  22.031  1.00  0.00    -0.000 C 
BRANCH  13  14
ATOM     14  C   UNL     1      28.882   9.027  21.081  1.00  0.00    -0.000 C 
BRANCH  14  15
ATOM     15  C   UNL     1      29.696   9.204  19.794  1.00  0.00    -0.003 C 
ATOM     16  C   UNL     1      28.784   9.314  18.575  1.00  0.00     0.004 C 
ENDBRANCH  14  15
ENDBRANCH  13  14
ENDBRANCH  12  13
ENDBRANCH  11  12
ENDBRANCH  10  11
ENDBRANCH   1  10
TORSDOF 12
ENDMDL
MODEL 2
REMARK VINA RESULT:    -3.791      3.018      6.099
REMARK INTER + INTRA:          -7.891
REMARK INTER:                  -5.981
REMARK INTRA:                  -1.911
REMARK UNBOUND:                -1.441
REMARK SMILES CCCCCCCCCCCCCC(=O)[O-]
REMARK SMILES IDX 8 1 9 2 10 3 11 4 12 5 13 6 14 7 15 8 16 9 7 10 6 11 5 12
REMARK SMILES IDX 4 13 3 14 2 15 1 16
REMARK H PARENT
REMARK Flexibility Score: inf
ROOT
ATOM      1  C   UNL     1      25.248  12.426  20.361  1.00  0.00     0.000 C 
ENDROOT
BRANCH   1   2
ATOM      2  C   UNL     1      25.919  11.110  20.790  1.00  0.00     0.000 C 
BRANCH   2   3
ATOM      3  C   UNL     1      26.898  11.294  21.962  1.00  0.00     0.000 C 
BRANCH   3   4
ATOM      4  C   UNL     1      27.099  10.049  22.847  1.00  0.00     0.000 C 
BRANCH   4   5
ATOM      5  C   UNL     1      28.212   9.100  22.347  1.00  0.00     0.006 C 
BRANCH   5   6
ATOM      6  C   UNL     1      29.378   9.832  21.662  1.00  0.00     0.053 C 
BRANCH   6   7
ATOM      7  C   UNL     1      29.636   9.303  20.285  1.00  0.00     0.041 C 
ATOM      8  O   UNL     1      28.673   9.017  19.525  1.00  0.00    -0.550 OA
ATOM      9  O   UNL     1      30.939   9.146  19.831  1.00  0.00    -0.550 OA
ENDBRANCH   6   7
ENDBRANCH   5   6
ENDBRANCH   4   5
ENDBRANCH   3   4
ENDBRANCH   2   3
ENDBRANCH   1   2
BRANCH   1  10
ATOM     10  C   UNL     1      23.747  12.263  20.072  1.00  0.00     0.000 C 
BRANCH  10  11
ATOM     11  C   UNL     1      23.150  10.947  20.615  1.00  0.00    -0.000 C 
BRANCH  11  12
ATOM     12  C   UNL     1      22.293  11.174  21.872  1.00  0.00    -0.000 C 
BRANCH  12  13
ATOM     13  C   UNL     1      22.827  10.421  23.100  1.00  0.00    -0.000 C 
BRANCH  13  14
ATOM     14  C   UNL     1      23.740  11.290  23.977  1.00  0.00    -0.000 C 
BRANCH  14  15
ATOM     15  C   UNL     1      23.394  12.776  23.822  1.00  0.00    -0.003 C 
ATOM     16  C   UNL     1      24.653  13.638  23.818  1.00  0.00     0.004 C 
ENDBRANCH  14  15
ENDBRANCH  13  14
ENDBRANCH  12  13
ENDBRANCH  11  12
ENDBRANCH  10  11
ENDBRANCH   1  10
TORSDOF 12
ENDMDL
MODEL 3
REMARK VINA RESULT:    -3.749      2.104      2.981
REMARK INTER + INTRA:          -7.820
REMARK INTER:                  -6.822
REMARK INTRA:                  -0.998
REMARK UNBOUND:                -1.441
REMARK SMILES CCCCCCCCCCCCCC(=O)[O-]
REMARK SMILES IDX 8 1 9 2 10 3 11 4 12 5 13 6 14 7 15 8 16 9 7 10 6 11 5 12
REMARK SMILES IDX 4 13 3 14 2 15 1 16
REMARK H PARENT
REMARK Flexibility Score: inf
ROOT
ATOM      1  C   UNL     1      26.237  12.396  22.096  1.00  0.00     0.000 C 
ENDROOT
BRANCH   1   2
ATOM      2  C   UNL     1      25.525  11.404  21.161  1.00  0.00     0.000 C 
BRANCH   2   3
ATOM      3  C   UNL     1      24.119  11.023  21.655  1.00  0.00     0.000 C 
BRANCH   3   4
ATOM      4  C   UNL     1      23.037  10.962  20.560  1.00  0.00     0.000 C 
BRANCH   4   5
ATOM      5  C   UNL     1      22.156  12.230  20.479  1.00  0.00     0.006 C 
BRANCH   5   6
ATOM      6  C   UNL     1      22.496  13.135  19.284  1.00  0.00     0.053 C 
BRANCH   6   7
ATOM      7  C   UNL     1      23.360  14.290  19.688  1.00  0.00     0.041 C 
ATOM      8  O   UNL     1      23.632  14.484  20.903  1.00  0.00    -0.550 OA
ATOM      9  O   UNL     1      23.883  15.141  18.724  1.00  0.00    -0.550 OA
ENDBRANCH   6   7
ENDBRANCH   5   6
ENDBRANCH   4   5
ENDBRANCH   3   4
ENDBRANCH   2   3
ENDBRANCH   1   2
BRANCH   1  10
ATOM     10  C   UNL     1      27.462  11.783  22.795  1.00  0.00     0.000 C 
BRANCH  10  11
ATOM     11  C   UNL     1      27.205  10.375  23.373  1.00  0.00    -0.000 C 
BRANCH  11  12
ATOM     12  C   UNL     1      28.411   9.440  23.181  1.00  0.00    -0.000 C 
BRANCH  12  13
ATOM     13  C   UNL     1      29.287   9.839  21.983  1.00  0.00    -0.000 C 
BRANCH  13  14
ATOM     14  C   UNL     1      28.936   9.059  20.708  1.00  0.00    -0.000 C 
BRANCH  14  15
ATOM     15  C   UNL     1      30.001   9.271  19.625  1.00  0.00    -0.003 C 
ATOM     16  C   UNL     1      29.405   9.123  18.228  1.00  0.00     0.004 C 
ENDBRANCH  14  15
ENDBRANCH  13  14
ENDBRANCH  12  13
ENDBRANCH  11  12
ENDBRANCH  10  11
ENDBRANCH   1  10
TORSDOF 12
ENDMDL
MODEL 4
REMARK VINA RESULT:    -3.746      2.454      5.515
REMARK INTER + INTRA:          -7.815
REMARK INTER:                  -6.089
REMARK INTRA:                  -1.726
REMARK UNBOUND:                -1.441
REMARK SMILES CCCCCCCCCCCCCC(=O)[O-]
REMARK SMILES IDX 8 1 9 2 10 3 11 4 12 5 13 6 14 7 15 8 16 9 7 10 6 11 5 12
REMARK SMILES IDX 4 13 3 14 2 15 1 16
REMARK H PARENT
REMARK Flexibility Score: inf
ROOT
ATOM      1  C   UNL     1      25.504  11.746  20.718  1.00  0.00     0.000 C 
ENDROOT
BRANCH   1   2
ATOM      2  C   UNL     1      26.108  12.562  21.874  1.00  0.00     0.000 C 
BRANCH   2   3
ATOM      3  C   UNL     1      27.153  11.770  22.680  1.00  0.00     0.000 C 
BRANCH   3   4
ATOM      4  C   UNL     1      27.419  10.339  22.176  1.00  0.00     0.000 C 
BRANCH   4   5
ATOM      5  C   UNL     1      27.883   9.362  23.280  1.00  0.00     0.006 C 
BRANCH   5   6
ATOM      6  C   UNL     1      27.371   9.737  24.681  1.00  0.00     0.053 C 
BRANCH   6   7
ATOM      7  C   UNL     1      28.457   9.662  25.709  1.00  0.00     0.041 C 
ATOM      8  O   UNL     1      28.170   9.661  26.936  1.00  0.00    -0.550 OA
ATOM      9  O   UNL     1      29.786   9.571  25.315  1.00  0.00    -0.550 OA
ENDBRANCH   6   7
ENDBRANCH   5   6
ENDBRANCH   4   5
ENDBRANCH   3   4
ENDBRANCH   2   3
ENDBRANCH   1   2
BRANCH   1  10
ATOM     10  C   UNL     1      24.318  12.457  20.045  1.00  0.00     0.000 C 
BRANCH  10  11
ATOM     11  C   UNL     1      22.941  11.910  20.477  1.00  0.00    -0.000 C 
BRANCH  11  12
ATOM     12  C   UNL     1      22.990  10.407  20.803  1.00  0.00    -0.000 C 
BRANCH  12  13
ATOM     13  C   UNL     1      22.479  10.089  22.217  1.00  0.00    -0.000 C 
BRANCH  13  14
ATOM     14  C   UNL     1      22.723  11.237  23.206  1.00  0.00    -0.000 C 
BRANCH  14  15
ATOM     15  C   UNL     1      23.774  10.845  24.252  1.00  0.00    -0.003 C 
ATOM     16  C   UNL     1      24.234  12.058  25.054  1.00  0.00     0.004 C 
ENDBRANCH  14  15
ENDBRANCH  13  14
ENDBRANCH  12  13
ENDBRANCH  11  12
ENDBRANCH  10  11
ENDBRANCH   1  10
TORSDOF 12
ENDMDL
MODEL 5
REMARK VINA RESULT:    -3.733      3.342      4.296
REMARK INTER + INTRA:          -7.792
REMARK INTER:                  -7.145
REMARK INTRA:                  -0.646
REMARK UNBOUND:                -1.441
REMARK SMILES CCCCCCCCCCCCCC(=O)[O-]
REMARK SMILES IDX 8 1 9 2 10 3 11 4 12 5 13 6 14 7 15 8 16 9 7 10 6 11 5 12
REMARK SMILES IDX 4 13 3 14 2 15 1 16
REMARK H PARENT
REMARK Flexibility Score: inf
ROOT
ATOM      1  C   UNL     1      25.855  11.510  21.177  1.00  0.00     0.000 C 
ENDROOT
BRANCH   1   2
ATOM      2  C   UNL     1      24.391  11.038  21.209  1.00  0.00     0.000 C 
BRANCH   2   3
ATOM      3  C   UNL     1      23.484  11.845  20.265  1.00  0.00     0.000 C 
BRANCH   3   4
ATOM      4  C   UNL     1      24.164  13.038  19.567  1.00  0.00     0.000 C 
BRANCH   4   5
ATOM      5  C   UNL     1      23.185  14.151  19.130  1.00  0.00     0.006 C 
BRANCH   5   6
ATOM      6  C   UNL     1      23.597  15.552  19.612  1.00  0.00     0.053 C 
BRANCH   6   7
ATOM      7  C   UNL     1      23.584  16.551  18.496  1.00  0.00     0.041 C 
ATOM      8  O   UNL     1      23.260  16.195  17.331  1.00  0.00    -0.550 OA
ATOM      9  O   UNL     1      23.908  17.878  18.744  1.00  0.00    -0.550 OA
ENDBRANCH   6   7
ENDBRANCH   5   6
ENDBRANCH   4   5
ENDBRANCH   3   4
ENDBRANCH   2   3
ENDBRANCH   1   2
BRANCH   1  10
ATOM     10  C   UNL     1      26.636  11.110  22.440  1.00  0.00     0.000 C 
BRANCH  10  11
ATOM     11  C   UNL     1      27.541   9.875  22.244  1.00  0.00    -0.000 C 
BRANCH  11  12
ATOM     12  C   UNL     1      29.020  10.261  22.070  1.00  0.00    -0.000 C 
BRANCH  12  13
ATOM     13  C   UNL     1      29.741   9.395  21.025  1.00  0.00    -0.000 C 
BRANCH  13  14
ATOM     14  C   UNL     1      28.880   9.129  19.781  1.00  0.00    -0.000 C 
BRANCH  14  15
ATOM     15  C   UNL     1      29.739   9.128  18.511  1.00  0.00    -0.003 C 
ATOM     16  C   UNL     1      31.209   9.372  18.839  1.00  0.00     0.004 C 
ENDBRANCH  14  15
ENDBRANCH  13  14
ENDBRANCH  12  13
ENDBRANCH  11  12
ENDBRANCH  10  11
ENDBRANCH   1  10
TORSDOF 12
ENDMDL
MODEL 6
REMARK VINA RESULT:    -3.711      2.521      5.350
REMARK INTER + INTRA:          -7.755
REMARK INTER:                  -5.650
REMARK INTRA:                  -2.105
REMARK UNBOUND:                -1.441
REMARK SMILES CCCCCCCCCCCCCC(=O)[O-]
REMARK SMILES IDX 8 1 9 2 10 3 11 4 12 5 13 6 14 7 15 8 16 9 7 10 6 11 5 12
REMARK SMILES IDX 4 13 3 14 2 15 1 16
REMARK H PARENT
REMARK Flexibility Score: inf
ROOT
ATOM      1  C   UNL     1      22.992  10.760  20.554  1.00  0.00     0.000 C 
ENDROOT
BRANCH   1   2
ATOM      2  C   UNL     1      23.188  12.267  20.785  1.00  0.00     0.000 C 
BRANCH   2   3
ATOM      3  C   UNL     1      24.648  12.715  20.598  1.00  0.00     0.000 C 
BRANCH   3   4
ATOM      4  C   UNL     1      25.692  11.585  20.676  1.00  0.00     0.000 C 
BRANCH   4   5
ATOM      5  C   UNL     1      26.554  11.617  21.958  1.00  0.00     0.006 C 
BRANCH   5   6
ATOM      6  C   UNL     1      27.008  10.223  22.424  1.00  0.00     0.053 C 
BRANCH   6   7
ATOM      7  C   UNL     1      28.389   9.897  21.944  1.00  0.00     0.041 C 
ATOM      8  O   UNL     1      28.552   9.230  20.888  1.00  0.00    -0.550 OA
ATOM      9  O   UNL     1      29.497  10.347  22.650  1.00  0.00    -0.550 OA
ENDBRANCH   6   7
ENDBRANCH   5   6
ENDBRANCH   4   5
ENDBRANCH   3   4
ENDBRANCH   2   3
ENDBRANCH   1   2
BRANCH   1  10
ATOM     10  C   UNL     1      22.558  10.013  21.826  1.00  0.00     0.000 C 
BRANCH  10  11
ATOM     11  C   UNL     1      22.354  10.936  23.047  1.00  0.00    -0.000 C 
BRANCH  11  12
ATOM     12  C   UNL     1      23.224  10.516  24.244  1.00  0.00    -0.000 C 
BRANCH  12  13
ATOM     13  C   UNL     1      24.076  11.671  24.793  1.00  0.00    -0.000 C 
BRANCH  13  14
ATOM     14  C   UNL     1      23.515  13.050  24.419  1.00  0.00    -0.000 C 
BRANCH  14  15
ATOM     15  C   UNL     1      24.643  14.014  24.032  1.00  0.00    -0.003 C 
ATOM     16  C   UNL     1      25.922  13.705  24.805  1.00  0.00     0.004 C 
ENDBRANCH  14  15
ENDBRANCH  13  14
ENDBRANCH  12  13
ENDBRANCH  11  12
ENDBRANCH  10  11
ENDBRANCH   1  10
TORSDOF 12
ENDMDL
MODEL 7
REMARK VINA RESULT:    -3.701      1.579      2.770
REMARK INTER + INTRA:          -7.738
REMARK INTER:                  -5.975
REMARK INTRA:                  -1.763
REMARK UNBOUND:                -1.441
REMARK SMILES CCCCCCCCCCCCCC(=O)[O-]
REMARK SMILES IDX 8 1 9 2 10 3 11 4 12 5 13 6 14 7 15 8 16 9 7 10 6 11 5 12
REMARK SMILES IDX 4 13 3 14 2 15 1 16
REMARK H PARENT
REMARK Flexibility Score: inf
ROOT
ATOM      1  C   UNL     1      23.009  11.849  20.304  1.00  0.00     0.000 C 
ENDROOT
BRANCH   1   2
ATOM      2  C   UNL     1      23.076  10.434  20.902  1.00  0.00     0.000 C 
BRANCH   2   3
ATOM      3  C   UNL     1      22.306  10.310  22.228  1.00  0.00     0.000 C 
BRANCH   3   4
ATOM      4  C   UNL     1      23.117  10.664  23.489  1.00  0.00     0.000 C 
BRANCH   4   5
ATOM      5  C   UNL     1      22.750  12.033  24.106  1.00  0.00     0.006 C 
BRANCH   5   6
ATOM      6  C   UNL     1      23.922  13.028  24.126  1.00  0.00     0.053 C 
BRANCH   6   7
ATOM      7  C   UNL     1      23.677  14.195  23.218  1.00  0.00     0.041 C 
ATOM      8  O   UNL     1      24.645  14.879  22.791  1.00  0.00    -0.550 OA
ATOM      9  O   UNL     1      22.384  14.515  22.828  1.00  0.00    -0.550 OA
ENDBRANCH   6   7
ENDBRANCH   5   6
ENDBRANCH   4   5
ENDBRANCH   3   4
ENDBRANCH   2   3
ENDBRANCH   1   2
BRANCH   1  10
ATOM     10  C   UNL     1      24.395  12.496  20.149  1.00  0.00     0.000 C 
BRANCH  10  11
ATOM     11  C   UNL     1      25.566  11.524  20.411  1.00  0.00    -0.000 C 
BRANCH  11  12
ATOM     12  C   UNL     1      26.367  11.907  21.667  1.00  0.00    -0.000 C 
BRANCH  12  13
ATOM     13  C   UNL     1      26.685  10.698  22.560  1.00  0.00    -0.000 C 
BRANCH  13  14
ATOM     14  C   UNL     1      28.182  10.353  22.577  1.00  0.00    -0.000 C 
BRANCH  14  15
ATOM     15  C   UNL     1      28.442   9.013  21.879  1.00  0.00    -0.003 C 
ATOM     16  C   UNL     1      29.052   9.221  20.496  1.00  0.00     0.004 C 
ENDBRANCH  14  15
ENDBRANCH  13  14
ENDBRANCH  12  13
ENDBRANCH  11  12
ENDBRANCH  10  11
ENDBRANCH   1  10
TORSDOF 12
ENDMDL
MODEL 8
REMARK VINA RESULT:    -3.657      2.609      5.623
REMARK INTER + INTRA:          -7.663
REMARK INTER:                  -5.875
REMARK INTRA:                  -1.788
REMARK UNBOUND:                -1.441
REMARK SMILES CCCCCCCCCCCCCC(=O)[O-]
REMARK SMILES IDX 8 1 9 2 10 3 11 4 12 5 13 6 14 7 15 8 16 9 7 10 6 11 5 12
REMARK SMILES IDX 4 13 3 14 2 15 1 16
REMARK H PARENT
REMARK Flexibility Score: inf
ROOT
ATOM      1  C   UNL     1      25.908  13.325  22.731  1.00  0.00     0.000 C 
ENDROOT
BRANCH   1   2
ATOM      2  C   UNL     1      25.412  12.318  23.783  1.00  0.00     0.000 C 
BRANCH   2   3
ATOM      3  C   UNL     1      25.979  10.904  23.568  1.00  0.00     0.000 C 
BRANCH   3   4
ATOM      4  C   UNL     1      26.918  10.754  22.356  1.00  0.00     0.000 C 
BRANCH   4   5
ATOM      5  C   UNL     1      27.963   9.625  22.510  1.00  0.00     0.006 C 
BRANCH   5   6
ATOM      6  C   UNL     1      27.959   8.975  23.904  1.00  0.00     0.053 C 
BRANCH   6   7
ATOM      7  C   UNL     1      29.177   9.343  24.693  1.00  0.00     0.041 C 
ATOM      8  O   UNL     1      30.321   9.257  24.171  1.00  0.00    -0.550 OA
ATOM      9  O   UNL     1      29.051   9.800  25.998  1.00  0.00    -0.550 OA
ENDBRANCH   6   7
ENDBRANCH   5   6
ENDBRANCH   4   5
ENDBRANCH   3   4
ENDBRANCH   2   3
ENDBRANCH   1   2
BRANCH   1  10
ATOM     10  C   UNL     1      24.824  14.334  22.316  1.00  0.00     0.000 C 
BRANCH  10  11
ATOM     11  C   UNL     1      23.907  13.828  21.183  1.00  0.00    -0.000 C 
BRANCH  11  12
ATOM     12  C   UNL     1      24.620  12.819  20.267  1.00  0.00    -0.000 C 
BRANCH  12  13
ATOM     13  C   UNL     1      23.870  11.481  20.160  1.00  0.00    -0.000 C 
BRANCH  13  14
ATOM     14  C   UNL     1      22.597  11.447  21.018  1.00  0.00    -0.000 C 
BRANCH  14  15
ATOM     15  C   UNL     1      22.626  10.265  21.993  1.00  0.00    -0.003 C 
ATOM     16  C   UNL     1      21.975  10.631  23.324  1.00  0.00     0.004 C 
ENDBRANCH  14  15
ENDBRANCH  13  14
ENDBRANCH  12  13
ENDBRANCH  11  12
ENDBRANCH  10  11
ENDBRANCH   1  10
TORSDOF 12
ENDMDL
MODEL 9
REMARK VINA RESULT:    -3.597      1.874      3.874
REMARK INTER + INTRA:          -7.561
REMARK INTER:                  -5.790
REMARK INTRA:                  -1.771
REMARK UNBOUND:                -1.441
REMARK SMILES CCCCCCCCCCCCCC(=O)[O-]
REMARK SMILES IDX 8 1 9 2 10 3 11 4 12 5 13 6 14 7 15 8 16 9 7 10 6 11 5 12
REMARK SMILES IDX 4 13 3 14 2 15 1 16
REMARK H PARENT
REMARK Flexibility Score: inf
ROOT
ATOM      1  C   UNL     1      23.008  10.488  21.133  1.00  0.00     0.000 C 
ENDROOT
BRANCH   1   2
ATOM      2  C   UNL     1      22.194  10.455  22.437  1.00  0.00     0.000 C 
BRANCH   2   3
ATOM      3  C   UNL     1      23.082  10.389  23.692  1.00  0.00     0.000 C 
BRANCH   3   4
ATOM      4  C   UNL     1      23.545  11.753  24.237  1.00  0.00     0.000 C 
BRANCH   4   5
ATOM      5  C   UNL     1      24.255  11.672  25.607  1.00  0.00     0.006 C 
BRANCH   5   6
ATOM      6  C   UNL     1      25.323  10.567  25.677  1.00  0.00     0.053 C 
BRANCH   6   7
ATOM      7  C   UNL     1      26.649  11.101  26.123  1.00  0.00     0.041 C 
ATOM      8  O   UNL     1      27.640  10.331  26.228  1.00  0.00    -0.550 OA
ATOM      9  O   UNL     1      26.797  12.453  26.402  1.00  0.00    -0.550 OA
ENDBRANCH   6   7
ENDBRANCH   5   6
ENDBRANCH   4   5
ENDBRANCH   3   4
ENDBRANCH   2   3
ENDBRANCH   1   2
BRANCH   1  10
ATOM     10  C   UNL     1      22.868  11.821  20.378  1.00  0.00     0.000 C 
BRANCH  10  11
ATOM     11  C   UNL     1      24.220  12.471  20.014  1.00  0.00    -0.000 C 
BRANCH  11  12
ATOM     12  C   UNL     1      25.400  11.801  20.738  1.00  0.00    -0.000 C 
BRANCH  12  13
ATOM     13  C   UNL     1      26.031  12.704  21.809  1.00  0.00    -0.000 C 
BRANCH  13  14
ATOM     14  C   UNL     1      27.068  11.967  22.669  1.00  0.00    -0.000 C 
BRANCH  14  15
ATOM     15  C   UNL     1      27.039  10.460  22.389  1.00  0.00    -0.003 C 
ATOM     16  C   UNL     1      28.431   9.936  22.048  1.00  0.00     0.004 C 
ENDBRANCH  14  15
ENDBRANCH  13  14
ENDBRANCH  12  13
ENDBRANCH  11  12
ENDBRANCH  10  11
ENDBRANCH   1  10
TORSDOF 12
ENDMDL
