MODEL 1
REMARK VINA RESULT:     6.046      0.000      0.000
REMARK INTER + INTRA:          10.399
REMARK INTER:                  10.641
REMARK INTRA:                  -0.242
REMARK UNBOUND:                -0.242
REMARK SMILES CCCCCCC=CCCCCCCCC(=O)[O-]
REMARK SMILES IDX 10 1 11 2 12 3 13 4 14 5 15 6 16 7 17 8 18 9 9 10 8 11 7 12
REMARK SMILES IDX 6 13 5 14 4 15 3 16 2 17 1 18
REMARK H PARENT
REMARK Flexibility Score: inf
ROOT
ATOM      1  C   UNL     1     -18.341  64.556  -0.386  1.00  0.00     0.004 C 
ENDROOT
BRANCH   1   2
ATOM      2  C   UNL     1     -17.769  63.157  -0.105  1.00  0.00     0.000 C 
BRANCH   2   3
ATOM      3  C   UNL     1     -16.410  62.925  -0.783  1.00  0.00     0.000 C 
BRANCH   3   4
ATOM      4  C   UNL     1     -16.502  61.808  -1.829  1.00  0.00     0.000 C 
BRANCH   4   5
ATOM      5  C   UNL     1     -15.109  61.421  -2.347  1.00  0.00     0.006 C 
BRANCH   5   6
ATOM      6  C   UNL     1     -14.496  60.261  -1.551  1.00  0.00     0.053 C 
BRANCH   6   7
ATOM      7  C   UNL     1     -13.098  60.571  -1.110  1.00  0.00     0.041 C 
ATOM      8  O   UNL     1     -12.428  61.457  -1.703  1.00  0.00    -0.550 OA
ATOM      9  O   UNL     1     -12.526  59.862  -0.062  1.00  0.00    -0.550 OA
ENDBRANCH   6   7
ENDBRANCH   5   6
ENDBRANCH   4   5
ENDBRANCH   3   4
ENDBRANCH   2   3
ENDBRANCH   1   2
BRANCH   1  10
ATOM     10  C   UNL     1     -19.865  64.620  -0.215  1.00  0.00     0.027 C 
BRANCH  10  11
ATOM     11  C   UNL     1     -20.447  63.240  -0.019  1.00  0.00    -0.031 C 
ATOM     12  C   UNL     1     -20.532  62.323  -0.999  1.00  0.00    -0.031 C 
BRANCH  12  13
ATOM     13  C   UNL     1     -20.015  62.521  -2.404  1.00  0.00     0.027 C 
BRANCH  13  14
ATOM     14  C   UNL     1     -19.649  61.191  -3.077  1.00  0.00     0.004 C 
BRANCH  14  15
ATOM     15  C   UNL     1     -20.757  60.135  -2.914  1.00  0.00     0.000 C 
BRANCH  15  16
ATOM     16  C   UNL     1     -21.692  60.066  -4.132  1.00  0.00    -0.000 C 
BRANCH  16  17
ATOM     17  C   UNL     1     -21.056  59.336  -5.323  1.00  0.00    -0.003 C 
ATOM     18  C   UNL     1     -22.104  58.985  -6.375  1.00  0.00     0.004 C 
ENDBRANCH  16  17
ENDBRANCH  15  16
ENDBRANCH  14  15
ENDBRANCH  13  14
ENDBRANCH  12  13
ENDBRANCH  10  11
ENDBRANCH   1  10
TORSDOF 13
ENDMDL
MODEL 2
REMARK VINA RESULT:     6.099      0.889      1.317
REMARK INTER + INTRA:          10.491
REMARK INTER:                  10.804
REMARK INTRA:                  -0.313
REMARK UNBOUND:                -0.242
REMARK SMILES CCCCCCC=CCCCCCCCC(=O)[O-]
REMARK SMILES IDX 10 1 11 2 12 3 13 4 14 5 15 6 16 7 17 8 18 9 9 10 8 11 7 12
REMARK SMILES IDX 6 13 5 14 4 15 3 16 2 17 1 18
REMARK H PARENT
REMARK Flexibility Score: inf
ROOT
ATOM      1  C   UNL     1     -17.618  62.991  -0.040  1.00  0.00     0.004 C 
ENDROOT
BRANCH   1   2
ATOM      2  C   UNL     1     -16.406  62.862  -0.976  1.00  0.00     0.000 C 
BRANCH   2   3
ATOM      3  C   UNL     1     -16.486  61.625  -1.883  1.00  0.00     0.000 C 
BRANCH   3   4
ATOM      4  C   UNL     1     -15.134  60.902  -1.946  1.00  0.00     0.000 C 
BRANCH   4   5
ATOM      5  C   UNL     1     -14.170  61.620  -2.903  1.00  0.00     0.006 C 
BRANCH   5   6
ATOM      6  C   UNL     1     -12.722  61.595  -2.395  1.00  0.00     0.053 C 
BRANCH   6   7
ATOM      7  C   UNL     1     -12.576  60.721  -1.188  1.00  0.00     0.041 C 
ATOM      8  O   UNL     1     -13.045  61.088  -0.078  1.00  0.00    -0.550 OA
ATOM      9  O   UNL     1     -11.895  59.514  -1.281  1.00  0.00    -0.550 OA
ENDBRANCH   6   7
ENDBRANCH   5   6
ENDBRANCH   4   5
ENDBRANCH   3   4
ENDBRANCH   2   3
ENDBRANCH   1   2
BRANCH   1  10
ATOM     10  C   UNL     1     -18.497  64.206  -0.369  1.00  0.00     0.027 C 
BRANCH  10  11
ATOM     11  C   UNL     1     -19.962  63.849  -0.305  1.00  0.00    -0.031 C 
ATOM     12  C   UNL     1     -20.666  63.401  -1.361  1.00  0.00    -0.031 C 
BRANCH  12  13
ATOM     13  C   UNL     1     -20.082  63.143  -2.730  1.00  0.00     0.027 C 
BRANCH  13  14
ATOM     14  C   UNL     1     -19.387  61.776  -2.812  1.00  0.00     0.004 C 
BRANCH  14  15
ATOM     15  C   UNL     1     -20.323  60.625  -2.402  1.00  0.00     0.000 C 
BRANCH  15  16
ATOM     16  C   UNL     1     -21.408  60.342  -3.454  1.00  0.00    -0.000 C 
BRANCH  16  17
ATOM     17  C   UNL     1     -20.852  59.632  -4.698  1.00  0.00    -0.003 C 
ATOM     18  C   UNL     1     -21.937  59.449  -5.756  1.00  0.00     0.004 C 
ENDBRANCH  16  17
ENDBRANCH  15  16
ENDBRANCH  14  15
ENDBRANCH  13  14
ENDBRANCH  12  13
ENDBRANCH  10  11
ENDBRANCH   1  10
TORSDOF 13
ENDMDL
MODEL 3
REMARK VINA RESULT:     6.243      3.613      6.765
REMARK INTER + INTRA:          10.745
REMARK INTER:                  10.689
REMARK INTRA:                   0.056
REMARK UNBOUND:                -0.242
REMARK SMILES CCCCCCC=CCCCCCCCC(=O)[O-]
REMARK SMILES IDX 10 1 11 2 12 3 13 4 14 5 15 6 16 7 17 8 18 9 9 10 8 11 7 12
REMARK SMILES IDX 6 13 5 14 4 15 3 16 2 17 1 18
REMARK H PARENT
REMARK Flexibility Score: inf
ROOT
ATOM      1  C   UNL     1     -20.486  63.601  -0.396  1.00  0.00     0.004 C 
ENDROOT
BRANCH   1   2
ATOM      2  C   UNL     1     -20.551  62.068  -0.308  1.00  0.00     0.000 C 
BRANCH   2   3
ATOM      3  C   UNL     1     -20.960  61.415  -1.637  1.00  0.00     0.000 C 
BRANCH   3   4
ATOM      4  C   UNL     1     -19.845  61.548  -2.681  1.00  0.00     0.000 C 
BRANCH   4   5
ATOM      5  C   UNL     1     -19.963  60.456  -3.755  1.00  0.00     0.006 C 
BRANCH   5   6
ATOM      6  C   UNL     1     -21.420  60.042  -4.005  1.00  0.00     0.053 C 
BRANCH   6   7
ATOM      7  C   UNL     1     -21.600  59.456  -5.372  1.00  0.00     0.041 C 
ATOM      8  O   UNL     1     -20.641  58.876  -5.945  1.00  0.00    -0.550 OA
ATOM      9  O   UNL     1     -22.820  59.578  -6.025  1.00  0.00    -0.550 OA
ENDBRANCH   6   7
ENDBRANCH   5   6
ENDBRANCH   4   5
ENDBRANCH   3   4
ENDBRANCH   2   3
ENDBRANCH   1   2
BRANCH   1  10
ATOM     10  C   UNL     1     -19.218  64.103  -1.103  1.00  0.00     0.027 C 
BRANCH  10  11
ATOM     11  C   UNL     1     -17.987  63.806  -0.282  1.00  0.00    -0.031 C 
ATOM     12  C   UNL     1     -17.135  62.801  -0.554  1.00  0.00    -0.031 C 
BRANCH  12  13
ATOM     13  C   UNL     1     -17.260  61.872  -1.738  1.00  0.00     0.027 C 
BRANCH  13  14
ATOM     14  C   UNL     1     -15.966  61.812  -2.563  1.00  0.00     0.004 C 
BRANCH  14  15
ATOM     15  C   UNL     1     -14.857  61.025  -1.843  1.00  0.00     0.000 C 
BRANCH  15  16
ATOM     16  C   UNL     1     -13.450  61.400  -2.337  1.00  0.00    -0.000 C 
BRANCH  16  17
ATOM     17  C   UNL     1     -12.342  60.887  -1.406  1.00  0.00    -0.003 C 
ATOM     18  C   UNL     1     -12.903  59.924  -0.364  1.00  0.00     0.004 C 
ENDBRANCH  16  17
ENDBRANCH  15  16
ENDBRANCH  14  15
ENDBRANCH  13  14
ENDBRANCH  12  13
ENDBRANCH  10  11
ENDBRANCH   1  10
TORSDOF 13
ENDMDL
MODEL 4
REMARK VINA RESULT:     6.390      5.133      7.483
REMARK INTER + INTRA:          11.003
REMARK INTER:                  11.261
REMARK INTRA:                  -0.257
REMARK UNBOUND:                -0.242
REMARK SMILES CCCCCCC=CCCCCCCCC(=O)[O-]
REMARK SMILES IDX 10 1 11 2 12 3 13 4 14 5 15 6 16 7 17 8 18 9 9 10 8 11 7 12
REMARK SMILES IDX 6 13 5 14 4 15 3 16 2 17 1 18
REMARK H PARENT
REMARK Flexibility Score: inf
ROOT
ATOM      1  C   UNL     1     -12.289  61.671  -4.990  1.00  0.00     0.004 C 
ENDROOT
BRANCH   1   2
ATOM      2  C   UNL     1     -12.747  62.095  -6.395  1.00  0.00     0.000 C 
BRANCH   2   3
ATOM      3  C   UNL     1     -11.878  61.492  -7.509  1.00  0.00     0.000 C 
BRANCH   3   4
ATOM      4  C   UNL     1     -11.875  62.392  -8.750  1.00  0.00     0.000 C 
BRANCH   4   5
ATOM      5  C   UNL     1     -12.982  63.454  -8.663  1.00  0.00     0.006 C 
BRANCH   5   6
ATOM      6  C   UNL     1     -13.761  63.590  -9.979  1.00  0.00     0.053 C 
BRANCH   6   7
ATOM      7  C   UNL     1     -15.063  62.851  -9.928  1.00  0.00     0.041 C 
ATOM      8  O   UNL     1     -16.147  63.482  -9.823  1.00  0.00    -0.550 OA
ATOM      9  O   UNL     1     -15.076  61.463  -9.968  1.00  0.00    -0.550 OA
ENDBRANCH   6   7
ENDBRANCH   5   6
ENDBRANCH   4   5
ENDBRANCH   3   4
ENDBRANCH   2   3
ENDBRANCH   1   2
BRANCH   1  10
ATOM     10  C   UNL     1     -13.360  61.916  -3.917  1.00  0.00     0.027 C 
BRANCH  10  11
ATOM     11  C   UNL     1     -12.888  61.443  -2.563  1.00  0.00    -0.031 C 
ATOM     12  C   UNL     1     -13.691  60.853  -1.659  1.00  0.00    -0.031 C 
BRANCH  12  13
ATOM     13  C   UNL     1     -15.150  60.536  -1.890  1.00  0.00     0.027 C 
BRANCH  13  14
ATOM     14  C   UNL     1     -15.954  61.781  -2.294  1.00  0.00     0.004 C 
BRANCH  14  15
ATOM     15  C   UNL     1     -17.286  61.882  -1.529  1.00  0.00     0.000 C 
BRANCH  15  16
ATOM     16  C   UNL     1     -18.501  61.560  -2.414  1.00  0.00    -0.000 C 
BRANCH  16  17
ATOM     17  C   UNL     1     -19.835  61.880  -1.723  1.00  0.00    -0.003 C 
ATOM     18  C   UNL     1     -19.685  63.050  -0.754  1.00  0.00     0.004 C 
ENDBRANCH  16  17
ENDBRANCH  15  16
ENDBRANCH  14  15
ENDBRANCH  13  14
ENDBRANCH  12  13
ENDBRANCH  10  11
ENDBRANCH   1  10
TORSDOF 13
ENDMDL
MODEL 5
REMARK VINA RESULT:     6.463      5.546      7.678
REMARK INTER + INTRA:          11.133
REMARK INTER:                  10.913
REMARK INTRA:                   0.220
REMARK UNBOUND:                -0.242
REMARK SMILES CCCCCCC=CCCCCCCCC(=O)[O-]
REMARK SMILES IDX 10 1 11 2 12 3 13 4 14 5 15 6 16 7 17 8 18 9 9 10 8 11 7 12
REMARK SMILES IDX 6 13 5 14 4 15 3 16 2 17 1 18
REMARK H PARENT
REMARK Flexibility Score: inf
ROOT
ATOM      1  C   UNL     1     -12.384  61.874  -6.474  1.00  0.00     0.004 C 
ENDROOT
BRANCH   1   2
ATOM      2  C   UNL     1     -13.288  62.160  -5.265  1.00  0.00     0.000 C 
BRANCH   2   3
ATOM      3  C   UNL     1     -12.754  61.540  -3.965  1.00  0.00     0.000 C 
BRANCH   3   4
ATOM      4  C   UNL     1     -13.513  62.080  -2.746  1.00  0.00     0.000 C 
BRANCH   4   5
ATOM      5  C   UNL     1     -14.719  61.189  -2.410  1.00  0.00     0.006 C 
BRANCH   5   6
ATOM      6  C   UNL     1     -14.359  60.075  -1.418  1.00  0.00     0.053 C 
BRANCH   6   7
ATOM      7  C   UNL     1     -13.035  60.325  -0.764  1.00  0.00     0.041 C 
ATOM      8  O   UNL     1     -12.151  59.429  -0.758  1.00  0.00    -0.550 OA
ATOM      9  O   UNL     1     -12.788  61.538  -0.134  1.00  0.00    -0.550 OA
ENDBRANCH   6   7
ENDBRANCH   5   6
ENDBRANCH   4   5
ENDBRANCH   3   4
ENDBRANCH   2   3
ENDBRANCH   1   2
BRANCH   1  10
ATOM     10  C   UNL     1     -12.632  62.839  -7.643  1.00  0.00     0.027 C 
BRANCH  10  11
ATOM     11  C   UNL     1     -14.068  63.303  -7.667  1.00  0.00    -0.031 C 
ATOM     12  C   UNL     1     -14.831  63.306  -8.775  1.00  0.00    -0.031 C 
BRANCH  12  13
ATOM     13  C   UNL     1     -14.379  62.800 -10.125  1.00  0.00     0.027 C 
BRANCH  13  14
ATOM     14  C   UNL     1     -14.003  61.311 -10.087  1.00  0.00     0.004 C 
BRANCH  14  15
ATOM     15  C   UNL     1     -12.480  61.098 -10.125  1.00  0.00     0.000 C 
BRANCH  15  16
ATOM     16  C   UNL     1     -12.089  59.613 -10.048  1.00  0.00    -0.000 C 
BRANCH  16  17
ATOM     17  C   UNL     1     -12.868  58.853  -8.965  1.00  0.00    -0.003 C 
ATOM     18  C   UNL     1     -13.593  57.646  -9.556  1.00  0.00     0.004 C 
ENDBRANCH  16  17
ENDBRANCH  15  16
ENDBRANCH  14  15
ENDBRANCH  13  14
ENDBRANCH  12  13
ENDBRANCH  10  11
ENDBRANCH   1  10
TORSDOF 13
ENDMDL
MODEL 6
REMARK VINA RESULT:     6.533      4.099      4.792
REMARK INTER + INTRA:          11.255
REMARK INTER:                  11.827
REMARK INTRA:                  -0.572
REMARK UNBOUND:                -0.242
REMARK SMILES CCCCCCC=CCCCCCCCC(=O)[O-]
REMARK SMILES IDX 10 1 11 2 12 3 13 4 14 5 15 6 16 7 17 8 18 9 9 10 8 11 7 12
REMARK SMILES IDX 6 13 5 14 4 15 3 16 2 17 1 18
REMARK H PARENT
REMARK Flexibility Score: inf
ROOT
ATOM      1  C   UNL     1     -17.226  66.277  -1.443  1.00  0.00     0.004 C 
ENDROOT
BRANCH   1   2
ATOM      2  C   UNL     1     -15.766  66.739  -1.316  1.00  0.00     0.000 C 
BRANCH   2   3
ATOM      3  C   UNL     1     -15.402  67.841  -2.322  1.00  0.00     0.000 C 
BRANCH   3   4
ATOM      4  C   UNL     1     -14.567  68.940  -1.654  1.00  0.00     0.000 C 
BRANCH   4   5
ATOM      5  C   UNL     1     -13.216  69.114  -2.364  1.00  0.00     0.006 C 
BRANCH   5   6
ATOM      6  C   UNL     1     -12.033  69.036  -1.389  1.00  0.00     0.053 C 
BRANCH   6   7
ATOM      7  C   UNL     1     -11.936  67.686  -0.746  1.00  0.00     0.041 C 
ATOM      8  O   UNL     1     -11.875  67.584   0.507  1.00  0.00    -0.550 OA
ATOM      9  O   UNL     1     -11.884  66.543  -1.533  1.00  0.00    -0.550 OA
ENDBRANCH   6   7
ENDBRANCH   5   6
ENDBRANCH   4   5
ENDBRANCH   3   4
ENDBRANCH   2   3
ENDBRANCH   1   2
BRANCH   1  10
ATOM     10  C   UNL     1     -17.487  64.931  -0.751  1.00  0.00     0.027 C 
BRANCH  10  11
ATOM     11  C   UNL     1     -18.946  64.778  -0.396  1.00  0.00    -0.031 C 
ATOM     12  C   UNL     1     -19.678  63.693  -0.708  1.00  0.00    -0.031 C 
BRANCH  12  13
ATOM     13  C   UNL     1     -19.135  62.467  -1.404  1.00  0.00     0.027 C 
BRANCH  13  14
ATOM     14  C   UNL     1     -20.233  61.431  -1.686  1.00  0.00     0.004 C 
BRANCH  14  15
ATOM     15  C   UNL     1     -20.013  60.705  -3.025  1.00  0.00     0.000 C 
BRANCH  15  16
ATOM     16  C   UNL     1     -21.326  60.209  -3.652  1.00  0.00    -0.000 C 
BRANCH  16  17
ATOM     17  C   UNL     1     -21.099  59.418  -4.948  1.00  0.00    -0.003 C 
ATOM     18  C   UNL     1     -22.250  59.630  -5.929  1.00  0.00     0.004 C 
ENDBRANCH  16  17
ENDBRANCH  15  16
ENDBRANCH  14  15
ENDBRANCH  13  14
ENDBRANCH  12  13
ENDBRANCH  10  11
ENDBRANCH   1  10
TORSDOF 13
ENDMDL
MODEL 7
REMARK VINA RESULT:     6.825      5.120      7.320
REMARK INTER + INTRA:          11.769
REMARK INTER:                  11.804
REMARK INTRA:                  -0.035
REMARK UNBOUND:                -0.242
REMARK SMILES CCCCCCC=CCCCCCCCC(=O)[O-]
REMARK SMILES IDX 10 1 11 2 12 3 13 4 14 5 15 6 16 7 17 8 18 9 9 10 8 11 7 12
REMARK SMILES IDX 6 13 5 14 4 15 3 16 2 17 1 18
REMARK H PARENT
REMARK Flexibility Score: inf
ROOT
ATOM      1  C   UNL     1     -12.428  61.491  -4.945  1.00  0.00     0.004 C 
ENDROOT
BRANCH   1   2
ATOM      2  C   UNL     1     -12.782  62.166  -6.280  1.00  0.00     0.000 C 
BRANCH   2   3
ATOM      3  C   UNL     1     -11.876  61.709  -7.434  1.00  0.00     0.000 C 
BRANCH   3   4
ATOM      4  C   UNL     1     -12.210  62.463  -8.726  1.00  0.00     0.000 C 
BRANCH   4   5
ATOM      5  C   UNL     1     -12.271  61.503  -9.924  1.00  0.00     0.006 C 
BRANCH   5   6
ATOM      6  C   UNL     1     -12.169  60.033  -9.496  1.00  0.00     0.053 C 
BRANCH   6   7
ATOM      7  C   UNL     1     -13.478  59.322  -9.648  1.00  0.00     0.041 C 
ATOM      8  O   UNL     1     -14.551  59.977  -9.717  1.00  0.00    -0.550 OA
ATOM      9  O   UNL     1     -13.516  57.934  -9.684  1.00  0.00    -0.550 OA
ENDBRANCH   6   7
ENDBRANCH   5   6
ENDBRANCH   4   5
ENDBRANCH   3   4
ENDBRANCH   2   3
ENDBRANCH   1   2
BRANCH   1  10
ATOM     10  C   UNL     1     -13.334  61.945  -3.792  1.00  0.00     0.027 C 
BRANCH  10  11
ATOM     11  C   UNL     1     -12.776  61.506  -2.459  1.00  0.00    -0.031 C 
ATOM     12  C   UNL     1     -13.499  60.863  -1.525  1.00  0.00    -0.031 C 
BRANCH  12  13
ATOM     13  C   UNL     1     -14.940  60.445  -1.698  1.00  0.00     0.027 C 
BRANCH  13  14
ATOM     14  C   UNL     1     -15.808  61.584  -2.254  1.00  0.00     0.004 C 
BRANCH  14  15
ATOM     15  C   UNL     1     -17.198  61.627  -1.595  1.00  0.00     0.000 C 
BRANCH  15  16
ATOM     16  C   UNL     1     -18.338  61.706  -2.623  1.00  0.00    -0.000 C 
BRANCH  16  17
ATOM     17  C   UNL     1     -19.727  61.678  -1.969  1.00  0.00    -0.003 C 
ATOM     18  C   UNL     1     -20.063  63.026  -1.337  1.00  0.00     0.004 C 
ENDBRANCH  16  17
ENDBRANCH  15  16
ENDBRANCH  14  15
ENDBRANCH  13  14
ENDBRANCH  12  13
ENDBRANCH  10  11
ENDBRANCH   1  10
TORSDOF 13
ENDMDL
MODEL 8
REMARK VINA RESULT:     6.996      3.461      6.860
REMARK INTER + INTRA:          12.070
REMARK INTER:                  10.985
REMARK INTRA:                   1.085
REMARK UNBOUND:                -0.242
REMARK SMILES CCCCCCC=CCCCCCCCC(=O)[O-]
REMARK SMILES IDX 10 1 11 2 12 3 13 4 14 5 15 6 16 7 17 8 18 9 9 10 8 11 7 12
REMARK SMILES IDX 6 13 5 14 4 15 3 16 2 17 1 18
REMARK H PARENT
REMARK Flexibility Score: inf
ROOT
ATOM      1  C   UNL     1     -18.282  64.507  -0.332  1.00  0.00     0.004 C 
ENDROOT
BRANCH   1   2
ATOM      2  C   UNL     1     -19.740  64.183  -0.695  1.00  0.00     0.000 C 
BRANCH   2   3
ATOM      3  C   UNL     1     -20.295  62.988   0.094  1.00  0.00     0.000 C 
BRANCH   3   4
ATOM      4  C   UNL     1     -20.785  61.885  -0.853  1.00  0.00     0.000 C 
BRANCH   4   5
ATOM      5  C   UNL     1     -20.355  62.170  -2.300  1.00  0.00     0.006 C 
BRANCH   5   6
ATOM      6  C   UNL     1     -20.024  60.885  -3.071  1.00  0.00     0.053 C 
BRANCH   6   7
ATOM      7  C   UNL     1     -21.265  60.172  -3.514  1.00  0.00     0.041 C 
ATOM      8  O   UNL     1     -22.209  59.979  -2.703  1.00  0.00    -0.550 OA
ATOM      9  O   UNL     1     -21.367  59.694  -4.814  1.00  0.00    -0.550 OA
ENDBRANCH   6   7
ENDBRANCH   5   6
ENDBRANCH   4   5
ENDBRANCH   3   4
ENDBRANCH   2   3
ENDBRANCH   1   2
BRANCH   1  10
ATOM     10  C   UNL     1     -17.373  63.269  -0.362  1.00  0.00     0.027 C 
BRANCH  10  11
ATOM     11  C   UNL     1     -17.673  62.405  -1.562  1.00  0.00    -0.031 C 
ATOM     12  C   UNL     1     -16.762  61.614  -2.157  1.00  0.00    -0.031 C 
BRANCH  12  13
ATOM     13  C   UNL     1     -15.339  61.441  -1.680  1.00  0.00     0.027 C 
BRANCH  13  14
ATOM     14  C   UNL     1     -14.355  61.274  -2.847  1.00  0.00     0.004 C 
BRANCH  14  15
ATOM     15  C   UNL     1     -12.934  61.735  -2.477  1.00  0.00     0.000 C 
BRANCH  15  16
ATOM     16  C   UNL     1     -12.134  60.648  -1.740  1.00  0.00    -0.000 C 
BRANCH  16  17
ATOM     17  C   UNL     1     -12.508  60.546  -0.254  1.00  0.00    -0.003 C 
ATOM     18  C   UNL     1     -12.994  59.141   0.094  1.00  0.00     0.004 C 
ENDBRANCH  16  17
ENDBRANCH  15  16
ENDBRANCH  14  15
ENDBRANCH  13  14
ENDBRANCH  12  13
ENDBRANCH  10  11
ENDBRANCH   1  10
TORSDOF 13
ENDMDL
