MODEL 1
REMARK VINA RESULT:    -7.414      0.000      0.000
REMARK INTER + INTRA:          -9.233
REMARK INTER:                  -8.931
REMARK INTRA:                  -0.302
REMARK UNBOUND:                -0.302
REMARK SMILES O=c1c(O)c(-c2ccc(O)c(O)c2)oc2cc(O)cc(O)c12
REMARK SMILES IDX 5 1 3 2 2 3 1 4 22 5 20 6 19 7 17 8 16 9 15 10 14 11 6 12
REMARK SMILES IDX 7 13 8 14 9 15 13 16 11 17 10 18 12 20 4 22 21 24 18 26
REMARK H PARENT 10 19 12 21 4 23 21 25 18 27
REMARK Flexibility Score: inf
ROOT
ATOM      1  C   UNL     1      -0.860  -7.900  13.741  1.00  0.00     0.180 A 
ATOM      2  C   UNL     1       0.056  -7.496  12.754  1.00  0.00     0.208 A 
ATOM      3  C   UNL     1       1.348  -7.109  13.141  1.00  0.00     0.238 A 
ATOM      4  O   UNL     1       2.179  -6.800  12.247  1.00  0.00    -0.285 OA
ATOM      5  C   UNL     1       1.705  -7.115  14.511  1.00  0.00     0.111 A 
ATOM      6  C   UNL     1       2.975  -6.706  15.019  1.00  0.00     0.134 A 
ATOM      7  C   UNL     1       3.263  -6.878  16.379  1.00  0.00     0.093 A 
ATOM      8  C   UNL     1       2.306  -7.382  17.259  1.00  0.00     0.123 A 
ATOM      9  C   UNL     1       1.042  -7.731  16.783  1.00  0.00     0.094 A 
ATOM     10  C   UNL     1       0.737  -7.605  15.425  1.00  0.00     0.146 A 
ATOM     11  O   UNL     1      -0.474  -7.957  15.011  1.00  0.00    -0.452 OA
ENDROOT
BRANCH   1  12
ATOM     12  C   UNL     1      -2.248  -8.297  13.414  1.00  0.00     0.025 A 
ATOM     13  C   UNL     1      -2.596  -9.657  13.411  1.00  0.00     0.016 A 
ATOM     14  C   UNL     1      -3.904 -10.053  13.126  1.00  0.00     0.051 A 
ATOM     15  C   UNL     1      -4.888  -9.099  12.854  1.00  0.00     0.157 A 
ATOM     16  C   UNL     1      -3.244  -7.337  13.161  1.00  0.00     0.062 A 
ATOM     17  C   UNL     1      -4.559  -7.733  12.876  1.00  0.00     0.158 A 
BRANCH  15  18
ATOM     18  O   UNL     1      -6.186  -9.523  12.570  1.00  0.00    -0.504 OA
ATOM     19  H   UNL     1      -6.390 -10.470  12.275  1.00  0.00     0.293 HD
ENDBRANCH  15  18
BRANCH  17  20
ATOM     20  O   UNL     1      -5.538  -6.774  12.620  1.00  0.00    -0.504 OA
ATOM     21  H   UNL     1      -5.305  -5.864  12.242  1.00  0.00     0.293 HD
ENDBRANCH  17  20
ENDBRANCH   1  12
BRANCH   2  22
ATOM     22  O   UNL     1      -0.312  -7.517  11.406  1.00  0.00    -0.502 OA
ATOM     23  H   UNL     1      -0.862  -6.780  10.980  1.00  0.00     0.293 HD
ENDBRANCH   2  22
BRANCH   6  24
ATOM     24  O   UNL     1       3.969  -6.103  14.243  1.00  0.00    -0.507 OA
ATOM     25  H   UNL     1       3.826  -5.724  13.319  1.00  0.00     0.293 HD
ENDBRANCH   6  24
BRANCH   8  26
ATOM     26  O   UNL     1       2.621  -7.526  18.609  1.00  0.00    -0.508 OA
ATOM     27  H   UNL     1       3.033  -6.769  19.140  1.00  0.00     0.293 HD
ENDBRANCH   8  26
TORSDOF 6
ENDMDL
MODEL 2
REMARK VINA RESULT:    -7.342      1.738      2.367
REMARK INTER + INTRA:          -9.146
REMARK INTER:                  -8.824
REMARK INTRA:                  -0.322
REMARK UNBOUND:                -0.302
REMARK SMILES O=c1c(O)c(-c2ccc(O)c(O)c2)oc2cc(O)cc(O)c12
REMARK SMILES IDX 5 1 3 2 2 3 1 4 22 5 20 6 19 7 17 8 16 9 15 10 14 11 6 12
REMARK SMILES IDX 7 13 8 14 9 15 13 16 11 17 10 18 12 20 4 22 21 24 18 26
REMARK H PARENT 10 19 12 21 4 23 21 25 18 27
REMARK Flexibility Score: inf
ROOT
ATOM      1  C   UNL     1      -0.118  -7.534  14.986  1.00  0.00     0.180 A 
ATOM      2  C   UNL     1       0.814  -6.564  14.580  1.00  0.00     0.208 A 
ATOM      3  C   UNL     1       2.100  -6.577  15.143  1.00  0.00     0.238 A 
ATOM      4  O   UNL     1       2.947  -5.739  14.735  1.00  0.00    -0.285 OA
ATOM      5  C   UNL     1       2.433  -7.549  16.116  1.00  0.00     0.111 A 
ATOM      6  C   UNL     1       3.694  -7.632  16.781  1.00  0.00     0.134 A 
ATOM      7  C   UNL     1       3.959  -8.713  17.630  1.00  0.00     0.093 A 
ATOM      8  C   UNL     1       2.987  -9.679  17.888  1.00  0.00     0.123 A 
ATOM      9  C   UNL     1       1.731  -9.577  17.289  1.00  0.00     0.094 A 
ATOM     10  C   UNL     1       1.449  -8.529  16.410  1.00  0.00     0.146 A 
ATOM     11  O   UNL     1       0.246  -8.473  15.853  1.00  0.00    -0.452 OA
ENDROOT
BRANCH   1  12
ATOM     12  C   UNL     1      -1.501  -7.569  14.458  1.00  0.00     0.025 A 
ATOM     13  C   UNL     1      -2.495  -6.792  15.072  1.00  0.00     0.016 A 
ATOM     14  C   UNL     1      -3.801  -6.793  14.578  1.00  0.00     0.051 A 
ATOM     15  C   UNL     1      -4.131  -7.557  13.455  1.00  0.00     0.157 A 
ATOM     16  C   UNL     1      -1.829  -8.321  13.315  1.00  0.00     0.062 A 
ATOM     17  C   UNL     1      -3.140  -8.322  12.817  1.00  0.00     0.158 A 
BRANCH  15  18
ATOM     18  O   UNL     1      -5.444  -7.541  12.985  1.00  0.00    -0.504 OA
ATOM     19  H   UNL     1      -6.149  -8.178  13.336  1.00  0.00     0.293 HD
ENDBRANCH  15  18
BRANCH  17  20
ATOM     20  O   UNL     1      -3.458  -9.076  11.688  1.00  0.00    -0.504 OA
ATOM     21  H   UNL     1      -3.788  -8.641  10.834  1.00  0.00     0.293 HD
ENDBRANCH  17  20
ENDBRANCH   1  12
BRANCH   2  22
ATOM     22  O   UNL     1       0.471  -5.627  13.602  1.00  0.00    -0.502 OA
ATOM     23  H   UNL     1       0.380  -4.637  13.805  1.00  0.00     0.293 HD
ENDBRANCH   2  22
BRANCH   6  24
ATOM     24  O   UNL     1       4.702  -6.669  16.666  1.00  0.00    -0.507 OA
ATOM     25  H   UNL     1       4.557  -5.720  16.357  1.00  0.00     0.293 HD
ENDBRANCH   6  24
BRANCH   8  26
ATOM     26  O   UNL     1       3.279 -10.735  18.750  1.00  0.00    -0.508 OA
ATOM     27  H   UNL     1       2.929 -10.754  19.701  1.00  0.00     0.293 HD
ENDBRANCH   8  26
TORSDOF 6
ENDMDL
MODEL 3
REMARK VINA RESULT:    -7.214      3.784      7.898
REMARK INTER + INTRA:          -8.991
REMARK INTER:                  -8.871
REMARK INTRA:                  -0.120
REMARK UNBOUND:                -0.302
REMARK SMILES O=c1c(O)c(-c2ccc(O)c(O)c2)oc2cc(O)cc(O)c12
REMARK SMILES IDX 5 1 3 2 2 3 1 4 22 5 20 6 19 7 17 8 16 9 15 10 14 11 6 12
REMARK SMILES IDX 7 13 8 14 9 15 13 16 11 17 10 18 12 20 4 22 21 24 18 26
REMARK H PARENT 10 19 12 21 4 23 21 25 18 27
REMARK Flexibility Score: inf
ROOT
ATOM      1  C   UNL     1      -4.155 -10.175  13.676  1.00  0.00     0.180 A 
ATOM      2  C   UNL     1      -4.939  -9.285  12.922  1.00  0.00     0.208 A 
ATOM      3  C   UNL     1      -6.278  -9.077  13.289  1.00  0.00     0.238 A 
ATOM      4  O   UNL     1      -6.958  -8.238  12.643  1.00  0.00    -0.285 OA
ATOM      5  C   UNL     1      -6.821  -9.774  14.395  1.00  0.00     0.111 A 
ATOM      6  C   UNL     1      -8.176  -9.670  14.832  1.00  0.00     0.134 A 
ATOM      7  C   UNL     1      -8.571 -10.304  16.017  1.00  0.00     0.093 A 
ATOM      8  C   UNL     1      -7.678 -11.091  16.743  1.00  0.00     0.123 A 
ATOM      9  C   UNL     1      -6.367 -11.247  16.294  1.00  0.00     0.094 A 
ATOM     10  C   UNL     1      -5.933 -10.598  15.135  1.00  0.00     0.146 A 
ATOM     11  O   UNL     1      -4.676 -10.764  14.747  1.00  0.00    -0.452 OA
ENDROOT
BRANCH   1  12
ATOM     12  C   UNL     1      -2.743 -10.465  13.336  1.00  0.00     0.025 A 
ATOM     13  C   UNL     1      -1.794  -9.433  13.389  1.00  0.00     0.016 A 
ATOM     14  C   UNL     1      -0.453  -9.688  13.092  1.00  0.00     0.051 A 
ATOM     15  C   UNL     1      -0.038 -10.979  12.753  1.00  0.00     0.157 A 
ATOM     16  C   UNL     1      -2.320 -11.768  13.014  1.00  0.00     0.062 A 
ATOM     17  C   UNL     1      -0.974 -12.026  12.718  1.00  0.00     0.158 A 
BRANCH  15  18
ATOM     18  O   UNL     1       1.307 -11.204  12.459  1.00  0.00    -0.504 OA
ATOM     19  H   UNL     1       1.608 -11.973  11.874  1.00  0.00     0.293 HD
ENDBRANCH  15  18
BRANCH  17  20
ATOM     20  O   UNL     1      -0.565 -13.319  12.394  1.00  0.00    -0.504 OA
ATOM     21  H   UNL     1      -0.799 -13.744  11.505  1.00  0.00     0.293 HD
ENDBRANCH  17  20
ENDBRANCH   1  12
BRANCH   2  22
ATOM     22  O   UNL     1      -4.376  -8.591  11.847  1.00  0.00    -0.502 OA
ATOM     23  H   UNL     1      -4.688  -7.667  11.573  1.00  0.00     0.293 HD
ENDBRANCH   2  22
BRANCH   6  24
ATOM     24  O   UNL     1      -9.173  -8.986  14.130  1.00  0.00    -0.507 OA
ATOM     25  H   UNL     1      -9.002  -8.246  13.465  1.00  0.00     0.293 HD
ENDBRANCH   6  24
BRANCH   8  26
ATOM     26  O   UNL     1      -8.109 -11.720  17.910  1.00  0.00    -0.508 OA
ATOM     27  H   UNL     1      -8.661 -11.230  18.604  1.00  0.00     0.293 HD
ENDBRANCH   8  26
TORSDOF 6
ENDMDL
MODEL 4
REMARK VINA RESULT:    -7.170      2.826      7.075
REMARK INTER + INTRA:          -8.939
REMARK INTER:                  -8.686
REMARK INTRA:                  -0.253
REMARK UNBOUND:                -0.302
REMARK SMILES O=c1c(O)c(-c2ccc(O)c(O)c2)oc2cc(O)cc(O)c12
REMARK SMILES IDX 5 1 3 2 2 3 1 4 22 5 20 6 19 7 17 8 16 9 15 10 14 11 6 12
REMARK SMILES IDX 7 13 8 14 9 15 13 16 11 17 10 18 12 20 4 22 21 24 18 26
REMARK H PARENT 10 19 12 21 4 23 21 25 18 27
REMARK Flexibility Score: inf
ROOT
ATOM      1  C   UNL     1      -1.210  -9.429  12.674  1.00  0.00     0.180 A 
ATOM      2  C   UNL     1      -2.137  -8.397  12.449  1.00  0.00     0.208 A 
ATOM      3  C   UNL     1      -3.490  -8.618  12.750  1.00  0.00     0.238 A 
ATOM      4  O   UNL     1      -4.306  -7.671  12.596  1.00  0.00    -0.285 OA
ATOM      5  C   UNL     1      -3.903  -9.874  13.257  1.00  0.00     0.111 A 
ATOM      6  C   UNL     1      -5.254 -10.221  13.560  1.00  0.00     0.134 A 
ATOM      7  C   UNL     1      -5.530 -11.446  14.180  1.00  0.00     0.093 A 
ATOM      8  C   UNL     1      -4.514 -12.362  14.448  1.00  0.00     0.123 A 
ATOM      9  C   UNL     1      -3.197 -12.057  14.103  1.00  0.00     0.094 A 
ATOM     10  C   UNL     1      -2.885 -10.828  13.516  1.00  0.00     0.146 A 
ATOM     11  O   UNL     1      -1.619 -10.573  13.212  1.00  0.00    -0.452 OA
ENDROOT
BRANCH   1  12
ATOM     12  C   UNL     1       0.228  -9.280  12.357  1.00  0.00     0.025 A 
ATOM     13  C   UNL     1       1.049  -8.526  13.211  1.00  0.00     0.016 A 
ATOM     14  C   UNL     1       2.413  -8.389  12.943  1.00  0.00     0.051 A 
ATOM     15  C   UNL     1       2.981  -9.014  11.829  1.00  0.00     0.157 A 
ATOM     16  C   UNL     1       0.805  -9.926  11.249  1.00  0.00     0.062 A 
ATOM     17  C   UNL     1       2.174  -9.791  10.980  1.00  0.00     0.158 A 
BRANCH  15  18
ATOM     18  O   UNL     1       4.345  -8.858  11.585  1.00  0.00    -0.504 OA
ATOM     19  H   UNL     1       4.729  -8.875  10.649  1.00  0.00     0.293 HD
ENDBRANCH  15  18
BRANCH  17  20
ATOM     20  O   UNL     1       2.737 -10.429   9.875  1.00  0.00    -0.504 OA
ATOM     21  H   UNL     1       2.165 -10.912   9.192  1.00  0.00     0.293 HD
ENDBRANCH  17  20
ENDBRANCH   1  12
BRANCH   2  22
ATOM     22  O   UNL     1      -1.704  -7.158  11.967  1.00  0.00    -0.502 OA
ATOM     23  H   UNL     1      -2.264  -6.594  11.338  1.00  0.00     0.293 HD
ENDBRANCH   2  22
BRANCH   6  24
ATOM     24  O   UNL     1      -6.355  -9.417  13.249  1.00  0.00    -0.507 OA
ATOM     25  H   UNL     1      -6.782  -9.357  12.337  1.00  0.00     0.293 HD
ENDBRANCH   6  24
BRANCH   8  26
ATOM     26  O   UNL     1      -4.827 -13.578  15.052  1.00  0.00    -0.508 OA
ATOM     27  H   UNL     1      -4.185 -14.032  15.691  1.00  0.00     0.293 HD
ENDBRANCH   8  26
TORSDOF 6
ENDMDL
MODEL 5
REMARK VINA RESULT:    -7.166      3.888      8.781
REMARK INTER + INTRA:          -8.934
REMARK INTER:                  -8.612
REMARK INTRA:                  -0.322
REMARK UNBOUND:                -0.302
REMARK SMILES O=c1c(O)c(-c2ccc(O)c(O)c2)oc2cc(O)cc(O)c12
REMARK SMILES IDX 5 1 3 2 2 3 1 4 22 5 20 6 19 7 17 8 16 9 15 10 14 11 6 12
REMARK SMILES IDX 7 13 8 14 9 15 13 16 11 17 10 18 12 20 4 22 21 24 18 26
REMARK H PARENT 10 19 12 21 4 23 21 25 18 27
REMARK Flexibility Score: inf
ROOT
ATOM      1  C   UNL     1      -6.329  -7.826  13.791  1.00  0.00     0.180 A 
ATOM      2  C   UNL     1      -7.255  -7.342  12.851  1.00  0.00     0.208 A 
ATOM      3  C   UNL     1      -8.625  -7.403  13.151  1.00  0.00     0.238 A 
ATOM      4  O   UNL     1      -9.446  -6.919  12.329  1.00  0.00    -0.285 OA
ATOM      5  C   UNL     1      -9.053  -7.961  14.380  1.00  0.00     0.111 A 
ATOM      6  C   UNL     1     -10.418  -8.108  14.772  1.00  0.00     0.134 A 
ATOM      7  C   UNL     1     -10.722  -8.553  16.064  1.00  0.00     0.093 A 
ATOM      8  C   UNL     1      -9.713  -8.917  16.956  1.00  0.00     0.123 A 
ATOM      9  C   UNL     1      -8.377  -8.832  16.563  1.00  0.00     0.094 A 
ATOM     10  C   UNL     1      -8.041  -8.358  15.293  1.00  0.00     0.146 A 
ATOM     11  O   UNL     1      -6.758  -8.283  14.962  1.00  0.00    -0.452 OA
ENDROOT
BRANCH   1  12
ATOM     12  C   UNL     1      -4.870  -7.819  13.535  1.00  0.00     0.025 A 
ATOM     13  C   UNL     1      -4.282  -8.901  12.861  1.00  0.00     0.016 A 
ATOM     14  C   UNL     1      -2.912  -8.908  12.591  1.00  0.00     0.051 A 
ATOM     15  C   UNL     1      -2.112  -7.828  12.975  1.00  0.00     0.157 A 
ATOM     16  C   UNL     1      -4.067  -6.725  13.902  1.00  0.00     0.062 A 
ATOM     17  C   UNL     1      -2.692  -6.728  13.629  1.00  0.00     0.158 A 
BRANCH  15  18
ATOM     18  O   UNL     1      -0.746  -7.862  12.694  1.00  0.00    -0.504 OA
ATOM     19  H   UNL     1      -0.369  -7.532  11.814  1.00  0.00     0.293 HD
ENDBRANCH  15  18
BRANCH  17  20
ATOM     20  O   UNL     1      -1.902  -5.642  14.002  1.00  0.00    -0.504 OA
ATOM     21  H   UNL     1      -0.896  -5.648  13.880  1.00  0.00     0.293 HD
ENDBRANCH  17  20
ENDBRANCH   1  12
BRANCH   2  22
ATOM     22  O   UNL     1      -6.810  -6.776  11.653  1.00  0.00    -0.502 OA
ATOM     23  H   UNL     1      -5.828  -6.735  11.403  1.00  0.00     0.293 HD
ENDBRANCH   2  22
BRANCH   6  24
ATOM     24  O   UNL     1     -11.503  -7.862  13.926  1.00  0.00    -0.507 OA
ATOM     25  H   UNL     1     -12.070  -8.576  13.495  1.00  0.00     0.293 HD
ENDBRANCH   6  24
BRANCH   8  26
ATOM     26  O   UNL     1     -10.052  -9.370  18.230  1.00  0.00    -0.508 OA
ATOM     27  H   UNL     1     -11.005  -9.330  18.569  1.00  0.00     0.293 HD
ENDBRANCH   8  26
TORSDOF 6
ENDMDL
MODEL 6
REMARK VINA RESULT:    -7.095      1.570      6.885
REMARK INTER + INTRA:          -8.849
REMARK INTER:                  -8.579
REMARK INTRA:                  -0.270
REMARK UNBOUND:                -0.302
REMARK SMILES O=c1c(O)c(-c2ccc(O)c(O)c2)oc2cc(O)cc(O)c12
REMARK SMILES IDX 5 1 3 2 2 3 1 4 22 5 20 6 19 7 17 8 16 9 15 10 14 11 6 12
REMARK SMILES IDX 7 13 8 14 9 15 13 16 11 17 10 18 12 20 4 22 21 24 18 26
REMARK H PARENT 10 19 12 21 4 23 21 25 18 27
REMARK Flexibility Score: inf
ROOT
ATOM      1  C   UNL     1      -0.467  -8.029  14.731  1.00  0.00     0.180 A 
ATOM      2  C   UNL     1      -1.203  -7.037  14.061  1.00  0.00     0.208 A 
ATOM      3  C   UNL     1      -2.432  -7.379  13.475  1.00  0.00     0.238 A 
ATOM      4  O   UNL     1      -3.111  -6.474  12.923  1.00  0.00    -0.285 OA
ATOM      5  C   UNL     1      -2.902  -8.712  13.553  1.00  0.00     0.111 A 
ATOM      6  C   UNL     1      -4.114  -9.179  12.961  1.00  0.00     0.134 A 
ATOM      7  C   UNL     1      -4.547 -10.487  13.213  1.00  0.00     0.093 A 
ATOM      8  C   UNL     1      -3.779 -11.364  13.978  1.00  0.00     0.123 A 
ATOM      9  C   UNL     1      -2.563 -10.935  14.513  1.00  0.00     0.094 A 
ATOM     10  C   UNL     1      -2.123  -9.625  14.309  1.00  0.00     0.146 A 
ATOM     11  O   UNL     1      -0.966  -9.255  14.843  1.00  0.00    -0.452 OA
ENDROOT
BRANCH   1  12
ATOM     12  C   UNL     1       0.849  -7.750  15.352  1.00  0.00     0.025 A 
ATOM     13  C   UNL     1       1.981  -7.607  14.534  1.00  0.00     0.016 A 
ATOM     14  C   UNL     1       3.229  -7.324  15.096  1.00  0.00     0.051 A 
ATOM     15  C   UNL     1       3.361  -7.165  16.478  1.00  0.00     0.157 A 
ATOM     16  C   UNL     1       0.981  -7.569  16.740  1.00  0.00     0.062 A 
ATOM     17  C   UNL     1       2.231  -7.283  17.305  1.00  0.00     0.158 A 
BRANCH  15  18
ATOM     18  O   UNL     1       4.620  -6.885  17.011  1.00  0.00    -0.504 OA
ATOM     19  H   UNL     1       5.461  -6.915  16.449  1.00  0.00     0.293 HD
ENDBRANCH  15  18
BRANCH  17  20
ATOM     20  O   UNL     1       2.354  -7.111  18.683  1.00  0.00    -0.504 OA
ATOM     21  H   UNL     1       2.924  -6.373  19.078  1.00  0.00     0.293 HD
ENDBRANCH  17  20
ENDBRANCH   1  12
BRANCH   2  22
ATOM     22  O   UNL     1      -0.729  -5.722  14.015  1.00  0.00    -0.502 OA
ATOM     23  H   UNL     1      -1.296  -4.930  14.296  1.00  0.00     0.293 HD
ENDBRANCH   2  22
BRANCH   6  24
ATOM     24  O   UNL     1      -4.910  -8.414  12.103  1.00  0.00    -0.507 OA
ATOM     25  H   UNL     1      -5.902  -8.543  11.971  1.00  0.00     0.293 HD
ENDBRANCH   6  24
BRANCH   8  26
ATOM     26  O   UNL     1      -4.232 -12.664  14.196  1.00  0.00    -0.508 OA
ATOM     27  H   UNL     1      -3.853 -13.450  13.681  1.00  0.00     0.293 HD
ENDBRANCH   8  26
TORSDOF 6
ENDMDL
MODEL 7
REMARK VINA RESULT:    -7.060      2.493      7.601
REMARK INTER + INTRA:          -8.807
REMARK INTER:                  -8.478
REMARK INTRA:                  -0.329
REMARK UNBOUND:                -0.302
REMARK SMILES O=c1c(O)c(-c2ccc(O)c(O)c2)oc2cc(O)cc(O)c12
REMARK SMILES IDX 5 1 3 2 2 3 1 4 22 5 20 6 19 7 17 8 16 9 15 10 14 11 6 12
REMARK SMILES IDX 7 13 8 14 9 15 13 16 11 17 10 18 12 20 4 22 21 24 18 26
REMARK H PARENT 10 19 12 21 4 23 21 25 18 27
REMARK Flexibility Score: inf
ROOT
ATOM      1  C   UNL     1      -4.069  -7.980  13.855  1.00  0.00     0.180 A 
ATOM      2  C   UNL     1      -5.089  -7.184  13.307  1.00  0.00     0.208 A 
ATOM      3  C   UNL     1      -6.427  -7.558  13.507  1.00  0.00     0.238 A 
ATOM      4  O   UNL     1      -7.337  -6.812  13.059  1.00  0.00    -0.285 OA
ATOM      5  C   UNL     1      -6.728  -8.732  14.239  1.00  0.00     0.111 A 
ATOM      6  C   UNL     1      -8.048  -9.227  14.469  1.00  0.00     0.134 A 
ATOM      7  C   UNL     1      -8.235 -10.325  15.318  1.00  0.00     0.093 A 
ATOM      8  C   UNL     1      -7.149 -10.986  15.891  1.00  0.00     0.123 A 
ATOM      9  C   UNL     1      -5.852 -10.546  15.625  1.00  0.00     0.094 A 
ATOM     10  C   UNL     1      -5.634  -9.431  14.812  1.00  0.00     0.146 A 
ATOM     11  O   UNL     1      -4.386  -9.039  14.593  1.00  0.00    -0.452 OA
ENDROOT
BRANCH   1  12
ATOM     12  C   UNL     1      -2.634  -7.665  13.666  1.00  0.00     0.025 A 
ATOM     13  C   UNL     1      -1.942  -6.968  14.668  1.00  0.00     0.016 A 
ATOM     14  C   UNL     1      -0.584  -6.678  14.520  1.00  0.00     0.051 A 
ATOM     15  C   UNL     1       0.106  -7.092  13.377  1.00  0.00     0.157 A 
ATOM     16  C   UNL     1      -1.934  -8.098  12.526  1.00  0.00     0.062 A 
ATOM     17  C   UNL     1      -0.570  -7.809  12.376  1.00  0.00     0.158 A 
BRANCH  15  18
ATOM     18  O   UNL     1       1.462  -6.786  13.255  1.00  0.00    -0.504 OA
ATOM     19  H   UNL     1       1.997  -7.034  12.432  1.00  0.00     0.293 HD
ENDBRANCH  15  18
BRANCH  17  20
ATOM     20  O   UNL     1       0.115  -8.237  11.240  1.00  0.00    -0.504 OA
ATOM     21  H   UNL     1       1.095  -8.022  11.097  1.00  0.00     0.293 HD
ENDBRANCH  17  20
ENDBRANCH   1  12
BRANCH   2  22
ATOM     22  O   UNL     1      -4.769  -6.018  12.606  1.00  0.00    -0.502 OA
ATOM     23  H   UNL     1      -4.792  -5.969  11.594  1.00  0.00     0.293 HD
ENDBRANCH   2  22
BRANCH   6  24
ATOM     24  O   UNL     1      -9.195  -8.699  13.871  1.00  0.00    -0.507 OA
ATOM     25  H   UNL     1      -9.988  -9.244  13.567  1.00  0.00     0.293 HD
ENDBRANCH   6  24
BRANCH   8  26
ATOM     26  O   UNL     1      -7.371 -12.085  16.718  1.00  0.00    -0.508 OA
ATOM     27  H   UNL     1      -7.196 -12.041  17.715  1.00  0.00     0.293 HD
ENDBRANCH   8  26
TORSDOF 6
ENDMDL
MODEL 8
REMARK VINA RESULT:    -7.051      2.436      3.585
REMARK INTER + INTRA:          -8.795
REMARK INTER:                  -8.472
REMARK INTRA:                  -0.323
REMARK UNBOUND:                -0.302
REMARK SMILES O=c1c(O)c(-c2ccc(O)c(O)c2)oc2cc(O)cc(O)c12
REMARK SMILES IDX 5 1 3 2 2 3 1 4 22 5 20 6 19 7 17 8 16 9 15 10 14 11 6 12
REMARK SMILES IDX 7 13 8 14 9 15 13 16 11 17 10 18 12 20 4 22 21 24 18 26
REMARK H PARENT 10 19 12 21 4 23 21 25 18 27
REMARK Flexibility Score: inf
ROOT
ATOM      1  C   UNL     1      -2.161  -8.352  13.281  1.00  0.00     0.180 A 
ATOM      2  C   UNL     1      -1.586  -7.184  13.810  1.00  0.00     0.208 A 
ATOM      3  C   UNL     1      -0.235  -6.911  13.549  1.00  0.00     0.238 A 
ATOM      4  O   UNL     1       0.259  -5.837  13.981  1.00  0.00    -0.285 OA
ATOM      5  C   UNL     1       0.530  -7.816  12.774  1.00  0.00     0.111 A 
ATOM      6  C   UNL     1       1.918  -7.659  12.479  1.00  0.00     0.134 A 
ATOM      7  C   UNL     1       2.542  -8.548  11.595  1.00  0.00     0.093 A 
ATOM      8  C   UNL     1       1.845  -9.624  11.047  1.00  0.00     0.123 A 
ATOM      9  C   UNL     1       0.504  -9.821  11.374  1.00  0.00     0.094 A 
ATOM     10  C   UNL     1      -0.156  -8.931  12.226  1.00  0.00     0.146 A 
ATOM     11  O   UNL     1      -1.435  -9.148  12.504  1.00  0.00    -0.452 OA
ENDROOT
BRANCH   1  12
ATOM     12  C   UNL     1      -3.573  -8.722  13.535  1.00  0.00     0.025 A 
ATOM     13  C   UNL     1      -3.893  -9.492  14.664  1.00  0.00     0.016 A 
ATOM     14  C   UNL     1      -5.219  -9.835  14.935  1.00  0.00     0.051 A 
ATOM     15  C   UNL     1      -6.247  -9.401  14.092  1.00  0.00     0.157 A 
ATOM     16  C   UNL     1      -4.610  -8.269  12.700  1.00  0.00     0.062 A 
ATOM     17  C   UNL     1      -5.942  -8.611  12.971  1.00  0.00     0.158 A 
BRANCH  15  18
ATOM     18  O   UNL     1      -7.562  -9.761  14.386  1.00  0.00    -0.504 OA
ATOM     19  H   UNL     1      -8.272  -9.073  14.603  1.00  0.00     0.293 HD
ENDBRANCH  15  18
BRANCH  17  20
ATOM     20  O   UNL     1      -6.964  -8.163  12.134  1.00  0.00    -0.504 OA
ATOM     21  H   UNL     1      -6.810  -8.003  11.146  1.00  0.00     0.293 HD
ENDBRANCH  17  20
ENDBRANCH   1  12
BRANCH   2  22
ATOM     22  O   UNL     1      -2.365  -6.294  14.555  1.00  0.00    -0.502 OA
ATOM     23  H   UNL     1      -2.612  -6.465  15.523  1.00  0.00     0.293 HD
ENDBRANCH   2  22
BRANCH   6  24
ATOM     24  O   UNL     1       2.729  -6.672  13.047  1.00  0.00    -0.507 OA
ATOM     25  H   UNL     1       3.063  -5.853  12.561  1.00  0.00     0.293 HD
ENDBRANCH   6  24
BRANCH   8  26
ATOM     26  O   UNL     1       2.502 -10.499  10.182  1.00  0.00    -0.508 OA
ATOM     27  H   UNL     1       2.856 -10.189   9.285  1.00  0.00     0.293 HD
ENDBRANCH   8  26
TORSDOF 6
ENDMDL
MODEL 9
REMARK VINA RESULT:    -7.029      2.470      6.694
REMARK INTER + INTRA:          -8.769
REMARK INTER:                  -8.497
REMARK INTRA:                  -0.272
REMARK UNBOUND:                -0.302
REMARK SMILES O=c1c(O)c(-c2ccc(O)c(O)c2)oc2cc(O)cc(O)c12
REMARK SMILES IDX 5 1 3 2 2 3 1 4 22 5 20 6 19 7 17 8 16 9 15 10 14 11 6 12
REMARK SMILES IDX 7 13 8 14 9 15 13 16 11 17 10 18 12 20 4 22 21 24 18 26
REMARK H PARENT 10 19 12 21 4 23 21 25 18 27
REMARK Flexibility Score: inf
ROOT
ATOM      1  C   UNL     1      -0.130  -7.769  12.970  1.00  0.00     0.180 A 
ATOM      2  C   UNL     1      -0.275  -6.711  13.884  1.00  0.00     0.208 A 
ATOM      3  C   UNL     1      -1.563  -6.350  14.309  1.00  0.00     0.238 A 
ATOM      4  O   UNL     1      -1.682  -5.437  15.168  1.00  0.00    -0.285 OA
ATOM      5  C   UNL     1      -2.691  -7.040  13.803  1.00  0.00     0.111 A 
ATOM      6  C   UNL     1      -4.045  -6.732  14.136  1.00  0.00     0.134 A 
ATOM      7  C   UNL     1      -5.075  -7.564  13.679  1.00  0.00     0.093 A 
ATOM      8  C   UNL     1      -4.806  -8.653  12.850  1.00  0.00     0.123 A 
ATOM      9  C   UNL     1      -3.492  -8.928  12.472  1.00  0.00     0.094 A 
ATOM     10  C   UNL     1      -2.440  -8.138  12.940  1.00  0.00     0.146 A 
ATOM     11  O   UNL     1      -1.203  -8.439  12.565  1.00  0.00    -0.452 OA
ENDROOT
BRANCH   1  12
ATOM     12  C   UNL     1       1.193  -8.191  12.456  1.00  0.00     0.025 A 
ATOM     13  C   UNL     1       1.738  -9.415  12.873  1.00  0.00     0.016 A 
ATOM     14  C   UNL     1       2.975  -9.843  12.385  1.00  0.00     0.051 A 
ATOM     15  C   UNL     1       3.678  -9.063  11.463  1.00  0.00     0.157 A 
ATOM     16  C   UNL     1       1.892  -7.417  11.512  1.00  0.00     0.062 A 
ATOM     17  C   UNL     1       3.133  -7.846  11.020  1.00  0.00     0.158 A 
BRANCH  15  18
ATOM     18  O   UNL     1       4.912  -9.514  10.994  1.00  0.00    -0.504 OA
ATOM     19  H   UNL     1       5.534 -10.072  11.566  1.00  0.00     0.293 HD
ENDBRANCH  15  18
BRANCH  17  20
ATOM     20  O   UNL     1       3.822  -7.070  10.089  1.00  0.00    -0.504 OA
ATOM     21  H   UNL     1       4.507  -7.476   9.461  1.00  0.00     0.293 HD
ENDBRANCH  17  20
ENDBRANCH   1  12
BRANCH   2  22
ATOM     22  O   UNL     1       0.853  -6.058  14.386  1.00  0.00    -0.502 OA
ATOM     23  H   UNL     1       0.859  -5.066  14.598  1.00  0.00     0.293 HD
ENDBRANCH   2  22
BRANCH   6  24
ATOM     24  O   UNL     1      -4.432  -5.614  14.881  1.00  0.00    -0.507 OA
ATOM     25  H   UNL     1      -5.257  -5.062  14.702  1.00  0.00     0.293 HD
ENDBRANCH   6  24
BRANCH   8  26
ATOM     26  O   UNL     1      -5.857  -9.451  12.401  1.00  0.00    -0.508 OA
ATOM     27  H   UNL     1      -6.812  -9.115  12.395  1.00  0.00     0.293 HD
ENDBRANCH   8  26
TORSDOF 6
ENDMDL
