MODEL 1
REMARK VINA RESULT:    -6.663      0.000      0.000
REMARK INTER + INTRA:         -14.901
REMARK INTER:                 -12.116
REMARK INTRA:                  -2.786
REMARK UNBOUND:                -2.786
REMARK SMILES CCCCCC=CCC=CCCCCCCCC(=O)[O-]
REMARK SMILES IDX 11 1 12 2 13 3 14 4 15 5 16 6 17 7 18 8 19 9 20 10 10 11
REMARK SMILES IDX 9 12 8 13 7 14 6 15 5 16 4 17 3 18 2 19 1 20
REMARK H PARENT
REMARK Flexibility Score: inf
ROOT
ATOM      1  C   UNL     1     -19.027  -9.468  -0.510  1.00  0.00     0.027 C 
ENDROOT
BRANCH   1   2
ATOM      2  C   UNL     1     -18.261  -9.468   0.826  1.00  0.00     0.004 C 
BRANCH   2   3
ATOM      3  C   UNL     1     -17.564  -8.134   1.155  1.00  0.00     0.000 C 
BRANCH   3   4
ATOM      4  C   UNL     1     -16.100  -8.036   0.686  1.00  0.00     0.000 C 
BRANCH   4   5
ATOM      5  C   UNL     1     -15.920  -7.233  -0.620  1.00  0.00     0.000 C 
BRANCH   5   6
ATOM      6  C   UNL     1     -15.461  -8.118  -1.792  1.00  0.00     0.006 C 
BRANCH   6   7
ATOM      7  C   UNL     1     -16.599  -8.409  -2.780  1.00  0.00     0.053 C 
BRANCH   7   8
ATOM      8  C   UNL     1     -16.084  -8.615  -4.171  1.00  0.00     0.041 C 
ATOM      9  O   UNL     1     -16.585  -7.974  -5.133  1.00  0.00    -0.550 OA
ATOM     10  O   UNL     1     -15.073  -9.536  -4.412  1.00  0.00    -0.550 OA
ENDBRANCH   7   8
ENDBRANCH   6   7
ENDBRANCH   5   6
ENDBRANCH   4   5
ENDBRANCH   3   4
ENDBRANCH   2   3
ENDBRANCH   1   2
BRANCH   1  11
ATOM     11  C   UNL     1     -18.982 -10.806  -1.198  1.00  0.00    -0.031 C 
ATOM     12  C   UNL     1     -19.278 -11.942  -0.549  1.00  0.00    -0.027 C 
BRANCH  12  13
ATOM     13  C   UNL     1     -19.261 -13.269  -1.250  1.00  0.00     0.054 C 
BRANCH  13  14
ATOM     14  C   UNL     1     -18.496 -13.158  -2.546  1.00  0.00    -0.027 C 
ATOM     15  C   UNL     1     -17.362 -13.821  -2.836  1.00  0.00    -0.031 C 
BRANCH  15  16
ATOM     16  C   UNL     1     -16.702 -14.841  -1.940  1.00  0.00     0.027 C 
BRANCH  16  17
ATOM     17  C   UNL     1     -15.526 -14.244  -1.152  1.00  0.00     0.004 C 
BRANCH  17  18
ATOM     18  C   UNL     1     -15.911 -13.923   0.303  1.00  0.00     0.000 C 
BRANCH  18  19
ATOM     19  C   UNL     1     -15.929 -12.414   0.589  1.00  0.00    -0.003 C 
ATOM     20  C   UNL     1     -15.362 -11.588  -0.565  1.00  0.00     0.004 C 
ENDBRANCH  18  19
ENDBRANCH  17  18
ENDBRANCH  16  17
ENDBRANCH  15  16
ENDBRANCH  13  14
ENDBRANCH  12  13
ENDBRANCH   1  11
TORSDOF 14
ENDMDL
MODEL 2
REMARK VINA RESULT:    -6.434      2.568      5.895
REMARK INTER + INTRA:         -14.486
REMARK INTER:                 -11.967
REMARK INTRA:                  -2.519
REMARK UNBOUND:                -2.786
REMARK SMILES CCCCCC=CCC=CCCCCCCCC(=O)[O-]
REMARK SMILES IDX 11 1 12 2 13 3 14 4 15 5 16 6 17 7 18 8 19 9 20 10 10 11
REMARK SMILES IDX 9 12 8 13 7 14 6 15 5 16 4 17 3 18 2 19 1 20
REMARK H PARENT
REMARK Flexibility Score: inf
ROOT
ATOM      1  C   UNL     1     -19.220 -12.950  -1.007  1.00  0.00     0.027 C 
ENDROOT
BRANCH   1   2
ATOM      2  C   UNL     1     -18.880 -13.040  -2.506  1.00  0.00     0.004 C 
BRANCH   2   3
ATOM      3  C   UNL     1     -18.137 -14.327  -2.910  1.00  0.00     0.000 C 
BRANCH   3   4
ATOM      4  C   UNL     1     -16.681 -14.418  -2.411  1.00  0.00     0.000 C 
BRANCH   4   5
ATOM      5  C   UNL     1     -15.952 -13.058  -2.378  1.00  0.00     0.000 C 
BRANCH   5   6
ATOM      6  C   UNL     1     -15.439 -12.704  -0.971  1.00  0.00     0.006 C 
BRANCH   6   7
ATOM      7  C   UNL     1     -15.903 -13.715   0.086  1.00  0.00     0.053 C 
BRANCH   7   8
ATOM      8  C   UNL     1     -15.143 -13.562   1.368  1.00  0.00     0.041 C 
ATOM      9  O   UNL     1     -14.133 -12.812   1.420  1.00  0.00    -0.550 OA
ATOM     10  O   UNL     1     -15.532 -14.270   2.498  1.00  0.00    -0.550 OA
ENDBRANCH   7   8
ENDBRANCH   6   7
ENDBRANCH   5   6
ENDBRANCH   4   5
ENDBRANCH   3   4
ENDBRANCH   2   3
ENDBRANCH   1   2
BRANCH   1  11
ATOM     11  C   UNL     1     -18.963 -11.581  -0.440  1.00  0.00    -0.031 C 
ATOM     12  C   UNL     1     -18.931 -10.490  -1.220  1.00  0.00    -0.027 C 
BRANCH  12  13
ATOM     13  C   UNL     1     -18.704  -9.123  -0.644  1.00  0.00     0.054 C 
BRANCH  13  14
ATOM     14  C   UNL     1     -17.648  -9.187   0.434  1.00  0.00    -0.027 C 
ATOM     15  C   UNL     1     -16.378  -8.762   0.301  1.00  0.00    -0.031 C 
BRANCH  15  16
ATOM     16  C   UNL     1     -15.815  -8.086  -0.925  1.00  0.00     0.027 C 
BRANCH  16  17
ATOM     17  C   UNL     1     -14.717  -8.926  -1.596  1.00  0.00     0.004 C 
BRANCH  17  18
ATOM     18  C   UNL     1     -14.893  -8.992  -3.123  1.00  0.00     0.000 C 
BRANCH  18  19
ATOM     19  C   UNL     1     -16.369  -8.958  -3.548  1.00  0.00    -0.003 C 
ATOM     20  C   UNL     1     -16.617  -8.041  -4.746  1.00  0.00     0.004 C 
ENDBRANCH  18  19
ENDBRANCH  17  18
ENDBRANCH  16  17
ENDBRANCH  15  16
ENDBRANCH  13  14
ENDBRANCH  12  13
ENDBRANCH   1  11
TORSDOF 14
ENDMDL
MODEL 3
REMARK VINA RESULT:    -6.212      2.127      3.318
REMARK INTER + INTRA:         -14.081
REMARK INTER:                 -11.839
REMARK INTRA:                  -2.242
REMARK UNBOUND:                -2.786
REMARK SMILES CCCCCC=CCC=CCCCCCCCC(=O)[O-]
REMARK SMILES IDX 11 1 12 2 13 3 14 4 15 5 16 6 17 7 18 8 19 9 20 10 10 11
REMARK SMILES IDX 9 12 8 13 7 14 6 15 5 16 4 17 3 18 2 19 1 20
REMARK H PARENT
REMARK Flexibility Score: inf
ROOT
ATOM      1  C   UNL     1     -15.524 -10.049  -3.426  1.00  0.00     0.027 C 
ENDROOT
BRANCH   1   2
ATOM      2  C   UNL     1     -16.410  -8.802  -3.248  1.00  0.00     0.004 C 
BRANCH   2   3
ATOM      3  C   UNL     1     -16.036  -7.930  -2.035  1.00  0.00     0.000 C 
BRANCH   3   4
ATOM      4  C   UNL     1     -15.031  -8.573  -1.060  1.00  0.00     0.000 C 
BRANCH   4   5
ATOM      5  C   UNL     1     -15.501  -8.567   0.410  1.00  0.00     0.000 C 
BRANCH   5   6
ATOM      6  C   UNL     1     -16.606  -7.528   0.666  1.00  0.00     0.006 C 
BRANCH   6   7
ATOM      7  C   UNL     1     -17.864  -8.158   1.278  1.00  0.00     0.053 C 
BRANCH   7   8
ATOM      8  C   UNL     1     -18.423  -9.238   0.404  1.00  0.00     0.041 C 
ATOM      9  O   UNL     1     -19.126  -8.942  -0.598  1.00  0.00    -0.550 OA
ATOM     10  O   UNL     1     -18.194 -10.573   0.713  1.00  0.00    -0.550 OA
ENDBRANCH   7   8
ENDBRANCH   6   7
ENDBRANCH   5   6
ENDBRANCH   4   5
ENDBRANCH   3   4
ENDBRANCH   2   3
ENDBRANCH   1   2
BRANCH   1  11
ATOM     11  C   UNL     1     -16.196 -11.305  -2.943  1.00  0.00    -0.031 C 
ATOM     12  C   UNL     1     -17.477 -11.311  -2.546  1.00  0.00    -0.027 C 
BRANCH  12  13
ATOM     13  C   UNL     1     -18.150 -12.573  -2.094  1.00  0.00     0.054 C 
BRANCH  13  14
ATOM     14  C   UNL     1     -17.804 -13.705  -3.031  1.00  0.00    -0.027 C 
ATOM     15  C   UNL     1     -16.973 -14.724  -2.742  1.00  0.00    -0.031 C 
BRANCH  15  16
ATOM     16  C   UNL     1     -16.301 -14.942  -1.408  1.00  0.00     0.027 C 
BRANCH  16  17
ATOM     17  C   UNL     1     -14.906 -14.300  -1.352  1.00  0.00     0.004 C 
BRANCH  17  18
ATOM     18  C   UNL     1     -14.768 -13.323  -0.172  1.00  0.00     0.000 C 
BRANCH  18  19
ATOM     19  C   UNL     1     -15.929 -13.437   0.827  1.00  0.00    -0.003 C 
ATOM     20  C   UNL     1     -15.538 -14.182   2.104  1.00  0.00     0.004 C 
ENDBRANCH  18  19
ENDBRANCH  17  18
ENDBRANCH  16  17
ENDBRANCH  15  16
ENDBRANCH  13  14
ENDBRANCH  12  13
ENDBRANCH   1  11
TORSDOF 14
ENDMDL
MODEL 4
REMARK VINA RESULT:    -6.148      1.022      4.021
REMARK INTER + INTRA:         -13.966
REMARK INTER:                 -11.421
REMARK INTRA:                  -2.545
REMARK UNBOUND:                -2.786
REMARK SMILES CCCCCC=CCC=CCCCCCCCC(=O)[O-]
REMARK SMILES IDX 11 1 12 2 13 3 14 4 15 5 16 6 17 7 18 8 19 9 20 10 10 11
REMARK SMILES IDX 9 12 8 13 7 14 6 15 5 16 4 17 3 18 2 19 1 20
REMARK H PARENT
REMARK Flexibility Score: inf
ROOT
ATOM      1  C   UNL     1     -15.249 -14.583  -1.508  1.00  0.00     0.027 C 
ENDROOT
BRANCH   1   2
ATOM      2  C   UNL     1     -14.352 -13.518  -0.850  1.00  0.00     0.004 C 
BRANCH   2   3
ATOM      3  C   UNL     1     -15.031 -12.740   0.293  1.00  0.00     0.000 C 
BRANCH   3   4
ATOM      4  C   UNL     1     -15.342 -11.264  -0.024  1.00  0.00     0.000 C 
BRANCH   4   5
ATOM      5  C   UNL     1     -15.239 -10.917  -1.524  1.00  0.00     0.000 C 
BRANCH   5   6
ATOM      6  C   UNL     1     -14.676  -9.505  -1.761  1.00  0.00     0.006 C 
BRANCH   6   7
ATOM      7  C   UNL     1     -14.707  -9.110  -3.244  1.00  0.00     0.053 C 
BRANCH   7   8
ATOM      8  C   UNL     1     -15.888  -8.244  -3.560  1.00  0.00     0.041 C 
ATOM      9  O   UNL     1     -16.460  -7.594  -2.646  1.00  0.00    -0.550 OA
ATOM     10  O   UNL     1     -16.377  -8.179  -4.859  1.00  0.00    -0.550 OA
ENDBRANCH   7   8
ENDBRANCH   6   7
ENDBRANCH   5   6
ENDBRANCH   4   5
ENDBRANCH   3   4
ENDBRANCH   2   3
ENDBRANCH   1   2
BRANCH   1  11
ATOM     11  C   UNL     1     -16.714 -14.295  -1.322  1.00  0.00    -0.031 C 
ATOM     12  C   UNL     1     -17.445 -13.710  -2.282  1.00  0.00    -0.027 C 
BRANCH  12  13
ATOM     13  C   UNL     1     -18.912 -13.454  -2.101  1.00  0.00     0.054 C 
BRANCH  13  14
ATOM     14  C   UNL     1     -19.166 -12.850  -0.741  1.00  0.00    -0.027 C 
ATOM     15  C   UNL     1     -19.135 -11.535  -0.459  1.00  0.00    -0.031 C 
BRANCH  15  16
ATOM     16  C   UNL     1     -18.911 -10.437  -1.471  1.00  0.00     0.027 C 
BRANCH  16  17
ATOM     17  C   UNL     1     -18.535  -9.104  -0.805  1.00  0.00     0.004 C 
BRANCH  17  18
ATOM     18  C   UNL     1     -18.251  -9.271   0.698  1.00  0.00     0.000 C 
BRANCH  18  19
ATOM     19  C   UNL     1     -17.733  -7.979   1.347  1.00  0.00    -0.003 C 
ATOM     20  C   UNL     1     -16.337  -7.592   0.859  1.00  0.00     0.004 C 
ENDBRANCH  18  19
ENDBRANCH  17  18
ENDBRANCH  16  17
ENDBRANCH  15  16
ENDBRANCH  13  14
ENDBRANCH  12  13
ENDBRANCH   1  11
TORSDOF 14
ENDMDL
MODEL 5
REMARK VINA RESULT:    -6.065      0.996      2.361
REMARK INTER + INTRA:         -13.814
REMARK INTER:                 -11.200
REMARK INTRA:                  -2.614
REMARK UNBOUND:                -2.786
REMARK SMILES CCCCCC=CCC=CCCCCCCCC(=O)[O-]
REMARK SMILES IDX 11 1 12 2 13 3 14 4 15 5 16 6 17 7 18 8 19 9 20 10 10 11
REMARK SMILES IDX 9 12 8 13 7 14 6 15 5 16 4 17 3 18 2 19 1 20
REMARK H PARENT
REMARK Flexibility Score: inf
ROOT
ATOM      1  C   UNL     1     -19.203 -10.084  -0.744  1.00  0.00     0.027 C 
ENDROOT
BRANCH   1   2
ATOM      2  C   UNL     1     -19.024  -8.766   0.033  1.00  0.00     0.004 C 
BRANCH   2   3
ATOM      3  C   UNL     1     -17.788  -8.739   0.953  1.00  0.00     0.000 C 
BRANCH   3   4
ATOM      4  C   UNL     1     -16.690  -7.742   0.532  1.00  0.00     0.000 C 
BRANCH   4   5
ATOM      5  C   UNL     1     -15.656  -8.337  -0.447  1.00  0.00     0.000 C 
BRANCH   5   6
ATOM      6  C   UNL     1     -15.729  -7.688  -1.840  1.00  0.00     0.006 C 
BRANCH   6   7
ATOM      7  C   UNL     1     -16.740  -8.392  -2.756  1.00  0.00     0.053 C 
BRANCH   7   8
ATOM      8  C   UNL     1     -16.183  -8.613  -4.129  1.00  0.00     0.041 C 
ATOM      9  O   UNL     1     -16.682  -8.014  -5.118  1.00  0.00    -0.550 OA
ATOM     10  O   UNL     1     -15.135  -9.503  -4.321  1.00  0.00    -0.550 OA
ENDBRANCH   7   8
ENDBRANCH   6   7
ENDBRANCH   5   6
ENDBRANCH   4   5
ENDBRANCH   3   4
ENDBRANCH   2   3
ENDBRANCH   1   2
BRANCH   1  11
ATOM     11  C   UNL     1     -18.092 -11.063  -0.477  1.00  0.00    -0.031 C 
ATOM     12  C   UNL     1     -18.327 -12.262   0.077  1.00  0.00    -0.027 C 
BRANCH  12  13
ATOM     13  C   UNL     1     -17.219 -13.246   0.312  1.00  0.00     0.054 C 
BRANCH  13  14
ATOM     14  C   UNL     1     -15.898 -12.521   0.405  1.00  0.00    -0.027 C 
ATOM     15  C   UNL     1     -14.847 -12.718  -0.412  1.00  0.00    -0.031 C 
BRANCH  15  16
ATOM     16  C   UNL     1     -14.837 -13.648  -1.602  1.00  0.00     0.027 C 
BRANCH  16  17
ATOM     17  C   UNL     1     -15.104 -12.904  -2.920  1.00  0.00     0.004 C 
BRANCH  17  18
ATOM     18  C   UNL     1     -16.600 -12.888  -3.280  1.00  0.00     0.000 C 
BRANCH  18  19
ATOM     19  C   UNL     1     -17.242 -14.281  -3.192  1.00  0.00    -0.003 C 
ATOM     20  C   UNL     1     -18.751 -14.220  -2.954  1.00  0.00     0.004 C 
ENDBRANCH  18  19
ENDBRANCH  17  18
ENDBRANCH  16  17
ENDBRANCH  15  16
ENDBRANCH  13  14
ENDBRANCH  12  13
ENDBRANCH   1  11
TORSDOF 14
ENDMDL
MODEL 6
REMARK VINA RESULT:    -6.003      1.169      2.830
REMARK INTER + INTRA:         -13.702
REMARK INTER:                 -11.195
REMARK INTRA:                  -2.507
REMARK UNBOUND:                -2.786
REMARK SMILES CCCCCC=CCC=CCCCCCCCC(=O)[O-]
REMARK SMILES IDX 11 1 12 2 13 3 14 4 15 5 16 6 17 7 18 8 19 9 20 10 10 11
REMARK SMILES IDX 9 12 8 13 7 14 6 15 5 16 4 17 3 18 2 19 1 20
REMARK H PARENT
REMARK Flexibility Score: inf
ROOT
ATOM      1  C   UNL     1     -17.396  -8.107   1.238  1.00  0.00     0.027 C 
ENDROOT
BRANCH   1   2
ATOM      2  C   UNL     1     -15.999  -7.923   0.615  1.00  0.00     0.004 C 
BRANCH   2   3
ATOM      3  C   UNL     1     -15.180  -9.223   0.508  1.00  0.00     0.000 C 
BRANCH   3   4
ATOM      4  C   UNL     1     -14.755  -9.604  -0.924  1.00  0.00     0.000 C 
BRANCH   4   5
ATOM      5  C   UNL     1     -15.456 -10.869  -1.462  1.00  0.00     0.000 C 
BRANCH   5   6
ATOM      6  C   UNL     1     -16.165 -10.619  -2.805  1.00  0.00     0.006 C 
BRANCH   6   7
ATOM      7  C   UNL     1     -15.448  -9.558  -3.650  1.00  0.00     0.053 C 
BRANCH   7   8
ATOM      8  C   UNL     1     -16.309  -8.352  -3.872  1.00  0.00     0.041 C 
ATOM      9  O   UNL     1     -16.668  -7.642  -2.896  1.00  0.00    -0.550 OA
ATOM     10  O   UNL     1     -16.742  -8.031  -5.152  1.00  0.00    -0.550 OA
ENDBRANCH   7   8
ENDBRANCH   6   7
ENDBRANCH   5   6
ENDBRANCH   4   5
ENDBRANCH   3   4
ENDBRANCH   2   3
ENDBRANCH   1   2
BRANCH   1  11
ATOM     11  C   UNL     1     -18.144  -9.267   0.639  1.00  0.00    -0.031 C 
ATOM     12  C   UNL     1     -18.752  -9.174  -0.552  1.00  0.00    -0.027 C 
BRANCH  12  13
ATOM     13  C   UNL     1     -19.470 -10.344  -1.158  1.00  0.00     0.054 C 
BRANCH  13  14
ATOM     14  C   UNL     1     -19.142 -11.602  -0.391  1.00  0.00    -0.027 C 
ATOM     15  C   UNL     1     -18.967 -12.819  -0.937  1.00  0.00    -0.031 C 
BRANCH  15  16
ATOM     16  C   UNL     1     -19.000 -13.117  -2.417  1.00  0.00     0.027 C 
BRANCH  16  17
ATOM     17  C   UNL     1     -18.259 -14.419  -2.761  1.00  0.00     0.004 C 
BRANCH  17  18
ATOM     18  C   UNL     1     -16.894 -14.148  -3.418  1.00  0.00     0.000 C 
BRANCH  18  19
ATOM     19  C   UNL     1     -15.727 -14.287  -2.430  1.00  0.00    -0.003 C 
ATOM     20  C   UNL     1     -16.178 -14.745  -1.043  1.00  0.00     0.004 C 
ENDBRANCH  18  19
ENDBRANCH  17  18
ENDBRANCH  16  17
ENDBRANCH  15  16
ENDBRANCH  13  14
ENDBRANCH  12  13
ENDBRANCH   1  11
TORSDOF 14
ENDMDL
MODEL 7
REMARK VINA RESULT:    -5.963      2.616      5.807
REMARK INTER + INTRA:         -13.630
REMARK INTER:                 -11.243
REMARK INTRA:                  -2.387
REMARK UNBOUND:                -2.786
REMARK SMILES CCCCCC=CCC=CCCCCCCCC(=O)[O-]
REMARK SMILES IDX 11 1 12 2 13 3 14 4 15 5 16 6 17 7 18 8 19 9 20 10 10 11
REMARK SMILES IDX 9 12 8 13 7 14 6 15 5 16 4 17 3 18 2 19 1 20
REMARK H PARENT
REMARK Flexibility Score: inf
ROOT
ATOM      1  C   UNL     1     -19.260 -13.798  -2.792  1.00  0.00     0.027 C 
ENDROOT
BRANCH   1   2
ATOM      2  C   UNL     1     -18.040 -14.702  -3.047  1.00  0.00     0.004 C 
BRANCH   2   3
ATOM      3  C   UNL     1     -16.851 -13.985  -3.716  1.00  0.00     0.000 C 
BRANCH   3   4
ATOM      4  C   UNL     1     -15.639 -13.745  -2.794  1.00  0.00     0.000 C 
BRANCH   4   5
ATOM      5  C   UNL     1     -15.455 -12.268  -2.385  1.00  0.00     0.000 C 
BRANCH   5   6
ATOM      6  C   UNL     1     -15.355 -12.092  -0.860  1.00  0.00     0.006 C 
BRANCH   6   7
ATOM      7  C   UNL     1     -15.719 -13.376  -0.103  1.00  0.00     0.053 C 
BRANCH   7   8
ATOM      8  C   UNL     1     -15.056 -13.434   1.239  1.00  0.00     0.041 C 
ATOM      9  O   UNL     1     -14.031 -12.740   1.469  1.00  0.00    -0.550 OA
ATOM     10  O   UNL     1     -15.550 -14.278   2.225  1.00  0.00    -0.550 OA
ENDBRANCH   7   8
ENDBRANCH   6   7
ENDBRANCH   5   6
ENDBRANCH   4   5
ENDBRANCH   3   4
ENDBRANCH   2   3
ENDBRANCH   1   2
BRANCH   1  11
ATOM     11  C   UNL     1     -18.911 -12.576  -1.986  1.00  0.00    -0.031 C 
ATOM     12  C   UNL     1     -19.146 -12.511  -0.667  1.00  0.00    -0.027 C 
BRANCH  12  13
ATOM     13  C   UNL     1     -18.767 -11.302   0.137  1.00  0.00     0.054 C 
BRANCH  13  14
ATOM     14  C   UNL     1     -19.175 -10.048  -0.598  1.00  0.00    -0.027 C 
ATOM     15  C   UNL     1     -18.956  -8.792  -0.166  1.00  0.00    -0.031 C 
BRANCH  15  16
ATOM     16  C   UNL     1     -18.205  -8.426   1.091  1.00  0.00     0.027 C 
BRANCH  16  17
ATOM     17  C   UNL     1     -16.922  -7.636   0.790  1.00  0.00     0.004 C 
BRANCH  17  18
ATOM     18  C   UNL     1     -15.954  -8.429  -0.105  1.00  0.00     0.000 C 
BRANCH  18  19
ATOM     19  C   UNL     1     -15.592  -7.678  -1.394  1.00  0.00    -0.003 C 
ATOM     20  C   UNL     1     -16.202  -8.317  -2.641  1.00  0.00     0.004 C 
ENDBRANCH  18  19
ENDBRANCH  17  18
ENDBRANCH  16  17
ENDBRANCH  15  16
ENDBRANCH  13  14
ENDBRANCH  12  13
ENDBRANCH   1  11
TORSDOF 14
ENDMDL
MODEL 8
REMARK VINA RESULT:    -5.953      2.379      5.714
REMARK INTER + INTRA:         -13.611
REMARK INTER:                 -11.189
REMARK INTRA:                  -2.423
REMARK UNBOUND:                -2.786
REMARK SMILES CCCCCC=CCC=CCCCCCCCC(=O)[O-]
REMARK SMILES IDX 11 1 12 2 13 3 14 4 15 5 16 6 17 7 18 8 19 9 20 10 10 11
REMARK SMILES IDX 9 12 8 13 7 14 6 15 5 16 4 17 3 18 2 19 1 20
REMARK H PARENT
REMARK Flexibility Score: inf
ROOT
ATOM      1  C   UNL     1     -18.576 -12.827  -0.642  1.00  0.00     0.027 C 
ENDROOT
BRANCH   1   2
ATOM      2  C   UNL     1     -19.381 -13.408  -1.819  1.00  0.00     0.004 C 
BRANCH   2   3
ATOM      3  C   UNL     1     -18.519 -14.095  -2.896  1.00  0.00     0.000 C 
BRANCH   3   4
ATOM      4  C   UNL     1     -17.114 -14.520  -2.426  1.00  0.00     0.000 C 
BRANCH   4   5
ATOM      5  C   UNL     1     -15.992 -13.566  -2.887  1.00  0.00     0.000 C 
BRANCH   5   6
ATOM      6  C   UNL     1     -15.052 -13.170  -1.735  1.00  0.00     0.006 C 
BRANCH   6   7
ATOM      7  C   UNL     1     -15.199 -14.098  -0.521  1.00  0.00     0.053 C 
BRANCH   7   8
ATOM      8  C   UNL     1     -15.185 -13.332   0.766  1.00  0.00     0.041 C 
ATOM      9  O   UNL     1     -14.986 -12.088   0.760  1.00  0.00    -0.550 OA
ATOM     10  O   UNL     1     -15.359 -13.994   1.974  1.00  0.00    -0.550 OA
ENDBRANCH   7   8
ENDBRANCH   6   7
ENDBRANCH   5   6
ENDBRANCH   4   5
ENDBRANCH   3   4
ENDBRANCH   2   3
ENDBRANCH   1   2
BRANCH   1  11
ATOM     11  C   UNL     1     -18.377 -11.340  -0.761  1.00  0.00    -0.031 C 
ATOM     12  C   UNL     1     -18.167 -10.750  -1.946  1.00  0.00    -0.027 C 
BRANCH  12  13
ATOM     13  C   UNL     1     -18.000  -9.263  -2.061  1.00  0.00     0.054 C 
BRANCH  13  14
ATOM     14  C   UNL     1     -16.893  -8.942  -3.036  1.00  0.00    -0.027 C 
ATOM     15  C   UNL     1     -15.809  -8.193  -2.760  1.00  0.00    -0.031 C 
BRANCH  15  16
ATOM     16  C   UNL     1     -15.485  -7.605  -1.408  1.00  0.00     0.027 C 
BRANCH  16  17
ATOM     17  C   UNL     1     -14.936  -8.660  -0.435  1.00  0.00     0.004 C 
BRANCH  17  18
ATOM     18  C   UNL     1     -15.762  -8.734   0.861  1.00  0.00     0.000 C 
BRANCH  18  19
ATOM     19  C   UNL     1     -16.814  -7.618   0.954  1.00  0.00    -0.003 C 
ATOM     20  C   UNL     1     -18.193  -8.139   1.360  1.00  0.00     0.004 C 
ENDBRANCH  18  19
ENDBRANCH  17  18
ENDBRANCH  16  17
ENDBRANCH  15  16
ENDBRANCH  13  14
ENDBRANCH  12  13
ENDBRANCH   1  11
TORSDOF 14
ENDMDL
MODEL 9
REMARK VINA RESULT:    -5.921      2.140      3.491
REMARK INTER + INTRA:         -13.553
REMARK INTER:                 -11.586
REMARK INTRA:                  -1.967
REMARK UNBOUND:                -2.786
REMARK SMILES CCCCCC=CCC=CCCCCCCCC(=O)[O-]
REMARK SMILES IDX 11 1 12 2 13 3 14 4 15 5 16 6 17 7 18 8 19 9 20 10 10 11
REMARK SMILES IDX 9 12 8 13 7 14 6 15 5 16 4 17 3 18 2 19 1 20
REMARK H PARENT
REMARK Flexibility Score: inf
ROOT
ATOM      1  C   UNL     1     -16.158  -8.538  -3.668  1.00  0.00     0.027 C 
ENDROOT
BRANCH   1   2
ATOM      2  C   UNL     1     -16.696  -8.043  -2.312  1.00  0.00     0.004 C 
BRANCH   2   3
ATOM      3  C   UNL     1     -15.602  -7.741  -1.271  1.00  0.00     0.000 C 
BRANCH   3   4
ATOM      4  C   UNL     1     -15.839  -8.369   0.117  1.00  0.00     0.000 C 
BRANCH   4   5
ATOM      5  C   UNL     1     -17.023  -7.745   0.885  1.00  0.00     0.000 C 
BRANCH   5   6
ATOM      6  C   UNL     1     -18.221  -8.704   0.992  1.00  0.00     0.006 C 
BRANCH   6   7
ATOM      7  C   UNL     1     -17.870 -10.125   0.530  1.00  0.00     0.053 C 
BRANCH   7   8
ATOM      8  C   UNL     1     -18.918 -10.686  -0.381  1.00  0.00     0.041 C 
ATOM      9  O   UNL     1     -19.373 -11.843  -0.185  1.00  0.00    -0.550 OA
ATOM     10  O   UNL     1     -19.369  -9.944  -1.464  1.00  0.00    -0.550 OA
ENDBRANCH   7   8
ENDBRANCH   6   7
ENDBRANCH   5   6
ENDBRANCH   4   5
ENDBRANCH   3   4
ENDBRANCH   2   3
ENDBRANCH   1   2
BRANCH   1  11
ATOM     11  C   UNL     1     -15.573  -9.921  -3.583  1.00  0.00    -0.031 C 
ATOM     12  C   UNL     1     -16.295 -10.967  -3.153  1.00  0.00    -0.027 C 
BRANCH  12  13
ATOM     13  C   UNL     1     -15.715 -12.349  -3.100  1.00  0.00     0.054 C 
BRANCH  13  14
ATOM     14  C   UNL     1     -16.815 -13.375  -3.228  1.00  0.00    -0.027 C 
ATOM     15  C   UNL     1     -16.987 -14.433  -2.414  1.00  0.00    -0.031 C 
BRANCH  15  16
ATOM     16  C   UNL     1     -16.149 -14.732  -1.194  1.00  0.00     0.027 C 
BRANCH  16  17
ATOM     17  C   UNL     1     -16.605 -13.927   0.033  1.00  0.00     0.004 C 
BRANCH  17  18
ATOM     18  C   UNL     1     -15.629 -14.073   1.213  1.00  0.00     0.000 C 
BRANCH  18  19
ATOM     19  C   UNL     1     -14.527 -13.003   1.202  1.00  0.00    -0.003 C 
ATOM     20  C   UNL     1     -14.839 -11.843   0.258  1.00  0.00     0.004 C 
ENDBRANCH  18  19
ENDBRANCH  17  18
ENDBRANCH  16  17
ENDBRANCH  15  16
ENDBRANCH  13  14
ENDBRANCH  12  13
ENDBRANCH   1  11
TORSDOF 14
ENDMDL
