MODEL 1
REMARK VINA RESULT:    -4.621      0.000      0.000
REMARK INTER + INTRA:          -5.302
REMARK INTER:                  -5.161
REMARK INTRA:                  -0.141
REMARK UNBOUND:                -0.141
REMARK SMILES O=C([O-])C=Cc1ccccc1
REMARK SMILES IDX 4 1 5 2 2 3 1 4 3 5 6 6 7 7 11 8 8 9 10 10 9 11
REMARK H PARENT
REMARK Flexibility Score: inf
ROOT
ATOM      1  C   UNL     1      43.687   8.819 117.249  1.00  0.00     0.025 C 
ATOM      2  C   UNL     1      43.299   8.649 118.521  1.00  0.00     0.010 C 
ENDROOT
BRANCH   1   3
ATOM      3  C   UNL     1      44.151   7.693 116.422  1.00  0.00     0.064 C 
ATOM      4  O   UNL     1      43.383   7.203 115.553  1.00  0.00    -0.545 OA
ATOM      5  O   UNL     1      45.425   7.159 116.585  1.00  0.00    -0.545 OA
ENDBRANCH   1   3
BRANCH   2   6
ATOM      6  C   UNL     1      42.820   9.738 119.416  1.00  0.00    -0.026 A 
ATOM      7  C   UNL     1      41.862   9.540 120.436  1.00  0.00     0.008 A 
ATOM      8  C   UNL     1      43.352  11.027 119.234  1.00  0.00     0.008 A 
ATOM      9  C   UNL     1      41.456  10.608 121.242  1.00  0.00     0.001 A 
ATOM     10  C   UNL     1      42.941  12.091 120.044  1.00  0.00     0.001 A 
ATOM     11  C   UNL     1      41.995  11.881 121.047  1.00  0.00     0.000 A 
ENDBRANCH   2   6
TORSDOF 2
ENDMDL
MODEL 2
REMARK VINA RESULT:    -4.592      5.789      9.495
REMARK INTER + INTRA:          -5.269
REMARK INTER:                  -5.124
REMARK INTRA:                  -0.145
REMARK UNBOUND:                -0.141
REMARK SMILES O=C([O-])C=Cc1ccccc1
REMARK SMILES IDX 4 1 5 2 2 3 1 4 3 5 6 6 7 7 11 8 8 9 10 10 9 11
REMARK H PARENT
REMARK Flexibility Score: inf
ROOT
ATOM      1  C   UNL     1      45.979   7.332 113.601  1.00  0.00     0.025 C 
ATOM      2  C   UNL     1      46.954   7.593 112.719  1.00  0.00     0.010 C 
ENDROOT
BRANCH   1   3
ATOM      3  C   UNL     1      45.098   8.391 114.119  1.00  0.00     0.064 C 
ATOM      4  O   UNL     1      45.498   9.128 115.059  1.00  0.00    -0.545 OA
ATOM      5  O   UNL     1      43.828   8.593 113.589  1.00  0.00    -0.545 OA
ENDBRANCH   1   3
BRANCH   2   6
ATOM      6  C   UNL     1      47.883   6.576 112.153  1.00  0.00    -0.026 A 
ATOM      7  C   UNL     1      48.857   6.873 111.174  1.00  0.00     0.008 A 
ATOM      8  C   UNL     1      47.782   5.253 112.622  1.00  0.00     0.008 A 
ATOM      9  C   UNL     1      49.697   5.868 110.685  1.00  0.00     0.001 A 
ATOM     10  C   UNL     1      48.626   4.254 112.128  1.00  0.00     0.001 A 
ATOM     11  C   UNL     1      49.583   4.561 111.161  1.00  0.00     0.000 A 
ENDBRANCH   2   6
TORSDOF 2
ENDMDL
MODEL 3
REMARK VINA RESULT:    -4.561      5.790      9.404
REMARK INTER + INTRA:          -5.235
REMARK INTER:                  -5.104
REMARK INTRA:                  -0.132
REMARK UNBOUND:                -0.141
REMARK SMILES O=C([O-])C=Cc1ccccc1
REMARK SMILES IDX 4 1 5 2 2 3 1 4 3 5 6 6 7 7 11 8 8 9 10 10 9 11
REMARK H PARENT
REMARK Flexibility Score: inf
ROOT
ATOM      1  C   UNL     1      46.095   7.322 113.679  1.00  0.00     0.025 C 
ATOM      2  C   UNL     1      47.002   7.515 112.711  1.00  0.00     0.010 C 
ENDROOT
BRANCH   1   3
ATOM      3  C   UNL     1      45.251   8.418 114.181  1.00  0.00     0.064 C 
ATOM      4  O   UNL     1      44.159   8.673 113.607  1.00  0.00    -0.545 OA
ATOM      5  O   UNL     1      45.638   9.178 115.279  1.00  0.00    -0.545 OA
ENDBRANCH   1   3
BRANCH   2   6
ATOM      6  C   UNL     1      47.890   6.457 112.155  1.00  0.00    -0.026 A 
ATOM      7  C   UNL     1      47.826   5.102 112.549  1.00  0.00     0.008 A 
ATOM      8  C   UNL     1      48.839   6.832 111.186  1.00  0.00     0.008 A 
ATOM      9  C   UNL     1      48.691   4.160 111.985  1.00  0.00     0.001 A 
ATOM     10  C   UNL     1      49.701   5.883 110.626  1.00  0.00     0.001 A 
ATOM     11  C   UNL     1      49.627   4.549 111.025  1.00  0.00     0.000 A 
ENDBRANCH   2   6
TORSDOF 2
ENDMDL
MODEL 4
REMARK VINA RESULT:    -4.507      6.828      7.551
REMARK INTER + INTRA:          -5.175
REMARK INTER:                  -5.031
REMARK INTRA:                  -0.144
REMARK UNBOUND:                -0.141
REMARK SMILES O=C([O-])C=Cc1ccccc1
REMARK SMILES IDX 4 1 5 2 2 3 1 4 3 5 6 6 7 7 11 8 8 9 10 10 9 11
REMARK H PARENT
REMARK Flexibility Score: inf
ROOT
ATOM      1  C   UNL     1      41.497  13.154 114.046  1.00  0.00     0.025 C 
ATOM      2  C   UNL     1      41.877  14.282 114.661  1.00  0.00     0.010 C 
ENDROOT
BRANCH   1   3
ATOM      3  C   UNL     1      42.173  11.870 114.293  1.00  0.00     0.064 C 
ATOM      4  O   UNL     1      42.079  10.944 113.444  1.00  0.00    -0.545 OA
ATOM      5  O   UNL     1      42.914  11.659 115.451  1.00  0.00    -0.545 OA
ENDBRANCH   1   3
BRANCH   2   6
ATOM      6  C   UNL     1      41.243  15.614 114.461  1.00  0.00    -0.026 A 
ATOM      7  C   UNL     1      41.275  16.644 115.428  1.00  0.00     0.008 A 
ATOM      8  C   UNL     1      40.581  15.856 113.243  1.00  0.00     0.008 A 
ATOM      9  C   UNL     1      40.658  17.872 115.175  1.00  0.00     0.001 A 
ATOM     10  C   UNL     1      39.966  17.088 112.997  1.00  0.00     0.001 A 
ATOM     11  C   UNL     1      40.005  18.095 113.961  1.00  0.00     0.000 A 
ENDBRANCH   2   6
TORSDOF 2
ENDMDL
MODEL 5
REMARK VINA RESULT:    -4.419      4.586      6.073
REMARK INTER + INTRA:          -5.076
REMARK INTER:                  -4.947
REMARK INTRA:                  -0.129
REMARK UNBOUND:                -0.141
REMARK SMILES O=C([O-])C=Cc1ccccc1
REMARK SMILES IDX 4 1 5 2 2 3 1 4 3 5 6 6 7 7 11 8 8 9 10 10 9 11
REMARK H PARENT
REMARK Flexibility Score: inf
ROOT
ATOM      1  C   UNL     1      47.293   7.552 112.868  1.00  0.00     0.025 C 
ATOM      2  C   UNL     1      46.070   7.351 113.378  1.00  0.00     0.010 C 
ENDROOT
BRANCH   1   3
ATOM      3  C   UNL     1      47.985   6.519 112.080  1.00  0.00     0.064 C 
ATOM      4  O   UNL     1      47.938   5.317 112.455  1.00  0.00    -0.545 OA
ATOM      5  O   UNL     1      48.691   6.846 110.928  1.00  0.00    -0.545 OA
ENDBRANCH   1   3
BRANCH   2   6
ATOM      6  C   UNL     1      45.310   8.347 114.183  1.00  0.00    -0.026 A 
ATOM      7  C   UNL     1      45.720   8.788 115.461  1.00  0.00     0.008 A 
ATOM      8  C   UNL     1      44.125   8.874 113.638  1.00  0.00     0.008 A 
ATOM      9  C   UNL     1      44.959   9.727 116.163  1.00  0.00     0.001 A 
ATOM     10  C   UNL     1      43.368   9.812 114.346  1.00  0.00     0.001 A 
ATOM     11  C   UNL     1      43.785  10.239 115.608  1.00  0.00     0.000 A 
ENDBRANCH   2   6
TORSDOF 2
ENDMDL
MODEL 6
REMARK VINA RESULT:    -4.406      7.994     11.273
REMARK INTER + INTRA:          -5.062
REMARK INTER:                  -4.931
REMARK INTRA:                  -0.130
REMARK UNBOUND:                -0.141
REMARK SMILES O=C([O-])C=Cc1ccccc1
REMARK SMILES IDX 4 1 5 2 2 3 1 4 3 5 6 6 7 7 11 8 8 9 10 10 9 11
REMARK H PARENT
REMARK Flexibility Score: inf
ROOT
ATOM      1  C   UNL     1      42.710   3.009 112.568  1.00  0.00     0.025 C 
ATOM      2  C   UNL     1      42.655   1.931 113.363  1.00  0.00     0.010 C 
ENDROOT
BRANCH   1   3
ATOM      3  C   UNL     1      42.618   4.376 113.108  1.00  0.00     0.064 C 
ATOM      4  O   UNL     1      43.666   4.969 113.479  1.00  0.00    -0.545 OA
ATOM      5  O   UNL     1      41.393   5.025 113.217  1.00  0.00    -0.545 OA
ENDBRANCH   1   3
BRANCH   2   6
ATOM      6  C   UNL     1      42.740   0.522 112.890  1.00  0.00    -0.026 A 
ATOM      7  C   UNL     1      41.646  -0.372 112.909  1.00  0.00     0.008 A 
ATOM      8  C   UNL     1      43.975   0.062 112.398  1.00  0.00     0.008 A 
ATOM      9  C   UNL     1      41.795  -1.683 112.449  1.00  0.00     0.001 A 
ATOM     10  C   UNL     1      44.117  -1.252 111.939  1.00  0.00     0.001 A 
ATOM     11  C   UNL     1      43.028  -2.123 111.964  1.00  0.00     0.000 A 
ENDBRANCH   2   6
TORSDOF 2
ENDMDL
MODEL 7
REMARK VINA RESULT:    -4.354      7.999      9.414
REMARK INTER + INTRA:          -5.004
REMARK INTER:                  -4.877
REMARK INTRA:                  -0.127
REMARK UNBOUND:                -0.141
REMARK SMILES O=C([O-])C=Cc1ccccc1
REMARK SMILES IDX 4 1 5 2 2 3 1 4 3 5 6 6 7 7 11 8 8 9 10 10 9 11
REMARK H PARENT
REMARK Flexibility Score: inf
ROOT
ATOM      1  C   UNL     1      40.891  16.176 114.043  1.00  0.00     0.025 C 
ATOM      2  C   UNL     1      41.660  15.083 114.137  1.00  0.00     0.010 C 
ENDROOT
BRANCH   1   3
ATOM      3  C   UNL     1      40.547  16.985 115.224  1.00  0.00     0.064 C 
ATOM      4  O   UNL     1      39.356  17.009 115.636  1.00  0.00    -0.545 OA
ATOM      5  O   UNL     1      41.514  17.726 115.894  1.00  0.00    -0.545 OA
ENDBRANCH   1   3
BRANCH   2   6
ATOM      6  C   UNL     1      42.048  14.217 112.989  1.00  0.00    -0.026 A 
ATOM      7  C   UNL     1      42.706  14.702 111.837  1.00  0.00     0.008 A 
ATOM      8  C   UNL     1      41.744  12.845 113.062  1.00  0.00     0.008 A 
ATOM      9  C   UNL     1      43.042  13.833 110.795  1.00  0.00     0.001 A 
ATOM     10  C   UNL     1      42.084  11.981 112.016  1.00  0.00     0.001 A 
ATOM     11  C   UNL     1      42.732  12.474 110.884  1.00  0.00     0.000 A 
ENDBRANCH   2   6
TORSDOF 2
ENDMDL
MODEL 8
REMARK VINA RESULT:    -4.263      3.059      5.437
REMARK INTER + INTRA:          -4.903
REMARK INTER:                  -4.762
REMARK INTRA:                  -0.141
REMARK UNBOUND:                -0.141
REMARK SMILES O=C([O-])C=Cc1ccccc1
REMARK SMILES IDX 4 1 5 2 2 3 1 4 3 5 6 6 7 7 11 8 8 9 10 10 9 11
REMARK H PARENT
REMARK Flexibility Score: inf
ROOT
ATOM      1  C   UNL     1      42.998   9.565 119.203  1.00  0.00     0.025 C 
ATOM      2  C   UNL     1      43.678  10.057 118.158  1.00  0.00     0.010 C 
ENDROOT
BRANCH   1   3
ATOM      3  C   UNL     1      43.100  10.161 120.545  1.00  0.00     0.064 C 
ATOM      4  O   UNL     1      44.225  10.233 121.109  1.00  0.00    -0.545 OA
ATOM      5  O   UNL     1      41.976  10.646 121.205  1.00  0.00    -0.545 OA
ENDBRANCH   1   3
BRANCH   2   6
ATOM      6  C   UNL     1      43.625   9.508 116.775  1.00  0.00    -0.026 A 
ATOM      7  C   UNL     1      43.654  10.316 115.617  1.00  0.00     0.008 A 
ATOM      8  C   UNL     1      43.542   8.112 116.620  1.00  0.00     0.008 A 
ATOM      9  C   UNL     1      43.601   9.734 114.347  1.00  0.00     0.001 A 
ATOM     10  C   UNL     1      43.489   7.537 115.346  1.00  0.00     0.001 A 
ATOM     11  C   UNL     1      43.519   8.347 114.211  1.00  0.00     0.000 A 
ENDBRANCH   2   6
TORSDOF 2
ENDMDL
