MODEL 1
REMARK VINA RESULT:    23.866      0.000      0.000
REMARK INTER + INTRA:          33.919
REMARK INTER:                  32.237
REMARK INTRA:                   1.682
REMARK UNBOUND:                 1.682
REMARK SMILES COc1ccc(-c2cc(=O)c3c(OC)c(OC)c(OC)c(OC)c3o2)cc1
REMARK SMILES IDX 7 1 8 2 9 3 10 4 11 5 24 6 25 7 21 8 18 9 15 10 12 11 6 12
REMARK SMILES IDX 3 13 4 14 27 15 5 16 26 17 2 18 1 19 22 20 23 21 13 22 14 23
REMARK SMILES IDX 19 24 20 25 16 26 17 27
REMARK H PARENT
REMARK Flexibility Score: inf
ROOT
ATOM      1  C   UNL     1    -113.817 -96.384  35.100  1.00  0.00     0.138 A 
ATOM      2  C   UNL     1    -114.195 -95.934  33.830  1.00  0.00     0.100 A 
ATOM      3  C   UNL     1    -115.369 -96.413  33.257  1.00  0.00     0.197 A 
ATOM      4  O   UNL     1    -115.694 -95.999  32.112  1.00  0.00    -0.289 OA
ATOM      5  C   UNL     1    -116.162 -97.347  33.960  1.00  0.00     0.115 A 
ATOM      6  C   UNL     1    -115.728 -97.743  35.249  1.00  0.00     0.188 A 
ATOM      7  O   UNL     1    -114.597 -97.246  35.746  1.00  0.00    -0.452 OA
ATOM      8  C   UNL     1    -116.494 -98.662  36.004  1.00  0.00     0.209 A 
ATOM      9  C   UNL     1    -117.659 -99.219  35.457  1.00  0.00     0.211 A 
ATOM     10  C   UNL     1    -118.061 -98.869  34.147  1.00  0.00     0.208 A 
ATOM     11  C   UNL     1    -117.361 -97.876  33.431  1.00  0.00     0.179 A 
ENDROOT
BRANCH   1  12
ATOM     12  C   UNL     1    -112.569 -95.913  35.749  1.00  0.00     0.018 A 
ATOM     13  C   UNL     1    -110.168 -95.067  36.973  1.00  0.00     0.118 A 
ATOM     14  C   UNL     1    -110.614 -96.384  37.120  1.00  0.00     0.047 A 
ATOM     15  C   UNL     1    -110.927 -94.169  36.201  1.00  0.00     0.047 A 
ATOM     16  C   UNL     1    -111.800 -96.807  36.512  1.00  0.00     0.016 A 
ATOM     17  C   UNL     1    -112.114 -94.589  35.593  1.00  0.00     0.016 A 
BRANCH  13  18
ATOM     18  O   UNL     1    -108.973 -94.693  37.604  1.00  0.00    -0.497 OA
ATOM     19  C   UNL     1    -108.582 -93.346  37.851  1.00  0.00     0.278 C 
ENDBRANCH  13  18
ENDBRANCH   1  12
BRANCH   8  20
ATOM     20  O   UNL     1    -116.151 -99.078  37.306  1.00  0.00    -0.490 OA
ATOM     21  C   UNL     1    -116.736 -98.627  38.522  1.00  0.00     0.278 C 
ENDBRANCH   8  20
BRANCH  11  22
ATOM     22  O   UNL     1    -117.836 -97.402  32.197  1.00  0.00    -0.492 OA
ATOM     23  C   UNL     1    -118.872 -96.432  32.061  1.00  0.00     0.278 C 
ENDBRANCH  11  22
BRANCH   9  24
ATOM     24  O   UNL     1    -118.368-100.125  36.269  1.00  0.00    -0.490 OA
ATOM     25  C   UNL     1    -118.854 -99.882  37.585  1.00  0.00     0.279 C 
ENDBRANCH   9  24
BRANCH  10  26
ATOM     26  O   UNL     1    -119.125 -99.539  33.541  1.00  0.00    -0.490 OA
ATOM     27  C   UNL     1    -119.031-100.022  32.205  1.00  0.00     0.278 C 
ENDBRANCH  10  26
TORSDOF 6
ENDMDL
