MODEL 1
REMARK VINA RESULT:    -4.542      0.000      0.000
REMARK INTER + INTRA:          -9.991
REMARK INTER:                  -8.526
REMARK INTRA:                  -1.465
REMARK UNBOUND:                -1.465
REMARK SMILES O=C([O-])CCCCCCCCCCCCCCC(=O)[O-]
REMARK SMILES IDX 10 1 9 2 8 3 7 4 6 5 5 6 4 7 2 8 1 9 3 10 11 11 12 12 13 13
REMARK SMILES IDX 14 14 15 15 16 16 17 17 18 18 19 19 20 20
REMARK H PARENT
REMARK Flexibility Score: inf
ROOT
ATOM      1  C   UNL     1      54.048  26.531  34.149  1.00  0.00     0.000 C 
ENDROOT
BRANCH   1   2
ATOM      2  C   UNL     1      53.745  25.839  35.489  1.00  0.00     0.000 C 
BRANCH   2   3
ATOM      3  C   UNL     1      52.767  24.652  35.367  1.00  0.00     0.000 C 
BRANCH   3   4
ATOM      4  C   UNL     1      51.646  24.715  36.419  1.00  0.00     0.000 C 
BRANCH   4   5
ATOM      5  C   UNL     1      50.241  24.585  35.807  1.00  0.00     0.000 C 
BRANCH   5   6
ATOM      6  C   UNL     1      49.456  25.908  35.694  1.00  0.00     0.006 C 
BRANCH   6   7
ATOM      7  C   UNL     1      49.912  26.824  34.548  1.00  0.00     0.053 C 
BRANCH   7   8
ATOM      8  C   UNL     1      49.824  26.142  33.218  1.00  0.00     0.041 C 
ATOM      9  O   UNL     1      48.701  25.878  32.713  1.00  0.00    -0.550 OA
ATOM     10  O   UNL     1      50.983  25.767  32.551  1.00  0.00    -0.550 OA
ENDBRANCH   7   8
ENDBRANCH   6   7
ENDBRANCH   5   6
ENDBRANCH   4   5
ENDBRANCH   3   4
ENDBRANCH   2   3
ENDBRANCH   1   2
BRANCH   1  11
ATOM     11  C   UNL     1      54.271  28.045  34.297  1.00  0.00     0.000 C 
BRANCH  11  12
ATOM     12  C   UNL     1      52.956  28.838  34.409  1.00  0.00     0.000 C 
BRANCH  12  13
ATOM     13  C   UNL     1      52.520  29.183  35.844  1.00  0.00     0.000 C 
BRANCH  13  14
ATOM     14  C   UNL     1      53.283  30.385  36.429  1.00  0.00     0.000 C 
BRANCH  14  15
ATOM     15  C   UNL     1      53.784  30.128  37.860  1.00  0.00     0.000 C 
BRANCH  15  16
ATOM     16  C   UNL     1      54.972  31.030  38.238  1.00  0.00     0.006 C 
BRANCH  16  17
ATOM     17  C   UNL     1      56.253  30.646  37.484  1.00  0.00     0.053 C 
BRANCH  17  18
ATOM     18  C   UNL     1      57.238  31.774  37.450  1.00  0.00     0.041 C 
ATOM     19  O   UNL     1      57.117  32.746  38.241  1.00  0.00    -0.550 OA
ATOM     20  O   UNL     1      58.309  31.738  36.565  1.00  0.00    -0.550 OA
ENDBRANCH  17  18
ENDBRANCH  16  17
ENDBRANCH  15  16
ENDBRANCH  14  15
ENDBRANCH  13  14
ENDBRANCH  12  13
ENDBRANCH  11  12
ENDBRANCH   1  11
TORSDOF 15
ENDMDL
MODEL 2
REMARK VINA RESULT:    -4.542      1.494      7.455
REMARK INTER + INTRA:          -9.991
REMARK INTER:                  -8.002
REMARK INTRA:                  -1.988
REMARK UNBOUND:                -1.465
REMARK SMILES O=C([O-])CCCCCCCCCCCCCCC(=O)[O-]
REMARK SMILES IDX 10 1 9 2 8 3 7 4 6 5 5 6 4 7 2 8 1 9 3 10 11 11 12 12 13 13
REMARK SMILES IDX 14 14 15 15 16 16 17 17 18 18 19 19 20 20
REMARK H PARENT
REMARK Flexibility Score: inf
ROOT
ATOM      1  C   UNL     1      53.885  26.173  33.996  1.00  0.00     0.000 C 
ENDROOT
BRANCH   1   2
ATOM      2  C   UNL     1      54.258  27.501  34.677  1.00  0.00     0.000 C 
BRANCH   2   3
ATOM      3  C   UNL     1      53.262  28.645  34.392  1.00  0.00     0.000 C 
BRANCH   3   4
ATOM      4  C   UNL     1      52.532  29.108  35.665  1.00  0.00     0.000 C 
BRANCH   4   5
ATOM      5  C   UNL     1      53.100  30.417  36.240  1.00  0.00     0.000 C 
BRANCH   5   6
ATOM      6  C   UNL     1      53.452  30.369  37.741  1.00  0.00     0.006 C 
BRANCH   6   7
ATOM      7  C   UNL     1      54.831  30.950  38.091  1.00  0.00     0.053 C 
BRANCH   7   8
ATOM      8  C   UNL     1      55.835  29.877  38.377  1.00  0.00     0.041 C 
ATOM      9  O   UNL     1      56.736  30.064  39.237  1.00  0.00    -0.550 OA
ATOM     10  O   UNL     1      55.796  28.682  37.670  1.00  0.00    -0.550 OA
ENDBRANCH   7   8
ENDBRANCH   6   7
ENDBRANCH   5   6
ENDBRANCH   4   5
ENDBRANCH   3   4
ENDBRANCH   2   3
ENDBRANCH   1   2
BRANCH   1  11
ATOM     11  C   UNL     1      53.643  25.035  35.000  1.00  0.00     0.000 C 
BRANCH  11  12
ATOM     12  C   UNL     1      52.646  25.415  36.111  1.00  0.00     0.000 C 
BRANCH  12  13
ATOM     13  C   UNL     1      51.461  24.448  36.284  1.00  0.00     0.000 C 
BRANCH  13  14
ATOM     14  C   UNL     1      50.095  25.151  36.192  1.00  0.00     0.000 C 
BRANCH  14  15
ATOM     15  C   UNL     1      50.163  26.477  35.417  1.00  0.00     0.000 C 
BRANCH  15  16
ATOM     16  C   UNL     1      49.490  26.388  34.036  1.00  0.00     0.006 C 
BRANCH  16  17
ATOM     17  C   UNL     1      50.498  26.086  32.920  1.00  0.00     0.053 C 
BRANCH  17  18
ATOM     18  C   UNL     1      50.609  24.616  32.652  1.00  0.00     0.041 C 
ATOM     19  O   UNL     1      51.609  24.159  32.038  1.00  0.00    -0.550 OA
ATOM     20  O   UNL     1      49.625  23.748  33.106  1.00  0.00    -0.550 OA
ENDBRANCH  17  18
ENDBRANCH  16  17
ENDBRANCH  15  16
ENDBRANCH  14  15
ENDBRANCH  13  14
ENDBRANCH  12  13
ENDBRANCH  11  12
ENDBRANCH   1  11
TORSDOF 15
ENDMDL
MODEL 3
REMARK VINA RESULT:    -4.536      1.638      2.225
REMARK INTER + INTRA:          -9.978
REMARK INTER:                  -8.477
REMARK INTRA:                  -1.501
REMARK UNBOUND:                -1.465
REMARK SMILES O=C([O-])CCCCCCCCCCCCCCC(=O)[O-]
REMARK SMILES IDX 10 1 9 2 8 3 7 4 6 5 5 6 4 7 2 8 1 9 3 10 11 11 12 12 13 13
REMARK SMILES IDX 14 14 15 15 16 16 17 17 18 18 19 19 20 20
REMARK H PARENT
REMARK Flexibility Score: inf
ROOT
ATOM      1  C   UNL     1      52.546  26.397  34.212  1.00  0.00     0.000 C 
ENDROOT
BRANCH   1   2
ATOM      2  C   UNL     1      52.297  25.273  35.232  1.00  0.00     0.000 C 
BRANCH   2   3
ATOM      3  C   UNL     1      51.038  25.490  36.098  1.00  0.00     0.000 C 
BRANCH   3   4
ATOM      4  C   UNL     1      50.154  26.628  35.558  1.00  0.00     0.000 C 
BRANCH   4   5
ATOM      5  C   UNL     1      48.845  26.124  34.927  1.00  0.00     0.000 C 
BRANCH   5   6
ATOM      6  C   UNL     1      48.967  25.660  33.461  1.00  0.00     0.006 C 
BRANCH   6   7
ATOM      7  C   UNL     1      49.086  24.139  33.282  1.00  0.00     0.053 C 
BRANCH   7   8
ATOM      8  C   UNL     1      48.192  23.393  34.223  1.00  0.00     0.041 C 
ATOM      9  O   UNL     1      48.679  22.786  35.214  1.00  0.00    -0.550 OA
ATOM     10  O   UNL     1      46.824  23.338  33.987  1.00  0.00    -0.550 OA
ENDBRANCH   7   8
ENDBRANCH   6   7
ENDBRANCH   5   6
ENDBRANCH   4   5
ENDBRANCH   3   4
ENDBRANCH   2   3
ENDBRANCH   1   2
BRANCH   1  11
ATOM     11  C   UNL     1      54.001  26.894  34.217  1.00  0.00     0.000 C 
BRANCH  11  12
ATOM     12  C   UNL     1      54.114  28.421  34.384  1.00  0.00     0.000 C 
BRANCH  12  13
ATOM     13  C   UNL     1      52.805  29.137  34.761  1.00  0.00     0.000 C 
BRANCH  13  14
ATOM     14  C   UNL     1      52.759  29.561  36.239  1.00  0.00     0.000 C 
BRANCH  14  15
ATOM     15  C   UNL     1      54.156  29.651  36.874  1.00  0.00     0.000 C 
BRANCH  15  16
ATOM     16  C   UNL     1      54.342  30.929  37.711  1.00  0.00     0.006 C 
BRANCH  16  17
ATOM     17  C   UNL     1      55.752  31.030  38.308  1.00  0.00     0.053 C 
BRANCH  17  18
ATOM     18  C   UNL     1      56.504  32.206  37.765  1.00  0.00     0.041 C 
ATOM     19  O   UNL     1      56.115  33.378  38.016  1.00  0.00    -0.550 OA
ATOM     20  O   UNL     1      57.652  32.011  37.008  1.00  0.00    -0.550 OA
ENDBRANCH  17  18
ENDBRANCH  16  17
ENDBRANCH  15  16
ENDBRANCH  14  15
ENDBRANCH  13  14
ENDBRANCH  12  13
ENDBRANCH  11  12
ENDBRANCH   1  11
TORSDOF 15
ENDMDL
MODEL 4
REMARK VINA RESULT:    -4.513      2.053      7.955
REMARK INTER + INTRA:          -9.936
REMARK INTER:                  -8.267
REMARK INTRA:                  -1.670
REMARK UNBOUND:                -1.465
REMARK SMILES O=C([O-])CCCCCCCCCCCCCCC(=O)[O-]
REMARK SMILES IDX 10 1 9 2 8 3 7 4 6 5 5 6 4 7 2 8 1 9 3 10 11 11 12 12 13 13
REMARK SMILES IDX 14 14 15 15 16 16 17 17 18 18 19 19 20 20
REMARK H PARENT
REMARK Flexibility Score: inf
ROOT
ATOM      1  C   UNL     1      55.192  27.880  38.689  1.00  0.00     0.000 C 
ENDROOT
BRANCH   1   2
ATOM      2  C   UNL     1      56.683  27.500  38.722  1.00  0.00     0.000 C 
BRANCH   2   3
ATOM      3  C   UNL     1      57.595  28.617  39.274  1.00  0.00     0.000 C 
BRANCH   3   4
ATOM      4  C   UNL     1      58.921  28.715  38.501  1.00  0.00     0.000 C 
BRANCH   4   5
ATOM      5  C   UNL     1      58.722  28.995  37.001  1.00  0.00     0.000 C 
BRANCH   5   6
ATOM      6  C   UNL     1      57.723  30.125  36.678  1.00  0.00     0.006 C 
BRANCH   6   7
ATOM      7  C   UNL     1      58.188  31.527  37.101  1.00  0.00     0.053 C 
BRANCH   7   8
ATOM      8  C   UNL     1      57.180  32.212  37.971  1.00  0.00     0.041 C 
ATOM      9  O   UNL     1      57.282  32.155  39.225  1.00  0.00    -0.550 OA
ATOM     10  O   UNL     1      56.109  32.885  37.397  1.00  0.00    -0.550 OA
ENDBRANCH   7   8
ENDBRANCH   6   7
ENDBRANCH   5   6
ENDBRANCH   4   5
ENDBRANCH   3   4
ENDBRANCH   2   3
ENDBRANCH   1   2
BRANCH   1  11
ATOM     11  C   UNL     1      54.923  29.283  39.259  1.00  0.00     0.000 C 
BRANCH  11  12
ATOM     12  C   UNL     1      54.021  30.138  38.349  1.00  0.00     0.000 C 
BRANCH  12  13
ATOM     13  C   UNL     1      54.210  29.909  36.839  1.00  0.00     0.000 C 
BRANCH  13  14
ATOM     14  C   UNL     1      52.885  29.941  36.057  1.00  0.00     0.000 C 
BRANCH  14  15
ATOM     15  C   UNL     1      52.833  28.890  34.936  1.00  0.00     0.000 C 
BRANCH  15  16
ATOM     16  C   UNL     1      52.161  27.581  35.386  1.00  0.00     0.006 C 
BRANCH  16  17
ATOM     17  C   UNL     1      51.178  27.046  34.337  1.00  0.00     0.053 C 
BRANCH  17  18
ATOM     18  C   UNL     1      49.874  26.637  34.952  1.00  0.00     0.041 C 
ATOM     19  O   UNL     1      49.708  26.721  36.197  1.00  0.00    -0.550 OA
ATOM     20  O   UNL     1      48.832  26.193  34.148  1.00  0.00    -0.550 OA
ENDBRANCH  17  18
ENDBRANCH  16  17
ENDBRANCH  15  16
ENDBRANCH  14  15
ENDBRANCH  13  14
ENDBRANCH  12  13
ENDBRANCH  11  12
ENDBRANCH   1  11
TORSDOF 15
ENDMDL
MODEL 5
REMARK VINA RESULT:    -4.512      1.201      7.193
REMARK INTER + INTRA:          -9.934
REMARK INTER:                  -7.933
REMARK INTRA:                  -2.001
REMARK UNBOUND:                -1.465
REMARK SMILES O=C([O-])CCCCCCCCCCCCCCC(=O)[O-]
REMARK SMILES IDX 10 1 9 2 8 3 7 4 6 5 5 6 4 7 2 8 1 9 3 10 11 11 12 12 13 13
REMARK SMILES IDX 14 14 15 15 16 16 17 17 18 18 19 19 20 20
REMARK H PARENT
REMARK Flexibility Score: inf
ROOT
ATOM      1  C   UNL     1      55.439  26.648  33.646  1.00  0.00     0.000 C 
ENDROOT
BRANCH   1   2
ATOM      2  C   UNL     1      55.179  28.109  34.053  1.00  0.00     0.000 C 
BRANCH   2   3
ATOM      3  C   UNL     1      53.688  28.431  34.290  1.00  0.00     0.000 C 
BRANCH   3   4
ATOM      4  C   UNL     1      53.402  28.797  35.756  1.00  0.00     0.000 C 
BRANCH   4   5
ATOM      5  C   UNL     1      54.556  28.428  36.704  1.00  0.00     0.000 C 
BRANCH   5   6
ATOM      6  C   UNL     1      54.653  29.292  37.978  1.00  0.00     0.006 C 
BRANCH   6   7
ATOM      7  C   UNL     1      53.936  30.647  37.885  1.00  0.00     0.053 C 
BRANCH   7   8
ATOM      8  C   UNL     1      54.884  31.762  37.569  1.00  0.00     0.041 C 
ATOM      9  O   UNL     1      54.524  32.708  36.820  1.00  0.00    -0.550 OA
ATOM     10  O   UNL     1      56.178  31.738  38.074  1.00  0.00    -0.550 OA
ENDBRANCH   7   8
ENDBRANCH   6   7
ENDBRANCH   5   6
ENDBRANCH   4   5
ENDBRANCH   3   4
ENDBRANCH   2   3
ENDBRANCH   1   2
BRANCH   1  11
ATOM     11  C   UNL     1      54.172  25.779  33.708  1.00  0.00     0.000 C 
BRANCH  11  12
ATOM     12  C   UNL     1      54.265  24.655  34.757  1.00  0.00     0.000 C 
BRANCH  12  13
ATOM     13  C   UNL     1      52.920  24.203  35.352  1.00  0.00     0.000 C 
BRANCH  13  14
ATOM     14  C   UNL     1      52.163  25.342  36.058  1.00  0.00     0.000 C 
BRANCH  14  15
ATOM     15  C   UNL     1      50.646  25.104  36.108  1.00  0.00     0.000 C 
BRANCH  15  16
ATOM     16  C   UNL     1      49.842  26.316  35.604  1.00  0.00     0.006 C 
BRANCH  16  17
ATOM     17  C   UNL     1      50.394  26.868  34.284  1.00  0.00     0.053 C 
BRANCH  17  18
ATOM     18  C   UNL     1      50.041  25.991  33.122  1.00  0.00     0.041 C 
ATOM     19  O   UNL     1      50.938  25.341  32.523  1.00  0.00    -0.550 OA
ATOM     20  O   UNL     1      48.717  25.867  32.718  1.00  0.00    -0.550 OA
ENDBRANCH  17  18
ENDBRANCH  16  17
ENDBRANCH  15  16
ENDBRANCH  14  15
ENDBRANCH  13  14
ENDBRANCH  12  13
ENDBRANCH  11  12
ENDBRANCH   1  11
TORSDOF 15
ENDMDL
MODEL 6
REMARK VINA RESULT:    -4.510      1.587      2.627
REMARK INTER + INTRA:          -9.930
REMARK INTER:                  -7.671
REMARK INTRA:                  -2.258
REMARK UNBOUND:                -1.465
REMARK SMILES O=C([O-])CCCCCCCCCCCCCCC(=O)[O-]
REMARK SMILES IDX 10 1 9 2 8 3 7 4 6 5 5 6 4 7 2 8 1 9 3 10 11 11 12 12 13 13
REMARK SMILES IDX 14 14 15 15 16 16 17 17 18 18 19 19 20 20
REMARK H PARENT
REMARK Flexibility Score: inf
ROOT
ATOM      1  C   UNL     1      54.686  24.786  35.219  1.00  0.00     0.000 C 
ENDROOT
BRANCH   1   2
ATOM      2  C   UNL     1      53.280  24.232  35.508  1.00  0.00     0.000 C 
BRANCH   2   3
ATOM      3  C   UNL     1      52.463  25.098  36.491  1.00  0.00     0.000 C 
BRANCH   3   4
ATOM      4  C   UNL     1      50.982  25.191  36.085  1.00  0.00     0.000 C 
BRANCH   4   5
ATOM      5  C   UNL     1      50.599  26.572  35.528  1.00  0.00     0.000 C 
BRANCH   5   6
ATOM      6  C   UNL     1      50.095  26.568  34.069  1.00  0.00     0.006 C 
BRANCH   6   7
ATOM      7  C   UNL     1      51.104  26.020  33.049  1.00  0.00     0.053 C 
BRANCH   7   8
ATOM      8  C   UNL     1      50.799  24.605  32.665  1.00  0.00     0.041 C 
ATOM      9  O   UNL     1      51.606  23.953  31.950  1.00  0.00    -0.550 OA
ATOM     10  O   UNL     1      49.606  24.016  33.067  1.00  0.00    -0.550 OA
ENDBRANCH   7   8
ENDBRANCH   6   7
ENDBRANCH   5   6
ENDBRANCH   4   5
ENDBRANCH   3   4
ENDBRANCH   2   3
ENDBRANCH   1   2
BRANCH   1  11
ATOM     11  C   UNL     1      54.857  25.247  33.763  1.00  0.00     0.000 C 
BRANCH  11  12
ATOM     12  C   UNL     1      55.521  26.632  33.644  1.00  0.00     0.000 C 
BRANCH  12  13
ATOM     13  C   UNL     1      54.926  27.723  34.552  1.00  0.00     0.000 C 
BRANCH  13  14
ATOM     14  C   UNL     1      53.739  28.458  33.907  1.00  0.00     0.000 C 
BRANCH  14  15
ATOM     15  C   UNL     1      52.991  29.363  34.899  1.00  0.00     0.000 C 
BRANCH  15  16
ATOM     16  C   UNL     1      53.271  28.987  36.365  1.00  0.00     0.006 C 
BRANCH  16  17
ATOM     17  C   UNL     1      53.266  30.212  37.288  1.00  0.00     0.053 C 
BRANCH  17  18
ATOM     18  C   UNL     1      54.570  30.948  37.245  1.00  0.00     0.041 C 
ATOM     19  O   UNL     1      54.587  32.208  37.243  1.00  0.00    -0.550 OA
ATOM     20  O   UNL     1      55.768  30.245  37.239  1.00  0.00    -0.550 OA
ENDBRANCH  17  18
ENDBRANCH  16  17
ENDBRANCH  15  16
ENDBRANCH  14  15
ENDBRANCH  13  14
ENDBRANCH  12  13
ENDBRANCH  11  12
ENDBRANCH   1  11
TORSDOF 15
ENDMDL
MODEL 7
REMARK VINA RESULT:    -4.503      1.597      2.171
REMARK INTER + INTRA:          -9.916
REMARK INTER:                  -8.255
REMARK INTRA:                  -1.662
REMARK UNBOUND:                -1.465
REMARK SMILES O=C([O-])CCCCCCCCCCCCCCC(=O)[O-]
REMARK SMILES IDX 10 1 9 2 8 3 7 4 6 5 5 6 4 7 2 8 1 9 3 10 11 11 12 12 13 13
REMARK SMILES IDX 14 14 15 15 16 16 17 17 18 18 19 19 20 20
REMARK H PARENT
REMARK Flexibility Score: inf
ROOT
ATOM      1  C   UNL     1      53.924  27.181  35.391  1.00  0.00     0.000 C 
ENDROOT
BRANCH   1   2
ATOM      2  C   UNL     1      52.889  26.072  35.136  1.00  0.00     0.000 C 
BRANCH   2   3
ATOM      3  C   UNL     1      52.492  25.925  33.652  1.00  0.00     0.000 C 
BRANCH   3   4
ATOM      4  C   UNL     1      51.007  26.251  33.416  1.00  0.00     0.000 C 
BRANCH   4   5
ATOM      5  C   UNL     1      50.297  26.765  34.680  1.00  0.00     0.000 C 
BRANCH   5   6
ATOM      6  C   UNL     1      49.078  25.931  35.126  1.00  0.00     0.006 C 
BRANCH   6   7
ATOM      7  C   UNL     1      49.395  24.463  35.452  1.00  0.00     0.053 C 
BRANCH   7   8
ATOM      8  C   UNL     1      48.660  23.518  34.552  1.00  0.00     0.041 C 
ATOM      9  O   UNL     1      47.653  23.912  33.906  1.00  0.00    -0.550 OA
ATOM     10  O   UNL     1      49.065  22.193  34.454  1.00  0.00    -0.550 OA
ENDBRANCH   7   8
ENDBRANCH   6   7
ENDBRANCH   5   6
ENDBRANCH   4   5
ENDBRANCH   3   4
ENDBRANCH   2   3
ENDBRANCH   1   2
BRANCH   1  11
ATOM     11  C   UNL     1      53.851  28.313  34.354  1.00  0.00     0.000 C 
BRANCH  11  12
ATOM     12  C   UNL     1      52.911  29.458  34.779  1.00  0.00     0.000 C 
BRANCH  12  13
ATOM     13  C   UNL     1      52.693  29.597  36.296  1.00  0.00     0.000 C 
BRANCH  13  14
ATOM     14  C   UNL     1      53.560  30.700  36.927  1.00  0.00     0.000 C 
BRANCH  14  15
ATOM     15  C   UNL     1      54.246  30.245  38.225  1.00  0.00     0.000 C 
BRANCH  15  16
ATOM     16  C   UNL     1      55.770  30.453  38.191  1.00  0.00     0.006 C 
BRANCH  16  17
ATOM     17  C   UNL     1      56.421  29.765  36.984  1.00  0.00     0.053 C 
BRANCH  17  18
ATOM     18  C   UNL     1      57.874  30.110  36.863  1.00  0.00     0.041 C 
ATOM     19  O   UNL     1      58.729  29.202  36.687  1.00  0.00    -0.550 OA
ATOM     20  O   UNL     1      58.283  31.437  36.913  1.00  0.00    -0.550 OA
ENDBRANCH  17  18
ENDBRANCH  16  17
ENDBRANCH  15  16
ENDBRANCH  14  15
ENDBRANCH  13  14
ENDBRANCH  12  13
ENDBRANCH  11  12
ENDBRANCH   1  11
TORSDOF 15
ENDMDL
MODEL 8
REMARK VINA RESULT:    -4.436      1.318      7.701
REMARK INTER + INTRA:          -9.791
REMARK INTER:                  -7.978
REMARK INTRA:                  -1.813
REMARK UNBOUND:                -1.465
REMARK SMILES O=C([O-])CCCCCCCCCCCCCCC(=O)[O-]
REMARK SMILES IDX 10 1 9 2 8 3 7 4 6 5 5 6 4 7 2 8 1 9 3 10 11 11 12 12 13 13
REMARK SMILES IDX 14 14 15 15 16 16 17 17 18 18 19 19 20 20
REMARK H PARENT
REMARK Flexibility Score: inf
ROOT
ATOM      1  C   UNL     1      54.810  28.165  34.639  1.00  0.00     0.000 C 
ENDROOT
BRANCH   1   2
ATOM      2  C   UNL     1      53.449  28.830  34.373  1.00  0.00     0.000 C 
BRANCH   2   3
ATOM      3  C   UNL     1      52.676  29.196  35.657  1.00  0.00     0.000 C 
BRANCH   3   4
ATOM      4  C   UNL     1      53.242  30.455  36.335  1.00  0.00     0.000 C 
BRANCH   4   5
ATOM      5  C   UNL     1      53.317  30.330  37.867  1.00  0.00     0.000 C 
BRANCH   5   6
ATOM      6  C   UNL     1      54.738  30.131  38.434  1.00  0.00     0.006 C 
BRANCH   6   7
ATOM      7  C   UNL     1      55.868  30.375  37.422  1.00  0.00     0.053 C 
BRANCH   7   8
ATOM      8  C   UNL     1      56.605  31.648  37.704  1.00  0.00     0.041 C 
ATOM      9  O   UNL     1      56.212  32.420  38.618  1.00  0.00    -0.550 OA
ATOM     10  O   UNL     1      57.707  31.999  36.933  1.00  0.00    -0.550 OA
ENDBRANCH   7   8
ENDBRANCH   6   7
ENDBRANCH   5   6
ENDBRANCH   4   5
ENDBRANCH   3   4
ENDBRANCH   2   3
ENDBRANCH   1   2
BRANCH   1  11
ATOM     11  C   UNL     1      54.717  26.996  35.633  1.00  0.00     0.000 C 
BRANCH  11  12
ATOM     12  C   UNL     1      54.328  25.665  34.962  1.00  0.00     0.000 C 
BRANCH  12  13
ATOM     13  C   UNL     1      52.864  25.235  35.163  1.00  0.00     0.000 C 
BRANCH  13  14
ATOM     14  C   UNL     1      52.392  24.207  34.120  1.00  0.00     0.000 C 
BRANCH  14  15
ATOM     15  C   UNL     1      51.348  24.784  33.150  1.00  0.00     0.000 C 
BRANCH  15  16
ATOM     16  C   UNL     1      51.142  26.297  33.337  1.00  0.00     0.006 C 
BRANCH  16  17
ATOM     17  C   UNL     1      49.663  26.663  33.513  1.00  0.00     0.053 C 
BRANCH  17  18
ATOM     18  C   UNL     1      49.098  26.107  34.784  1.00  0.00     0.041 C 
ATOM     19  O   UNL     1      48.263  25.165  34.748  1.00  0.00    -0.550 OA
ATOM     20  O   UNL     1      49.517  26.607  36.011  1.00  0.00    -0.550 OA
ENDBRANCH  17  18
ENDBRANCH  16  17
ENDBRANCH  15  16
ENDBRANCH  14  15
ENDBRANCH  13  14
ENDBRANCH  12  13
ENDBRANCH  11  12
ENDBRANCH   1  11
TORSDOF 15
ENDMDL
MODEL 9
REMARK VINA RESULT:    -4.398      1.677      7.932
REMARK INTER + INTRA:          -9.720
REMARK INTER:                  -8.017
REMARK INTRA:                  -1.702
REMARK UNBOUND:                -1.465
REMARK SMILES O=C([O-])CCCCCCCCCCCCCCC(=O)[O-]
REMARK SMILES IDX 10 1 9 2 8 3 7 4 6 5 5 6 4 7 2 8 1 9 3 10 11 11 12 12 13 13
REMARK SMILES IDX 14 14 15 15 16 16 17 17 18 18 19 19 20 20
REMARK H PARENT
REMARK Flexibility Score: inf
ROOT
ATOM      1  C   UNL     1      54.473  29.646  36.715  1.00  0.00     0.000 C 
ENDROOT
BRANCH   1   2
ATOM      2  C   UNL     1      54.831  29.102  38.109  1.00  0.00     0.000 C 
BRANCH   2   3
ATOM      3  C   UNL     1      56.228  28.451  38.181  1.00  0.00     0.000 C 
BRANCH   3   4
ATOM      4  C   UNL     1      56.979  28.544  36.841  1.00  0.00     0.000 C 
BRANCH   4   5
ATOM      5  C   UNL     1      58.349  29.233  36.968  1.00  0.00     0.000 C 
BRANCH   5   6
ATOM      6  C   UNL     1      58.355  30.515  37.826  1.00  0.00     0.006 C 
BRANCH   6   7
ATOM      7  C   UNL     1      57.740  31.744  37.139  1.00  0.00     0.053 C 
BRANCH   7   8
ATOM      8  C   UNL     1      56.661  32.368  37.970  1.00  0.00     0.041 C 
ATOM      9  O   UNL     1      56.529  32.049  39.181  1.00  0.00    -0.550 OA
ATOM     10  O   UNL     1      55.780  33.276  37.397  1.00  0.00    -0.550 OA
ENDBRANCH   7   8
ENDBRANCH   6   7
ENDBRANCH   5   6
ENDBRANCH   4   5
ENDBRANCH   3   4
ENDBRANCH   2   3
ENDBRANCH   1   2
BRANCH   1  11
ATOM     11  C   UNL     1      52.959  29.815  36.513  1.00  0.00     0.000 C 
BRANCH  11  12
ATOM     12  C   UNL     1      52.372  28.814  35.501  1.00  0.00     0.000 C 
BRANCH  12  13
ATOM     13  C   UNL     1      53.137  27.485  35.377  1.00  0.00     0.000 C 
BRANCH  13  14
ATOM     14  C   UNL     1      53.254  26.993  33.923  1.00  0.00     0.000 C 
BRANCH  14  15
ATOM     15  C   UNL     1      52.606  25.616  33.709  1.00  0.00     0.000 C 
BRANCH  15  16
ATOM     16  C   UNL     1      51.948  25.069  34.989  1.00  0.00     0.006 C 
BRANCH  16  17
ATOM     17  C   UNL     1      50.433  24.885  34.827  1.00  0.00     0.053 C 
BRANCH  17  18
ATOM     18  C   UNL     1      49.693  26.176  35.001  1.00  0.00     0.041 C 
ATOM     19  O   UNL     1      49.428  26.605  36.155  1.00  0.00    -0.550 OA
ATOM     20  O   UNL     1      49.323  26.922  33.889  1.00  0.00    -0.550 OA
ENDBRANCH  17  18
ENDBRANCH  16  17
ENDBRANCH  15  16
ENDBRANCH  14  15
ENDBRANCH  13  14
ENDBRANCH  12  13
ENDBRANCH  11  12
ENDBRANCH   1  11
TORSDOF 15
ENDMDL
