MODEL 1
REMARK VINA RESULT:     3.948      0.000      0.000
REMARK INTER + INTRA:           4.610
REMARK INTER:                   5.333
REMARK INTRA:                  -0.723
REMARK UNBOUND:                -0.723
REMARK SMILES CC(=O)CCC=C(C)CCC=C(C)C
REMARK SMILES IDX 7 1 6 2 8 3 9 4 10 5 11 6 13 7 12 8 14 9 5 10 4 11 2 12 3 13
REMARK SMILES IDX 1 14
REMARK H PARENT
REMARK Flexibility Score: inf
ROOT
ATOM      1  C   UNL     1       9.720  15.451   1.747  1.00  0.00    -0.077 C 
ATOM      2  C   UNL     1      10.445  14.373   2.125  1.00  0.00    -0.028 C 
ATOM      3  C   UNL     1      10.330  16.580   0.948  1.00  0.00     0.039 C 
ENDROOT
BRANCH   1   4
ATOM      4  C   UNL     1       8.253  15.523   2.125  1.00  0.00     0.034 C 
BRANCH   4   5
ATOM      5  C   UNL     1       7.543  14.172   1.946  1.00  0.00     0.032 C 
BRANCH   5   6
ATOM      6  C   UNL     1       6.039  14.321   1.900  1.00  0.00    -0.028 C 
ATOM      7  C   UNL     1       3.778  13.950   1.008  1.00  0.00     0.039 C 
ATOM      8  C   UNL     1       5.270  13.735   0.959  1.00  0.00    -0.080 C 
ATOM      9  C   UNL     1       5.868  12.877  -0.130  1.00  0.00     0.039 C 
ENDBRANCH   5   6
ENDBRANCH   4   5
ENDBRANCH   1   4
BRANCH   2  10
ATOM     10  C   UNL     1      11.897  14.157   1.782  1.00  0.00     0.035 C 
BRANCH  10  11
ATOM     11  C   UNL     1      12.052  13.014   0.774  1.00  0.00     0.079 C 
BRANCH  11  12
ATOM     12  C   UNL     1      11.644  13.462  -0.606  1.00  0.00     0.130 C 
ATOM     13  O   UNL     1      12.450  14.053  -1.308  1.00  0.00    -0.300 OA
ATOM     14  C   UNL     1      10.262  13.210  -1.133  1.00  0.00     0.087 C 
ENDBRANCH  11  12
ENDBRANCH  10  11
ENDBRANCH   2  10
TORSDOF 6
ENDMDL
