MODEL 1
REMARK VINA RESULT:    -4.730      0.000      0.000
REMARK INTER + INTRA:          -9.161
REMARK INTER:                  -8.049
REMARK INTRA:                  -1.112
REMARK UNBOUND:                -1.112
REMARK SMILES CCCCCCCCCCCCCC(=O)[O-]
REMARK SMILES IDX 8 1 9 2 10 3 11 4 12 5 13 6 14 7 15 8 16 9 7 10 6 11 5 12
REMARK SMILES IDX 4 13 3 14 2 15 1 16
REMARK H PARENT
REMARK Flexibility Score: inf
ROOT
ATOM      1  C   UNL     1      39.829 118.404  14.274  1.00  0.00     0.000 C 
ENDROOT
BRANCH   1   2
ATOM      2  C   UNL     1      39.954 118.697  12.765  1.00  0.00     0.000 C 
BRANCH   2   3
ATOM      3  C   UNL     1      40.342 117.483  11.903  1.00  0.00     0.000 C 
BRANCH   3   4
ATOM      4  C   UNL     1      41.227 117.810  10.684  1.00  0.00     0.000 C 
BRANCH   4   5
ATOM      5  C   UNL     1      42.439 116.869  10.526  1.00  0.00     0.006 C 
BRANCH   5   6
ATOM      6  C   UNL     1      43.234 117.152   9.246  1.00  0.00     0.053 C 
BRANCH   6   7
ATOM      7  C   UNL     1      44.009 115.941   8.831  1.00  0.00     0.041 C 
ATOM      8  O   UNL     1      44.936 116.041   7.985  1.00  0.00    -0.550 OA
ATOM      9  O   UNL     1      43.740 114.710   9.415  1.00  0.00    -0.550 OA
ENDBRANCH   6   7
ENDBRANCH   5   6
ENDBRANCH   4   5
ENDBRANCH   3   4
ENDBRANCH   2   3
ENDBRANCH   1   2
BRANCH   1  10
ATOM     10  C   UNL     1      39.107 117.076  14.589  1.00  0.00     0.000 C 
BRANCH  10  11
ATOM     11  C   UNL     1      37.590 117.266  14.763  1.00  0.00    -0.000 C 
BRANCH  11  12
ATOM     12  C   UNL     1      36.805 117.006  13.467  1.00  0.00    -0.000 C 
BRANCH  12  13
ATOM     13  C   UNL     1      36.162 118.282  12.898  1.00  0.00    -0.000 C 
BRANCH  13  14
ATOM     14  C   UNL     1      36.047 119.410  13.939  1.00  0.00    -0.000 C 
BRANCH  14  15
ATOM     15  C   UNL     1      36.987 120.607  13.709  1.00  0.00    -0.003 C 
ATOM     16  C   UNL     1      37.046 121.559  14.903  1.00  0.00     0.004 C 
ENDBRANCH  14  15
ENDBRANCH  13  14
ENDBRANCH  12  13
ENDBRANCH  11  12
ENDBRANCH  10  11
ENDBRANCH   1  10
TORSDOF 12
ENDMDL
MODEL 2
REMARK VINA RESULT:    -4.602      4.103      8.195
REMARK INTER + INTRA:          -8.942
REMARK INTER:                  -8.023
REMARK INTRA:                  -0.920
REMARK UNBOUND:                -1.112
REMARK SMILES CCCCCCCCCCCCCC(=O)[O-]
REMARK SMILES IDX 8 1 9 2 10 3 11 4 12 5 13 6 14 7 15 8 16 9 7 10 6 11 5 12
REMARK SMILES IDX 4 13 3 14 2 15 1 16
REMARK H PARENT
REMARK Flexibility Score: inf
ROOT
ATOM      1  C   UNL     1      41.389 116.800  12.022  1.00  0.00     0.000 C 
ENDROOT
BRANCH   1   2
ATOM      2  C   UNL     1      40.204 117.707  11.631  1.00  0.00     0.000 C 
BRANCH   2   3
ATOM      3  C   UNL     1      39.952 118.886  12.587  1.00  0.00     0.000 C 
BRANCH   3   4
ATOM      4  C   UNL     1      39.247 118.512  13.905  1.00  0.00     0.000 C 
BRANCH   4   5
ATOM      5  C   UNL     1      37.718 118.357  13.769  1.00  0.00     0.006 C 
BRANCH   5   6
ATOM      6  C   UNL     1      37.038 119.654  13.316  1.00  0.00     0.053 C 
BRANCH   6   7
ATOM      7  C   UNL     1      36.820 120.567  14.481  1.00  0.00     0.041 C 
ATOM      8  O   UNL     1      37.246 121.751  14.447  1.00  0.00    -0.550 OA
ATOM      9  O   UNL     1      36.101 120.126  15.585  1.00  0.00    -0.550 OA
ENDBRANCH   6   7
ENDBRANCH   5   6
ENDBRANCH   4   5
ENDBRANCH   3   4
ENDBRANCH   2   3
ENDBRANCH   1   2
BRANCH   1  10
ATOM     10  C   UNL     1      42.622 116.965  11.107  1.00  0.00     0.000 C 
BRANCH  10  11
ATOM     11  C   UNL     1      42.254 117.565   9.738  1.00  0.00    -0.000 C 
BRANCH  11  12
ATOM     12  C   UNL     1      42.795 116.738   8.561  1.00  0.00    -0.000 C 
BRANCH  12  13
ATOM     13  C   UNL     1      44.229 116.233   8.801  1.00  0.00    -0.000 C 
BRANCH  13  14
ATOM     14  C   UNL     1      44.343 114.700   8.731  1.00  0.00    -0.000 C 
BRANCH  14  15
ATOM     15  C   UNL     1      44.985 114.037   9.964  1.00  0.00    -0.003 C 
ATOM     16  C   UNL     1      43.957 113.550  10.985  1.00  0.00     0.004 C 
ENDBRANCH  14  15
ENDBRANCH  13  14
ENDBRANCH  12  13
ENDBRANCH  11  12
ENDBRANCH  10  11
ENDBRANCH   1  10
TORSDOF 12
ENDMDL
MODEL 3
REMARK VINA RESULT:    -4.552      1.134      1.691
REMARK INTER + INTRA:          -8.857
REMARK INTER:                  -8.283
REMARK INTRA:                  -0.574
REMARK UNBOUND:                -1.112
REMARK SMILES CCCCCCCCCCCCCC(=O)[O-]
REMARK SMILES IDX 8 1 9 2 10 3 11 4 12 5 13 6 14 7 15 8 16 9 7 10 6 11 5 12
REMARK SMILES IDX 4 13 3 14 2 15 1 16
REMARK H PARENT
REMARK Flexibility Score: inf
ROOT
ATOM      1  C   UNL     1      40.740 116.950  12.946  1.00  0.00     0.000 C 
ENDROOT
BRANCH   1   2
ATOM      2  C   UNL     1      41.749 116.733  11.801  1.00  0.00     0.000 C 
BRANCH   2   3
ATOM      3  C   UNL     1      41.524 117.621  10.565  1.00  0.00     0.000 C 
BRANCH   3   4
ATOM      4  C   UNL     1      42.562 117.441   9.440  1.00  0.00     0.000 C 
BRANCH   4   5
ATOM      5  C   UNL     1      43.828 116.677   9.879  1.00  0.00     0.006 C 
BRANCH   5   6
ATOM      6  C   UNL     1      44.515 115.964   8.708  1.00  0.00     0.053 C 
BRANCH   6   7
ATOM      7  C   UNL     1      44.538 114.485   8.935  1.00  0.00     0.041 C 
ATOM      8  O   UNL     1      44.918 113.710   8.019  1.00  0.00    -0.550 OA
ATOM      9  O   UNL     1      44.186 113.967  10.174  1.00  0.00    -0.550 OA
ENDBRANCH   6   7
ENDBRANCH   5   6
ENDBRANCH   4   5
ENDBRANCH   3   4
ENDBRANCH   2   3
ENDBRANCH   1   2
BRANCH   1  10
ATOM     10  C   UNL     1      39.540 117.838  12.552  1.00  0.00     0.000 C 
BRANCH  10  11
ATOM     11  C   UNL     1      38.477 117.903  13.663  1.00  0.00    -0.000 C 
BRANCH  11  12
ATOM     12  C   UNL     1      37.072 117.524  13.166  1.00  0.00    -0.000 C 
BRANCH  12  13
ATOM     13  C   UNL     1      36.014 118.584  13.515  1.00  0.00    -0.000 C 
BRANCH  13  14
ATOM     14  C   UNL     1      36.613 119.991  13.695  1.00  0.00    -0.000 C 
BRANCH  14  15
ATOM     15  C   UNL     1      36.542 120.551  15.127  1.00  0.00    -0.003 C 
ATOM     16  C   UNL     1      36.952 122.021  15.215  1.00  0.00     0.004 C 
ENDBRANCH  14  15
ENDBRANCH  13  14
ENDBRANCH  12  13
ENDBRANCH  11  12
ENDBRANCH  10  11
ENDBRANCH   1  10
TORSDOF 12
ENDMDL
MODEL 4
REMARK VINA RESULT:    -4.481      2.043      3.703
REMARK INTER + INTRA:          -8.737
REMARK INTER:                  -8.091
REMARK INTRA:                  -0.646
REMARK UNBOUND:                -1.112
REMARK SMILES CCCCCCCCCCCCCC(=O)[O-]
REMARK SMILES IDX 8 1 9 2 10 3 11 4 12 5 13 6 14 7 15 8 16 9 7 10 6 11 5 12
REMARK SMILES IDX 4 13 3 14 2 15 1 16
REMARK H PARENT
REMARK Flexibility Score: inf
ROOT
ATOM      1  C   UNL     1      41.372 118.031  10.426  1.00  0.00     0.000 C 
ENDROOT
BRANCH   1   2
ATOM      2  C   UNL     1      42.304 117.432   9.355  1.00  0.00     0.000 C 
BRANCH   2   3
ATOM      3  C   UNL     1      43.391 116.489   9.899  1.00  0.00     0.000 C 
BRANCH   3   4
ATOM      4  C   UNL     1      43.847 115.391   8.918  1.00  0.00     0.000 C 
BRANCH   4   5
ATOM      5  C   UNL     1      44.372 114.117   9.611  1.00  0.00     0.006 C 
BRANCH   5   6
ATOM      6  C   UNL     1      43.826 113.961  11.036  1.00  0.00     0.053 C 
BRANCH   6   7
ATOM      7  C   UNL     1      44.848 113.321  11.922  1.00  0.00     0.041 C 
ATOM      8  O   UNL     1      44.924 112.067  11.997  1.00  0.00    -0.550 OA
ATOM      9  O   UNL     1      45.749 114.109  12.626  1.00  0.00    -0.550 OA
ENDBRANCH   6   7
ENDBRANCH   5   6
ENDBRANCH   4   5
ENDBRANCH   3   4
ENDBRANCH   2   3
ENDBRANCH   1   2
BRANCH   1  10
ATOM     10  C   UNL     1      41.163 117.112  11.649  1.00  0.00     0.000 C 
BRANCH  10  11
ATOM     11  C   UNL     1      39.848 117.415  12.387  1.00  0.00    -0.000 C 
BRANCH  11  12
ATOM     12  C   UNL     1      39.784 118.854  12.923  1.00  0.00    -0.000 C 
BRANCH  12  13
ATOM     13  C   UNL     1      38.678 119.046  13.975  1.00  0.00    -0.000 C 
BRANCH  13  14
ATOM     14  C   UNL     1      37.631 120.095  13.558  1.00  0.00    -0.000 C 
BRANCH  14  15
ATOM     15  C   UNL     1      36.166 119.687  13.801  1.00  0.00    -0.003 C 
ATOM     16  C   UNL     1      35.595 118.814  12.684  1.00  0.00     0.004 C 
ENDBRANCH  14  15
ENDBRANCH  13  14
ENDBRANCH  12  13
ENDBRANCH  11  12
ENDBRANCH  10  11
ENDBRANCH   1  10
TORSDOF 12
ENDMDL
MODEL 5
REMARK VINA RESULT:    -4.479      3.629      7.977
REMARK INTER + INTRA:          -8.734
REMARK INTER:                  -7.992
REMARK INTRA:                  -0.742
REMARK UNBOUND:                -1.112
REMARK SMILES CCCCCCCCCCCCCC(=O)[O-]
REMARK SMILES IDX 8 1 9 2 10 3 11 4 12 5 13 6 14 7 15 8 16 9 7 10 6 11 5 12
REMARK SMILES IDX 4 13 3 14 2 15 1 16
REMARK H PARENT
REMARK Flexibility Score: inf
ROOT
ATOM      1  C   UNL     1      40.486 117.636  11.543  1.00  0.00     0.000 C 
ENDROOT
BRANCH   1   2
ATOM      2  C   UNL     1      39.374 117.443  12.594  1.00  0.00     0.000 C 
BRANCH   2   3
ATOM      3  C   UNL     1      39.275 118.564  13.642  1.00  0.00     0.000 C 
BRANCH   3   4
ATOM      4  C   UNL     1      38.678 119.886  13.122  1.00  0.00     0.000 C 
BRANCH   4   5
ATOM      5  C   UNL     1      37.308 120.236  13.740  1.00  0.00     0.006 C 
BRANCH   5   6
ATOM      6  C   UNL     1      36.516 118.987  14.147  1.00  0.00     0.053 C 
BRANCH   6   7
ATOM      7  C   UNL     1      35.626 118.543  13.029  1.00  0.00     0.041 C 
ATOM      8  O   UNL     1      34.469 119.026  12.912  1.00  0.00    -0.550 OA
ATOM      9  O   UNL     1      36.092 117.634  12.088  1.00  0.00    -0.550 OA
ENDBRANCH   6   7
ENDBRANCH   5   6
ENDBRANCH   4   5
ENDBRANCH   3   4
ENDBRANCH   2   3
ENDBRANCH   1   2
BRANCH   1  10
ATOM     10  C   UNL     1      41.697 116.701  11.744  1.00  0.00     0.000 C 
BRANCH  10  11
ATOM     11  C   UNL     1      42.890 117.095  10.856  1.00  0.00    -0.000 C 
BRANCH  11  12
ATOM     12  C   UNL     1      42.466 117.502   9.436  1.00  0.00    -0.000 C 
BRANCH  12  13
ATOM     13  C   UNL     1      42.888 116.472   8.373  1.00  0.00    -0.000 C 
BRANCH  13  14
ATOM     14  C   UNL     1      44.360 116.044   8.507  1.00  0.00    -0.000 C 
BRANCH  14  15
ATOM     15  C   UNL     1      44.594 114.524   8.572  1.00  0.00    -0.003 C 
ATOM     16  C   UNL     1      45.132 114.058   9.924  1.00  0.00     0.004 C 
ENDBRANCH  14  15
ENDBRANCH  13  14
ENDBRANCH  12  13
ENDBRANCH  11  12
ENDBRANCH  10  11
ENDBRANCH   1  10
TORSDOF 12
ENDMDL
MODEL 6
REMARK VINA RESULT:    -4.443      3.909      7.830
REMARK INTER + INTRA:          -8.673
REMARK INTER:                  -7.630
REMARK INTRA:                  -1.042
REMARK UNBOUND:                -1.112
REMARK SMILES CCCCCCCCCCCCCC(=O)[O-]
REMARK SMILES IDX 8 1 9 2 10 3 11 4 12 5 13 6 14 7 15 8 16 9 7 10 6 11 5 12
REMARK SMILES IDX 4 13 3 14 2 15 1 16
REMARK H PARENT
REMARK Flexibility Score: inf
ROOT
ATOM      1  C   UNL     1      41.926 117.969  10.121  1.00  0.00     0.000 C 
ENDROOT
BRANCH   1   2
ATOM      2  C   UNL     1      41.482 117.122  11.331  1.00  0.00     0.000 C 
BRANCH   2   3
ATOM      3  C   UNL     1      40.078 117.450  11.867  1.00  0.00     0.000 C 
BRANCH   3   4
ATOM      4  C   UNL     1      39.963 118.803  12.596  1.00  0.00     0.000 C 
BRANCH   4   5
ATOM      5  C   UNL     1      38.859 118.836  13.673  1.00  0.00     0.006 C 
BRANCH   5   6
ATOM      6  C   UNL     1      37.625 118.019  13.270  1.00  0.00     0.053 C 
BRANCH   6   7
ATOM      7  C   UNL     1      36.421 118.901  13.172  1.00  0.00     0.041 C 
ATOM      8  O   UNL     1      36.458 120.077  13.621  1.00  0.00    -0.550 OA
ATOM      9  O   UNL     1      35.272 118.442  12.541  1.00  0.00    -0.550 OA
ENDBRANCH   6   7
ENDBRANCH   5   6
ENDBRANCH   4   5
ENDBRANCH   3   4
ENDBRANCH   2   3
ENDBRANCH   1   2
BRANCH   1  10
ATOM     10  C   UNL     1      42.364 117.126   8.904  1.00  0.00     0.000 C 
BRANCH  10  11
ATOM     11  C   UNL     1      43.751 116.489   9.107  1.00  0.00    -0.000 C 
BRANCH  11  12
ATOM     12  C   UNL     1      43.756 114.976   8.839  1.00  0.00    -0.000 C 
BRANCH  12  13
ATOM     13  C   UNL     1      44.516 114.186   9.918  1.00  0.00    -0.000 C 
BRANCH  13  14
ATOM     14  C   UNL     1      44.063 114.537  11.347  1.00  0.00    -0.000 C 
BRANCH  14  15
ATOM     15  C   UNL     1      45.170 115.087  12.265  1.00  0.00    -0.003 C 
ATOM     16  C   UNL     1      44.987 116.566  12.602  1.00  0.00     0.004 C 
ENDBRANCH  14  15
ENDBRANCH  13  14
ENDBRANCH  12  13
ENDBRANCH  11  12
ENDBRANCH  10  11
ENDBRANCH   1  10
TORSDOF 12
ENDMDL
MODEL 7
REMARK VINA RESULT:    -4.381      4.359      8.297
REMARK INTER + INTRA:          -8.567
REMARK INTER:                  -7.928
REMARK INTRA:                  -0.638
REMARK UNBOUND:                -1.112
REMARK SMILES CCCCCCCCCCCCCC(=O)[O-]
REMARK SMILES IDX 8 1 9 2 10 3 11 4 12 5 13 6 14 7 15 8 16 9 7 10 6 11 5 12
REMARK SMILES IDX 4 13 3 14 2 15 1 16
REMARK H PARENT
REMARK Flexibility Score: inf
ROOT
ATOM      1  C   UNL     1      40.020 118.986  12.436  1.00  0.00     0.000 C 
ENDROOT
BRANCH   1   2
ATOM      2  C   UNL     1      38.977 119.230  13.544  1.00  0.00     0.000 C 
BRANCH   2   3
ATOM      3  C   UNL     1      38.123 118.004  13.908  1.00  0.00     0.000 C 
BRANCH   3   4
ATOM      4  C   UNL     1      36.608 118.179  13.684  1.00  0.00     0.000 C 
BRANCH   4   5
ATOM      5  C   UNL     1      36.085 119.584  14.046  1.00  0.00     0.006 C 
BRANCH   5   6
ATOM      6  C   UNL     1      36.172 119.869  15.551  1.00  0.00     0.053 C 
BRANCH   6   7
ATOM      7  C   UNL     1      36.557 121.294  15.794  1.00  0.00     0.041 C 
ATOM      8  O   UNL     1      36.362 121.820  16.921  1.00  0.00    -0.550 OA
ATOM      9  O   UNL     1      37.178 122.027  14.790  1.00  0.00    -0.550 OA
ENDBRANCH   6   7
ENDBRANCH   5   6
ENDBRANCH   4   5
ENDBRANCH   3   4
ENDBRANCH   2   3
ENDBRANCH   1   2
BRANCH   1  10
ATOM     10  C   UNL     1      40.072 117.523  11.947  1.00  0.00     0.000 C 
BRANCH  10  11
ATOM     11  C   UNL     1      41.443 117.158  11.350  1.00  0.00    -0.000 C 
BRANCH  11  12
ATOM     12  C   UNL     1      41.773 117.960  10.081  1.00  0.00    -0.000 C 
BRANCH  12  13
ATOM     13  C   UNL     1      42.672 117.181   9.105  1.00  0.00    -0.000 C 
BRANCH  13  14
ATOM     14  C   UNL     1      43.911 116.574   9.788  1.00  0.00    -0.000 C 
BRANCH  14  15
ATOM     15  C   UNL     1      44.460 115.297   9.128  1.00  0.00    -0.003 C 
ATOM     16  C   UNL     1      44.223 114.041   9.965  1.00  0.00     0.004 C 
ENDBRANCH  14  15
ENDBRANCH  13  14
ENDBRANCH  12  13
ENDBRANCH  11  12
ENDBRANCH  10  11
ENDBRANCH   1  10
TORSDOF 12
ENDMDL
MODEL 8
REMARK VINA RESULT:    -4.368      1.407      2.643
REMARK INTER + INTRA:          -8.545
REMARK INTER:                  -7.736
REMARK INTRA:                  -0.809
REMARK UNBOUND:                -1.112
REMARK SMILES CCCCCCCCCCCCCC(=O)[O-]
REMARK SMILES IDX 8 1 9 2 10 3 11 4 12 5 13 6 14 7 15 8 16 9 7 10 6 11 5 12
REMARK SMILES IDX 4 13 3 14 2 15 1 16
REMARK H PARENT
REMARK Flexibility Score: inf
ROOT
ATOM      1  C   UNL     1      40.460 117.127  12.101  1.00  0.00     0.000 C 
ENDROOT
BRANCH   1   2
ATOM      2  C   UNL     1      41.052 117.969  10.953  1.00  0.00     0.000 C 
BRANCH   2   3
ATOM      3  C   UNL     1      42.407 117.471  10.420  1.00  0.00     0.000 C 
BRANCH   3   4
ATOM      4  C   UNL     1      42.430 117.145   8.914  1.00  0.00     0.000 C 
BRANCH   4   5
ATOM      5  C   UNL     1      43.715 116.426   8.453  1.00  0.00     0.006 C 
BRANCH   5   6
ATOM      6  C   UNL     1      44.598 115.999   9.632  1.00  0.00     0.053 C 
BRANCH   6   7
ATOM      7  C   UNL     1      44.635 114.508   9.747  1.00  0.00     0.041 C 
ATOM      8  O   UNL     1      43.716 113.896  10.353  1.00  0.00    -0.550 OA
ATOM      9  O   UNL     1      45.657 113.788   9.141  1.00  0.00    -0.550 OA
ENDBRANCH   6   7
ENDBRANCH   5   6
ENDBRANCH   4   5
ENDBRANCH   3   4
ENDBRANCH   2   3
ENDBRANCH   1   2
BRANCH   1  10
ATOM     10  C   UNL     1      39.148 117.702  12.676  1.00  0.00     0.000 C 
BRANCH  10  11
ATOM     11  C   UNL     1      39.265 119.200  13.005  1.00  0.00    -0.000 C 
BRANCH  11  12
ATOM     12  C   UNL     1      38.088 119.718  13.849  1.00  0.00    -0.000 C 
BRANCH  12  13
ATOM     13  C   UNL     1      36.733 119.556  13.139  1.00  0.00    -0.000 C 
BRANCH  13  14
ATOM     14  C   UNL     1      35.802 118.557  13.849  1.00  0.00    -0.000 C 
BRANCH  14  15
ATOM     15  C   UNL     1      36.279 118.095  15.238  1.00  0.00    -0.003 C 
ATOM     16  C   UNL     1      36.683 116.622  15.272  1.00  0.00     0.004 C 
ENDBRANCH  14  15
ENDBRANCH  13  14
ENDBRANCH  12  13
ENDBRANCH  11  12
ENDBRANCH  10  11
ENDBRANCH   1  10
TORSDOF 12
ENDMDL
MODEL 9
REMARK VINA RESULT:    -4.329      3.964      7.888
REMARK INTER + INTRA:          -8.477
REMARK INTER:                  -7.570
REMARK INTRA:                  -0.907
REMARK UNBOUND:                -1.112
REMARK SMILES CCCCCCCCCCCCCC(=O)[O-]
REMARK SMILES IDX 8 1 9 2 10 3 11 4 12 5 13 6 14 7 15 8 16 9 7 10 6 11 5 12
REMARK SMILES IDX 4 13 3 14 2 15 1 16
REMARK H PARENT
REMARK Flexibility Score: inf
ROOT
ATOM      1  C   UNL     1      41.654 116.229  12.667  1.00  0.00     0.000 C 
ENDROOT
BRANCH   1   2
ATOM      2  C   UNL     1      40.794 117.177  11.808  1.00  0.00     0.000 C 
BRANCH   2   3
ATOM      3  C   UNL     1      39.458 117.593  12.447  1.00  0.00     0.000 C 
BRANCH   3   4
ATOM      4  C   UNL     1      39.467 118.978  13.124  1.00  0.00     0.000 C 
BRANCH   4   5
ATOM      5  C   UNL     1      38.286 119.204  14.091  1.00  0.00     0.006 C 
BRANCH   5   6
ATOM      6  C   UNL     1      37.079 119.847  13.398  1.00  0.00     0.053 C 
BRANCH   6   7
ATOM      7  C   UNL     1      35.886 118.949  13.482  1.00  0.00     0.041 C 
ATOM      8  O   UNL     1      35.525 118.279  12.479  1.00  0.00    -0.550 OA
ATOM      9  O   UNL     1      35.201 118.813  14.683  1.00  0.00    -0.550 OA
ENDBRANCH   6   7
ENDBRANCH   5   6
ENDBRANCH   4   5
ENDBRANCH   3   4
ENDBRANCH   2   3
ENDBRANCH   1   2
BRANCH   1  10
ATOM     10  C   UNL     1      43.158 116.274  12.322  1.00  0.00     0.000 C 
BRANCH  10  11
ATOM     11  C   UNL     1      43.854 114.926  12.581  1.00  0.00    -0.000 C 
BRANCH  11  12
ATOM     12  C   UNL     1      43.666 113.927  11.428  1.00  0.00    -0.000 C 
BRANCH  12  13
ATOM     13  C   UNL     1      44.778 114.027  10.370  1.00  0.00    -0.000 C 
BRANCH  13  14
ATOM     14  C   UNL     1      44.266 114.537   9.011  1.00  0.00    -0.000 C 
BRANCH  14  15
ATOM     15  C   UNL     1      44.383 116.058   8.799  1.00  0.00    -0.003 C 
ATOM     16  C   UNL     1      43.027 116.753   8.690  1.00  0.00     0.004 C 
ENDBRANCH  14  15
ENDBRANCH  13  14
ENDBRANCH  12  13
ENDBRANCH  11  12
ENDBRANCH  10  11
ENDBRANCH   1  10
TORSDOF 12
ENDMDL
