MODEL 1
REMARK VINA RESULT:    -2.822      0.000      0.000
REMARK INTER + INTRA:         -10.433
REMARK INTER:                  -6.121
REMARK INTRA:                  -4.313
REMARK UNBOUND:                -4.313
REMARK SMILES CCCCCCCCCCCCCCCCCCCCCC(=O)[O-]
REMARK SMILES IDX 12 1 11 2 10 3 9 4 8 5 7 6 6 7 5 8 4 9 3 10 2 11 1 12 13 13
REMARK SMILES IDX 14 14 15 15 16 16 17 17 18 18 19 19 20 20 21 21 22 22 23 23
REMARK SMILES IDX 24 24
REMARK H PARENT
REMARK Flexibility Score: inf
ROOT
ATOM      1  C   UNL     1      67.812  16.218  76.571  1.00  0.00     0.000 C 
ENDROOT
BRANCH   1   2
ATOM      2  C   UNL     1      68.083  17.591  77.212  1.00  0.00     0.000 C 
BRANCH   2   3
ATOM      3  C   UNL     1      69.489  18.132  76.894  1.00  0.00     0.000 C 
BRANCH   3   4
ATOM      4  C   UNL     1      70.059  19.122  77.926  1.00  0.00    -0.000 C 
BRANCH   4   5
ATOM      5  C   UNL     1      70.465  20.468  77.302  1.00  0.00    -0.000 C 
BRANCH   5   6
ATOM      6  C   UNL     1      69.425  20.994  76.299  1.00  0.00    -0.000 C 
BRANCH   6   7
ATOM      7  C   UNL     1      68.273  21.753  76.977  1.00  0.00    -0.000 C 
BRANCH   7   8
ATOM      8  C   UNL     1      66.923  21.089  76.672  1.00  0.00    -0.000 C 
BRANCH   8   9
ATOM      9  C   UNL     1      66.163  20.683  77.945  1.00  0.00    -0.000 C 
BRANCH   9  10
ATOM     10  C   UNL     1      67.030  20.788  79.210  1.00  0.00    -0.000 C 
BRANCH  10  11
ATOM     11  C   UNL     1      66.796  19.590  80.136  1.00  0.00    -0.003 C 
ATOM     12  C   UNL     1      65.589  18.772  79.686  1.00  0.00     0.004 C 
ENDBRANCH  10  11
ENDBRANCH   9  10
ENDBRANCH   8   9
ENDBRANCH   7   8
ENDBRANCH   6   7
ENDBRANCH   5   6
ENDBRANCH   4   5
ENDBRANCH   3   4
ENDBRANCH   2   3
ENDBRANCH   1   2
BRANCH   1  13
ATOM     13  C   UNL     1      68.745  15.120  77.110  1.00  0.00     0.000 C 
BRANCH  13  14
ATOM     14  C   UNL     1      69.854  14.750  76.109  1.00  0.00     0.000 C 
BRANCH  14  15
ATOM     15  C   UNL     1      71.219  14.540  76.786  1.00  0.00     0.000 C 
BRANCH  15  16
ATOM     16  C   UNL     1      71.160  14.731  78.312  1.00  0.00     0.000 C 
BRANCH  16  17
ATOM     17  C   UNL     1      72.069  15.869  78.801  1.00  0.00     0.000 C 
BRANCH  17  18
ATOM     18  C   UNL     1      71.566  16.504  80.109  1.00  0.00     0.000 C 
BRANCH  18  19
ATOM     19  C   UNL     1      70.302  15.819  80.660  1.00  0.00     0.000 C 
BRANCH  19  20
ATOM     20  C   UNL     1      69.024  16.678  80.621  1.00  0.00     0.006 C 
BRANCH  20  21
ATOM     21  C   UNL     1      67.739  15.846  80.729  1.00  0.00     0.053 C 
BRANCH  21  22
ATOM     22  C   UNL     1      67.013  16.163  81.997  1.00  0.00     0.041 C 
ATOM     23  O   UNL     1      67.653  16.534  83.017  1.00  0.00    -0.550 OA
ATOM     24  O   UNL     1      65.635  16.003  82.070  1.00  0.00    -0.550 OA
ENDBRANCH  21  22
ENDBRANCH  20  21
ENDBRANCH  19  20
ENDBRANCH  18  19
ENDBRANCH  17  18
ENDBRANCH  16  17
ENDBRANCH  15  16
ENDBRANCH  14  15
ENDBRANCH  13  14
ENDBRANCH   1  13
TORSDOF 20
ENDMDL
MODEL 2
REMARK VINA RESULT:    -2.705      2.192      3.794
REMARK INTER + INTRA:         -10.180
REMARK INTER:                  -6.330
REMARK INTRA:                  -3.850
REMARK UNBOUND:                -4.313
REMARK SMILES CCCCCCCCCCCCCCCCCCCCCC(=O)[O-]
REMARK SMILES IDX 12 1 11 2 10 3 9 4 8 5 7 6 6 7 5 8 4 9 3 10 2 11 1 12 13 13
REMARK SMILES IDX 14 14 15 15 16 16 17 17 18 18 19 19 20 20 21 21 22 22 23 23
REMARK SMILES IDX 24 24
REMARK H PARENT
REMARK Flexibility Score: inf
ROOT
ATOM      1  C   UNL     1      68.537  14.680  76.447  1.00  0.00     0.000 C 
ENDROOT
BRANCH   1   2
ATOM      2  C   UNL     1      67.433  15.737  76.273  1.00  0.00     0.000 C 
BRANCH   2   3
ATOM      3  C   UNL     1      67.889  17.151  76.679  1.00  0.00     0.000 C 
BRANCH   3   4
ATOM      4  C   UNL     1      67.075  18.304  76.066  1.00  0.00    -0.000 C 
BRANCH   4   5
ATOM      5  C   UNL     1      66.224  19.053  77.106  1.00  0.00    -0.000 C 
BRANCH   5   6
ATOM      6  C   UNL     1      66.375  18.476  78.523  1.00  0.00    -0.000 C 
BRANCH   6   7
ATOM      7  C   UNL     1      65.044  17.982  79.110  1.00  0.00    -0.000 C 
BRANCH   7   8
ATOM      8  C   UNL     1      64.464  16.834  78.270  1.00  0.00    -0.000 C 
BRANCH   8   9
ATOM      9  C   UNL     1      64.389  15.512  79.050  1.00  0.00    -0.000 C 
BRANCH   9  10
ATOM     10  C   UNL     1      63.708  14.391  78.249  1.00  0.00    -0.000 C 
BRANCH  10  11
ATOM     11  C   UNL     1      64.070  14.482  76.763  1.00  0.00    -0.003 C 
ATOM     12  C   UNL     1      64.722  13.192  76.273  1.00  0.00     0.004 C 
ENDBRANCH  10  11
ENDBRANCH   9  10
ENDBRANCH   8   9
ENDBRANCH   7   8
ENDBRANCH   6   7
ENDBRANCH   5   6
ENDBRANCH   4   5
ENDBRANCH   3   4
ENDBRANCH   2   3
ENDBRANCH   1   2
BRANCH   1  13
ATOM     13  C   UNL     1      69.949  15.276  76.328  1.00  0.00     0.000 C 
BRANCH  13  14
ATOM     14  C   UNL     1      71.003  14.442  77.078  1.00  0.00     0.000 C 
BRANCH  14  15
ATOM     15  C   UNL     1      71.483  15.116  78.374  1.00  0.00     0.000 C 
BRANCH  15  16
ATOM     16  C   UNL     1      71.029  16.582  78.483  1.00  0.00     0.000 C 
BRANCH  16  17
ATOM     17  C   UNL     1      70.461  16.923  79.870  1.00  0.00     0.000 C 
BRANCH  17  18
ATOM     18  C   UNL     1      69.694  15.746  80.496  1.00  0.00     0.000 C 
BRANCH  18  19
ATOM     19  C   UNL     1      68.208  15.716  80.094  1.00  0.00     0.000 C 
BRANCH  19  20
ATOM     20  C   UNL     1      67.212  15.859  81.261  1.00  0.00     0.006 C 
BRANCH  20  21
ATOM     21  C   UNL     1      67.739  16.753  82.392  1.00  0.00     0.053 C 
BRANCH  21  22
ATOM     22  C   UNL     1      67.332  18.175  82.170  1.00  0.00     0.041 C 
ATOM     23  O   UNL     1      68.129  18.982  81.621  1.00  0.00    -0.550 OA
ATOM     24  O   UNL     1      66.094  18.622  82.612  1.00  0.00    -0.550 OA
ENDBRANCH  21  22
ENDBRANCH  20  21
ENDBRANCH  19  20
ENDBRANCH  18  19
ENDBRANCH  17  18
ENDBRANCH  16  17
ENDBRANCH  15  16
ENDBRANCH  14  15
ENDBRANCH  13  14
ENDBRANCH   1  13
TORSDOF 20
ENDMDL
MODEL 3
REMARK VINA RESULT:    -2.679      3.088      5.181
REMARK INTER + INTRA:         -10.124
REMARK INTER:                  -6.125
REMARK INTRA:                  -3.999
REMARK UNBOUND:                -4.313
REMARK SMILES CCCCCCCCCCCCCCCCCCCCCC(=O)[O-]
REMARK SMILES IDX 12 1 11 2 10 3 9 4 8 5 7 6 6 7 5 8 4 9 3 10 2 11 1 12 13 13
REMARK SMILES IDX 14 14 15 15 16 16 17 17 18 18 19 19 20 20 21 21 22 22 23 23
REMARK SMILES IDX 24 24
REMARK H PARENT
REMARK Flexibility Score: inf
ROOT
ATOM      1  C   UNL     1      66.792  17.108  77.745  1.00  0.00     0.000 C 
ENDROOT
BRANCH   1   2
ATOM      2  C   UNL     1      66.328  15.916  78.600  1.00  0.00     0.000 C 
BRANCH   2   3
ATOM      3  C   UNL     1      65.895  16.330  80.019  1.00  0.00     0.000 C 
BRANCH   3   4
ATOM      4  C   UNL     1      64.754  15.494  80.626  1.00  0.00    -0.000 C 
BRANCH   4   5
ATOM      5  C   UNL     1      63.447  16.289  80.779  1.00  0.00    -0.000 C 
BRANCH   5   6
ATOM      6  C   UNL     1      62.573  16.244  79.515  1.00  0.00    -0.000 C 
BRANCH   6   7
ATOM      7  C   UNL     1      62.488  17.602  78.800  1.00  0.00    -0.000 C 
BRANCH   7   8
ATOM      8  C   UNL     1      63.158  17.539  77.420  1.00  0.00    -0.000 C 
BRANCH   8   9
ATOM      9  C   UNL     1      62.649  16.364  76.570  1.00  0.00    -0.000 C 
BRANCH   9  10
ATOM     10  C   UNL     1      63.788  15.599  75.877  1.00  0.00    -0.000 C 
BRANCH  10  11
ATOM     11  C   UNL     1      63.544  14.087  75.929  1.00  0.00    -0.003 C 
ATOM     12  C   UNL     1      63.901  13.517  77.299  1.00  0.00     0.004 C 
ENDBRANCH  10  11
ENDBRANCH   9  10
ENDBRANCH   8   9
ENDBRANCH   7   8
ENDBRANCH   6   7
ENDBRANCH   5   6
ENDBRANCH   4   5
ENDBRANCH   3   4
ENDBRANCH   2   3
ENDBRANCH   1   2
BRANCH   1  13
ATOM     13  C   UNL     1      67.617  16.672  76.522  1.00  0.00     0.000 C 
BRANCH  13  14
ATOM     14  C   UNL     1      67.367  15.202  76.141  1.00  0.00     0.000 C 
BRANCH  14  15
ATOM     15  C   UNL     1      68.661  14.375  76.081  1.00  0.00     0.000 C 
BRANCH  15  16
ATOM     16  C   UNL     1      69.924  15.237  76.257  1.00  0.00     0.000 C 
BRANCH  16  17
ATOM     17  C   UNL     1      71.032  14.509  77.035  1.00  0.00     0.000 C 
BRANCH  17  18
ATOM     18  C   UNL     1      71.310  15.154  78.404  1.00  0.00     0.000 C 
BRANCH  18  19
ATOM     19  C   UNL     1      70.026  15.442  79.203  1.00  0.00     0.000 C 
BRANCH  19  20
ATOM     20  C   UNL     1      69.919  16.868  79.776  1.00  0.00     0.006 C 
BRANCH  20  21
ATOM     21  C   UNL     1      70.360  17.949  78.780  1.00  0.00     0.053 C 
BRANCH  21  22
ATOM     22  C   UNL     1      69.602  19.217  79.011  1.00  0.00     0.041 C 
ATOM     23  O   UNL     1      69.912  20.263  78.383  1.00  0.00    -0.550 OA
ATOM     24  O   UNL     1      68.584  19.257  79.956  1.00  0.00    -0.550 OA
ENDBRANCH  21  22
ENDBRANCH  20  21
ENDBRANCH  19  20
ENDBRANCH  18  19
ENDBRANCH  17  18
ENDBRANCH  16  17
ENDBRANCH  15  16
ENDBRANCH  14  15
ENDBRANCH  13  14
ENDBRANCH   1  13
TORSDOF 20
ENDMDL
MODEL 4
REMARK VINA RESULT:    -2.642      2.899      5.386
REMARK INTER + INTRA:         -10.044
REMARK INTER:                  -6.105
REMARK INTRA:                  -3.939
REMARK UNBOUND:                -4.313
REMARK SMILES CCCCCCCCCCCCCCCCCCCCCC(=O)[O-]
REMARK SMILES IDX 12 1 11 2 10 3 9 4 8 5 7 6 6 7 5 8 4 9 3 10 2 11 1 12 13 13
REMARK SMILES IDX 14 14 15 15 16 16 17 17 18 18 19 19 20 20 21 21 22 22 23 23
REMARK SMILES IDX 24 24
REMARK H PARENT
REMARK Flexibility Score: inf
ROOT
ATOM      1  C   UNL     1      70.638  15.511  79.920  1.00  0.00     0.000 C 
ENDROOT
BRANCH   1   2
ATOM      2  C   UNL     1      69.116  15.728  79.868  1.00  0.00     0.000 C 
BRANCH   2   3
ATOM      3  C   UNL     1      68.445  15.595  81.248  1.00  0.00     0.000 C 
BRANCH   3   4
ATOM      4  C   UNL     1      66.946  15.941  81.284  1.00  0.00    -0.000 C 
BRANCH   4   5
ATOM      5  C   UNL     1      66.684  17.432  81.552  1.00  0.00    -0.000 C 
BRANCH   5   6
ATOM      6  C   UNL     1      66.254  18.196  80.288  1.00  0.00    -0.000 C 
BRANCH   6   7
ATOM      7  C   UNL     1      67.375  19.074  79.712  1.00  0.00    -0.000 C 
BRANCH   7   8
ATOM      8  C   UNL     1      68.309  19.573  80.825  1.00  0.00    -0.000 C 
BRANCH   8   9
ATOM      9  C   UNL     1      69.771  19.682  80.363  1.00  0.00    -0.000 C 
BRANCH   9  10
ATOM     10  C   UNL     1      70.737  18.904  81.270  1.00  0.00    -0.000 C 
BRANCH  10  11
ATOM     11  C   UNL     1      70.099  18.617  82.633  1.00  0.00    -0.003 C 
ATOM     12  C   UNL     1      70.876  17.545  83.392  1.00  0.00     0.004 C 
ENDBRANCH  10  11
ENDBRANCH   9  10
ENDBRANCH   8   9
ENDBRANCH   7   8
ENDBRANCH   6   7
ENDBRANCH   5   6
ENDBRANCH   4   5
ENDBRANCH   3   4
ENDBRANCH   2   3
ENDBRANCH   1   2
BRANCH   1  13
ATOM     13  C   UNL     1      71.311  15.720  78.553  1.00  0.00     0.000 C 
BRANCH  13  14
ATOM     14  C   UNL     1      70.971  14.598  77.555  1.00  0.00     0.000 C 
BRANCH  14  15
ATOM     15  C   UNL     1      70.209  15.111  76.322  1.00  0.00     0.000 C 
BRANCH  15  16
ATOM     16  C   UNL     1      68.737  14.659  76.304  1.00  0.00     0.000 C 
BRANCH  16  17
ATOM     17  C   UNL     1      67.758  15.830  76.480  1.00  0.00     0.000 C 
BRANCH  17  18
ATOM     18  C   UNL     1      68.479  17.177  76.663  1.00  0.00     0.000 C 
BRANCH  18  19
ATOM     19  C   UNL     1      67.713  18.357  76.037  1.00  0.00     0.000 C 
BRANCH  19  20
ATOM     20  C   UNL     1      68.365  19.738  76.237  1.00  0.00     0.006 C 
BRANCH  20  21
ATOM     21  C   UNL     1      69.792  19.652  76.794  1.00  0.00     0.053 C 
BRANCH  21  22
ATOM     22  C   UNL     1      70.412  21.012  76.860  1.00  0.00     0.041 C 
ATOM     23  O   UNL     1      69.886  21.977  76.245  1.00  0.00    -0.550 OA
ATOM     24  O   UNL     1      71.598  21.203  77.559  1.00  0.00    -0.550 OA
ENDBRANCH  21  22
ENDBRANCH  20  21
ENDBRANCH  19  20
ENDBRANCH  18  19
ENDBRANCH  17  18
ENDBRANCH  16  17
ENDBRANCH  15  16
ENDBRANCH  14  15
ENDBRANCH  13  14
ENDBRANCH   1  13
TORSDOF 20
ENDMDL
MODEL 5
REMARK VINA RESULT:    -2.597      2.418      4.221
REMARK INTER + INTRA:          -9.947
REMARK INTER:                  -6.216
REMARK INTRA:                  -3.731
REMARK UNBOUND:                -4.313
REMARK SMILES CCCCCCCCCCCCCCCCCCCCCC(=O)[O-]
REMARK SMILES IDX 12 1 11 2 10 3 9 4 8 5 7 6 6 7 5 8 4 9 3 10 2 11 1 12 13 13
REMARK SMILES IDX 14 14 15 15 16 16 17 17 18 18 19 19 20 20 21 21 22 22 23 23
REMARK SMILES IDX 24 24
REMARK H PARENT
REMARK Flexibility Score: inf
ROOT
ATOM      1  C   UNL     1      67.508  16.774  80.466  1.00  0.00     0.000 C 
ENDROOT
BRANCH   1   2
ATOM      2  C   UNL     1      68.423  17.817  81.132  1.00  0.00     0.000 C 
BRANCH   2   3
ATOM      3  C   UNL     1      67.736  19.183  81.317  1.00  0.00     0.000 C 
BRANCH   3   4
ATOM      4  C   UNL     1      68.348  20.339  80.505  1.00  0.00    -0.000 C 
BRANCH   4   5
ATOM      5  C   UNL     1      69.693  19.968  79.858  1.00  0.00    -0.000 C 
BRANCH   5   6
ATOM      6  C   UNL     1      70.291  21.119  79.032  1.00  0.00    -0.000 C 
BRANCH   6   7
ATOM      7  C   UNL     1      70.744  20.676  77.632  1.00  0.00    -0.000 C 
BRANCH   7   8
ATOM      8  C   UNL     1      69.972  19.429  77.174  1.00  0.00    -0.000 C 
BRANCH   8   9
ATOM      9  C   UNL     1      69.146  19.681  75.902  1.00  0.00    -0.000 C 
BRANCH   9  10
ATOM     10  C   UNL     1      67.796  18.947  75.920  1.00  0.00    -0.000 C 
BRANCH  10  11
ATOM     11  C   UNL     1      67.356  18.642  77.356  1.00  0.00    -0.003 C 
ATOM     12  C   UNL     1      65.870  18.928  77.550  1.00  0.00     0.004 C 
ENDBRANCH  10  11
ENDBRANCH   9  10
ENDBRANCH   8   9
ENDBRANCH   7   8
ENDBRANCH   6   7
ENDBRANCH   5   6
ENDBRANCH   4   5
ENDBRANCH   3   4
ENDBRANCH   2   3
ENDBRANCH   1   2
BRANCH   1  13
ATOM     13  C   UNL     1      68.277  15.828  79.529  1.00  0.00     0.000 C 
BRANCH  13  14
ATOM     14  C   UNL     1      69.790  15.826  79.811  1.00  0.00     0.000 C 
BRANCH  14  15
ATOM     15  C   UNL     1      70.621  15.389  78.593  1.00  0.00     0.000 C 
BRANCH  15  16
ATOM     16  C   UNL     1      70.023  15.878  77.262  1.00  0.00     0.000 C 
BRANCH  16  17
ATOM     17  C   UNL     1      69.855  14.743  76.238  1.00  0.00     0.000 C 
BRANCH  17  18
ATOM     18  C   UNL     1      68.410  14.221  76.171  1.00  0.00     0.000 C 
BRANCH  18  19
ATOM     19  C   UNL     1      67.381  15.335  75.906  1.00  0.00     0.000 C 
BRANCH  19  20
ATOM     20  C   UNL     1      65.909  14.882  75.917  1.00  0.00     0.006 C 
BRANCH  20  21
ATOM     21  C   UNL     1      65.253  15.010  77.298  1.00  0.00     0.053 C 
BRANCH  21  22
ATOM     22  C   UNL     1      63.943  14.288  77.326  1.00  0.00     0.041 C 
ATOM     23  O   UNL     1      63.910  13.033  77.216  1.00  0.00    -0.550 OA
ATOM     24  O   UNL     1      62.756  15.002  77.423  1.00  0.00    -0.550 OA
ENDBRANCH  21  22
ENDBRANCH  20  21
ENDBRANCH  19  20
ENDBRANCH  18  19
ENDBRANCH  17  18
ENDBRANCH  16  17
ENDBRANCH  15  16
ENDBRANCH  14  15
ENDBRANCH  13  14
ENDBRANCH   1  13
TORSDOF 20
ENDMDL
MODEL 6
REMARK VINA RESULT:    -2.593      2.002      4.390
REMARK INTER + INTRA:          -9.938
REMARK INTER:                  -6.102
REMARK INTRA:                  -3.836
REMARK UNBOUND:                -4.313
REMARK SMILES CCCCCCCCCCCCCCCCCCCCCC(=O)[O-]
REMARK SMILES IDX 12 1 11 2 10 3 9 4 8 5 7 6 6 7 5 8 4 9 3 10 2 11 1 12 13 13
REMARK SMILES IDX 14 14 15 15 16 16 17 17 18 18 19 19 20 20 21 21 22 22 23 23
REMARK SMILES IDX 24 24
REMARK H PARENT
REMARK Flexibility Score: inf
ROOT
ATOM      1  C   UNL     1      67.698  15.656  76.209  1.00  0.00     0.000 C 
ENDROOT
BRANCH   1   2
ATOM      2  C   UNL     1      68.790  14.654  76.622  1.00  0.00     0.000 C 
BRANCH   2   3
ATOM      3  C   UNL     1      70.206  15.256  76.566  1.00  0.00     0.000 C 
BRANCH   3   4
ATOM      4  C   UNL     1      71.231  14.610  77.516  1.00  0.00    -0.000 C 
BRANCH   4   5
ATOM      5  C   UNL     1      71.078  15.086  78.971  1.00  0.00    -0.000 C 
BRANCH   5   6
ATOM      6  C   UNL     1      72.125  16.142  79.362  1.00  0.00    -0.000 C 
BRANCH   6   7
ATOM      7  C   UNL     1      71.514  17.337  80.111  1.00  0.00    -0.000 C 
BRANCH   7   8
ATOM      8  C   UNL     1      71.066  18.430  79.130  1.00  0.00    -0.000 C 
BRANCH   8   9
ATOM      9  C   UNL     1      69.561  18.367  78.821  1.00  0.00    -0.000 C 
BRANCH   9  10
ATOM     10  C   UNL     1      69.244  18.701  77.356  1.00  0.00    -0.000 C 
BRANCH  10  11
ATOM     11  C   UNL     1      67.916  19.458  77.241  1.00  0.00    -0.003 C 
ATOM     12  C   UNL     1      67.271  19.237  75.876  1.00  0.00     0.004 C 
ENDBRANCH  10  11
ENDBRANCH   9  10
ENDBRANCH   8   9
ENDBRANCH   7   8
ENDBRANCH   6   7
ENDBRANCH   5   6
ENDBRANCH   4   5
ENDBRANCH   3   4
ENDBRANCH   2   3
ENDBRANCH   1   2
BRANCH   1  13
ATOM     13  C   UNL     1      66.290  15.201  76.628  1.00  0.00     0.000 C 
BRANCH  13  14
ATOM     14  C   UNL     1      65.538  16.282  77.425  1.00  0.00     0.000 C 
BRANCH  14  15
ATOM     15  C   UNL     1      65.465  15.968  78.929  1.00  0.00     0.000 C 
BRANCH  15  16
ATOM     16  C   UNL     1      66.616  16.608  79.725  1.00  0.00     0.000 C 
BRANCH  16  17
ATOM     17  C   UNL     1      67.588  15.565  80.300  1.00  0.00     0.000 C 
BRANCH  17  18
ATOM     18  C   UNL     1      68.381  16.102  81.504  1.00  0.00     0.000 C 
BRANCH  18  19
ATOM     19  C   UNL     1      67.759  17.371  82.115  1.00  0.00     0.000 C 
BRANCH  19  20
ATOM     20  C   UNL     1      68.768  18.460  82.526  1.00  0.00     0.006 C 
BRANCH  20  21
ATOM     21  C   UNL     1      69.929  17.916  83.367  1.00  0.00     0.053 C 
BRANCH  21  22
ATOM     22  C   UNL     1      69.507  17.735  84.790  1.00  0.00     0.041 C 
ATOM     23  O   UNL     1      69.243  16.585  85.231  1.00  0.00    -0.550 OA
ATOM     24  O   UNL     1      69.356  18.842  85.617  1.00  0.00    -0.550 OA
ENDBRANCH  21  22
ENDBRANCH  20  21
ENDBRANCH  19  20
ENDBRANCH  18  19
ENDBRANCH  17  18
ENDBRANCH  16  17
ENDBRANCH  15  16
ENDBRANCH  14  15
ENDBRANCH  13  14
ENDBRANCH   1  13
TORSDOF 20
ENDMDL
MODEL 7
REMARK VINA RESULT:    -2.589      2.448      5.489
REMARK INTER + INTRA:          -9.928
REMARK INTER:                  -6.109
REMARK INTRA:                  -3.818
REMARK UNBOUND:                -4.313
REMARK SMILES CCCCCCCCCCCCCCCCCCCCCC(=O)[O-]
REMARK SMILES IDX 12 1 11 2 10 3 9 4 8 5 7 6 6 7 5 8 4 9 3 10 2 11 1 12 13 13
REMARK SMILES IDX 14 14 15 15 16 16 17 17 18 18 19 19 20 20 21 21 22 22 23 23
REMARK SMILES IDX 24 24
REMARK H PARENT
REMARK Flexibility Score: inf
ROOT
ATOM      1  C   UNL     1      69.297  16.418  80.410  1.00  0.00     0.000 C 
ENDROOT
BRANCH   1   2
ATOM      2  C   UNL     1      70.539  15.618  79.980  1.00  0.00     0.000 C 
BRANCH   2   3
ATOM      3  C   UNL     1      70.961  15.901  78.527  1.00  0.00     0.000 C 
BRANCH   3   4
ATOM      4  C   UNL     1      70.990  14.672  77.602  1.00  0.00    -0.000 C 
BRANCH   4   5
ATOM      5  C   UNL     1      70.262  14.910  76.268  1.00  0.00    -0.000 C 
BRANCH   5   6
ATOM      6  C   UNL     1      68.820  14.375  76.276  1.00  0.00    -0.000 C 
BRANCH   6   7
ATOM      7  C   UNL     1      67.773  15.479  76.063  1.00  0.00    -0.000 C 
BRANCH   7   8
ATOM      8  C   UNL     1      67.286  16.042  77.406  1.00  0.00    -0.000 C 
BRANCH   8   9
ATOM      9  C   UNL     1      67.470  17.565  77.510  1.00  0.00    -0.000 C 
BRANCH   9  10
ATOM     10  C   UNL     1      68.570  18.092  76.576  1.00  0.00    -0.000 C 
BRANCH  10  11
ATOM     11  C   UNL     1      69.538  19.009  77.331  1.00  0.00    -0.003 C 
ATOM     12  C   UNL     1      68.889  19.580  78.588  1.00  0.00     0.004 C 
ENDBRANCH  10  11
ENDBRANCH   9  10
ENDBRANCH   8   9
ENDBRANCH   7   8
ENDBRANCH   6   7
ENDBRANCH   5   6
ENDBRANCH   4   5
ENDBRANCH   3   4
ENDBRANCH   2   3
ENDBRANCH   1   2
BRANCH   1  13
ATOM     13  C   UNL     1      68.188  15.521  80.987  1.00  0.00     0.000 C 
BRANCH  13  14
ATOM     14  C   UNL     1      67.501  16.154  82.210  1.00  0.00     0.000 C 
BRANCH  14  15
ATOM     15  C   UNL     1      67.906  17.621  82.427  1.00  0.00     0.000 C 
BRANCH  15  16
ATOM     16  C   UNL     1      66.702  18.580  82.388  1.00  0.00     0.000 C 
BRANCH  16  17
ATOM     17  C   UNL     1      66.103  18.718  80.979  1.00  0.00     0.000 C 
BRANCH  17  18
ATOM     18  C   UNL     1      64.735  18.025  80.852  1.00  0.00     0.000 C 
BRANCH  18  19
ATOM     19  C   UNL     1      64.625  17.140  79.597  1.00  0.00     0.000 C 
BRANCH  19  20
ATOM     20  C   UNL     1      64.539  15.627  79.870  1.00  0.00     0.006 C 
BRANCH  20  21
ATOM     21  C   UNL     1      63.291  14.978  79.256  1.00  0.00     0.053 C 
BRANCH  21  22
ATOM     22  C   UNL     1      63.592  14.451  77.889  1.00  0.00     0.041 C 
ATOM     23  O   UNL     1      63.803  15.248  76.937  1.00  0.00    -0.550 OA
ATOM     24  O   UNL     1      63.591  13.082  77.654  1.00  0.00    -0.550 OA
ENDBRANCH  21  22
ENDBRANCH  20  21
ENDBRANCH  19  20
ENDBRANCH  18  19
ENDBRANCH  17  18
ENDBRANCH  16  17
ENDBRANCH  15  16
ENDBRANCH  14  15
ENDBRANCH  13  14
ENDBRANCH   1  13
TORSDOF 20
ENDMDL
MODEL 8
REMARK VINA RESULT:    -2.580      2.721      4.907
REMARK INTER + INTRA:          -9.910
REMARK INTER:                  -5.662
REMARK INTRA:                  -4.248
REMARK UNBOUND:                -4.313
REMARK SMILES CCCCCCCCCCCCCCCCCCCCCC(=O)[O-]
REMARK SMILES IDX 12 1 11 2 10 3 9 4 8 5 7 6 6 7 5 8 4 9 3 10 2 11 1 12 13 13
REMARK SMILES IDX 14 14 15 15 16 16 17 17 18 18 19 19 20 20 21 21 22 22 23 23
REMARK SMILES IDX 24 24
REMARK H PARENT
REMARK Flexibility Score: inf
ROOT
ATOM      1  C   UNL     1      68.678  18.562  80.605  1.00  0.00     0.000 C 
ENDROOT
BRANCH   1   2
ATOM      2  C   UNL     1      68.047  17.201  80.947  1.00  0.00     0.000 C 
BRANCH   2   3
ATOM      3  C   UNL     1      67.453  16.491  79.717  1.00  0.00     0.000 C 
BRANCH   3   4
ATOM      4  C   UNL     1      65.992  16.031  79.869  1.00  0.00    -0.000 C 
BRANCH   4   5
ATOM      5  C   UNL     1      65.265  15.896  78.520  1.00  0.00    -0.000 C 
BRANCH   5   6
ATOM      6  C   UNL     1      66.203  15.461  77.381  1.00  0.00    -0.000 C 
BRANCH   6   7
ATOM      7  C   UNL     1      65.931  16.210  76.067  1.00  0.00    -0.000 C 
BRANCH   7   8
ATOM      8  C   UNL     1      66.345  17.685  76.179  1.00  0.00    -0.000 C 
BRANCH   8   9
ATOM      9  C   UNL     1      65.159  18.647  76.001  1.00  0.00    -0.000 C 
BRANCH   9  10
ATOM     10  C   UNL     1      65.284  19.906  76.873  1.00  0.00    -0.000 C 
BRANCH  10  11
ATOM     11  C   UNL     1      66.175  19.643  78.091  1.00  0.00    -0.003 C 
ATOM     12  C   UNL     1      65.350  19.571  79.373  1.00  0.00     0.004 C 
ENDBRANCH  10  11
ENDBRANCH   9  10
ENDBRANCH   8   9
ENDBRANCH   7   8
ENDBRANCH   6   7
ENDBRANCH   5   6
ENDBRANCH   4   5
ENDBRANCH   3   4
ENDBRANCH   2   3
ENDBRANCH   1   2
BRANCH   1  13
ATOM     13  C   UNL     1      70.166  18.636  80.985  1.00  0.00     0.000 C 
BRANCH  13  14
ATOM     14  C   UNL     1      70.729  17.271  81.419  1.00  0.00     0.000 C 
BRANCH  14  15
ATOM     15  C   UNL     1      71.636  16.635  80.352  1.00  0.00     0.000 C 
BRANCH  15  16
ATOM     16  C   UNL     1      71.043  15.342  79.765  1.00  0.00     0.000 C 
BRANCH  16  17
ATOM     17  C   UNL     1      71.278  15.219  78.251  1.00  0.00     0.000 C 
BRANCH  17  18
ATOM     18  C   UNL     1      69.964  15.099  77.460  1.00  0.00     0.000 C 
BRANCH  18  19
ATOM     19  C   UNL     1      69.728  16.283  76.504  1.00  0.00     0.000 C 
BRANCH  19  20
ATOM     20  C   UNL     1      69.756  17.673  77.166  1.00  0.00     0.006 C 
BRANCH  20  21
ATOM     21  C   UNL     1      69.784  18.821  76.149  1.00  0.00     0.053 C 
BRANCH  21  22
ATOM     22  C   UNL     1      69.844  20.141  76.849  1.00  0.00     0.041 C 
ATOM     23  O   UNL     1      70.698  20.340  77.753  1.00  0.00    -0.550 OA
ATOM     24  O   UNL     1      68.924  21.136  76.540  1.00  0.00    -0.550 OA
ENDBRANCH  21  22
ENDBRANCH  20  21
ENDBRANCH  19  20
ENDBRANCH  18  19
ENDBRANCH  17  18
ENDBRANCH  16  17
ENDBRANCH  15  16
ENDBRANCH  14  15
ENDBRANCH  13  14
ENDBRANCH   1  13
TORSDOF 20
ENDMDL
MODEL 9
REMARK VINA RESULT:    -2.576      1.621      2.915
REMARK INTER + INTRA:          -9.900
REMARK INTER:                  -6.172
REMARK INTRA:                  -3.728
REMARK UNBOUND:                -4.313
REMARK SMILES CCCCCCCCCCCCCCCCCCCCCC(=O)[O-]
REMARK SMILES IDX 12 1 11 2 10 3 9 4 8 5 7 6 6 7 5 8 4 9 3 10 2 11 1 12 13 13
REMARK SMILES IDX 14 14 15 15 16 16 17 17 18 18 19 19 20 20 21 21 22 22 23 23
REMARK SMILES IDX 24 24
REMARK H PARENT
REMARK Flexibility Score: inf
ROOT
ATOM      1  C   UNL     1      68.293  14.372  76.197  1.00  0.00     0.000 C 
ENDROOT
BRANCH   1   2
ATOM      2  C   UNL     1      67.393  15.618  76.260  1.00  0.00     0.000 C 
BRANCH   2   3
ATOM      3  C   UNL     1      66.280  15.501  77.318  1.00  0.00     0.000 C 
BRANCH   3   4
ATOM      4  C   UNL     1      66.175  16.687  78.292  1.00  0.00    -0.000 C 
BRANCH   4   5
ATOM      5  C   UNL     1      67.539  17.324  78.607  1.00  0.00    -0.000 C 
BRANCH   5   6
ATOM      6  C   UNL     1      67.661  18.760  78.071  1.00  0.00    -0.000 C 
BRANCH   6   7
ATOM      7  C   UNL     1      68.751  18.905  76.997  1.00  0.00    -0.000 C 
BRANCH   7   8
ATOM      8  C   UNL     1      69.925  19.748  77.514  1.00  0.00    -0.000 C 
BRANCH   8   9
ATOM      9  C   UNL     1      70.659  19.082  78.688  1.00  0.00    -0.000 C 
BRANCH   9  10
ATOM     10  C   UNL     1      70.925  20.054  79.848  1.00  0.00    -0.000 C 
BRANCH  10  11
ATOM     11  C   UNL     1      69.854  21.149  79.902  1.00  0.00    -0.003 C 
ATOM     12  C   UNL     1      68.853  20.887  81.024  1.00  0.00     0.004 C 
ENDBRANCH  10  11
ENDBRANCH   9  10
ENDBRANCH   8   9
ENDBRANCH   7   8
ENDBRANCH   6   7
ENDBRANCH   5   6
ENDBRANCH   4   5
ENDBRANCH   3   4
ENDBRANCH   2   3
ENDBRANCH   1   2
BRANCH   1  13
ATOM     13  C   UNL     1      69.787  14.726  76.121  1.00  0.00     0.000 C 
BRANCH  13  14
ATOM     14  C   UNL     1      70.216  15.700  77.232  1.00  0.00     0.000 C 
BRANCH  14  15
ATOM     15  C   UNL     1      70.735  14.980  78.488  1.00  0.00     0.000 C 
BRANCH  15  16
ATOM     16  C   UNL     1      71.982  15.656  79.086  1.00  0.00     0.000 C 
BRANCH  16  17
ATOM     17  C   UNL     1      71.783  16.069  80.553  1.00  0.00     0.000 C 
BRANCH  17  18
ATOM     18  C   UNL     1      70.298  16.116  80.954  1.00  0.00     0.000 C 
BRANCH  18  19
ATOM     19  C   UNL     1      69.993  17.202  82.002  1.00  0.00     0.000 C 
BRANCH  19  20
ATOM     20  C   UNL     1      68.501  17.388  82.335  1.00  0.00     0.006 C 
BRANCH  20  21
ATOM     21  C   UNL     1      67.665  16.131  82.062  1.00  0.00     0.053 C 
BRANCH  21  22
ATOM     22  C   UNL     1      66.208  16.469  82.018  1.00  0.00     0.041 C 
ATOM     23  O   UNL     1      65.373  15.617  81.615  1.00  0.00    -0.550 OA
ATOM     24  O   UNL     1      65.778  17.742  82.373  1.00  0.00    -0.550 OA
ENDBRANCH  21  22
ENDBRANCH  20  21
ENDBRANCH  19  20
ENDBRANCH  18  19
ENDBRANCH  17  18
ENDBRANCH  16  17
ENDBRANCH  15  16
ENDBRANCH  14  15
ENDBRANCH  13  14
ENDBRANCH   1  13
TORSDOF 20
ENDMDL
