MODEL 1
REMARK VINA RESULT:    13.183      0.000      0.000
REMARK INTER + INTRA:          27.584
REMARK INTER:                  30.137
REMARK INTRA:                  -2.553
REMARK UNBOUND:                -2.553
REMARK SMILES CCCCCCCCCCCCCCCCCCCCCCCC(=O)[O-]
REMARK SMILES IDX 13 1 14 2 15 3 16 4 17 5 18 6 19 7 20 8 21 9 22 10 23 11
REMARK SMILES IDX 24 12 25 13 26 14 12 15 11 16 10 17 9 18 8 19 7 20 6 21 5 22
REMARK SMILES IDX 4 23 3 24 2 25 1 26
REMARK H PARENT
REMARK Flexibility Score: inf
ROOT
ATOM      1  C   UNL     1      21.692 -20.254  26.670  1.00  0.00     0.000 C 
ENDROOT
BRANCH   1   2
ATOM      2  C   UNL     1      20.555 -19.218  26.707  1.00  0.00     0.000 C 
BRANCH   2   3
ATOM      3  C   UNL     1      19.196 -19.816  26.280  1.00  0.00     0.000 C 
BRANCH   3   4
ATOM      4  C   UNL     1      18.127 -18.758  25.946  1.00  0.00     0.000 C 
BRANCH   4   5
ATOM      5  C   UNL     1      17.303 -19.044  24.678  1.00  0.00     0.000 C 
BRANCH   5   6
ATOM      6  C   UNL     1      18.132 -19.273  23.397  1.00  0.00     0.000 C 
BRANCH   6   7
ATOM      7  C   UNL     1      17.476 -20.191  22.346  1.00  0.00     0.000 C 
BRANCH   7   8
ATOM      8  C   UNL     1      16.434 -21.176  22.905  1.00  0.00     0.000 C 
BRANCH   8   9
ATOM      9  C   UNL     1      16.300 -22.448  22.049  1.00  0.00     0.000 C 
BRANCH   9  10
ATOM     10  C   UNL     1      17.627 -23.216  21.912  1.00  0.00     0.006 C 
BRANCH  10  11
ATOM     11  C   UNL     1      17.742 -24.052  20.628  1.00  0.00     0.053 C 
BRANCH  11  12
ATOM     12  C   UNL     1      18.578 -23.369  19.588  1.00  0.00     0.041 C 
ATOM     13  O   UNL     1      18.337 -22.177  19.264  1.00  0.00    -0.550 OA
ATOM     14  O   UNL     1      19.587 -24.067  18.939  1.00  0.00    -0.550 OA
ENDBRANCH  11  12
ENDBRANCH  10  11
ENDBRANCH   9  10
ENDBRANCH   8   9
ENDBRANCH   7   8
ENDBRANCH   6   7
ENDBRANCH   5   6
ENDBRANCH   4   5
ENDBRANCH   3   4
ENDBRANCH   2   3
ENDBRANCH   1   2
BRANCH   1  15
ATOM     15  C   UNL     1      21.369 -21.454  25.765  1.00  0.00     0.000 C 
BRANCH  15  16
ATOM     16  C   UNL     1      21.995 -21.323  24.364  1.00  0.00     0.000 C 
BRANCH  16  17
ATOM     17  C   UNL     1      23.109 -20.265  24.317  1.00  0.00     0.000 C 
BRANCH  17  18
ATOM     18  C   UNL     1      24.383 -20.782  23.626  1.00  0.00    -0.000 C 
BRANCH  18  19
ATOM     19  C   UNL     1      24.394 -22.318  23.471  1.00  0.00    -0.000 C 
BRANCH  19  20
ATOM     20  C   UNL     1      25.791 -22.954  23.619  1.00  0.00    -0.000 C 
BRANCH  20  21
ATOM     21  C   UNL     1      26.045 -23.675  24.955  1.00  0.00    -0.000 C 
BRANCH  21  22
ATOM     22  C   UNL     1      27.004 -22.946  25.919  1.00  0.00    -0.000 C 
BRANCH  22  23
ATOM     23  C   UNL     1      26.330 -22.300  27.146  1.00  0.00    -0.000 C 
BRANCH  23  24
ATOM     24  C   UNL     1      24.817 -22.055  27.000  1.00  0.00    -0.000 C 
BRANCH  24  25
ATOM     25  C   UNL     1      23.996 -22.734  28.106  1.00  0.00    -0.003 C 
ATOM     26  C   UNL     1      23.825 -21.813  29.311  1.00  0.00     0.004 C 
ENDBRANCH  24  25
ENDBRANCH  23  24
ENDBRANCH  22  23
ENDBRANCH  21  22
ENDBRANCH  20  21
ENDBRANCH  19  20
ENDBRANCH  18  19
ENDBRANCH  17  18
ENDBRANCH  16  17
ENDBRANCH  15  16
ENDBRANCH   1  15
TORSDOF 22
ENDMDL
MODEL 2
REMARK VINA RESULT:    13.540      2.699      5.336
REMARK INTER + INTRA:          28.402
REMARK INTER:                  29.684
REMARK INTRA:                  -1.283
REMARK UNBOUND:                -2.553
REMARK SMILES CCCCCCCCCCCCCCCCCCCCCCCC(=O)[O-]
REMARK SMILES IDX 13 1 14 2 15 3 16 4 17 5 18 6 19 7 20 8 21 9 22 10 23 11
REMARK SMILES IDX 24 12 25 13 26 14 12 15 11 16 10 17 9 18 8 19 7 20 6 21 5 22
REMARK SMILES IDX 4 23 3 24 2 25 1 26
REMARK H PARENT
REMARK Flexibility Score: inf
ROOT
ATOM      1  C   UNL     1      16.818 -19.649  23.149  1.00  0.00     0.000 C 
ENDROOT
BRANCH   1   2
ATOM      2  C   UNL     1      17.300 -20.768  22.211  1.00  0.00     0.000 C 
BRANCH   2   3
ATOM      3  C   UNL     1      16.489 -22.072  22.379  1.00  0.00     0.000 C 
BRANCH   3   4
ATOM      4  C   UNL     1      16.649 -23.062  21.210  1.00  0.00     0.000 C 
BRANCH   4   5
ATOM      5  C   UNL     1      17.928 -23.917  21.251  1.00  0.00     0.000 C 
BRANCH   5   6
ATOM      6  C   UNL     1      18.743 -23.937  19.941  1.00  0.00     0.000 C 
BRANCH   6   7
ATOM      7  C   UNL     1      18.144 -23.114  18.782  1.00  0.00     0.000 C 
BRANCH   7   8
ATOM      8  C   UNL     1      18.469 -21.610  18.821  1.00  0.00     0.000 C 
BRANCH   8   9
ATOM      9  C   UNL     1      18.836 -21.046  17.437  1.00  0.00     0.000 C 
BRANCH   9  10
ATOM     10  C   UNL     1      17.653 -21.071  16.452  1.00  0.00     0.006 C 
BRANCH  10  11
ATOM     11  C   UNL     1      17.380 -19.727  15.760  1.00  0.00     0.053 C 
BRANCH  11  12
ATOM     12  C   UNL     1      17.756 -19.756  14.309  1.00  0.00     0.041 C 
ATOM     13  O   UNL     1      17.721 -18.700  13.624  1.00  0.00    -0.550 OA
ATOM     14  O   UNL     1      18.091 -20.958  13.702  1.00  0.00    -0.550 OA
ENDBRANCH  11  12
ENDBRANCH  10  11
ENDBRANCH   9  10
ENDBRANCH   8   9
ENDBRANCH   7   8
ENDBRANCH   6   7
ENDBRANCH   5   6
ENDBRANCH   4   5
ENDBRANCH   3   4
ENDBRANCH   2   3
ENDBRANCH   1   2
BRANCH   1  15
ATOM     15  C   UNL     1      17.936 -19.123  24.064  1.00  0.00     0.000 C 
BRANCH  15  16
ATOM     16  C   UNL     1      17.433 -18.799  25.483  1.00  0.00     0.000 C 
BRANCH  16  17
ATOM     17  C   UNL     1      18.571 -18.773  26.517  1.00  0.00     0.000 C 
BRANCH  17  18
ATOM     18  C   UNL     1      19.476 -20.014  26.427  1.00  0.00    -0.000 C 
BRANCH  18  19
ATOM     19  C   UNL     1      20.976 -19.655  26.375  1.00  0.00    -0.000 C 
BRANCH  19  20
ATOM     20  C   UNL     1      21.905 -20.866  26.156  1.00  0.00    -0.000 C 
BRANCH  20  21
ATOM     21  C   UNL     1      22.227 -21.189  24.686  1.00  0.00    -0.000 C 
BRANCH  21  22
ATOM     22  C   UNL     1      23.450 -20.448  24.107  1.00  0.00    -0.000 C 
BRANCH  22  23
ATOM     23  C   UNL     1      24.603 -21.358  23.637  1.00  0.00    -0.000 C 
BRANCH  23  24
ATOM     24  C   UNL     1      24.844 -22.602  24.512  1.00  0.00    -0.000 C 
BRANCH  24  25
ATOM     25  C   UNL     1      25.401 -22.253  25.900  1.00  0.00    -0.003 C 
ATOM     26  C   UNL     1      26.861 -22.681  26.031  1.00  0.00     0.004 C 
ENDBRANCH  24  25
ENDBRANCH  23  24
ENDBRANCH  22  23
ENDBRANCH  21  22
ENDBRANCH  20  21
ENDBRANCH  19  20
ENDBRANCH  18  19
ENDBRANCH  17  18
ENDBRANCH  16  17
ENDBRANCH  15  16
ENDBRANCH   1  15
TORSDOF 22
ENDMDL
MODEL 3
REMARK VINA RESULT:    13.657      3.532      8.743
REMARK INTER + INTRA:          28.668
REMARK INTER:                  30.142
REMARK INTRA:                  -1.474
REMARK UNBOUND:                -2.553
REMARK SMILES CCCCCCCCCCCCCCCCCCCCCCCC(=O)[O-]
REMARK SMILES IDX 13 1 14 2 15 3 16 4 17 5 18 6 19 7 20 8 21 9 22 10 23 11
REMARK SMILES IDX 24 12 25 13 26 14 12 15 11 16 10 17 9 18 8 19 7 20 6 21 5 22
REMARK SMILES IDX 4 23 3 24 2 25 1 26
REMARK H PARENT
REMARK Flexibility Score: inf
ROOT
ATOM      1  C   UNL     1      18.296 -19.099  24.065  1.00  0.00     0.000 C 
ENDROOT
BRANCH   1   2
ATOM      2  C   UNL     1      18.077 -18.650  25.519  1.00  0.00     0.000 C 
BRANCH   2   3
ATOM      3  C   UNL     1      18.726 -19.611  26.539  1.00  0.00     0.000 C 
BRANCH   3   4
ATOM      4  C   UNL     1      20.254 -19.456  26.658  1.00  0.00     0.000 C 
BRANCH   4   5
ATOM      5  C   UNL     1      21.054 -20.762  26.506  1.00  0.00     0.000 C 
BRANCH   5   6
ATOM      6  C   UNL     1      21.651 -21.002  25.104  1.00  0.00     0.000 C 
BRANCH   6   7
ATOM      7  C   UNL     1      23.126 -20.586  24.937  1.00  0.00     0.000 C 
BRANCH   7   8
ATOM      8  C   UNL     1      23.614 -20.496  23.480  1.00  0.00     0.000 C 
BRANCH   8   9
ATOM      9  C   UNL     1      24.399 -21.744  23.039  1.00  0.00     0.000 C 
BRANCH   9  10
ATOM     10  C   UNL     1      24.611 -22.749  24.186  1.00  0.00     0.006 C 
BRANCH  10  11
ATOM     11  C   UNL     1      26.086 -23.022  24.520  1.00  0.00     0.053 C 
BRANCH  11  12
ATOM     12  C   UNL     1      26.380 -22.808  25.974  1.00  0.00     0.041 C 
ATOM     13  O   UNL     1      25.574 -22.162  26.695  1.00  0.00    -0.550 OA
ATOM     14  O   UNL     1      27.568 -23.274  26.520  1.00  0.00    -0.550 OA
ENDBRANCH  11  12
ENDBRANCH  10  11
ENDBRANCH   9  10
ENDBRANCH   8   9
ENDBRANCH   7   8
ENDBRANCH   6   7
ENDBRANCH   5   6
ENDBRANCH   4   5
ENDBRANCH   3   4
ENDBRANCH   2   3
ENDBRANCH   1   2
BRANCH   1  15
ATOM     15  C   UNL     1      16.989 -19.520  23.373  1.00  0.00     0.000 C 
BRANCH  15  16
ATOM     16  C   UNL     1      17.214 -20.587  22.286  1.00  0.00     0.000 C 
BRANCH  16  17
ATOM     17  C   UNL     1      16.381 -21.856  22.529  1.00  0.00     0.000 C 
BRANCH  17  18
ATOM     18  C   UNL     1      16.584 -22.913  21.430  1.00  0.00    -0.000 C 
BRANCH  18  19
ATOM     19  C   UNL     1      17.823 -23.800  21.678  1.00  0.00    -0.000 C 
BRANCH  19  20
ATOM     20  C   UNL     1      18.682 -24.044  20.421  1.00  0.00    -0.000 C 
BRANCH  20  21
ATOM     21  C   UNL     1      18.086 -23.512  19.105  1.00  0.00    -0.000 C 
BRANCH  21  22
ATOM     22  C   UNL     1      18.945 -22.458  18.377  1.00  0.00    -0.000 C 
BRANCH  22  23
ATOM     23  C   UNL     1      18.189 -21.186  17.941  1.00  0.00    -0.000 C 
BRANCH  23  24
ATOM     24  C   UNL     1      17.642 -21.219  16.503  1.00  0.00    -0.000 C 
BRANCH  24  25
ATOM     25  C   UNL     1      17.820 -19.881  15.770  1.00  0.00    -0.003 C 
ATOM     26  C   UNL     1      17.871 -20.083  14.258  1.00  0.00     0.004 C 
ENDBRANCH  24  25
ENDBRANCH  23  24
ENDBRANCH  22  23
ENDBRANCH  21  22
ENDBRANCH  20  21
ENDBRANCH  19  20
ENDBRANCH  18  19
ENDBRANCH  17  18
ENDBRANCH  16  17
ENDBRANCH  15  16
ENDBRANCH   1  15
TORSDOF 22
ENDMDL
MODEL 4
REMARK VINA RESULT:    14.093      0.871      1.866
REMARK INTER + INTRA:          29.664
REMARK INTER:                  30.997
REMARK INTRA:                  -1.333
REMARK UNBOUND:                -2.553
REMARK SMILES CCCCCCCCCCCCCCCCCCCCCCCC(=O)[O-]
REMARK SMILES IDX 13 1 14 2 15 3 16 4 17 5 18 6 19 7 20 8 21 9 22 10 23 11
REMARK SMILES IDX 24 12 25 13 26 14 12 15 11 16 10 17 9 18 8 19 7 20 6 21 5 22
REMARK SMILES IDX 4 23 3 24 2 25 1 26
REMARK H PARENT
REMARK Flexibility Score: inf
ROOT
ATOM      1  C   UNL     1      19.653 -19.475  27.334  1.00  0.00     0.000 C 
ENDROOT
BRANCH   1   2
ATOM      2  C   UNL     1      18.338 -19.835  26.621  1.00  0.00     0.000 C 
BRANCH   2   3
ATOM      3  C   UNL     1      17.776 -18.661  25.790  1.00  0.00     0.000 C 
BRANCH   3   4
ATOM      4  C   UNL     1      18.160 -18.713  24.298  1.00  0.00     0.000 C 
BRANCH   4   5
ATOM      5  C   UNL     1      17.024 -19.130  23.348  1.00  0.00     0.000 C 
BRANCH   5   6
ATOM      6  C   UNL     1      17.263 -20.448  22.582  1.00  0.00     0.000 C 
BRANCH   6   7
ATOM      7  C   UNL     1      16.175 -21.524  22.772  1.00  0.00     0.000 C 
BRANCH   7   8
ATOM      8  C   UNL     1      16.351 -22.783  21.905  1.00  0.00     0.000 C 
BRANCH   8   9
ATOM      9  C   UNL     1      17.802 -23.296  21.890  1.00  0.00     0.000 C 
BRANCH   9  10
ATOM     10  C   UNL     1      17.996 -24.504  20.957  1.00  0.00     0.006 C 
BRANCH  10  11
ATOM     11  C   UNL     1      18.890 -24.223  19.738  1.00  0.00     0.053 C 
BRANCH  11  12
ATOM     12  C   UNL     1      18.398 -23.053  18.941  1.00  0.00     0.041 C 
ATOM     13  O   UNL     1      17.700 -23.238  17.909  1.00  0.00    -0.550 OA
ATOM     14  O   UNL     1      18.757 -21.763  19.306  1.00  0.00    -0.550 OA
ENDBRANCH  11  12
ENDBRANCH  10  11
ENDBRANCH   9  10
ENDBRANCH   8   9
ENDBRANCH   7   8
ENDBRANCH   6   7
ENDBRANCH   5   6
ENDBRANCH   4   5
ENDBRANCH   3   4
ENDBRANCH   2   3
ENDBRANCH   1   2
BRANCH   1  15
ATOM     15  C   UNL     1      20.864 -19.492  26.386  1.00  0.00     0.000 C 
BRANCH  15  16
ATOM     16  C   UNL     1      21.780 -20.708  26.621  1.00  0.00     0.000 C 
BRANCH  16  17
ATOM     17  C   UNL     1      21.979 -21.546  25.348  1.00  0.00     0.000 C 
BRANCH  17  18
ATOM     18  C   UNL     1      22.247 -20.678  24.107  1.00  0.00    -0.000 C 
BRANCH  18  19
ATOM     19  C   UNL     1      23.754 -20.488  23.827  1.00  0.00    -0.000 C 
BRANCH  19  20
ATOM     20  C   UNL     1      24.418 -21.689  23.124  1.00  0.00    -0.000 C 
BRANCH  20  21
ATOM     21  C   UNL     1      24.636 -22.929  24.010  1.00  0.00    -0.000 C 
BRANCH  21  22
ATOM     22  C   UNL     1      26.109 -23.342  24.205  1.00  0.00    -0.000 C 
BRANCH  22  23
ATOM     23  C   UNL     1      26.629 -23.243  25.654  1.00  0.00    -0.000 C 
BRANCH  23  24
ATOM     24  C   UNL     1      26.075 -22.055  26.461  1.00  0.00    -0.000 C 
BRANCH  24  25
ATOM     25  C   UNL     1      25.608 -22.460  27.867  1.00  0.00    -0.003 C 
ATOM     26  C   UNL     1      24.084 -22.479  27.958  1.00  0.00     0.004 C 
ENDBRANCH  24  25
ENDBRANCH  23  24
ENDBRANCH  22  23
ENDBRANCH  21  22
ENDBRANCH  20  21
ENDBRANCH  19  20
ENDBRANCH  18  19
ENDBRANCH  17  18
ENDBRANCH  16  17
ENDBRANCH  15  16
ENDBRANCH   1  15
TORSDOF 22
ENDMDL
MODEL 5
REMARK VINA RESULT:    14.289      2.123      8.179
REMARK INTER + INTRA:          30.112
REMARK INTER:                  30.272
REMARK INTRA:                  -0.160
REMARK UNBOUND:                -2.553
REMARK SMILES CCCCCCCCCCCCCCCCCCCCCCCC(=O)[O-]
REMARK SMILES IDX 13 1 14 2 15 3 16 4 17 5 18 6 19 7 20 8 21 9 22 10 23 11
REMARK SMILES IDX 24 12 25 13 26 14 12 15 11 16 10 17 9 18 8 19 7 20 6 21 5 22
REMARK SMILES IDX 4 23 3 24 2 25 1 26
REMARK H PARENT
REMARK Flexibility Score: inf
ROOT
ATOM      1  C   UNL     1      20.626 -20.568  25.830  1.00  0.00     0.000 C 
ENDROOT
BRANCH   1   2
ATOM      2  C   UNL     1      22.088 -20.827  26.231  1.00  0.00     0.000 C 
BRANCH   2   3
ATOM      3  C   UNL     1      22.252 -22.110  27.075  1.00  0.00     0.000 C 
BRANCH   3   4
ATOM      4  C   UNL     1      23.631 -22.242  27.749  1.00  0.00     0.000 C 
BRANCH   4   5
ATOM      5  C   UNL     1      24.833 -21.933  26.839  1.00  0.00     0.000 C 
BRANCH   5   6
ATOM      6  C   UNL     1      26.187 -22.478  27.337  1.00  0.00     0.000 C 
BRANCH   6   7
ATOM      7  C   UNL     1      26.923 -23.408  26.352  1.00  0.00     0.000 C 
BRANCH   7   8
ATOM      8  C   UNL     1      26.787 -23.019  24.869  1.00  0.00     0.000 C 
BRANCH   8   9
ATOM      9  C   UNL     1      25.814 -23.932  24.102  1.00  0.00     0.000 C 
BRANCH   9  10
ATOM     10  C   UNL     1      24.510 -23.215  23.711  1.00  0.00     0.006 C 
BRANCH  10  11
ATOM     11  C   UNL     1      24.719 -21.852  23.032  1.00  0.00     0.053 C 
BRANCH  11  12
ATOM     12  C   UNL     1      23.782 -20.810  23.565  1.00  0.00     0.041 C 
ATOM     13  O   UNL     1      22.586 -21.107  23.823  1.00  0.00    -0.550 OA
ATOM     14  O   UNL     1      24.216 -19.502  23.725  1.00  0.00    -0.550 OA
ENDBRANCH  11  12
ENDBRANCH  10  11
ENDBRANCH   9  10
ENDBRANCH   8   9
ENDBRANCH   7   8
ENDBRANCH   6   7
ENDBRANCH   5   6
ENDBRANCH   4   5
ENDBRANCH   3   4
ENDBRANCH   2   3
ENDBRANCH   1   2
BRANCH   1  15
ATOM     15  C   UNL     1      19.919 -19.584  26.776  1.00  0.00     0.000 C 
BRANCH  15  16
ATOM     16  C   UNL     1      18.405 -19.493  26.508  1.00  0.00     0.000 C 
BRANCH  16  17
ATOM     17  C   UNL     1      18.074 -18.579  25.317  1.00  0.00     0.000 C 
BRANCH  17  18
ATOM     18  C   UNL     1      17.133 -19.252  24.303  1.00  0.00    -0.000 C 
BRANCH  18  19
ATOM     19  C   UNL     1      17.719 -19.281  22.875  1.00  0.00    -0.000 C 
BRANCH  19  20
ATOM     20  C   UNL     1      17.689 -20.672  22.211  1.00  0.00    -0.000 C 
BRANCH  20  21
ATOM     21  C   UNL     1      16.513 -21.573  22.630  1.00  0.00    -0.000 C 
BRANCH  21  22
ATOM     22  C   UNL     1      16.403 -22.905  21.859  1.00  0.00    -0.000 C 
BRANCH  22  23
ATOM     23  C   UNL     1      17.748 -23.589  21.539  1.00  0.00    -0.000 C 
BRANCH  23  24
ATOM     24  C   UNL     1      17.823 -24.253  20.153  1.00  0.00    -0.000 C 
BRANCH  24  25
ATOM     25  C   UNL     1      18.925 -23.653  19.267  1.00  0.00    -0.003 C 
ATOM     26  C   UNL     1      18.550 -22.250  18.794  1.00  0.00     0.004 C 
ENDBRANCH  24  25
ENDBRANCH  23  24
ENDBRANCH  22  23
ENDBRANCH  21  22
ENDBRANCH  20  21
ENDBRANCH  19  20
ENDBRANCH  18  19
ENDBRANCH  17  18
ENDBRANCH  16  17
ENDBRANCH  15  16
ENDBRANCH   1  15
TORSDOF 22
ENDMDL
MODEL 6
REMARK VINA RESULT:    14.290      3.390      8.726
REMARK INTER + INTRA:          30.116
REMARK INTER:                  32.056
REMARK INTRA:                  -1.940
REMARK UNBOUND:                -2.553
REMARK SMILES CCCCCCCCCCCCCCCCCCCCCCCC(=O)[O-]
REMARK SMILES IDX 13 1 14 2 15 3 16 4 17 5 18 6 19 7 20 8 21 9 22 10 23 11
REMARK SMILES IDX 24 12 25 13 26 14 12 15 11 16 10 17 9 18 8 19 7 20 6 21 5 22
REMARK SMILES IDX 4 23 3 24 2 25 1 26
REMARK H PARENT
REMARK Flexibility Score: inf
ROOT
ATOM      1  C   UNL     1      17.860 -20.616  22.269  1.00  0.00     0.000 C 
ENDROOT
BRANCH   1   2
ATOM      2  C   UNL     1      18.010 -19.339  23.113  1.00  0.00     0.000 C 
BRANCH   2   3
ATOM      3  C   UNL     1      16.880 -19.181  24.154  1.00  0.00     0.000 C 
BRANCH   3   4
ATOM      4  C   UNL     1      17.379 -18.820  25.566  1.00  0.00     0.000 C 
BRANCH   4   5
ATOM      5  C   UNL     1      18.907 -18.697  25.706  1.00  0.00     0.000 C 
BRANCH   5   6
ATOM      6  C   UNL     1      19.569 -19.765  26.600  1.00  0.00     0.000 C 
BRANCH   6   7
ATOM      7  C   UNL     1      21.109 -19.711  26.657  1.00  0.00     0.000 C 
BRANCH   7   8
ATOM      8  C   UNL     1      21.812 -21.073  26.509  1.00  0.00     0.000 C 
BRANCH   8   9
ATOM      9  C   UNL     1      21.762 -21.613  25.069  1.00  0.00     0.000 C 
BRANCH   9  10
ATOM     10  C   UNL     1      22.260 -20.589  24.033  1.00  0.00     0.006 C 
BRANCH  10  11
ATOM     11  C   UNL     1      23.784 -20.390  24.025  1.00  0.00     0.053 C 
BRANCH  11  12
ATOM     12  C   UNL     1      24.520 -21.696  24.055  1.00  0.00     0.041 C 
ATOM     13  O   UNL     1      25.130 -22.055  25.097  1.00  0.00    -0.550 OA
ATOM     14  O   UNL     1      24.578 -22.489  22.918  1.00  0.00    -0.550 OA
ENDBRANCH  11  12
ENDBRANCH  10  11
ENDBRANCH   9  10
ENDBRANCH   8   9
ENDBRANCH   7   8
ENDBRANCH   6   7
ENDBRANCH   5   6
ENDBRANCH   4   5
ENDBRANCH   3   4
ENDBRANCH   2   3
ENDBRANCH   1   2
BRANCH   1  15
ATOM     15  C   UNL     1      16.526 -21.338  22.522  1.00  0.00     0.000 C 
BRANCH  15  16
ATOM     16  C   UNL     1      16.506 -22.762  21.937  1.00  0.00     0.000 C 
BRANCH  16  17
ATOM     17  C   UNL     1      17.867 -23.466  22.059  1.00  0.00     0.000 C 
BRANCH  17  18
ATOM     18  C   UNL     1      18.114 -24.471  20.921  1.00  0.00    -0.000 C 
BRANCH  18  19
ATOM     19  C   UNL     1      17.751 -23.900  19.534  1.00  0.00    -0.000 C 
BRANCH  19  20
ATOM     20  C   UNL     1      18.895 -23.117  18.858  1.00  0.00    -0.000 C 
BRANCH  20  21
ATOM     21  C   UNL     1      18.514 -21.721  18.332  1.00  0.00    -0.000 C 
BRANCH  21  22
ATOM     22  C   UNL     1      17.778 -21.712  16.976  1.00  0.00    -0.000 C 
BRANCH  22  23
ATOM     23  C   UNL     1      18.078 -20.495  16.078  1.00  0.00    -0.000 C 
BRANCH  23  24
ATOM     24  C   UNL     1      17.700 -20.675  14.597  1.00  0.00    -0.000 C 
BRANCH  24  25
ATOM     25  C   UNL     1      18.010 -19.432  13.750  1.00  0.00    -0.003 C 
ATOM     26  C   UNL     1      17.399 -18.177  14.369  1.00  0.00     0.004 C 
ENDBRANCH  24  25
ENDBRANCH  23  24
ENDBRANCH  22  23
ENDBRANCH  21  22
ENDBRANCH  20  21
ENDBRANCH  19  20
ENDBRANCH  18  19
ENDBRANCH  17  18
ENDBRANCH  16  17
ENDBRANCH  15  16
ENDBRANCH   1  15
TORSDOF 22
ENDMDL
MODEL 7
REMARK VINA RESULT:    14.299      3.027      8.842
REMARK INTER + INTRA:          30.137
REMARK INTER:                  31.491
REMARK INTRA:                  -1.354
REMARK UNBOUND:                -2.553
REMARK SMILES CCCCCCCCCCCCCCCCCCCCCCCC(=O)[O-]
REMARK SMILES IDX 13 1 14 2 15 3 16 4 17 5 18 6 19 7 20 8 21 9 22 10 23 11
REMARK SMILES IDX 24 12 25 13 26 14 12 15 11 16 10 17 9 18 8 19 7 20 6 21 5 22
REMARK SMILES IDX 4 23 3 24 2 25 1 26
REMARK H PARENT
REMARK Flexibility Score: inf
ROOT
ATOM      1  C   UNL     1      20.772 -20.656  25.511  1.00  0.00     0.000 C 
ENDROOT
BRANCH   1   2
ATOM      2  C   UNL     1      22.300 -20.809  25.419  1.00  0.00     0.000 C 
BRANCH   2   3
ATOM      3  C   UNL     1      22.867 -20.294  24.079  1.00  0.00     0.000 C 
BRANCH   3   4
ATOM      4  C   UNL     1      24.163 -21.001  23.637  1.00  0.00     0.000 C 
BRANCH   4   5
ATOM      5  C   UNL     1      24.251 -22.491  24.011  1.00  0.00     0.000 C 
BRANCH   5   6
ATOM      6  C   UNL     1      25.508 -23.221  23.493  1.00  0.00     0.000 C 
BRANCH   6   7
ATOM      7  C   UNL     1      26.387 -23.868  24.582  1.00  0.00     0.000 C 
BRANCH   7   8
ATOM      8  C   UNL     1      27.413 -22.923  25.233  1.00  0.00     0.000 C 
BRANCH   8   9
ATOM      9  C   UNL     1      27.328 -22.922  26.769  1.00  0.00     0.000 C 
BRANCH   9  10
ATOM     10  C   UNL     1      26.076 -22.198  27.295  1.00  0.00     0.006 C 
BRANCH  10  11
ATOM     11  C   UNL     1      25.031 -23.128  27.932  1.00  0.00     0.053 C 
BRANCH  11  12
ATOM     12  C   UNL     1      23.842 -22.370  28.440  1.00  0.00     0.041 C 
ATOM     13  O   UNL     1      23.881 -21.814  29.570  1.00  0.00    -0.550 OA
ATOM     14  O   UNL     1      22.674 -22.324  27.692  1.00  0.00    -0.550 OA
ENDBRANCH  11  12
ENDBRANCH  10  11
ENDBRANCH   9  10
ENDBRANCH   8   9
ENDBRANCH   7   8
ENDBRANCH   6   7
ENDBRANCH   5   6
ENDBRANCH   4   5
ENDBRANCH   3   4
ENDBRANCH   2   3
ENDBRANCH   1   2
BRANCH   1  15
ATOM     15  C   UNL     1      20.336 -19.758  26.680  1.00  0.00     0.000 C 
BRANCH  15  16
ATOM     16  C   UNL     1      18.815 -19.524  26.709  1.00  0.00     0.000 C 
BRANCH  16  17
ATOM     17  C   UNL     1      18.337 -18.623  25.559  1.00  0.00     0.000 C 
BRANCH  17  18
ATOM     18  C   UNL     1      17.094 -19.184  24.848  1.00  0.00    -0.000 C 
BRANCH  18  19
ATOM     19  C   UNL     1      17.224 -19.156  23.310  1.00  0.00    -0.000 C 
BRANCH  19  20
ATOM     20  C   UNL     1      17.745 -20.473  22.699  1.00  0.00    -0.000 C 
BRANCH  20  21
ATOM     21  C   UNL     1      16.712 -21.272  21.885  1.00  0.00    -0.000 C 
BRANCH  21  22
ATOM     22  C   UNL     1      16.691 -22.789  22.164  1.00  0.00    -0.000 C 
BRANCH  22  23
ATOM     23  C   UNL     1      17.901 -23.572  21.615  1.00  0.00    -0.000 C 
BRANCH  23  24
ATOM     24  C   UNL     1      17.650 -24.302  20.283  1.00  0.00    -0.000 C 
BRANCH  24  25
ATOM     25  C   UNL     1      18.638 -23.885  19.183  1.00  0.00    -0.003 C 
ATOM     26  C   UNL     1      18.572 -22.382  18.922  1.00  0.00     0.004 C 
ENDBRANCH  24  25
ENDBRANCH  23  24
ENDBRANCH  22  23
ENDBRANCH  21  22
ENDBRANCH  20  21
ENDBRANCH  19  20
ENDBRANCH  18  19
ENDBRANCH  17  18
ENDBRANCH  16  17
ENDBRANCH  15  16
ENDBRANCH   1  15
TORSDOF 22
ENDMDL
MODEL 8
REMARK VINA RESULT:    14.699      3.853      9.111
REMARK INTER + INTRA:          31.050
REMARK INTER:                  32.597
REMARK INTRA:                  -1.547
REMARK UNBOUND:                -2.553
REMARK SMILES CCCCCCCCCCCCCCCCCCCCCCCC(=O)[O-]
REMARK SMILES IDX 13 1 14 2 15 3 16 4 17 5 18 6 19 7 20 8 21 9 22 10 23 11
REMARK SMILES IDX 24 12 25 13 26 14 12 15 11 16 10 17 9 18 8 19 7 20 6 21 5 22
REMARK SMILES IDX 4 23 3 24 2 25 1 26
REMARK H PARENT
REMARK Flexibility Score: inf
ROOT
ATOM      1  C   UNL     1      17.312 -21.020  22.420  1.00  0.00     0.000 C 
ENDROOT
BRANCH   1   2
ATOM      2  C   UNL     1      16.840 -19.708  23.069  1.00  0.00     0.000 C 
BRANCH   2   3
ATOM      3  C   UNL     1      17.961 -19.002  23.862  1.00  0.00     0.000 C 
BRANCH   3   4
ATOM      4  C   UNL     1      17.670 -18.868  25.369  1.00  0.00     0.000 C 
BRANCH   4   5
ATOM      5  C   UNL     1      18.801 -19.349  26.295  1.00  0.00     0.000 C 
BRANCH   5   6
ATOM      6  C   UNL     1      19.857 -20.251  25.624  1.00  0.00     0.000 C 
BRANCH   6   7
ATOM      7  C   UNL     1      21.225 -20.302  26.333  1.00  0.00     0.000 C 
BRANCH   7   8
ATOM      8  C   UNL     1      22.312 -21.099  25.590  1.00  0.00     0.000 C 
BRANCH   8   9
ATOM      9  C   UNL     1      22.837 -20.367  24.342  1.00  0.00     0.000 C 
BRANCH   9  10
ATOM     10  C   UNL     1      24.176 -20.935  23.839  1.00  0.00     0.006 C 
BRANCH  10  11
ATOM     11  C   UNL     1      24.370 -22.434  24.119  1.00  0.00     0.053 C 
BRANCH  11  12
ATOM     12  C   UNL     1      25.636 -22.703  24.876  1.00  0.00     0.041 C 
ATOM     13  O   UNL     1      26.564 -23.366  24.342  1.00  0.00    -0.550 OA
ATOM     14  O   UNL     1      25.767 -22.270  26.188  1.00  0.00    -0.550 OA
ENDBRANCH  11  12
ENDBRANCH  10  11
ENDBRANCH   9  10
ENDBRANCH   8   9
ENDBRANCH   7   8
ENDBRANCH   6   7
ENDBRANCH   5   6
ENDBRANCH   4   5
ENDBRANCH   3   4
ENDBRANCH   2   3
ENDBRANCH   1   2
BRANCH   1  15
ATOM     15  C   UNL     1      16.241 -22.122  22.467  1.00  0.00     0.000 C 
BRANCH  15  16
ATOM     16  C   UNL     1      16.491 -23.232  21.430  1.00  0.00     0.000 C 
BRANCH  16  17
ATOM     17  C   UNL     1      17.941 -23.742  21.454  1.00  0.00     0.000 C 
BRANCH  17  18
ATOM     18  C   UNL     1      18.404 -24.264  20.083  1.00  0.00    -0.000 C 
BRANCH  18  19
ATOM     19  C   UNL     1      18.103 -23.274  18.936  1.00  0.00    -0.000 C 
BRANCH  19  20
ATOM     20  C   UNL     1      18.924 -21.970  19.001  1.00  0.00    -0.000 C 
BRANCH  20  21
ATOM     21  C   UNL     1      18.459 -20.854  18.048  1.00  0.00    -0.000 C 
BRANCH  21  22
ATOM     22  C   UNL     1      18.127 -21.316  16.614  1.00  0.00    -0.000 C 
BRANCH  22  23
ATOM     23  C   UNL     1      17.471 -20.246  15.718  1.00  0.00    -0.000 C 
BRANCH  23  24
ATOM     24  C   UNL     1      17.797 -20.369  14.219  1.00  0.00    -0.000 C 
BRANCH  24  25
ATOM     25  C   UNL     1      17.826 -19.009  13.505  1.00  0.00    -0.003 C 
ATOM     26  C   UNL     1      17.508 -17.871  14.472  1.00  0.00     0.004 C 
ENDBRANCH  24  25
ENDBRANCH  23  24
ENDBRANCH  22  23
ENDBRANCH  21  22
ENDBRANCH  20  21
ENDBRANCH  19  20
ENDBRANCH  18  19
ENDBRANCH  17  18
ENDBRANCH  16  17
ENDBRANCH  15  16
ENDBRANCH   1  15
TORSDOF 22
ENDMDL
MODEL 9
REMARK VINA RESULT:    14.793      3.509      8.326
REMARK INTER + INTRA:          31.265
REMARK INTER:                  33.001
REMARK INTRA:                  -1.736
REMARK UNBOUND:                -2.553
REMARK SMILES CCCCCCCCCCCCCCCCCCCCCCCC(=O)[O-]
REMARK SMILES IDX 13 1 14 2 15 3 16 4 17 5 18 6 19 7 20 8 21 9 22 10 23 11
REMARK SMILES IDX 24 12 25 13 26 14 12 15 11 16 10 17 9 18 8 19 7 20 6 21 5 22
REMARK SMILES IDX 4 23 3 24 2 25 1 26
REMARK H PARENT
REMARK Flexibility Score: inf
ROOT
ATOM      1  C   UNL     1      20.017 -19.045  26.354  1.00  0.00     0.000 C 
ENDROOT
BRANCH   1   2
ATOM      2  C   UNL     1      21.014 -19.987  27.050  1.00  0.00     0.000 C 
BRANCH   2   3
ATOM      3  C   UNL     1      21.091 -21.372  26.373  1.00  0.00     0.000 C 
BRANCH   3   4
ATOM      4  C   UNL     1      21.893 -21.380  25.057  1.00  0.00     0.000 C 
BRANCH   4   5
ATOM      5  C   UNL     1      23.217 -20.597  25.098  1.00  0.00     0.000 C 
BRANCH   5   6
ATOM      6  C   UNL     1      23.714 -20.082  23.731  1.00  0.00     0.000 C 
BRANCH   6   7
ATOM      7  C   UNL     1      23.685 -21.118  22.589  1.00  0.00     0.000 C 
BRANCH   7   8
ATOM      8  C   UNL     1      24.814 -22.163  22.632  1.00  0.00     0.000 C 
BRANCH   8   9
ATOM      9  C   UNL     1      24.617 -23.203  23.749  1.00  0.00     0.000 C 
BRANCH   9  10
ATOM     10  C   UNL     1      25.908 -23.476  24.542  1.00  0.00     0.006 C 
BRANCH  10  11
ATOM     11  C   UNL     1      26.141 -22.513  25.717  1.00  0.00     0.053 C 
BRANCH  11  12
ATOM     12  C   UNL     1      27.382 -22.855  26.485  1.00  0.00     0.041 C 
ATOM     13  O   UNL     1      27.400 -23.860  27.244  1.00  0.00    -0.550 OA
ATOM     14  O   UNL     1      28.499 -22.035  26.404  1.00  0.00    -0.550 OA
ENDBRANCH  11  12
ENDBRANCH  10  11
ENDBRANCH   9  10
ENDBRANCH   8   9
ENDBRANCH   7   8
ENDBRANCH   6   7
ENDBRANCH   5   6
ENDBRANCH   4   5
ENDBRANCH   3   4
ENDBRANCH   2   3
ENDBRANCH   1   2
BRANCH   1  15
ATOM     15  C   UNL     1      18.554 -19.463  26.575  1.00  0.00     0.000 C 
BRANCH  15  16
ATOM     16  C   UNL     1      17.566 -18.602  25.768  1.00  0.00     0.000 C 
BRANCH  16  17
ATOM     17  C   UNL     1      17.063 -19.317  24.503  1.00  0.00     0.000 C 
BRANCH  17  18
ATOM     18  C   UNL     1      18.070 -19.240  23.343  1.00  0.00    -0.000 C 
BRANCH  18  19
ATOM     19  C   UNL     1      17.717 -20.195  22.183  1.00  0.00    -0.000 C 
BRANCH  19  20
ATOM     20  C   UNL     1      16.371 -20.927  22.360  1.00  0.00    -0.000 C 
BRANCH  20  21
ATOM     21  C   UNL     1      16.443 -22.462  22.276  1.00  0.00    -0.000 C 
BRANCH  21  22
ATOM     22  C   UNL     1      17.854 -23.039  22.041  1.00  0.00    -0.000 C 
BRANCH  22  23
ATOM     23  C   UNL     1      17.896 -24.369  21.262  1.00  0.00    -0.000 C 
BRANCH  23  24
ATOM     24  C   UNL     1      17.661 -24.239  19.746  1.00  0.00    -0.000 C 
BRANCH  24  25
ATOM     25  C   UNL     1      18.853 -23.606  19.013  1.00  0.00    -0.003 C 
ATOM     26  C   UNL     1      18.704 -22.088  18.927  1.00  0.00     0.004 C 
ENDBRANCH  24  25
ENDBRANCH  23  24
ENDBRANCH  22  23
ENDBRANCH  21  22
ENDBRANCH  20  21
ENDBRANCH  19  20
ENDBRANCH  18  19
ENDBRANCH  17  18
ENDBRANCH  16  17
ENDBRANCH  15  16
ENDBRANCH   1  15
TORSDOF 22
ENDMDL
