MODEL 1
REMARK VINA RESULT:    -4.490      0.000      0.000
REMARK INTER + INTRA:          -4.621
REMARK INTER:                  -4.621
REMARK INTRA:                   0.000
REMARK UNBOUND:                 0.000
REMARK SMILES Nc1ncnc2nc[nH]c12
REMARK SMILES IDX 8 1 7 2 6 3 5 4 4 5 3 6 2 7 10 8 9 9 1 11
REMARK H PARENT 9 10 1 12 1 13
REMARK Flexibility Score: inf
ROOT
ATOM      1  C   UNL     1      21.974  22.664 145.837  1.00  0.00     0.199 A 
ATOM      2  N   UNL     1      23.008  23.550 145.832  1.00  0.00    -0.217 NA
ATOM      3  C   UNL     1      22.371  24.732 145.846  1.00  0.00     0.182 A 
ATOM      4  N   UNL     1      22.945  25.959 145.848  1.00  0.00    -0.215 NA
ATOM      5  C   UNL     1      22.126  27.054 145.864  1.00  0.00     0.226 A 
ATOM      6  N   UNL     1      20.763  26.905 145.877  1.00  0.00    -0.217 NA
ATOM      7  C   UNL     1      20.182  25.667 145.875  1.00  0.00     0.152 A 
ATOM      8  C   UNL     1      21.029  24.563 145.859  1.00  0.00     0.127 A 
ATOM      9  N   UNL     1      20.751  23.253 145.854  1.00  0.00    -0.340 N 
ATOM     10  H   UNL     1      19.819  22.783 145.862  1.00  0.00     0.168 HD
ENDROOT
BRANCH   7  11
ATOM     11  N   UNL     1      18.760  25.535 145.890  1.00  0.00    -0.382 N 
ATOM     12  H   UNL     1      18.136  26.354 145.725  1.00  0.00     0.158 HD
ATOM     13  H   UNL     1      18.325  24.603 146.070  1.00  0.00     0.158 HD
ENDBRANCH   7  11
TORSDOF 1
ENDMDL
MODEL 2
REMARK VINA RESULT:    -4.419      0.943      2.952
REMARK INTER + INTRA:          -4.548
REMARK INTER:                  -4.548
REMARK INTRA:                   0.000
REMARK UNBOUND:                 0.000
REMARK SMILES Nc1ncnc2nc[nH]c12
REMARK SMILES IDX 8 1 7 2 6 3 5 4 4 5 3 6 2 7 10 8 9 9 1 11
REMARK H PARENT 9 10 1 12 1 13
REMARK Flexibility Score: inf
ROOT
ATOM      1  C   UNL     1      22.603  28.002 145.840  1.00  0.00     0.199 A 
ATOM      2  N   UNL     1      23.517  26.993 145.834  1.00  0.00    -0.217 NA
ATOM      3  C   UNL     1      22.735  25.901 145.827  1.00  0.00     0.182 A 
ATOM      4  N   UNL     1      23.150  24.612 145.819  1.00  0.00    -0.215 NA
ATOM      5  C   UNL     1      22.199  23.628 145.813  1.00  0.00     0.226 A 
ATOM      6  N   UNL     1      20.865  23.949 145.816  1.00  0.00    -0.217 NA
ATOM      7  C   UNL     1      20.445  25.250 145.824  1.00  0.00     0.152 A 
ATOM      8  C   UNL     1      21.426  26.239 145.830  1.00  0.00     0.127 A 
ATOM      9  N   UNL     1      21.315  27.573 145.838  1.00  0.00    -0.340 N 
ATOM     10  H   UNL     1      20.450  28.157 145.841  1.00  0.00     0.168 HD
ENDROOT
BRANCH   7  11
ATOM     11  N   UNL     1      19.052  25.561 145.826  1.00  0.00    -0.382 N 
ATOM     12  H   UNL     1      18.340  24.865 145.514  1.00  0.00     0.158 HD
ATOM     13  H   UNL     1      18.727  26.501 146.143  1.00  0.00     0.158 HD
ENDBRANCH   7  11
TORSDOF 1
ENDMDL
MODEL 3
REMARK VINA RESULT:    -4.369     12.586     13.639
REMARK INTER + INTRA:          -4.497
REMARK INTER:                  -4.497
REMARK INTRA:                   0.000
REMARK UNBOUND:                 0.000
REMARK SMILES Nc1ncnc2nc[nH]c12
REMARK SMILES IDX 8 1 7 2 6 3 5 4 4 5 3 6 2 7 10 8 9 9 1 11
REMARK H PARENT 9 10 1 12 1 13
REMARK Flexibility Score: inf
ROOT
ATOM      1  C   UNL     1      30.394  22.534 137.036  1.00  0.00     0.199 A 
ATOM      2  N   UNL     1      29.462  23.527 137.036  1.00  0.00    -0.217 NA
ATOM      3  C   UNL     1      30.217  24.625 136.865  1.00  0.00     0.182 A 
ATOM      4  N   UNL     1      29.776  25.904 136.792  1.00  0.00    -0.215 NA
ATOM      5  C   UNL     1      30.702  26.896 136.614  1.00  0.00     0.226 A 
ATOM      6  N   UNL     1      32.036  26.594 136.513  1.00  0.00    -0.217 NA
ATOM      7  C   UNL     1      32.482  25.304 136.586  1.00  0.00     0.152 A 
ATOM      8  C   UNL     1      31.527  24.306 136.767  1.00  0.00     0.127 A 
ATOM      9  N   UNL     1      31.666  22.978 136.874  1.00  0.00    -0.340 N 
ATOM     10  H   UNL     1      32.539  22.408 136.840  1.00  0.00     0.168 HD
ENDROOT
BRANCH   7  11
ATOM     11  N   UNL     1      33.875  25.012 136.478  1.00  0.00    -0.382 N 
ATOM     12  H   UNL     1      34.512  25.087 137.301  1.00  0.00     0.158 HD
ATOM     13  H   UNL     1      34.277  24.718 135.560  1.00  0.00     0.158 HD
ENDBRANCH   7  11
TORSDOF 1
ENDMDL
MODEL 4
REMARK VINA RESULT:    -4.358      3.530      5.493
REMARK INTER + INTRA:          -4.486
REMARK INTER:                  -4.486
REMARK INTRA:                   0.000
REMARK UNBOUND:                 0.000
REMARK SMILES Nc1ncnc2nc[nH]c12
REMARK SMILES IDX 8 1 7 2 6 3 5 4 4 5 3 6 2 7 10 8 9 9 1 11
REMARK H PARENT 9 10 1 12 1 13
REMARK Flexibility Score: inf
ROOT
ATOM      1  C   UNL     1      17.195  27.952 148.993  1.00  0.00     0.199 A 
ATOM      2  N   UNL     1      17.223  27.005 149.970  1.00  0.00    -0.217 NA
ATOM      3  C   UNL     1      17.752  25.950 149.329  1.00  0.00     0.182 A 
ATOM      4  N   UNL     1      18.000  24.727 149.855  1.00  0.00    -0.215 NA
ATOM      5  C   UNL     1      18.547  23.773 149.041  1.00  0.00     0.226 A 
ATOM      6  N   UNL     1      18.832  24.056 147.729  1.00  0.00    -0.217 NA
ATOM      7  C   UNL     1      18.581  25.291 147.197  1.00  0.00     0.152 A 
ATOM      8  C   UNL     1      18.025  26.250 148.039  1.00  0.00     0.127 A 
ATOM      9  N   UNL     1      17.679  27.521 147.800  1.00  0.00    -0.340 N 
ATOM     10  H   UNL     1      17.758  28.064 146.912  1.00  0.00     0.168 HD
ENDROOT
BRANCH   7  11
ATOM     11  N   UNL     1      18.887  25.564 145.829  1.00  0.00    -0.382 N 
ATOM     12  H   UNL     1      19.633  26.243 145.564  1.00  0.00     0.158 HD
ATOM     13  H   UNL     1      18.357  25.080 145.070  1.00  0.00     0.158 HD
ENDBRANCH   7  11
TORSDOF 1
ENDMDL
MODEL 5
REMARK VINA RESULT:    -4.270     11.876     12.883
REMARK INTER + INTRA:          -4.395
REMARK INTER:                  -4.395
REMARK INTRA:                   0.000
REMARK UNBOUND:                 0.000
REMARK SMILES Nc1ncnc2nc[nH]c12
REMARK SMILES IDX 8 1 7 2 6 3 5 4 4 5 3 6 2 7 10 8 9 9 1 11
REMARK H PARENT 9 10 1 12 1 13
REMARK Flexibility Score: inf
ROOT
ATOM      1  C   UNL     1      28.126  24.909 137.557  1.00  0.00     0.199 A 
ATOM      2  N   UNL     1      29.134  23.993 137.554  1.00  0.00    -0.217 NA
ATOM      3  C   UNL     1      30.188  24.731 137.171  1.00  0.00     0.182 A 
ATOM      4  N   UNL     1      31.460  24.296 137.006  1.00  0.00    -0.215 NA
ATOM      5  C   UNL     1      32.405  25.202 136.609  1.00  0.00     0.226 A 
ATOM      6  N   UNL     1      32.065  26.511 136.385  1.00  0.00    -0.217 NA
ATOM      7  C   UNL     1      30.781  26.952 136.552  1.00  0.00     0.152 A 
ATOM      8  C   UNL     1      29.832  26.017 136.957  1.00  0.00     0.127 A 
ATOM      9  N   UNL     1      28.521  26.156 137.196  1.00  0.00    -0.340 N 
ATOM     10  H   UNL     1      27.932  27.015 137.127  1.00  0.00     0.168 HD
ENDROOT
BRANCH   7  11
ATOM     11  N   UNL     1      30.449  28.320 136.315  1.00  0.00    -0.382 N 
ATOM     12  H   UNL     1      31.186  29.056 136.255  1.00  0.00     0.158 HD
ATOM     13  H   UNL     1      29.450  28.602 136.197  1.00  0.00     0.158 HD
ENDBRANCH   7  11
TORSDOF 1
ENDMDL
MODEL 6
REMARK VINA RESULT:    -4.261      1.672      3.693
REMARK INTER + INTRA:          -4.386
REMARK INTER:                  -4.386
REMARK INTRA:                   0.000
REMARK UNBOUND:                 0.000
REMARK SMILES Nc1ncnc2nc[nH]c12
REMARK SMILES IDX 8 1 7 2 6 3 5 4 4 5 3 6 2 7 10 8 9 9 1 11
REMARK H PARENT 9 10 1 12 1 13
REMARK Flexibility Score: inf
ROOT
ATOM      1  C   UNL     1      20.148  26.814 146.072  1.00  0.00     0.199 A 
ATOM      2  N   UNL     1      20.629  25.564 145.830  1.00  0.00    -0.217 NA
ATOM      3  C   UNL     1      21.943  25.790 145.670  1.00  0.00     0.182 A 
ATOM      4  N   UNL     1      22.895  24.864 145.404  1.00  0.00    -0.215 NA
ATOM      5  C   UNL     1      24.189  25.288 145.274  1.00  0.00     0.226 A 
ATOM      6  N   UNL     1      24.504  26.616 145.410  1.00  0.00    -0.217 NA
ATOM      7  C   UNL     1      23.544  27.552 145.678  1.00  0.00     0.152 A 
ATOM      8  C   UNL     1      22.232  27.104 145.808  1.00  0.00     0.127 A 
ATOM      9  N   UNL     1      21.104  27.778 146.065  1.00  0.00    -0.340 N 
ATOM     10  H   UNL     1      20.976  28.801 146.224  1.00  0.00     0.168 HD
ENDROOT
BRANCH   7  11
ATOM     11  N   UNL     1      23.894  28.929 145.816  1.00  0.00    -0.382 N 
ATOM     12  H   UNL     1      24.320  29.296 146.695  1.00  0.00     0.158 HD
ATOM     13  H   UNL     1      23.725  29.592 145.027  1.00  0.00     0.158 HD
ENDBRANCH   7  11
TORSDOF 1
ENDMDL
MODEL 7
REMARK VINA RESULT:    -4.203     12.805     14.116
REMARK INTER + INTRA:          -4.326
REMARK INTER:                  -4.326
REMARK INTRA:                   0.000
REMARK UNBOUND:                 0.000
REMARK SMILES Nc1ncnc2nc[nH]c12
REMARK SMILES IDX 8 1 7 2 6 3 5 4 4 5 3 6 2 7 10 8 9 9 1 11
REMARK H PARENT 9 10 1 12 1 13
REMARK Flexibility Score: inf
ROOT
ATOM      1  C   UNL     1      30.203  27.303 136.851  1.00  0.00     0.199 A 
ATOM      2  N   UNL     1      29.327  26.286 136.625  1.00  0.00    -0.217 NA
ATOM      3  C   UNL     1      30.148  25.245 136.411  1.00  0.00     0.182 A 
ATOM      4  N   UNL     1      29.781  23.971 136.136  1.00  0.00    -0.215 NA
ATOM      5  C   UNL     1      30.767  23.041 135.948  1.00  0.00     0.226 A 
ATOM      6  N   UNL     1      32.088  23.399 136.039  1.00  0.00    -0.217 NA
ATOM      7  C   UNL     1      32.460  24.685 136.317  1.00  0.00     0.152 A 
ATOM      8  C   UNL     1      31.444  25.619 136.505  1.00  0.00     0.127 A 
ATOM      9  N   UNL     1      31.506  26.927 136.785  1.00  0.00    -0.340 N 
ATOM     10  H   UNL     1      32.349  27.526 136.922  1.00  0.00     0.168 HD
ENDROOT
BRANCH   7  11
ATOM     11  N   UNL     1      33.841  25.036 136.407  1.00  0.00    -0.382 N 
ATOM     12  H   UNL     1      34.166  25.814 137.021  1.00  0.00     0.158 HD
ATOM     13  H   UNL     1      34.551  24.509 135.850  1.00  0.00     0.158 HD
ENDBRANCH   7  11
TORSDOF 1
ENDMDL
MODEL 8
REMARK VINA RESULT:    -4.161      3.350      4.487
REMARK INTER + INTRA:          -4.283
REMARK INTER:                  -4.283
REMARK INTRA:                   0.000
REMARK UNBOUND:                 0.000
REMARK SMILES Nc1ncnc2nc[nH]c12
REMARK SMILES IDX 8 1 7 2 6 3 5 4 4 5 3 6 2 7 10 8 9 9 1 11
REMARK H PARENT 9 10 1 12 1 13
REMARK Flexibility Score: inf
ROOT
ATOM      1  C   UNL     1      17.352  24.647 150.155  1.00  0.00     0.199 A 
ATOM      2  N   UNL     1      18.459  23.949 150.531  1.00  0.00    -0.217 NA
ATOM      3  C   UNL     1      19.203  23.971 149.413  1.00  0.00     0.182 A 
ATOM      4  N   UNL     1      20.425  23.410 149.245  1.00  0.00    -0.215 NA
ATOM      5  C   UNL     1      21.032  23.539 148.026  1.00  0.00     0.226 A 
ATOM      6  N   UNL     1      20.412  24.218 147.008  1.00  0.00    -0.217 NA
ATOM      7  C   UNL     1      19.179  24.784 147.176  1.00  0.00     0.152 A 
ATOM      8  C   UNL     1      18.576  24.645 148.423  1.00  0.00     0.127 A 
ATOM      9  N   UNL     1      17.393  25.086 148.871  1.00  0.00    -0.340 N 
ATOM     10  H   UNL     1      16.667  25.638 148.364  1.00  0.00     0.168 HD
ENDROOT
BRANCH   7  11
ATOM     11  N   UNL     1      18.554  25.488 146.102  1.00  0.00    -0.382 N 
ATOM     12  H   UNL     1      19.056  25.670 145.206  1.00  0.00     0.158 HD
ATOM     13  H   UNL     1      17.573  25.833 146.205  1.00  0.00     0.158 HD
ENDBRANCH   7  11
TORSDOF 1
ENDMDL
