MODEL 1
REMARK VINA RESULT:    -8.380      0.000      0.000
REMARK INTER + INTRA:         -14.608
REMARK INTER:                 -13.280
REMARK INTRA:                  -1.329
REMARK UNBOUND:                -1.329
REMARK SMILES C[C@H]1O[C@@H](O[C@@H]2CC[C@]3(C)[C@@H](CC[C@@]4(C)[C@@H]3C=C[C@@]35OC[C@]6(CCC(C)(C)C[C@@H]63)[C@@H](O)C[C@@]45C)[C@]2(C)CO)[C@@H](O)[C@@H](O[C@@H]2O[C@@H](CO)[C@@H](O)[C@H](O)[C@H]2O)[C@H]1O
REMARK SMILES IDX 1 1 2 2 54 3 41 4 39 5 4 6 3 7 55 8 42 10 43 11 52 12 44 13
REMARK SMILES IDX 50 14 45 15 48 16 53 17 51 19 46 21 47 22 49 24 5 26 6 27
REMARK SMILES IDX 7 28 35 29 8 30 11 31 36 32 9 33 12 34 10 35 16 36 13 37
REMARK SMILES IDX 14 38 17 39 15 40 33 41 18 42 19 43 32 44 34 45 29 46 20 47
REMARK SMILES IDX 30 48 22 49 28 50 21 51 23 52 25 53 24 54 26 55 27 56 37 57
REMARK SMILES IDX 38 58 31 60 40 62
REMARK H PARENT 55 9 53 18 51 20 47 23 49 25 38 59 31 61 40 63
REMARK Flexibility Score: inf
ROOT
ATOM      1  C   UNL     1       9.365   2.693  -3.392  1.00  0.00     0.041 C 
ATOM      2  C   UNL     1       8.390   3.402  -4.343  1.00  0.00     0.150 C 
ATOM      3  C   UNL     1       7.961   4.770  -3.812  1.00  0.00     0.175 C 
ATOM      4  C   UNL     1       7.011   5.476  -4.826  1.00  0.00     0.186 C 
ATOM      5  C   UNL     1       6.360   4.529  -5.902  1.00  0.00     0.202 C 
ATOM      6  C   UNL     1       6.561   2.977  -5.671  1.00  0.00     0.282 C 
ATOM      7  O   UNL     1       7.222   2.623  -4.475  1.00  0.00    -0.344 OA
ENDROOT
BRANCH   3   8
ATOM      8  O   UNL     1       7.319   4.552  -2.589  1.00  0.00    -0.388 OA
ATOM      9  H   UNL     1       7.242   3.565  -2.466  1.00  0.00     0.211 HD
ENDBRANCH   3   8
BRANCH   4  10
ATOM     10  O   UNL     1       5.970   6.222  -4.220  1.00  0.00    -0.341 OA
BRANCH  10  11
ATOM     11  C   UNL     1       6.079   7.641  -4.334  1.00  0.00     0.282 C 
ATOM     12  C   UNL     1       4.783   8.317  -3.866  1.00  0.00     0.202 C 
ATOM     13  O   UNL     1       7.150   8.125  -3.550  1.00  0.00    -0.341 OA
ATOM     14  C   UNL     1       4.546   8.031  -2.359  1.00  0.00     0.179 C 
ATOM     15  C   UNL     1       7.064   7.648  -2.213  1.00  0.00     0.178 C 
ATOM     16  C   UNL     1       5.822   8.229  -1.505  1.00  0.00     0.177 C 
BRANCH  12  17
ATOM     17  O   UNL     1       4.862   9.695  -4.126  1.00  0.00    -0.385 OA
ATOM     18  H   UNL     1       4.199   9.895  -4.829  1.00  0.00     0.211 HD
ENDBRANCH  12  17
BRANCH  14  19
ATOM     19  O   UNL     1       4.079   6.705  -2.211  1.00  0.00    -0.387 OA
ATOM     20  H   UNL     1       4.867   6.104  -2.310  1.00  0.00     0.211 HD
ENDBRANCH  14  19
BRANCH  15  21
ATOM     21  C   UNL     1       8.368   7.955  -1.471  1.00  0.00     0.191 C 
BRANCH  21  22
ATOM     22  O   UNL     1       9.202   6.820  -1.478  1.00  0.00    -0.394 OA
ATOM     23  H   UNL     1       9.540   6.690  -0.555  1.00  0.00     0.210 HD
ENDBRANCH  21  22
ENDBRANCH  15  21
BRANCH  16  24
ATOM     24  O   UNL     1       5.995   9.574  -1.156  1.00  0.00    -0.387 OA
ATOM     25  H   UNL     1       5.982   9.647  -0.165  1.00  0.00     0.211 HD
ENDBRANCH  16  24
ENDBRANCH  10  11
ENDBRANCH   4  10
BRANCH   6  26
ATOM     26  O   UNL     1       5.387   2.210  -5.895  1.00  0.00    -0.346 OA
BRANCH  26  27
ATOM     27  C   UNL     1       5.479   0.888  -6.453  1.00  0.00     0.130 C 
ATOM     28  C   UNL     1       6.862   0.248  -6.736  1.00  0.00     0.033 C 
ATOM     29  C   UNL     1       4.455   0.638  -7.619  1.00  0.00     0.020 C 
ATOM     30  C   UNL     1       6.744  -1.290  -6.945  1.00  0.00     0.010 C 
ATOM     31  C   UNL     1       4.305  -0.954  -7.766  1.00  0.00     0.006 C 
ATOM     32  C   UNL     1       3.076   1.279  -7.255  1.00  0.00     0.017 C 
ATOM     33  C   UNL     1       5.669  -1.758  -7.988  1.00  0.00    -0.022 C 
ATOM     34  C   UNL     1       3.439  -1.536  -6.597  1.00  0.00     0.005 C 
ATOM     35  C   UNL     1       6.227  -1.450  -9.435  1.00  0.00     0.012 C 
ATOM     36  C   UNL     1       5.441  -3.355  -7.932  1.00  0.00     0.024 C 
ATOM     37  C   UNL     1       3.918  -2.843  -5.968  1.00  0.00     0.008 C 
ATOM     38  C   UNL     1       4.306  -3.959  -6.977  1.00  0.00    -0.017 C 
ATOM     39  C   UNL     1       6.760  -4.103  -7.935  1.00  0.00    -0.024 C 
ATOM     40  C   UNL     1       3.034  -4.137  -7.892  1.00  0.00     0.013 C 
ATOM     41  C   UNL     1       4.678  -5.373  -6.176  1.00  0.00     0.009 C 
ATOM     42  C   UNL     1       6.840  -5.385  -7.634  1.00  0.00     0.005 C 
ATOM     43  C   UNL     1       6.162  -5.945  -6.430  1.00  0.00     0.096 C 
ATOM     44  C   UNL     1       4.467  -5.301  -4.604  1.00  0.00     0.043 C 
ATOM     45  C   UNL     1       3.646  -6.502  -6.600  1.00  0.00     0.015 C 
ATOM     46  C   UNL     1       7.156  -5.838  -5.258  1.00  0.00     0.037 C 
ATOM     47  O   UNL     1       6.085  -7.362  -6.601  1.00  0.00    -0.369 OA
ATOM     48  C   UNL     1       5.170  -6.382  -3.735  1.00  0.00     0.124 C 
ATOM     49  C   UNL     1       6.576  -6.851  -4.309  1.00  0.00     0.026 C 
ATOM     50  C   UNL     1       7.645  -4.549  -4.573  1.00  0.00     0.014 C 
ATOM     51  C   UNL     1       6.345  -7.974  -5.350  1.00  0.00     0.171 C 
ATOM     52  C   UNL     1       7.616  -7.232  -3.188  1.00  0.00     0.013 C 
ATOM     53  C   UNL     1       8.768  -4.886  -3.506  1.00  0.00    -0.035 C 
ATOM     54  C   UNL     1       8.946  -6.427  -3.254  1.00  0.00     0.007 C 
ATOM     55  C   UNL     1      10.125  -4.328  -4.017  1.00  0.00     0.011 C 
ATOM     56  C   UNL     1       8.447  -4.201  -2.172  1.00  0.00     0.011 C 
BRANCH  29  57
ATOM     57  C   UNL     1       4.869   1.279  -8.993  1.00  0.00     0.165 C 
BRANCH  57  58
ATOM     58  O   UNL     1       5.319   2.600  -8.865  1.00  0.00    -0.396 OA
ATOM     59  H   UNL     1       5.275   3.014  -9.767  1.00  0.00     0.210 HD
ENDBRANCH  57  58
ENDBRANCH  29  57
BRANCH  48  60
ATOM     60  O   UNL     1       5.307  -5.863  -2.435  1.00  0.00    -0.392 OA
ATOM     61  H   UNL     1       5.456  -6.640  -1.828  1.00  0.00     0.210 HD
ENDBRANCH  48  60
ENDBRANCH  26  27
ENDBRANCH   6  26
BRANCH   5  62
ATOM     62  O   UNL     1       4.997   4.826  -6.066  1.00  0.00    -0.385 OA
ATOM     63  H   UNL     1       4.831   4.951  -7.030  1.00  0.00     0.211 HD
ENDBRANCH   5  62
TORSDOF 14
ENDMDL
MODEL 2
REMARK VINA RESULT:    -7.307      2.615     11.495
REMARK INTER + INTRA:         -12.907
REMARK INTER:                 -12.159
REMARK INTRA:                  -0.748
REMARK UNBOUND:                -1.329
REMARK SMILES C[C@H]1O[C@@H](O[C@@H]2CC[C@]3(C)[C@@H](CC[C@@]4(C)[C@@H]3C=C[C@@]35OC[C@]6(CCC(C)(C)C[C@@H]63)[C@@H](O)C[C@@]45C)[C@]2(C)CO)[C@@H](O)[C@@H](O[C@@H]2O[C@@H](CO)[C@@H](O)[C@H](O)[C@H]2O)[C@H]1O
REMARK SMILES IDX 1 1 2 2 54 3 41 4 39 5 4 6 3 7 55 8 42 10 43 11 52 12 44 13
REMARK SMILES IDX 50 14 45 15 48 16 53 17 51 19 46 21 47 22 49 24 5 26 6 27
REMARK SMILES IDX 7 28 35 29 8 30 11 31 36 32 9 33 12 34 10 35 16 36 13 37
REMARK SMILES IDX 14 38 17 39 15 40 33 41 18 42 19 43 32 44 34 45 29 46 20 47
REMARK SMILES IDX 30 48 22 49 28 50 21 51 23 52 25 53 24 54 26 55 27 56 37 57
REMARK SMILES IDX 38 58 31 60 40 62
REMARK H PARENT 55 9 53 18 51 20 47 23 49 25 38 59 31 61 40 63
REMARK Flexibility Score: inf
ROOT
ATOM      1  C   UNL     1       3.712  -2.920  -6.361  1.00  0.00     0.041 C 
ATOM      2  C   UNL     1       5.132  -2.822  -5.785  1.00  0.00     0.150 C 
ATOM      3  C   UNL     1       5.405  -3.907  -4.743  1.00  0.00     0.175 C 
ATOM      4  C   UNL     1       6.869  -3.804  -4.218  1.00  0.00     0.186 C 
ATOM      5  C   UNL     1       7.583  -2.429  -4.498  1.00  0.00     0.202 C 
ATOM      6  C   UNL     1       6.660  -1.270  -5.051  1.00  0.00     0.282 C 
ATOM      7  O   UNL     1       5.286  -1.579  -5.139  1.00  0.00    -0.344 OA
ENDROOT
BRANCH   3   8
ATOM      8  O   UNL     1       4.485  -3.721  -3.707  1.00  0.00    -0.388 OA
ATOM      9  H   UNL     1       4.904  -3.105  -3.045  1.00  0.00     0.211 HD
ENDBRANCH   3   8
BRANCH   4  10
ATOM     10  O   UNL     1       7.010  -4.091  -2.838  1.00  0.00    -0.341 OA
BRANCH  10  11
ATOM     11  C   UNL     1       7.055  -5.477  -2.497  1.00  0.00     0.282 C 
ATOM     12  C   UNL     1       8.378  -6.101  -2.966  1.00  0.00     0.202 C 
ATOM     13  O   UNL     1       6.943  -5.653  -1.101  1.00  0.00    -0.341 OA
ATOM     14  C   UNL     1       9.571  -5.443  -2.221  1.00  0.00     0.179 C 
ATOM     15  C   UNL     1       7.884  -4.846  -0.403  1.00  0.00     0.178 C 
ATOM     16  C   UNL     1       9.325  -5.309  -0.699  1.00  0.00     0.177 C 
BRANCH  12  17
ATOM     17  O   UNL     1       8.335  -7.488  -2.752  1.00  0.00    -0.385 OA
ATOM     18  H   UNL     1       9.127  -7.874  -3.197  1.00  0.00     0.211 HD
ENDBRANCH  12  17
BRANCH  14  19
ATOM     19  O   UNL     1       9.809  -4.164  -2.776  1.00  0.00    -0.387 OA
ATOM     20  H   UNL     1      10.794  -4.080  -2.904  1.00  0.00     0.211 HD
ENDBRANCH  14  19
BRANCH  15  21
ATOM     21  C   UNL     1       7.555  -4.845   1.092  1.00  0.00     0.191 C 
BRANCH  21  22
ATOM     22  O   UNL     1       8.696  -4.483   1.834  1.00  0.00    -0.394 OA
ATOM     23  H   UNL     1       9.236  -3.867   1.275  1.00  0.00     0.210 HD
ENDBRANCH  21  22
ENDBRANCH  15  21
BRANCH  16  24
ATOM     24  O   UNL     1       9.646  -6.496  -0.028  1.00  0.00    -0.387 OA
ATOM     25  H   UNL     1       8.903  -7.143  -0.158  1.00  0.00     0.211 HD
ENDBRANCH  16  24
ENDBRANCH  10  11
ENDBRANCH   4  10
BRANCH   6  26
ATOM     26  O   UNL     1       6.900  -0.009  -4.440  1.00  0.00    -0.346 OA
BRANCH  26  27
ATOM     27  C   UNL     1       6.876   1.194  -5.226  1.00  0.00     0.130 C 
ATOM     28  C   UNL     1       5.569   2.014  -5.371  1.00  0.00     0.033 C 
ATOM     29  C   UNL     1       7.649   1.055  -6.588  1.00  0.00     0.020 C 
ATOM     30  C   UNL     1       5.854   3.449  -5.905  1.00  0.00     0.010 C 
ATOM     31  C   UNL     1       7.986   2.547  -7.079  1.00  0.00     0.006 C 
ATOM     32  C   UNL     1       8.970   0.249  -6.364  1.00  0.00     0.017 C 
ATOM     33  C   UNL     1       6.733   3.533  -7.202  1.00  0.00    -0.022 C 
ATOM     34  C   UNL     1       9.157   3.153  -6.233  1.00  0.00     0.005 C 
ATOM     35  C   UNL     1       5.839   3.089  -8.428  1.00  0.00     0.012 C 
ATOM     36  C   UNL     1       7.192   5.050  -7.512  1.00  0.00     0.024 C 
ATOM     37  C   UNL     1       9.014   4.612  -5.803  1.00  0.00     0.008 C 
ATOM     38  C   UNL     1       8.579   5.592  -6.927  1.00  0.00    -0.017 C 
ATOM     39  C   UNL     1       6.021   6.011  -7.422  1.00  0.00    -0.024 C 
ATOM     40  C   UNL     1       9.635   5.383  -8.078  1.00  0.00     0.013 C 
ATOM     41  C   UNL     1       8.592   7.165  -6.373  1.00  0.00     0.009 C 
ATOM     42  C   UNL     1       6.190   7.318  -7.377  1.00  0.00     0.005 C 
ATOM     43  C   UNL     1       7.184   7.943  -6.458  1.00  0.00     0.096 C 
ATOM     44  C   UNL     1       9.125   7.324  -4.886  1.00  0.00     0.043 C 
ATOM     45  C   UNL     1       9.657   8.004  -7.200  1.00  0.00     0.015 C 
ATOM     46  C   UNL     1       6.462   8.215  -5.124  1.00  0.00     0.037 C 
ATOM     47  O   UNL     1       7.421   9.274  -6.923  1.00  0.00    -0.369 OA
ATOM     48  C   UNL     1       8.785   8.644  -4.138  1.00  0.00     0.124 C 
ATOM     49  C   UNL     1       7.370   9.253  -4.524  1.00  0.00     0.026 C 
ATOM     50  C   UNL     1       5.955   7.169  -4.114  1.00  0.00     0.014 C 
ATOM     51  C   UNL     1       7.526  10.124  -5.794  1.00  0.00     0.171 C 
ATOM     52  C   UNL     1       6.660   9.999  -3.331  1.00  0.00     0.013 C 
ATOM     53  C   UNL     1       5.149   7.877  -2.949  1.00  0.00    -0.035 C 
ATOM     54  C   UNL     1       5.248   9.445  -2.984  1.00  0.00     0.007 C 
ATOM     55  C   UNL     1       3.648   7.493  -3.076  1.00  0.00     0.011 C 
ATOM     56  C   UNL     1       5.650   7.381  -1.587  1.00  0.00     0.011 C 
BRANCH  29  57
ATOM     57  C   UNL     1       6.862   0.277  -7.703  1.00  0.00     0.165 C 
BRANCH  57  58
ATOM     58  O   UNL     1       7.706  -0.426  -8.575  1.00  0.00    -0.396 OA
ATOM     59  H   UNL     1       7.365  -0.277  -9.497  1.00  0.00     0.210 HD
ENDBRANCH  57  58
ENDBRANCH  29  57
BRANCH  48  60
ATOM     60  O   UNL     1       8.861   8.385  -2.758  1.00  0.00    -0.392 OA
ATOM     61  H   UNL     1       9.294   7.492  -2.654  1.00  0.00     0.210 HD
ENDBRANCH  48  60
ENDBRANCH  26  27
ENDBRANCH   6  26
BRANCH   5  62
ATOM     62  O   UNL     1       8.287  -1.995  -3.362  1.00  0.00    -0.385 OA
ATOM     63  H   UNL     1       7.645  -1.932  -2.617  1.00  0.00     0.211 HD
ENDBRANCH   5  62
TORSDOF 14
ENDMDL
MODEL 3
REMARK VINA RESULT:    -7.257      1.803      2.888
REMARK INTER + INTRA:         -12.828
REMARK INTER:                 -10.423
REMARK INTRA:                  -2.404
REMARK UNBOUND:                -1.329
REMARK SMILES C[C@H]1O[C@@H](O[C@@H]2CC[C@]3(C)[C@@H](CC[C@@]4(C)[C@@H]3C=C[C@@]35OC[C@]6(CCC(C)(C)C[C@@H]63)[C@@H](O)C[C@@]45C)[C@]2(C)CO)[C@@H](O)[C@@H](O[C@@H]2O[C@@H](CO)[C@@H](O)[C@H](O)[C@H]2O)[C@H]1O
REMARK SMILES IDX 1 1 2 2 54 3 41 4 39 5 4 6 3 7 55 8 42 10 43 11 52 12 44 13
REMARK SMILES IDX 50 14 45 15 48 16 53 17 51 19 46 21 47 22 49 24 5 26 6 27
REMARK SMILES IDX 7 28 35 29 8 30 11 31 36 32 9 33 12 34 10 35 16 36 13 37
REMARK SMILES IDX 14 38 17 39 15 40 33 41 18 42 19 43 32 44 34 45 29 46 20 47
REMARK SMILES IDX 30 48 22 49 28 50 21 51 23 52 25 53 24 54 26 55 27 56 37 57
REMARK SMILES IDX 38 58 31 60 40 62
REMARK H PARENT 55 9 53 18 51 20 47 23 49 25 38 59 31 61 40 63
REMARK Flexibility Score: inf
ROOT
ATOM      1  C   UNL     1       9.113   1.985  -3.375  1.00  0.00     0.041 C 
ATOM      2  C   UNL     1       9.022   3.338  -4.095  1.00  0.00     0.150 C 
ATOM      3  C   UNL     1       8.397   4.418  -3.212  1.00  0.00     0.175 C 
ATOM      4  C   UNL     1       8.364   5.785  -3.960  1.00  0.00     0.186 C 
ATOM      5  C   UNL     1       8.542   5.695  -5.522  1.00  0.00     0.202 C 
ATOM      6  C   UNL     1       8.491   4.240  -6.142  1.00  0.00     0.282 C 
ATOM      7  O   UNL     1       8.197   3.203  -5.231  1.00  0.00    -0.344 OA
ENDROOT
BRANCH   3   8
ATOM      8  O   UNL     1       7.105   3.989  -2.892  1.00  0.00    -0.388 OA
ATOM      9  H   UNL     1       7.054   3.016  -3.103  1.00  0.00     0.211 HD
ENDBRANCH   3   8
BRANCH   4  10
ATOM     10  O   UNL     1       7.206   6.558  -3.701  1.00  0.00    -0.341 OA
BRANCH  10  11
ATOM     11  C   UNL     1       7.254   7.368  -2.526  1.00  0.00     0.282 C 
ATOM     12  C   UNL     1       7.506   8.836  -2.898  1.00  0.00     0.202 C 
ATOM     13  O   UNL     1       6.040   7.285  -1.811  1.00  0.00    -0.341 OA
ATOM     14  C   UNL     1       6.322   9.384  -3.739  1.00  0.00     0.179 C 
ATOM     15  C   UNL     1       4.926   7.544  -2.657  1.00  0.00     0.178 C 
ATOM     16  C   UNL     1       4.943   9.007  -3.148  1.00  0.00     0.177 C 
BRANCH  12  17
ATOM     17  O   UNL     1       7.696   9.583  -1.724  1.00  0.00    -0.385 OA
ATOM     18  H   UNL     1       6.801   9.765  -1.349  1.00  0.00     0.211 HD
ENDBRANCH  12  17
BRANCH  14  19
ATOM     19  O   UNL     1       6.425   8.882  -5.057  1.00  0.00    -0.387 OA
ATOM     20  H   UNL     1       7.339   8.496  -5.153  1.00  0.00     0.211 HD
ENDBRANCH  14  19
BRANCH  15  21
ATOM     21  C   UNL     1       3.629   7.177  -1.930  1.00  0.00     0.191 C 
BRANCH  21  22
ATOM     22  O   UNL     1       2.528   7.746  -2.598  1.00  0.00    -0.394 OA
ATOM     23  H   UNL     1       2.119   8.413  -1.990  1.00  0.00     0.210 HD
ENDBRANCH  21  22
ENDBRANCH  15  21
BRANCH  16  24
ATOM     24  O   UNL     1       4.559   9.905  -2.144  1.00  0.00    -0.387 OA
ATOM     25  H   UNL     1       4.376  10.787  -2.563  1.00  0.00     0.211 HD
ENDBRANCH  16  24
ENDBRANCH  10  11
ENDBRANCH   4  10
BRANCH   6  26
ATOM     26  O   UNL     1       7.722   4.155  -7.335  1.00  0.00    -0.346 OA
BRANCH  26  27
ATOM     27  C   UNL     1       7.003   2.951  -7.649  1.00  0.00     0.130 C 
ATOM     28  C   UNL     1       7.603   1.907  -8.626  1.00  0.00     0.033 C 
ATOM     29  C   UNL     1       5.471   3.197  -7.905  1.00  0.00     0.020 C 
ATOM     30  C   UNL     1       6.875   0.536  -8.510  1.00  0.00     0.010 C 
ATOM     31  C   UNL     1       4.740   1.779  -7.714  1.00  0.00     0.006 C 
ATOM     32  C   UNL     1       4.924   4.230  -6.867  1.00  0.00     0.017 C 
ATOM     33  C   UNL     1       5.310   0.583  -8.609  1.00  0.00    -0.022 C 
ATOM     34  C   UNL     1       4.644   1.410  -6.194  1.00  0.00     0.005 C 
ATOM     35  C   UNL     1       4.923   0.834 -10.122  1.00  0.00     0.012 C 
ATOM     36  C   UNL     1       4.646  -0.833  -8.210  1.00  0.00     0.024 C 
ATOM     37  C   UNL     1       4.934  -0.042  -5.817  1.00  0.00     0.008 C 
ATOM     38  C   UNL     1       4.218  -1.107  -6.692  1.00  0.00    -0.017 C 
ATOM     39  C   UNL     1       5.336  -1.986  -8.915  1.00  0.00    -0.024 C 
ATOM     40  C   UNL     1       2.688  -0.737  -6.610  1.00  0.00     0.013 C 
ATOM     41  C   UNL     1       4.501  -2.641  -6.101  1.00  0.00     0.009 C 
ATOM     42  C   UNL     1       5.148  -3.241  -8.555  1.00  0.00     0.005 C 
ATOM     43  C   UNL     1       5.215  -3.659  -7.126  1.00  0.00     0.096 C 
ATOM     44  C   UNL     1       5.340  -2.670  -4.753  1.00  0.00     0.043 C 
ATOM     45  C   UNL     1       3.125  -3.292  -5.652  1.00  0.00     0.015 C 
ATOM     46  C   UNL     1       6.681  -4.027  -6.828  1.00  0.00     0.037 C 
ATOM     47  O   UNL     1       4.580  -4.935  -7.021  1.00  0.00    -0.369 OA
ATOM     48  C   UNL     1       6.014  -4.014  -4.356  1.00  0.00     0.124 C 
ATOM     49  C   UNL     1       6.509  -4.874  -5.596  1.00  0.00     0.026 C 
ATOM     50  C   UNL     1       7.883  -3.068  -6.764  1.00  0.00     0.014 C 
ATOM     51  C   UNL     1       5.329  -5.729  -6.119  1.00  0.00     0.171 C 
ATOM     52  C   UNL     1       7.812  -5.709  -5.301  1.00  0.00     0.013 C 
ATOM     53  C   UNL     1       9.227  -3.884  -6.567  1.00  0.00    -0.035 C 
ATOM     54  C   UNL     1       8.993  -5.409  -6.270  1.00  0.00     0.007 C 
ATOM     55  C   UNL     1      10.070  -3.777  -7.868  1.00  0.00     0.011 C 
ATOM     56  C   UNL     1      10.046  -3.278  -5.421  1.00  0.00     0.011 C 
BRANCH  29  57
ATOM     57  C   UNL     1       5.138   3.799  -9.317  1.00  0.00     0.165 C 
BRANCH  57  58
ATOM     58  O   UNL     1       5.483   5.153  -9.427  1.00  0.00    -0.396 OA
ATOM     59  H   UNL     1       5.592   5.351 -10.395  1.00  0.00     0.210 HD
ENDBRANCH  57  58
ENDBRANCH  29  57
BRANCH  48  60
ATOM     60  O   UNL     1       7.083  -3.717  -3.493  1.00  0.00    -0.392 OA
ATOM     61  H   UNL     1       7.923  -3.849  -4.016  1.00  0.00     0.210 HD
ENDBRANCH  48  60
ENDBRANCH  26  27
ENDBRANCH   6  26
BRANCH   5  62
ATOM     62  O   UNL     1       7.628   6.538  -6.176  1.00  0.00    -0.385 OA
ATOM     63  H   UNL     1       6.719   6.225  -5.955  1.00  0.00     0.211 HD
ENDBRANCH   5  62
TORSDOF 14
ENDMDL
MODEL 4
REMARK VINA RESULT:    -6.801      1.321      1.835
REMARK INTER + INTRA:         -12.105
REMARK INTER:                 -11.035
REMARK INTRA:                  -1.071
REMARK UNBOUND:                -1.329
REMARK SMILES C[C@H]1O[C@@H](O[C@@H]2CC[C@]3(C)[C@@H](CC[C@@]4(C)[C@@H]3C=C[C@@]35OC[C@]6(CCC(C)(C)C[C@@H]63)[C@@H](O)C[C@@]45C)[C@]2(C)CO)[C@@H](O)[C@@H](O[C@@H]2O[C@@H](CO)[C@@H](O)[C@H](O)[C@H]2O)[C@H]1O
REMARK SMILES IDX 1 1 2 2 54 3 41 4 39 5 4 6 3 7 55 8 42 10 43 11 52 12 44 13
REMARK SMILES IDX 50 14 45 15 48 16 53 17 51 19 46 21 47 22 49 24 5 26 6 27
REMARK SMILES IDX 7 28 35 29 8 30 11 31 36 32 9 33 12 34 10 35 16 36 13 37
REMARK SMILES IDX 14 38 17 39 15 40 33 41 18 42 19 43 32 44 34 45 29 46 20 47
REMARK SMILES IDX 30 48 22 49 28 50 21 51 23 52 25 53 24 54 26 55 27 56 37 57
REMARK SMILES IDX 38 58 31 60 40 62
REMARK H PARENT 55 9 53 18 51 20 47 23 49 25 38 59 31 61 40 63
REMARK Flexibility Score: inf
ROOT
ATOM      1  C   UNL     1       9.872   2.085  -6.573  1.00  0.00     0.041 C 
ATOM      2  C   UNL     1       8.563   2.867  -6.753  1.00  0.00     0.150 C 
ATOM      3  C   UNL     1       8.499   4.096  -5.847  1.00  0.00     0.175 C 
ATOM      4  C   UNL     1       7.179   4.888  -6.092  1.00  0.00     0.186 C 
ATOM      5  C   UNL     1       6.046   4.085  -6.833  1.00  0.00     0.202 C 
ATOM      6  C   UNL     1       6.303   2.534  -7.015  1.00  0.00     0.282 C 
ATOM      7  O   UNL     1       7.476   2.039  -6.406  1.00  0.00    -0.344 OA
ENDROOT
BRANCH   3   8
ATOM      8  O   UNL     1       8.572   3.636  -4.528  1.00  0.00    -0.388 OA
ATOM      9  H   UNL     1       9.434   3.145  -4.432  1.00  0.00     0.211 HD
ENDBRANCH   3   8
BRANCH   4  10
ATOM     10  O   UNL     1       6.615   5.449  -4.919  1.00  0.00    -0.341 OA
BRANCH  10  11
ATOM     11  C   UNL     1       7.225   6.653  -4.455  1.00  0.00     0.282 C 
ATOM     12  C   UNL     1       7.043   7.777  -5.484  1.00  0.00     0.202 C 
ATOM     13  O   UNL     1       6.654   7.064  -3.231  1.00  0.00    -0.341 OA
ATOM     14  C   UNL     1       5.535   8.106  -5.653  1.00  0.00     0.179 C 
ATOM     15  C   UNL     1       5.236   7.122  -3.320  1.00  0.00     0.178 C 
ATOM     16  C   UNL     1       4.794   8.228  -4.300  1.00  0.00     0.177 C 
BRANCH  12  17
ATOM     17  O   UNL     1       7.775   8.903  -5.073  1.00  0.00    -0.385 OA
ATOM     18  H   UNL     1       8.003   8.768  -4.123  1.00  0.00     0.211 HD
ENDBRANCH  12  17
BRANCH  14  19
ATOM     19  O   UNL     1       4.930   7.095  -6.435  1.00  0.00    -0.387 OA
ATOM     20  H   UNL     1       5.544   6.906  -7.197  1.00  0.00     0.211 HD
ENDBRANCH  14  19
BRANCH  15  21
ATOM     21  C   UNL     1       4.638   7.295  -1.921  1.00  0.00     0.191 C 
BRANCH  21  22
ATOM     22  O   UNL     1       3.351   6.725  -1.875  1.00  0.00    -0.394 OA
ATOM     23  H   UNL     1       2.814   7.243  -1.222  1.00  0.00     0.210 HD
ENDBRANCH  21  22
ENDBRANCH  15  21
BRANCH  16  24
ATOM     24  O   UNL     1       4.945   9.508  -3.753  1.00  0.00    -0.387 OA
ATOM     25  H   UNL     1       4.163  10.060  -4.020  1.00  0.00     0.211 HD
ENDBRANCH  16  24
ENDBRANCH  10  11
ENDBRANCH   4  10
BRANCH   6  26
ATOM     26  O   UNL     1       5.163   1.732  -6.740  1.00  0.00    -0.346 OA
BRANCH  26  27
ATOM     27  C   UNL     1       5.144   0.345  -7.120  1.00  0.00     0.130 C 
ATOM     28  C   UNL     1       6.447  -0.369  -7.558  1.00  0.00     0.033 C 
ATOM     29  C   UNL     1       3.922  -0.026  -8.037  1.00  0.00     0.020 C 
ATOM     30  C   UNL     1       6.284  -1.917  -7.531  1.00  0.00     0.010 C 
ATOM     31  C   UNL     1       3.738  -1.618  -7.936  1.00  0.00     0.006 C 
ATOM     32  C   UNL     1       2.636   0.700  -7.520  1.00  0.00     0.017 C 
ATOM     33  C   UNL     1       5.033  -2.486  -8.289  1.00  0.00    -0.022 C 
ATOM     34  C   UNL     1       3.097  -2.012  -6.561  1.00  0.00     0.005 C 
ATOM     35  C   UNL     1       5.318  -2.390  -9.841  1.00  0.00     0.012 C 
ATOM     36  C   UNL     1       4.809  -4.054  -7.974  1.00  0.00     0.024 C 
ATOM     37  C   UNL     1       3.675  -3.238  -5.857  1.00  0.00     0.008 C 
ATOM     38  C   UNL     1       3.865  -4.489  -6.757  1.00  0.00    -0.017 C 
ATOM     39  C   UNL     1       6.102  -4.836  -8.113  1.00  0.00    -0.024 C 
ATOM     40  C   UNL     1       2.446  -4.749  -7.394  1.00  0.00     0.013 C 
ATOM     41  C   UNL     1       4.368  -5.796  -5.851  1.00  0.00     0.009 C 
ATOM     42  C   UNL     1       6.227  -6.068  -7.660  1.00  0.00     0.005 C 
ATOM     43  C   UNL     1       5.778  -6.442  -6.289  1.00  0.00     0.096 C 
ATOM     44  C   UNL     1       4.450  -5.508  -4.292  1.00  0.00     0.043 C 
ATOM     45  C   UNL     1       3.269  -6.939  -5.923  1.00  0.00     0.015 C 
ATOM     46  C   UNL     1       6.970  -6.210  -5.341  1.00  0.00     0.037 C 
ATOM     47  O   UNL     1       5.662  -7.866  -6.248  1.00  0.00    -0.369 OA
ATOM     48  C   UNL     1       5.294  -6.485  -3.425  1.00  0.00     0.124 C 
ATOM     49  C   UNL     1       6.567  -7.069  -4.174  1.00  0.00     0.026 C 
ATOM     50  C   UNL     1       7.584  -4.857  -4.938  1.00  0.00     0.014 C 
ATOM     51  C   UNL     1       6.143  -8.313  -4.992  1.00  0.00     0.171 C 
ATOM     52  C   UNL     1       7.793  -7.331  -3.218  1.00  0.00     0.013 C 
ATOM     53  C   UNL     1       8.881  -5.084  -4.055  1.00  0.00    -0.035 C 
ATOM     54  C   UNL     1       9.093  -6.582  -3.631  1.00  0.00     0.007 C 
ATOM     55  C   UNL     1      10.125  -4.641  -4.875  1.00  0.00     0.011 C 
ATOM     56  C   UNL     1       8.814  -4.218  -2.792  1.00  0.00     0.011 C 
BRANCH  29  57
ATOM     57  C   UNL     1       4.081   0.413  -9.537  1.00  0.00     0.165 C 
BRANCH  57  58
ATOM     58  O   UNL     1       4.314   1.788  -9.681  1.00  0.00    -0.396 OA
ATOM     59  H   UNL     1       3.686   2.258  -9.071  1.00  0.00     0.210 HD
ENDBRANCH  57  58
ENDBRANCH  29  57
BRANCH  48  60
ATOM     60  O   UNL     1       5.669  -5.802  -2.254  1.00  0.00    -0.392 OA
ATOM     61  H   UNL     1       4.943  -5.952  -1.587  1.00  0.00     0.210 HD
ENDBRANCH  48  60
ENDBRANCH  26  27
ENDBRANCH   6  26
BRANCH   5  62
ATOM     62  O   UNL     1       4.800   4.306  -6.224  1.00  0.00    -0.385 OA
ATOM     63  H   UNL     1       4.160   3.661  -6.607  1.00  0.00     0.211 HD
ENDBRANCH   5  62
TORSDOF 14
ENDMDL
MODEL 5
REMARK VINA RESULT:    -6.092      3.792     10.279
REMARK INTER + INTRA:         -10.983
REMARK INTER:                  -9.298
REMARK INTRA:                  -1.684
REMARK UNBOUND:                -1.329
REMARK SMILES C[C@H]1O[C@@H](O[C@@H]2CC[C@]3(C)[C@@H](CC[C@@]4(C)[C@@H]3C=C[C@@]35OC[C@]6(CCC(C)(C)C[C@@H]63)[C@@H](O)C[C@@]45C)[C@]2(C)CO)[C@@H](O)[C@@H](O[C@@H]2O[C@@H](CO)[C@@H](O)[C@H](O)[C@H]2O)[C@H]1O
REMARK SMILES IDX 1 1 2 2 54 3 41 4 39 5 4 6 3 7 55 8 42 10 43 11 52 12 44 13
REMARK SMILES IDX 50 14 45 15 48 16 53 17 51 19 46 21 47 22 49 24 5 26 6 27
REMARK SMILES IDX 7 28 35 29 8 30 11 31 36 32 9 33 12 34 10 35 16 36 13 37
REMARK SMILES IDX 14 38 17 39 15 40 33 41 18 42 19 43 32 44 34 45 29 46 20 47
REMARK SMILES IDX 30 48 22 49 28 50 21 51 23 52 25 53 24 54 26 55 27 56 37 57
REMARK SMILES IDX 38 58 31 60 40 62
REMARK H PARENT 55 9 53 18 51 20 47 23 49 25 38 59 31 61 40 63
REMARK Flexibility Score: inf
ROOT
ATOM      1  C   UNL     1       2.577  -4.924  -6.145  1.00  0.00     0.041 C 
ATOM      2  C   UNL     1       3.583  -6.071  -5.973  1.00  0.00     0.150 C 
ATOM      3  C   UNL     1       4.076  -6.191  -4.531  1.00  0.00     0.175 C 
ATOM      4  C   UNL     1       5.057  -7.394  -4.387  1.00  0.00     0.186 C 
ATOM      5  C   UNL     1       5.662  -7.927  -5.739  1.00  0.00     0.202 C 
ATOM      6  C   UNL     1       5.388  -7.038  -7.018  1.00  0.00     0.282 C 
ATOM      7  O   UNL     1       4.713  -5.822  -6.778  1.00  0.00    -0.344 OA
ENDROOT
BRANCH   3   8
ATOM      8  O   UNL     1       4.709  -4.985  -4.212  1.00  0.00    -0.388 OA
ATOM      9  H   UNL     1       4.988  -4.561  -5.070  1.00  0.00     0.211 HD
ENDBRANCH   3   8
BRANCH   4  10
ATOM     10  O   UNL     1       6.133  -7.159  -3.495  1.00  0.00    -0.341 OA
BRANCH  10  11
ATOM     11  C   UNL     1       5.768  -6.686  -2.198  1.00  0.00     0.282 C 
ATOM     12  C   UNL     1       6.178  -7.703  -1.123  1.00  0.00     0.202 C 
ATOM     13  O   UNL     1       6.399  -5.454  -1.919  1.00  0.00    -0.341 OA
ATOM     14  C   UNL     1       7.722  -7.858  -1.097  1.00  0.00     0.179 C 
ATOM     15  C   UNL     1       7.802  -5.533  -2.142  1.00  0.00     0.178 C 
ATOM     16  C   UNL     1       8.461  -6.499  -1.136  1.00  0.00     0.177 C 
BRANCH  12  17
ATOM     17  O   UNL     1       5.679  -7.284   0.121  1.00  0.00    -0.385 OA
ATOM     18  H   UNL     1       5.321  -8.085   0.573  1.00  0.00     0.211 HD
ENDBRANCH  12  17
BRANCH  14  19
ATOM     19  O   UNL     1       8.123  -8.646  -2.201  1.00  0.00    -0.387 OA
ATOM     20  H   UNL     1       8.391  -9.536  -1.842  1.00  0.00     0.211 HD
ENDBRANCH  14  19
BRANCH  15  21
ATOM     21  C   UNL     1       8.410  -4.128  -2.103  1.00  0.00     0.191 C 
BRANCH  21  22
ATOM     22  O   UNL     1       8.096  -3.503  -0.881  1.00  0.00    -0.394 OA
ATOM     23  H   UNL     1       8.538  -2.616  -0.874  1.00  0.00     0.210 HD
ENDBRANCH  21  22
ENDBRANCH  15  21
BRANCH  16  24
ATOM     24  O   UNL     1       8.561  -5.939   0.144  1.00  0.00    -0.387 OA
ATOM     25  H   UNL     1       8.106  -5.056   0.139  1.00  0.00     0.211 HD
ENDBRANCH  16  24
ENDBRANCH  10  11
ENDBRANCH   4  10
BRANCH   6  26
ATOM     26  O   UNL     1       6.526  -6.876  -7.855  1.00  0.00    -0.346 OA
BRANCH  26  27
ATOM     27  C   UNL     1       7.072  -5.568  -8.091  1.00  0.00     0.130 C 
ATOM     28  C   UNL     1       6.610  -4.730  -9.311  1.00  0.00     0.033 C 
ATOM     29  C   UNL     1       8.628  -5.502  -7.876  1.00  0.00     0.020 C 
ATOM     30  C   UNL     1       7.006  -3.233  -9.154  1.00  0.00     0.010 C 
ATOM     31  C   UNL     1       8.995  -3.954  -7.652  1.00  0.00     0.006 C 
ATOM     32  C   UNL     1       9.020  -6.338  -6.614  1.00  0.00     0.017 C 
ATOM     33  C   UNL     1       8.510  -2.957  -8.803  1.00  0.00    -0.022 C 
ATOM     34  C   UNL     1       8.563  -3.488  -6.219  1.00  0.00     0.005 C 
ATOM     35  C   UNL     1       9.370  -3.206 -10.106  1.00  0.00     0.012 C 
ATOM     36  C   UNL     1       8.752  -1.412  -8.400  1.00  0.00     0.024 C 
ATOM     37  C   UNL     1       7.912  -2.110  -6.110  1.00  0.00     0.008 C 
ATOM     38  C   UNL     1       8.649  -0.969  -6.864  1.00  0.00    -0.017 C 
ATOM     39  C   UNL     1       8.104  -0.471  -9.398  1.00  0.00    -0.024 C 
ATOM     40  C   UNL     1      10.125  -1.006  -6.313  1.00  0.00     0.013 C 
ATOM     41  C   UNL     1       7.925   0.502  -6.558  1.00  0.00     0.009 C 
ATOM     42  C   UNL     1       7.943   0.813  -9.147  1.00  0.00     0.005 C 
ATOM     43  C   UNL     1       7.377   1.288  -7.852  1.00  0.00     0.096 C 
ATOM     44  C   UNL     1       6.732   0.430  -5.513  1.00  0.00     0.043 C 
ATOM     45  C   UNL     1       8.960   1.451  -5.818  1.00  0.00     0.015 C 
ATOM     46  C   UNL     1       5.847   1.358  -8.023  1.00  0.00     0.037 C 
ATOM     47  O   UNL     1       7.706   2.673  -7.722  1.00  0.00    -0.369 OA
ATOM     48  C   UNL     1       5.736   1.624  -5.479  1.00  0.00     0.124 C 
ATOM     49  C   UNL     1       5.485   2.290  -6.900  1.00  0.00     0.026 C 
ATOM     50  C   UNL     1       4.878   0.173  -8.190  1.00  0.00     0.014 C 
ATOM     51  C   UNL     1       6.589   3.343  -7.164  1.00  0.00     0.171 C 
ATOM     52  C   UNL     1       4.022   2.849  -7.082  1.00  0.00     0.013 C 
ATOM     53  C   UNL     1       3.411   0.700  -8.475  1.00  0.00    -0.035 C 
ATOM     54  C   UNL     1       3.261   2.254  -8.302  1.00  0.00     0.007 C 
ATOM     55  C   UNL     1       3.029   0.345  -9.939  1.00  0.00     0.011 C 
ATOM     56  C   UNL     1       2.412   0.001  -7.544  1.00  0.00     0.011 C 
BRANCH  29  57
ATOM     57  C   UNL     1       9.472  -6.099  -9.058  1.00  0.00     0.165 C 
BRANCH  57  58
ATOM     58  O   UNL     1       8.730  -6.962  -9.877  1.00  0.00    -0.396 OA
ATOM     59  H   UNL     1       9.075  -7.881  -9.725  1.00  0.00     0.210 HD
ENDBRANCH  57  58
ENDBRANCH  29  57
BRANCH  48  60
ATOM     60  O   UNL     1       4.530   1.159  -4.924  1.00  0.00    -0.392 OA
ATOM     61  H   UNL     1       3.859   1.142  -5.662  1.00  0.00     0.210 HD
ENDBRANCH  48  60
ENDBRANCH  26  27
ENDBRANCH   6  26
BRANCH   5  62
ATOM     62  O   UNL     1       7.038  -8.179  -5.604  1.00  0.00    -0.385 OA
ATOM     63  H   UNL     1       7.518  -7.542  -6.184  1.00  0.00     0.211 HD
ENDBRANCH   5  62
TORSDOF 14
ENDMDL
MODEL 6
REMARK VINA RESULT:    -6.054      1.824      2.633
REMARK INTER + INTRA:         -10.922
REMARK INTER:                  -9.739
REMARK INTRA:                  -1.183
REMARK UNBOUND:                -1.329
REMARK SMILES C[C@H]1O[C@@H](O[C@@H]2CC[C@]3(C)[C@@H](CC[C@@]4(C)[C@@H]3C=C[C@@]35OC[C@]6(CCC(C)(C)C[C@@H]63)[C@@H](O)C[C@@]45C)[C@]2(C)CO)[C@@H](O)[C@@H](O[C@@H]2O[C@@H](CO)[C@@H](O)[C@H](O)[C@H]2O)[C@H]1O
REMARK SMILES IDX 1 1 2 2 54 3 41 4 39 5 4 6 3 7 55 8 42 10 43 11 52 12 44 13
REMARK SMILES IDX 50 14 45 15 48 16 53 17 51 19 46 21 47 22 49 24 5 26 6 27
REMARK SMILES IDX 7 28 35 29 8 30 11 31 36 32 9 33 12 34 10 35 16 36 13 37
REMARK SMILES IDX 14 38 17 39 15 40 33 41 18 42 19 43 32 44 34 45 29 46 20 47
REMARK SMILES IDX 30 48 22 49 28 50 21 51 23 52 25 53 24 54 26 55 27 56 37 57
REMARK SMILES IDX 38 58 31 60 40 62
REMARK H PARENT 55 9 53 18 51 20 47 23 49 25 38 59 31 61 40 63
REMARK Flexibility Score: inf
ROOT
ATOM      1  C   UNL     1       8.875   1.618  -4.571  1.00  0.00     0.041 C 
ATOM      2  C   UNL     1       8.599   2.917  -5.342  1.00  0.00     0.150 C 
ATOM      3  C   UNL     1       8.154   4.050  -4.417  1.00  0.00     0.175 C 
ATOM      4  C   UNL     1       7.929   5.362  -5.229  1.00  0.00     0.186 C 
ATOM      5  C   UNL     1       7.769   5.165  -6.783  1.00  0.00     0.202 C 
ATOM      6  C   UNL     1       7.620   3.672  -7.280  1.00  0.00     0.282 C 
ATOM      7  O   UNL     1       7.553   2.697  -6.261  1.00  0.00    -0.344 OA
ENDROOT
BRANCH   3   8
ATOM      8  O   UNL     1       6.971   3.633  -3.798  1.00  0.00    -0.388 OA
ATOM      9  H   UNL     1       6.285   3.522  -4.512  1.00  0.00     0.211 HD
ENDBRANCH   3   8
BRANCH   4  10
ATOM     10  O   UNL     1       6.836   6.142  -4.777  1.00  0.00    -0.341 OA
BRANCH  10  11
ATOM     11  C   UNL     1       7.079   7.545  -4.675  1.00  0.00     0.282 C 
ATOM     12  C   UNL     1       5.836   8.266  -4.135  1.00  0.00     0.202 C 
ATOM     13  O   UNL     1       8.164   7.804  -3.809  1.00  0.00    -0.341 OA
ATOM     14  C   UNL     1       5.526   7.785  -2.692  1.00  0.00     0.179 C 
ATOM     15  C   UNL     1       7.992   7.146  -2.559  1.00  0.00     0.178 C 
ATOM     16  C   UNL     1       6.786   7.732  -1.795  1.00  0.00     0.177 C 
BRANCH  12  17
ATOM     17  O   UNL     1       6.049   9.653  -4.184  1.00  0.00    -0.385 OA
ATOM     18  H   UNL     1       6.880   9.836  -3.683  1.00  0.00     0.211 HD
ENDBRANCH  12  17
BRANCH  14  19
ATOM     19  O   UNL     1       4.934   6.502  -2.753  1.00  0.00    -0.387 OA
ATOM     20  H   UNL     1       5.668   5.836  -2.650  1.00  0.00     0.211 HD
ENDBRANCH  14  19
BRANCH  15  21
ATOM     21  C   UNL     1       9.294   7.214  -1.757  1.00  0.00     0.191 C 
BRANCH  21  22
ATOM     22  O   UNL     1       9.592   5.947  -1.219  1.00  0.00    -0.394 OA
ATOM     23  H   UNL     1      10.508   5.988  -0.841  1.00  0.00     0.210 HD
ENDBRANCH  21  22
ENDBRANCH  15  21
BRANCH  16  24
ATOM     24  O   UNL     1       7.071   8.988  -1.245  1.00  0.00    -0.387 OA
ATOM     25  H   UNL     1       8.055   9.125  -1.263  1.00  0.00     0.211 HD
ENDBRANCH  16  24
ENDBRANCH  10  11
ENDBRANCH   4  10
BRANCH   6  26
ATOM     26  O   UNL     1       6.615   3.498  -8.270  1.00  0.00    -0.346 OA
BRANCH  26  27
ATOM     27  C   UNL     1       5.925   2.242  -8.390  1.00  0.00     0.130 C 
ATOM     28  C   UNL     1       6.225   1.289  -9.575  1.00  0.00     0.033 C 
ATOM     29  C   UNL     1       4.386   2.353  -8.088  1.00  0.00     0.020 C 
ATOM     30  C   UNL     1       5.689  -0.147  -9.299  1.00  0.00     0.010 C 
ATOM     31  C   UNL     1       3.877   0.869  -7.743  1.00  0.00     0.006 C 
ATOM     32  C   UNL     1       4.157   3.300  -6.864  1.00  0.00     0.017 C 
ATOM     33  C   UNL     1       4.189  -0.241  -8.850  1.00  0.00    -0.022 C 
ATOM     34  C   UNL     1       4.344   0.447  -6.308  1.00  0.00     0.005 C 
ATOM     35  C   UNL     1       3.282   0.018 -10.119  1.00  0.00     0.012 C 
ATOM     36  C   UNL     1       3.815  -1.725  -8.334  1.00  0.00     0.024 C 
ATOM     37  C   UNL     1       4.857  -0.983  -6.143  1.00  0.00     0.008 C 
ATOM     38  C   UNL     1       3.965  -2.083  -6.781  1.00  0.00    -0.017 C 
ATOM     39  C   UNL     1       4.303  -2.787  -9.301  1.00  0.00    -0.024 C 
ATOM     40  C   UNL     1       2.536  -1.858  -6.155  1.00  0.00     0.013 C 
ATOM     41  C   UNL     1       4.552  -3.601  -6.417  1.00  0.00     0.009 C 
ATOM     42  C   UNL     1       4.347  -4.064  -8.976  1.00  0.00     0.005 C 
ATOM     43  C   UNL     1       4.939  -4.517  -7.684  1.00  0.00     0.096 C 
ATOM     44  C   UNL     1       5.807  -3.593  -5.445  1.00  0.00     0.043 C 
ATOM     45  C   UNL     1       3.472  -4.390  -5.562  1.00  0.00     0.015 C 
ATOM     46  C   UNL     1       6.441  -4.758  -7.932  1.00  0.00     0.037 C 
ATOM     47  O   UNL     1       4.479  -5.849  -7.445  1.00  0.00    -0.369 OA
ATOM     48  C   UNL     1       6.677  -4.881  -5.385  1.00  0.00     0.124 C 
ATOM     49  C   UNL     1       6.773  -5.653  -6.770  1.00  0.00     0.026 C 
ATOM     50  C   UNL     1       7.514  -3.693  -8.227  1.00  0.00     0.014 C 
ATOM     51  C   UNL     1       5.554  -6.598  -6.905  1.00  0.00     0.171 C 
ATOM     52  C   UNL     1       8.157  -6.373  -6.993  1.00  0.00     0.013 C 
ATOM     53  C   UNL     1       8.900  -4.388  -8.555  1.00  0.00    -0.035 C 
ATOM     54  C   UNL     1       8.901  -5.937  -8.289  1.00  0.00     0.007 C 
ATOM     55  C   UNL     1       9.227  -4.164 -10.057  1.00  0.00     0.011 C 
ATOM     56  C   UNL     1      10.018  -3.744  -7.726  1.00  0.00     0.011 C 
BRANCH  29  57
ATOM     57  C   UNL     1       3.538   2.964  -9.260  1.00  0.00     0.165 C 
BRANCH  57  58
ATOM     58  O   UNL     1       2.218   3.252  -8.885  1.00  0.00    -0.396 OA
ATOM     59  H   UNL     1       2.202   3.319  -7.894  1.00  0.00     0.210 HD
ENDBRANCH  57  58
ENDBRANCH  29  57
BRANCH  48  60
ATOM     60  O   UNL     1       7.954  -4.513  -4.927  1.00  0.00    -0.392 OA
ATOM     61  H   UNL     1       7.996  -3.516  -4.956  1.00  0.00     0.210 HD
ENDBRANCH  48  60
ENDBRANCH  26  27
ENDBRANCH   6  26
BRANCH   5  62
ATOM     62  O   UNL     1       6.716   5.954  -7.278  1.00  0.00    -0.385 OA
ATOM     63  H   UNL     1       5.883   5.646  -6.849  1.00  0.00     0.211 HD
ENDBRANCH   5  62
TORSDOF 14
ENDMDL
MODEL 7
REMARK VINA RESULT:    -5.884      3.854     10.904
REMARK INTER + INTRA:         -10.653
REMARK INTER:                  -8.374
REMARK INTRA:                  -2.280
REMARK UNBOUND:                -1.329
REMARK SMILES C[C@H]1O[C@@H](O[C@@H]2CC[C@]3(C)[C@@H](CC[C@@]4(C)[C@@H]3C=C[C@@]35OC[C@]6(CCC(C)(C)C[C@@H]63)[C@@H](O)C[C@@]45C)[C@]2(C)CO)[C@@H](O)[C@@H](O[C@@H]2O[C@@H](CO)[C@@H](O)[C@H](O)[C@H]2O)[C@H]1O
REMARK SMILES IDX 1 1 2 2 54 3 41 4 39 5 4 6 3 7 55 8 42 10 43 11 52 12 44 13
REMARK SMILES IDX 50 14 45 15 48 16 53 17 51 19 46 21 47 22 49 24 5 26 6 27
REMARK SMILES IDX 7 28 35 29 8 30 11 31 36 32 9 33 12 34 10 35 16 36 13 37
REMARK SMILES IDX 14 38 17 39 15 40 33 41 18 42 19 43 32 44 34 45 29 46 20 47
REMARK SMILES IDX 30 48 22 49 28 50 21 51 23 52 25 53 24 54 26 55 27 56 37 57
REMARK SMILES IDX 38 58 31 60 40 62
REMARK H PARENT 55 9 53 18 51 20 47 23 49 25 38 59 31 61 40 63
REMARK Flexibility Score: inf
ROOT
ATOM      1  C   UNL     1       8.054 -10.101  -4.924  1.00  0.00     0.041 C 
ATOM      2  C   UNL     1       6.828  -9.315  -4.439  1.00  0.00     0.150 C 
ATOM      3  C   UNL     1       5.798  -9.114  -5.552  1.00  0.00     0.175 C 
ATOM      4  C   UNL     1       4.550  -8.355  -5.010  1.00  0.00     0.186 C 
ATOM      5  C   UNL     1       4.769  -7.595  -3.649  1.00  0.00     0.202 C 
ATOM      6  C   UNL     1       6.264  -7.504  -3.140  1.00  0.00     0.282 C 
ATOM      7  O   UNL     1       7.236  -8.033  -4.016  1.00  0.00    -0.344 OA
ENDROOT
BRANCH   3   8
ATOM      8  O   UNL     1       6.428  -8.387  -6.567  1.00  0.00    -0.388 OA
ATOM      9  H   UNL     1       6.063  -7.460  -6.538  1.00  0.00     0.211 HD
ENDBRANCH   3   8
BRANCH   4  10
ATOM     10  O   UNL     1       3.986  -7.437  -5.931  1.00  0.00    -0.341 OA
BRANCH  10  11
ATOM     11  C   UNL     1       2.752  -7.838  -6.526  1.00  0.00     0.282 C 
ATOM     12  C   UNL     1       1.602  -6.957  -6.021  1.00  0.00     0.202 C 
ATOM     13  O   UNL     1       2.818  -7.733  -7.933  1.00  0.00    -0.341 OA
ATOM     14  C   UNL     1       1.824  -5.485  -6.461  1.00  0.00     0.179 C 
ATOM     15  C   UNL     1       3.270  -6.444  -8.331  1.00  0.00     0.178 C 
ATOM     16  C   UNL     1       2.240  -5.362  -7.947  1.00  0.00     0.177 C 
BRANCH  12  17
ATOM     17  O   UNL     1       0.385  -7.464  -6.505  1.00  0.00    -0.385 OA
ATOM     18  H   UNL     1       0.483  -8.444  -6.562  1.00  0.00     0.211 HD
ENDBRANCH  12  17
BRANCH  14  19
ATOM     19  O   UNL     1       2.821  -4.906  -5.642  1.00  0.00    -0.387 OA
ATOM     20  H   UNL     1       2.680  -5.255  -4.719  1.00  0.00     0.211 HD
ENDBRANCH  14  19
BRANCH  15  21
ATOM     21  C   UNL     1       3.594  -6.451  -9.827  1.00  0.00     0.191 C 
BRANCH  21  22
ATOM     22  O   UNL     1       4.570  -5.476 -10.111  1.00  0.00    -0.394 OA
ATOM     23  H   UNL     1       4.518  -4.783  -9.404  1.00  0.00     0.210 HD
ENDBRANCH  21  22
ENDBRANCH  15  21
BRANCH  16  24
ATOM     24  O   UNL     1       1.121  -5.376  -8.789  1.00  0.00    -0.387 OA
ATOM     25  H   UNL     1       0.425  -5.955  -8.380  1.00  0.00     0.211 HD
ENDBRANCH  16  24
ENDBRANCH  10  11
ENDBRANCH   4  10
BRANCH   6  26
ATOM     26  O   UNL     1       6.620  -6.222  -2.639  1.00  0.00    -0.346 OA
BRANCH  26  27
ATOM     27  C   UNL     1       7.284  -5.271  -3.488  1.00  0.00     0.130 C 
ATOM     28  C   UNL     1       7.165  -5.373  -5.030  1.00  0.00     0.033 C 
ATOM     29  C   UNL     1       8.751  -4.949  -3.022  1.00  0.00     0.020 C 
ATOM     30  C   UNL     1       7.605  -4.050  -5.723  1.00  0.00     0.010 C 
ATOM     31  C   UNL     1       9.152  -3.549  -3.700  1.00  0.00     0.006 C 
ATOM     32  C   UNL     1       8.794  -4.826  -1.464  1.00  0.00     0.017 C 
ATOM     33  C   UNL     1       9.003  -3.484  -5.290  1.00  0.00    -0.022 C 
ATOM     34  C   UNL     1       8.434  -2.361  -2.972  1.00  0.00     0.005 C 
ATOM     35  C   UNL     1      10.121  -4.384  -5.955  1.00  0.00     0.012 C 
ATOM     36  C   UNL     1       9.241  -1.991  -5.855  1.00  0.00     0.024 C 
ATOM     37  C   UNL     1       7.860  -1.256  -3.858  1.00  0.00     0.008 C 
ATOM     38  C   UNL     1       8.817  -0.731  -4.963  1.00  0.00    -0.017 C 
ATOM     39  C   UNL     1       8.897  -1.895  -7.329  1.00  0.00    -0.024 C 
ATOM     40  C   UNL     1      10.124  -0.297  -4.194  1.00  0.00     0.013 C 
ATOM     41  C   UNL     1       8.134   0.560  -5.769  1.00  0.00     0.009 C 
ATOM     42  C   UNL     1       8.761  -0.736  -7.943  1.00  0.00     0.005 C 
ATOM     43  C   UNL     1       7.945   0.365  -7.356  1.00  0.00     0.096 C 
ATOM     44  C   UNL     1       6.732   1.019  -5.183  1.00  0.00     0.043 C 
ATOM     45  C   UNL     1       9.030   1.852  -5.544  1.00  0.00     0.015 C 
ATOM     46  C   UNL     1       6.502   0.180  -7.864  1.00  0.00     0.037 C 
ATOM     47  O   UNL     1       8.319   1.576  -8.016  1.00  0.00    -0.369 OA
ATOM     48  C   UNL     1       5.829   1.901  -6.091  1.00  0.00     0.124 C 
ATOM     49  C   UNL     1       5.950   1.561  -7.638  1.00  0.00     0.026 C 
ATOM     50  C   UNL     1       5.525  -0.951  -7.491  1.00  0.00     0.014 C 
ATOM     51  C   UNL     1       7.147   2.342  -8.233  1.00  0.00     0.171 C 
ATOM     52  C   UNL     1       4.605   1.767  -8.433  1.00  0.00     0.013 C 
ATOM     53  C   UNL     1       4.197  -0.833  -8.347  1.00  0.00    -0.035 C 
ATOM     54  C   UNL     1       4.107   0.495  -9.181  1.00  0.00     0.007 C 
ATOM     55  C   UNL     1       4.138  -2.025  -9.343  1.00  0.00     0.011 C 
ATOM     56  C   UNL     1       2.971  -0.924  -7.429  1.00  0.00     0.011 C 
BRANCH  29  57
ATOM     57  C   UNL     1       9.805  -6.055  -3.388  1.00  0.00     0.165 C 
BRANCH  57  58
ATOM     58  O   UNL     1       9.669  -7.215  -2.613  1.00  0.00    -0.396 OA
ATOM     59  H   UNL     1       9.787  -6.949  -1.663  1.00  0.00     0.210 HD
ENDBRANCH  57  58
ENDBRANCH  29  57
BRANCH  48  60
ATOM     60  O   UNL     1       4.503   1.754  -5.647  1.00  0.00    -0.392 OA
ATOM     61  H   UNL     1       3.964   2.458  -6.106  1.00  0.00     0.210 HD
ENDBRANCH  48  60
ENDBRANCH  26  27
ENDBRANCH   6  26
BRANCH   5  62
ATOM     62  O   UNL     1       4.189  -6.316  -3.693  1.00  0.00    -0.385 OA
ATOM     63  H   UNL     1       3.557  -6.247  -2.939  1.00  0.00     0.211 HD
ENDBRANCH   5  62
TORSDOF 14
ENDMDL
MODEL 8
REMARK VINA RESULT:    -5.758      1.704      2.471
REMARK INTER + INTRA:         -10.452
REMARK INTER:                 -10.868
REMARK INTRA:                   0.415
REMARK UNBOUND:                -1.329
REMARK SMILES C[C@H]1O[C@@H](O[C@@H]2CC[C@]3(C)[C@@H](CC[C@@]4(C)[C@@H]3C=C[C@@]35OC[C@]6(CCC(C)(C)C[C@@H]63)[C@@H](O)C[C@@]45C)[C@]2(C)CO)[C@@H](O)[C@@H](O[C@@H]2O[C@@H](CO)[C@@H](O)[C@H](O)[C@H]2O)[C@H]1O
REMARK SMILES IDX 1 1 2 2 54 3 41 4 39 5 4 6 3 7 55 8 42 10 43 11 52 12 44 13
REMARK SMILES IDX 50 14 45 15 48 16 53 17 51 19 46 21 47 22 49 24 5 26 6 27
REMARK SMILES IDX 7 28 35 29 8 30 11 31 36 32 9 33 12 34 10 35 16 36 13 37
REMARK SMILES IDX 14 38 17 39 15 40 33 41 18 42 19 43 32 44 34 45 29 46 20 47
REMARK SMILES IDX 30 48 22 49 28 50 21 51 23 52 25 53 24 54 26 55 27 56 37 57
REMARK SMILES IDX 38 58 31 60 40 62
REMARK H PARENT 55 9 53 18 51 20 47 23 49 25 38 59 31 61 40 63
REMARK Flexibility Score: inf
ROOT
ATOM      1  C   UNL     1       6.799   7.044  -9.723  1.00  0.00     0.041 C 
ATOM      2  C   UNL     1       6.347   6.414  -8.397  1.00  0.00     0.150 C 
ATOM      3  C   UNL     1       6.326   7.431  -7.256  1.00  0.00     0.175 C 
ATOM      4  C   UNL     1       5.818   6.767  -5.941  1.00  0.00     0.186 C 
ATOM      5  C   UNL     1       5.860   5.193  -5.929  1.00  0.00     0.202 C 
ATOM      6  C   UNL     1       6.622   4.511  -7.137  1.00  0.00     0.282 C 
ATOM      7  O   UNL     1       7.255   5.400  -8.032  1.00  0.00    -0.344 OA
ENDROOT
BRANCH   3   8
ATOM      8  O   UNL     1       7.634   7.906  -7.107  1.00  0.00    -0.388 OA
ATOM      9  H   UNL     1       7.593   8.902  -7.141  1.00  0.00     0.211 HD
ENDBRANCH   3   8
BRANCH   4  10
ATOM     10  O   UNL     1       6.473   7.225  -4.771  1.00  0.00    -0.341 OA
BRANCH  10  11
ATOM     11  C   UNL     1       6.101   8.530  -4.326  1.00  0.00     0.282 C 
ATOM     12  C   UNL     1       4.871   8.452  -3.409  1.00  0.00     0.202 C 
ATOM     13  O   UNL     1       7.158   9.136  -3.613  1.00  0.00    -0.341 OA
ATOM     14  C   UNL     1       5.213   7.650  -2.126  1.00  0.00     0.179 C 
ATOM     15  C   UNL     1       7.641   8.281  -2.584  1.00  0.00     0.178 C 
ATOM     16  C   UNL     1       6.565   8.069  -1.500  1.00  0.00     0.177 C 
BRANCH  12  17
ATOM     17  O   UNL     1       4.439   9.754  -3.107  1.00  0.00    -0.385 OA
ATOM     18  H   UNL     1       4.096   9.736  -2.182  1.00  0.00     0.211 HD
ENDBRANCH  12  17
BRANCH  14  19
ATOM     19  O   UNL     1       5.245   6.271  -2.441  1.00  0.00    -0.387 OA
ATOM     20  H   UNL     1       4.498   5.840  -1.943  1.00  0.00     0.211 HD
ENDBRANCH  14  19
BRANCH  15  21
ATOM     21  C   UNL     1       8.951   8.840  -2.021  1.00  0.00     0.191 C 
BRANCH  21  22
ATOM     22  O   UNL     1       9.100   8.449  -0.676  1.00  0.00    -0.394 OA
ATOM     23  H   UNL     1       8.600   9.098  -0.117  1.00  0.00     0.210 HD
ENDBRANCH  21  22
ENDBRANCH  15  21
BRANCH  16  24
ATOM     24  O   UNL     1       6.416   9.194  -0.678  1.00  0.00    -0.387 OA
ATOM     25  H   UNL     1       7.239   9.746  -0.747  1.00  0.00     0.211 HD
ENDBRANCH  16  24
ENDBRANCH  10  11
ENDBRANCH   4  10
BRANCH   6  26
ATOM     26  O   UNL     1       7.464   3.435  -6.746  1.00  0.00    -0.346 OA
BRANCH  26  27
ATOM     27  C   UNL     1       7.259   2.121  -7.289  1.00  0.00     0.130 C 
ATOM     28  C   UNL     1       8.426   1.102  -7.348  1.00  0.00     0.033 C 
ATOM     29  C   UNL     1       6.403   2.125  -8.607  1.00  0.00     0.020 C 
ATOM     30  C   UNL     1       7.905  -0.346  -7.583  1.00  0.00     0.010 C 
ATOM     31  C   UNL     1       5.827   0.636  -8.786  1.00  0.00     0.006 C 
ATOM     32  C   UNL     1       5.226   3.146  -8.468  1.00  0.00     0.017 C 
ATOM     33  C   UNL     1       6.919  -0.531  -8.789  1.00  0.00    -0.022 C 
ATOM     34  C   UNL     1       4.658   0.374  -7.776  1.00  0.00     0.005 C 
ATOM     35  C   UNL     1       7.762  -0.454 -10.125  1.00  0.00     0.012 C 
ATOM     36  C   UNL     1       6.236  -1.993  -8.779  1.00  0.00     0.024 C 
ATOM     37  C   UNL     1       4.636  -0.989  -7.086  1.00  0.00     0.008 C 
ATOM     38  C   UNL     1       4.840  -2.209  -8.025  1.00  0.00    -0.017 C 
ATOM     39  C   UNL     1       7.268  -3.086  -8.573  1.00  0.00    -0.024 C 
ATOM     40  C   UNL     1       3.731  -2.056  -9.135  1.00  0.00     0.013 C 
ATOM     41  C   UNL     1       4.659  -3.637  -7.183  1.00  0.00     0.009 C 
ATOM     42  C   UNL     1       6.927  -4.323  -8.271  1.00  0.00     0.005 C 
ATOM     43  C   UNL     1       5.937  -4.618  -7.196  1.00  0.00     0.096 C 
ATOM     44  C   UNL     1       4.234  -3.443  -5.665  1.00  0.00     0.043 C 
ATOM     45  C   UNL     1       3.425  -4.442  -7.774  1.00  0.00     0.015 C 
ATOM     46  C   UNL     1       6.722  -4.749  -5.877  1.00  0.00     0.037 C 
ATOM     47  O   UNL     1       5.483  -5.960  -7.385  1.00  0.00    -0.369 OA
ATOM     48  C   UNL     1       4.451  -4.643  -4.700  1.00  0.00     0.124 C 
ATOM     49  C   UNL     1       5.734  -5.515  -5.041  1.00  0.00     0.026 C 
ATOM     50  C   UNL     1       7.448  -3.626  -5.114  1.00  0.00     0.014 C 
ATOM     51  C   UNL     1       5.357  -6.568  -6.112  1.00  0.00     0.171 C 
ATOM     52  C   UNL     1       6.432  -6.131  -3.769  1.00  0.00     0.013 C 
ATOM     53  C   UNL     1       8.244  -4.224  -3.882  1.00  0.00    -0.035 C 
ATOM     54  C   UNL     1       7.930  -5.740  -3.613  1.00  0.00     0.007 C 
ATOM     55  C   UNL     1       9.767  -4.097  -4.163  1.00  0.00     0.011 C 
ATOM     56  C   UNL     1       7.929  -3.422  -2.613  1.00  0.00     0.011 C 
BRANCH  29  57
ATOM     57  C   UNL     1       7.193   2.564  -9.892  1.00  0.00     0.165 C 
BRANCH  57  58
ATOM     58  O   UNL     1       8.274   3.409  -9.605  1.00  0.00    -0.396 OA
ATOM     59  H   UNL     1       8.142   4.244 -10.128  1.00  0.00     0.210 HD
ENDBRANCH  57  58
ENDBRANCH  29  57
BRANCH  48  60
ATOM     60  O   UNL     1       4.526  -4.131  -3.392  1.00  0.00    -0.392 OA
ATOM     61  H   UNL     1       4.784  -3.170  -3.472  1.00  0.00     0.210 HD
ENDBRANCH  48  60
ENDBRANCH  26  27
ENDBRANCH   6  26
BRANCH   5  62
ATOM     62  O   UNL     1       6.360   4.718  -4.705  1.00  0.00    -0.385 OA
ATOM     63  H   UNL     1       7.334   4.601  -4.804  1.00  0.00     0.211 HD
ENDBRANCH   5  62
TORSDOF 14
ENDMDL
MODEL 9
REMARK VINA RESULT:    -5.490      2.334      5.173
REMARK INTER + INTRA:         -10.029
REMARK INTER:                  -7.897
REMARK INTRA:                  -2.131
REMARK UNBOUND:                -1.329
REMARK SMILES C[C@H]1O[C@@H](O[C@@H]2CC[C@]3(C)[C@@H](CC[C@@]4(C)[C@@H]3C=C[C@@]35OC[C@]6(CCC(C)(C)C[C@@H]63)[C@@H](O)C[C@@]45C)[C@]2(C)CO)[C@@H](O)[C@@H](O[C@@H]2O[C@@H](CO)[C@@H](O)[C@H](O)[C@H]2O)[C@H]1O
REMARK SMILES IDX 1 1 2 2 54 3 41 4 39 5 4 6 3 7 55 8 42 10 43 11 52 12 44 13
REMARK SMILES IDX 50 14 45 15 48 16 53 17 51 19 46 21 47 22 49 24 5 26 6 27
REMARK SMILES IDX 7 28 35 29 8 30 11 31 36 32 9 33 12 34 10 35 16 36 13 37
REMARK SMILES IDX 14 38 17 39 15 40 33 41 18 42 19 43 32 44 34 45 29 46 20 47
REMARK SMILES IDX 30 48 22 49 28 50 21 51 23 52 25 53 24 54 26 55 27 56 37 57
REMARK SMILES IDX 38 58 31 60 40 62
REMARK H PARENT 55 9 53 18 51 20 47 23 49 25 38 59 31 61 40 63
REMARK Flexibility Score: inf
ROOT
ATOM      1  C   UNL     1       2.453   1.805  -9.153  1.00  0.00     0.041 C 
ATOM      2  C   UNL     1       3.416   2.101  -7.995  1.00  0.00     0.150 C 
ATOM      3  C   UNL     1       3.841   3.570  -7.962  1.00  0.00     0.175 C 
ATOM      4  C   UNL     1       4.779   3.840  -6.747  1.00  0.00     0.186 C 
ATOM      5  C   UNL     1       5.428   2.557  -6.107  1.00  0.00     0.202 C 
ATOM      6  C   UNL     1       5.238   1.209  -6.912  1.00  0.00     0.282 C 
ATOM      7  O   UNL     1       4.588   1.335  -8.159  1.00  0.00    -0.344 OA
ENDROOT
BRANCH   3   8
ATOM      8  O   UNL     1       4.493   3.835  -9.170  1.00  0.00    -0.388 OA
ATOM      9  H   UNL     1       5.219   4.490  -8.978  1.00  0.00     0.211 HD
ENDBRANCH   3   8
BRANCH   4  10
ATOM     10  O   UNL     1       5.820   4.763  -7.015  1.00  0.00    -0.341 OA
BRANCH  10  11
ATOM     11  C   UNL     1       5.429   6.135  -7.073  1.00  0.00     0.282 C 
ATOM     12  C   UNL     1       5.035   6.639  -5.677  1.00  0.00     0.202 C 
ATOM     13  O   UNL     1       6.485   6.936  -7.560  1.00  0.00    -0.341 OA
ATOM     14  C   UNL     1       6.260   6.588  -4.726  1.00  0.00     0.179 C 
ATOM     15  C   UNL     1       7.687   6.698  -6.837  1.00  0.00     0.178 C 
ATOM     16  C   UNL     1       7.544   7.162  -5.373  1.00  0.00     0.177 C 
BRANCH  12  17
ATOM     17  O   UNL     1       4.517   7.939  -5.785  1.00  0.00    -0.385 OA
ATOM     18  H   UNL     1       4.950   8.482  -5.084  1.00  0.00     0.211 HD
ENDBRANCH  12  17
BRANCH  14  19
ATOM     19  O   UNL     1       6.485   5.247  -4.337  1.00  0.00    -0.387 OA
ATOM     20  H   UNL     1       6.503   5.230  -3.341  1.00  0.00     0.211 HD
ENDBRANCH  14  19
BRANCH  15  21
ATOM     21  C   UNL     1       8.863   7.363  -7.559  1.00  0.00     0.191 C 
BRANCH  21  22
ATOM     22  O   UNL     1       8.477   8.629  -8.040  1.00  0.00    -0.394 OA
ATOM     23  H   UNL     1       8.869   9.312  -7.439  1.00  0.00     0.210 HD
ENDBRANCH  21  22
ENDBRANCH  15  21
BRANCH  16  24
ATOM     24  O   UNL     1       7.592   8.556  -5.254  1.00  0.00    -0.387 OA
ATOM     25  H   UNL     1       7.904   8.936  -6.117  1.00  0.00     0.211 HD
ENDBRANCH  16  24
ENDBRANCH  10  11
ENDBRANCH   4  10
BRANCH   6  26
ATOM     26  O   UNL     1       6.416   0.417  -6.986  1.00  0.00    -0.346 OA
BRANCH  26  27
ATOM     27  C   UNL     1       6.436  -0.907  -6.429  1.00  0.00     0.130 C 
ATOM     28  C   UNL     1       5.232  -1.434  -5.606  1.00  0.00     0.033 C 
ATOM     29  C   UNL     1       7.815  -1.280  -5.774  1.00  0.00     0.020 C 
ATOM     30  C   UNL     1       5.283  -2.982  -5.451  1.00  0.00     0.010 C 
ATOM     31  C   UNL     1       7.865  -2.883  -5.688  1.00  0.00     0.006 C 
ATOM     32  C   UNL     1       8.983  -0.751  -6.669  1.00  0.00     0.017 C 
ATOM     33  C   UNL     1       6.639  -3.572  -4.928  1.00  0.00    -0.022 C 
ATOM     34  C   UNL     1       8.130  -3.502  -7.103  1.00  0.00     0.005 C 
ATOM     35  C   UNL     1       6.743  -3.260  -3.381  1.00  0.00     0.012 C 
ATOM     36  C   UNL     1       6.678  -5.180  -5.060  1.00  0.00     0.024 C 
ATOM     37  C   UNL     1       7.320  -4.743  -7.475  1.00  0.00     0.008 C 
ATOM     38  C   UNL     1       7.272  -5.851  -6.387  1.00  0.00    -0.017 C 
ATOM     39  C   UNL     1       5.410  -5.811  -4.518  1.00  0.00    -0.024 C 
ATOM     40  C   UNL     1       8.782  -6.166  -6.063  1.00  0.00     0.013 C 
ATOM     41  C   UNL     1       6.481  -7.203  -6.959  1.00  0.00     0.009 C 
ATOM     42  C   UNL     1       5.099  -7.072  -4.751  1.00  0.00     0.005 C 
ATOM     43  C   UNL     1       5.180  -7.652  -6.122  1.00  0.00     0.096 C 
ATOM     44  C   UNL     1       6.046  -7.102  -8.482  1.00  0.00     0.043 C 
ATOM     45  C   UNL     1       7.489  -8.430  -6.980  1.00  0.00     0.015 C 
ATOM     46  C   UNL     1       3.812  -7.424  -6.794  1.00  0.00     0.037 C 
ATOM     47  O   UNL     1       5.189  -9.075  -5.986  1.00  0.00    -0.369 OA
ATOM     48  C   UNL     1       4.957  -8.092  -8.984  1.00  0.00     0.124 C 
ATOM     49  C   UNL     1       3.865  -8.454  -7.888  1.00  0.00     0.026 C 
ATOM     50  C   UNL     1       3.208  -6.077  -7.232  1.00  0.00     0.014 C 
ATOM     51  C   UNL     1       4.392  -9.623  -7.021  1.00  0.00     0.171 C 
ATOM     52  C   UNL     1       2.431  -8.710  -8.490  1.00  0.00     0.013 C 
ATOM     53  C   UNL     1       1.725  -6.283  -7.752  1.00  0.00    -0.035 C 
ATOM     54  C   UNL     1       1.320  -7.794  -7.899  1.00  0.00     0.007 C 
ATOM     55  C   UNL     1       0.747  -5.625  -6.740  1.00  0.00     0.011 C 
ATOM     56  C   UNL     1       1.542  -5.589  -9.107  1.00  0.00     0.011 C 
BRANCH  29  57
ATOM     57  C   UNL     1       8.051  -0.648  -4.355  1.00  0.00     0.165 C 
BRANCH  57  58
ATOM     58  O   UNL     1       7.922   0.748  -4.352  1.00  0.00    -0.396 OA
ATOM     59  H   UNL     1       7.019   0.959  -3.995  1.00  0.00     0.210 HD
ENDBRANCH  57  58
ENDBRANCH  29  57
BRANCH  48  60
ATOM     60  O   UNL     1       4.356  -7.524 -10.122  1.00  0.00    -0.392 OA
ATOM     61  H   UNL     1       3.807  -6.753  -9.805  1.00  0.00     0.210 HD
ENDBRANCH  48  60
ENDBRANCH  26  27
ENDBRANCH   6  26
BRANCH   5  62
ATOM     62  O   UNL     1       6.789   2.773  -5.830  1.00  0.00    -0.385 OA
ATOM     63  H   UNL     1       7.073   2.095  -5.172  1.00  0.00     0.211 HD
ENDBRANCH   5  62
TORSDOF 14
ENDMDL
