MODEL 1
REMARK VINA RESULT:    -4.104      0.000      0.000
REMARK INTER + INTRA:          -6.787
REMARK INTER:                  -6.263
REMARK INTRA:                  -0.524
REMARK UNBOUND:                -0.524
REMARK SMILES O=C([O-])CCCCCCCCC(=O)[O-]
REMARK SMILES IDX 7 1 6 2 5 3 4 4 2 5 1 6 3 7 8 8 9 9 10 10 11 11 12 12 13 13
REMARK SMILES IDX 14 14
REMARK H PARENT
REMARK Flexibility Score: inf
ROOT
ATOM      1  C   UNL     1      -3.943  36.151  20.200  1.00  0.00     0.000 C 
ENDROOT
BRANCH   1   2
ATOM      2  C   UNL     1      -5.175  35.314  19.828  1.00  0.00     0.000 C 
BRANCH   2   3
ATOM      3  C   UNL     1      -6.124  35.079  21.017  1.00  0.00     0.006 C 
BRANCH   3   4
ATOM      4  C   UNL     1      -5.964  36.102  22.157  1.00  0.00     0.053 C 
BRANCH   4   5
ATOM      5  C   UNL     1      -5.747  35.455  23.491  1.00  0.00     0.041 C 
ATOM      6  O   UNL     1      -5.243  34.303  23.564  1.00  0.00    -0.550 OA
ATOM      7  O   UNL     1      -6.124  36.114  24.654  1.00  0.00    -0.550 OA
ENDBRANCH   4   5
ENDBRANCH   3   4
ENDBRANCH   2   3
ENDBRANCH   1   2
BRANCH   1   8
ATOM      8  C   UNL     1      -3.706  37.268  19.173  1.00  0.00     0.000 C 
BRANCH   8   9
ATOM      9  C   UNL     1      -2.220  37.438  18.802  1.00  0.00     0.000 C 
BRANCH   9  10
ATOM     10  C   UNL     1      -1.889  37.210  17.317  1.00  0.00     0.006 C 
BRANCH  10  11
ATOM     11  C   UNL     1      -2.855  36.235  16.631  1.00  0.00     0.053 C 
BRANCH  11  12
ATOM     12  C   UNL     1      -3.307  36.787  15.316  1.00  0.00     0.041 C 
ATOM     13  O   UNL     1      -3.708  37.978  15.233  1.00  0.00    -0.550 OA
ATOM     14  O   UNL     1      -3.334  35.972  14.191  1.00  0.00    -0.550 OA
ENDBRANCH  11  12
ENDBRANCH  10  11
ENDBRANCH   9  10
ENDBRANCH   8   9
ENDBRANCH   1   8
TORSDOF 9
ENDMDL
MODEL 2
REMARK VINA RESULT:    -3.571      2.216      6.896
REMARK INTER + INTRA:          -5.973
REMARK INTER:                  -5.569
REMARK INTRA:                  -0.404
REMARK UNBOUND:                -0.524
REMARK SMILES O=C([O-])CCCCCCCCC(=O)[O-]
REMARK SMILES IDX 7 1 6 2 5 3 4 4 2 5 1 6 3 7 8 8 9 9 10 10 11 11 12 12 13 13
REMARK SMILES IDX 14 14
REMARK H PARENT
REMARK Flexibility Score: inf
ROOT
ATOM      1  C   UNL     1      -4.576  35.366  19.258  1.00  0.00     0.000 C 
ENDROOT
BRANCH   1   2
ATOM      2  C   UNL     1      -3.646  36.585  19.341  1.00  0.00     0.000 C 
BRANCH   2   3
ATOM      3  C   UNL     1      -3.307  37.178  17.961  1.00  0.00     0.006 C 
BRANCH   3   4
ATOM      4  C   UNL     1      -3.253  36.136  16.828  1.00  0.00     0.053 C 
BRANCH   4   5
ATOM      5  C   UNL     1      -3.116  36.760  15.473  1.00  0.00     0.041 C 
ATOM      6  O   UNL     1      -3.755  37.807  15.187  1.00  0.00    -0.550 OA
ATOM      7  O   UNL     1      -2.302  36.170  14.515  1.00  0.00    -0.550 OA
ENDBRANCH   4   5
ENDBRANCH   3   4
ENDBRANCH   2   3
ENDBRANCH   1   2
BRANCH   1   8
ATOM      8  C   UNL     1      -5.749  35.500  20.240  1.00  0.00     0.000 C 
BRANCH   8   9
ATOM      9  C   UNL     1      -5.298  35.848  21.672  1.00  0.00     0.000 C 
BRANCH   9  10
ATOM     10  C   UNL     1      -5.942  37.111  22.269  1.00  0.00     0.006 C 
BRANCH  10  11
ATOM     11  C   UNL     1      -5.734  38.358  21.400  1.00  0.00     0.053 C 
BRANCH  11  12
ATOM     12  C   UNL     1      -5.689  39.587  22.252  1.00  0.00     0.041 C 
ATOM     13  O   UNL     1      -5.301  39.515  23.448  1.00  0.00    -0.550 OA
ATOM     14  O   UNL     1      -6.123  40.804  21.741  1.00  0.00    -0.550 OA
ENDBRANCH  11  12
ENDBRANCH  10  11
ENDBRANCH   9  10
ENDBRANCH   8   9
ENDBRANCH   1   8
TORSDOF 9
ENDMDL
MODEL 3
REMARK VINA RESULT:    -3.543      1.125      1.493
REMARK INTER + INTRA:          -5.931
REMARK INTER:                  -5.581
REMARK INTRA:                  -0.350
REMARK UNBOUND:                -0.524
REMARK SMILES O=C([O-])CCCCCCCCC(=O)[O-]
REMARK SMILES IDX 7 1 6 2 5 3 4 4 2 5 1 6 3 7 8 8 9 9 10 10 11 11 12 12 13 13
REMARK SMILES IDX 14 14
REMARK H PARENT
REMARK Flexibility Score: inf
ROOT
ATOM      1  C   UNL     1      -5.019  36.995  20.316  1.00  0.00     0.000 C 
ENDROOT
BRANCH   1   2
ATOM      2  C   UNL     1      -5.787  35.675  20.473  1.00  0.00     0.000 C 
BRANCH   2   3
ATOM      3  C   UNL     1      -5.846  35.184  21.932  1.00  0.00     0.006 C 
BRANCH   3   4
ATOM      4  C   UNL     1      -6.125  36.298  22.957  1.00  0.00     0.053 C 
BRANCH   4   5
ATOM      5  C   UNL     1      -6.002  35.827  24.373  1.00  0.00     0.041 C 
ATOM      6  O   UNL     1      -6.124  34.604  24.650  1.00  0.00    -0.550 OA
ATOM      7  O   UNL     1      -5.777  36.742  25.394  1.00  0.00    -0.550 OA
ENDBRANCH   4   5
ENDBRANCH   3   4
ENDBRANCH   2   3
ENDBRANCH   1   2
BRANCH   1   8
ATOM      8  C   UNL     1      -3.962  36.888  19.207  1.00  0.00     0.000 C 
BRANCH   8   9
ATOM      9  C   UNL     1      -4.250  35.750  18.209  1.00  0.00     0.000 C 
BRANCH   9  10
ATOM     10  C   UNL     1      -3.373  35.755  16.944  1.00  0.00     0.006 C 
BRANCH  10  11
ATOM     11  C   UNL     1      -3.214  37.153  16.332  1.00  0.00     0.053 C 
BRANCH  11  12
ATOM     12  C   UNL     1      -3.394  37.096  14.848  1.00  0.00     0.041 C 
ATOM     13  O   UNL     1      -2.578  36.455  14.134  1.00  0.00    -0.550 OA
ATOM     14  O   UNL     1      -4.435  37.791  14.247  1.00  0.00    -0.550 OA
ENDBRANCH  11  12
ENDBRANCH  10  11
ENDBRANCH   9  10
ENDBRANCH   8   9
ENDBRANCH   1   8
TORSDOF 9
ENDMDL
MODEL 4
REMARK VINA RESULT:    -3.361      2.335      2.933
REMARK INTER + INTRA:          -5.654
REMARK INTER:                  -5.330
REMARK INTRA:                  -0.324
REMARK UNBOUND:                -0.524
REMARK SMILES O=C([O-])CCCCCCCCC(=O)[O-]
REMARK SMILES IDX 7 1 6 2 5 3 4 4 2 5 1 6 3 7 8 8 9 9 10 10 11 11 12 12 13 13
REMARK SMILES IDX 14 14
REMARK H PARENT
REMARK Flexibility Score: inf
ROOT
ATOM      1  C   UNL     1      -5.675  35.994  20.353  1.00  0.00     0.000 C 
ENDROOT
BRANCH   1   2
ATOM      2  C   UNL     1      -5.393  35.980  21.862  1.00  0.00     0.000 C 
BRANCH   2   3
ATOM      3  C   UNL     1      -5.765  37.304  22.556  1.00  0.00     0.006 C 
BRANCH   3   4
ATOM      4  C   UNL     1      -5.769  38.524  21.616  1.00  0.00     0.053 C 
BRANCH   4   5
ATOM      5  C   UNL     1      -5.775  39.826  22.355  1.00  0.00     0.041 C 
ATOM      6  O   UNL     1      -6.125  40.886  21.772  1.00  0.00    -0.550 OA
ATOM      7  O   UNL     1      -5.370  39.875  23.683  1.00  0.00    -0.550 OA
ENDBRANCH   4   5
ENDBRANCH   3   4
ENDBRANCH   2   3
ENDBRANCH   1   2
BRANCH   1   8
ATOM      8  C   UNL     1      -4.375  35.853  19.548  1.00  0.00     0.000 C 
BRANCH   8   9
ATOM      9  C   UNL     1      -3.816  37.205  19.067  1.00  0.00     0.000 C 
BRANCH   9  10
ATOM     10  C   UNL     1      -2.994  37.145  17.767  1.00  0.00     0.006 C 
BRANCH  10  11
ATOM     11  C   UNL     1      -3.508  36.087  16.782  1.00  0.00     0.053 C 
BRANCH  11  12
ATOM     12  C   UNL     1      -3.128  36.451  15.381  1.00  0.00     0.041 C 
ATOM     13  O   UNL     1      -1.985  36.161  14.938  1.00  0.00    -0.550 OA
ATOM     14  O   UNL     1      -4.019  37.154  14.580  1.00  0.00    -0.550 OA
ENDBRANCH  11  12
ENDBRANCH  10  11
ENDBRANCH   9  10
ENDBRANCH   8   9
ENDBRANCH   1   8
TORSDOF 9
ENDMDL
MODEL 5
REMARK VINA RESULT:    -3.358      1.493      7.453
REMARK INTER + INTRA:          -5.649
REMARK INTER:                  -5.396
REMARK INTRA:                  -0.253
REMARK UNBOUND:                -0.524
REMARK SMILES O=C([O-])CCCCCCCCC(=O)[O-]
REMARK SMILES IDX 7 1 6 2 5 3 4 4 2 5 1 6 3 7 8 8 9 9 10 10 11 11 12 12 13 13
REMARK SMILES IDX 14 14
REMARK H PARENT
REMARK Flexibility Score: inf
ROOT
ATOM      1  C   UNL     1      -5.712  36.156  20.064  1.00  0.00     0.000 C 
ENDROOT
BRANCH   1   2
ATOM      2  C   UNL     1      -4.943  37.457  19.791  1.00  0.00     0.000 C 
BRANCH   2   3
ATOM      3  C   UNL     1      -3.627  37.228  19.025  1.00  0.00     0.006 C 
BRANCH   3   4
ATOM      4  C   UNL     1      -3.780  36.355  17.766  1.00  0.00     0.053 C 
BRANCH   4   5
ATOM      5  C   UNL     1      -2.922  36.820  16.629  1.00  0.00     0.041 C 
ATOM      6  O   UNL     1      -3.449  37.280  15.582  1.00  0.00    -0.550 OA
ATOM      7  O   UNL     1      -1.539  36.722  16.716  1.00  0.00    -0.550 OA
ENDBRANCH   4   5
ENDBRANCH   3   4
ENDBRANCH   2   3
ENDBRANCH   1   2
BRANCH   1   8
ATOM      8  C   UNL     1      -5.083  35.380  21.231  1.00  0.00     0.000 C 
BRANCH   8   9
ATOM      9  C   UNL     1      -6.106  34.992  22.315  1.00  0.00     0.000 C 
BRANCH   9  10
ATOM     10  C   UNL     1      -5.496  34.519  23.647  1.00  0.00     0.006 C 
BRANCH  10  11
ATOM     11  C   UNL     1      -6.125  35.200  24.869  1.00  0.00     0.053 C 
BRANCH  11  12
ATOM     12  C   UNL     1      -5.520  36.552  25.081  1.00  0.00     0.041 C 
ATOM     13  O   UNL     1      -5.904  37.534  24.393  1.00  0.00    -0.550 OA
ATOM     14  O   UNL     1      -4.497  36.718  26.006  1.00  0.00    -0.550 OA
ENDBRANCH  11  12
ENDBRANCH  10  11
ENDBRANCH   9  10
ENDBRANCH   8   9
ENDBRANCH   1   8
TORSDOF 9
ENDMDL
MODEL 6
REMARK VINA RESULT:    -2.896      2.738      3.502
REMARK INTER + INTRA:          -4.943
REMARK INTER:                  -4.578
REMARK INTRA:                  -0.365
REMARK UNBOUND:                -0.524
REMARK SMILES O=C([O-])CCCCCCCCC(=O)[O-]
REMARK SMILES IDX 7 1 6 2 5 3 4 4 2 5 1 6 3 7 8 8 9 9 10 10 11 11 12 12 13 13
REMARK SMILES IDX 14 14
REMARK H PARENT
REMARK Flexibility Score: inf
ROOT
ATOM      1  C   UNL     1      -5.786  35.385  21.120  1.00  0.00     0.000 C 
ENDROOT
BRANCH   1   2
ATOM      2  C   UNL     1      -5.962  36.780  21.737  1.00  0.00     0.000 C 
BRANCH   2   3
ATOM      3  C   UNL     1      -5.262  37.888  20.928  1.00  0.00     0.006 C 
BRANCH   3   4
ATOM      4  C   UNL     1      -6.000  39.239  20.949  1.00  0.00     0.053 C 
BRANCH   4   5
ATOM      5  C   UNL     1      -5.790  39.995  22.226  1.00  0.00     0.041 C 
ATOM      6  O   UNL     1      -5.331  39.410  23.243  1.00  0.00    -0.550 OA
ATOM      7  O   UNL     1      -6.125  41.341  22.301  1.00  0.00    -0.550 OA
ENDBRANCH   4   5
ENDBRANCH   3   4
ENDBRANCH   2   3
ENDBRANCH   1   2
BRANCH   1   8
ATOM      8  C   UNL     1      -4.615  35.365  20.127  1.00  0.00     0.000 C 
BRANCH   8   9
ATOM      9  C   UNL     1      -4.977  34.706  18.783  1.00  0.00     0.000 C 
BRANCH   9  10
ATOM     10  C   UNL     1      -4.220  35.258  17.562  1.00  0.00     0.006 C 
BRANCH  10  11
ATOM     11  C   UNL     1      -3.708  36.689  17.771  1.00  0.00     0.053 C 
BRANCH  11  12
ATOM     12  C   UNL     1      -2.377  36.868  17.113  1.00  0.00     0.041 C 
ATOM     13  O   UNL     1      -2.269  36.769  15.862  1.00  0.00    -0.550 OA
ATOM     14  O   UNL     1      -1.245  37.096  17.885  1.00  0.00    -0.550 OA
ENDBRANCH  11  12
ENDBRANCH  10  11
ENDBRANCH   9  10
ENDBRANCH   8   9
ENDBRANCH   1   8
TORSDOF 9
ENDMDL
