MODEL 1
REMARK VINA RESULT:    -4.170      0.000      0.000
REMARK INTER + INTRA:          -4.292
REMARK INTER:                  -4.292
REMARK INTRA:                   0.000
REMARK UNBOUND:                 0.000
REMARK SMILES CC1(C)[C@H]2CC[C@](C)(C2)[C@@H]1O
REMARK SMILES IDX 1 1 2 2 4 3 5 4 6 5 7 6 9 7 10 8 8 9 3 10 11 11
REMARK H PARENT 11 12
REMARK Flexibility Score: inf
ROOT
ATOM      1  C   UNL     1     151.680 148.137 144.026  1.00  0.00     0.014 C 
ATOM      2  C   UNL     1     151.180 149.172 145.066  1.00  0.00    -0.006 C 
ATOM      3  C   UNL     1     150.361 150.298 144.344  1.00  0.00    -0.002 C 
ATOM      4  C   UNL     1     149.613 151.190 145.359  1.00  0.00     0.005 C 
ATOM      5  C   UNL     1     150.755 151.945 146.058  1.00  0.00     0.010 C 
ATOM      6  C   UNL     1     152.009 151.459 145.291  1.00  0.00    -0.006 C 
ATOM      7  C   UNL     1     151.446 151.264 143.898  1.00  0.00     0.013 C 
ATOM      8  C   UNL     1     152.328 150.001 145.741  1.00  0.00     0.126 C 
ATOM      9  C   UNL     1     153.183 152.443 145.374  1.00  0.00     0.014 C 
ATOM     10  C   UNL     1     150.358 148.395 146.125  1.00  0.00     0.014 C 
ENDROOT
BRANCH   8  11
ATOM     11  O   UNL     1     153.621 149.570 145.373  1.00  0.00    -0.392 OA
ATOM     12  H   UNL     1     154.292 150.075 145.899  1.00  0.00     0.211 HD
ENDBRANCH   8  11
TORSDOF 1
ENDMDL
MODEL 2
REMARK VINA RESULT:    -4.161      1.767      2.847
REMARK INTER + INTRA:          -4.282
REMARK INTER:                  -4.282
REMARK INTRA:                   0.000
REMARK UNBOUND:                 0.000
REMARK SMILES CC1(C)[C@H]2CC[C@](C)(C2)[C@@H]1O
REMARK SMILES IDX 1 1 2 2 4 3 5 4 6 5 7 6 9 7 10 8 8 9 3 10 11 11
REMARK H PARENT 11 12
REMARK Flexibility Score: inf
ROOT
ATOM      1  C   UNL     1     153.120 151.665 144.059  1.00  0.00     0.014 C 
ATOM      2  C   UNL     1     152.079 151.133 145.079  1.00  0.00    -0.006 C 
ATOM      3  C   UNL     1     150.966 150.322 144.329  1.00  0.00    -0.002 C 
ATOM      4  C   UNL     1     150.072 149.544 145.319  1.00  0.00     0.005 C 
ATOM      5  C   UNL     1     149.302 150.665 146.038  1.00  0.00     0.010 C 
ATOM      6  C   UNL     1     149.784 151.939 145.303  1.00  0.00    -0.006 C 
ATOM      7  C   UNL     1     149.995 151.409 143.899  1.00  0.00     0.013 C 
ATOM      8  C   UNL     1     151.236 152.259 145.772  1.00  0.00     0.126 C 
ATOM      9  C   UNL     1     148.790 153.103 145.404  1.00  0.00     0.014 C 
ATOM     10  C   UNL     1     152.854 150.293 146.125  1.00  0.00     0.014 C 
ENDROOT
BRANCH   8  11
ATOM     11  O   UNL     1     151.660 153.563 145.438  1.00  0.00    -0.392 OA
ATOM     12  H   UNL     1     151.337 153.784 144.527  1.00  0.00     0.211 HD
ENDBRANCH   8  11
TORSDOF 1
ENDMDL
MODEL 3
REMARK VINA RESULT:    -4.124      1.737      2.867
REMARK INTER + INTRA:          -4.245
REMARK INTER:                  -4.245
REMARK INTRA:                   0.000
REMARK UNBOUND:                 0.000
REMARK SMILES CC1(C)[C@H]2CC[C@](C)(C2)[C@@H]1O
REMARK SMILES IDX 1 1 2 2 4 3 5 4 6 5 7 6 9 7 10 8 8 9 3 10 11 11
REMARK H PARENT 11 12
REMARK Flexibility Score: inf
ROOT
ATOM      1  C   UNL     1     148.058 149.717 144.440  1.00  0.00     0.014 C 
ATOM      2  C   UNL     1     149.278 150.341 145.166  1.00  0.00    -0.006 C 
ATOM      3  C   UNL     1     150.298 150.896 144.111  1.00  0.00    -0.002 C 
ATOM      4  C   UNL     1     151.383 151.767 144.780  1.00  0.00     0.005 C 
ATOM      5  C   UNL     1     152.196 150.742 145.588  1.00  0.00     0.010 C 
ATOM      6  C   UNL     1     151.531 149.398 145.204  1.00  0.00    -0.006 C 
ATOM      7  C   UNL     1     151.125 149.667 143.770  1.00  0.00     0.013 C 
ATOM      8  C   UNL     1     150.160 149.299 145.939  1.00  0.00     0.126 C 
ATOM      9  C   UNL     1     152.463 148.193 145.389  1.00  0.00     0.014 C 
ATOM     10  C   UNL     1     148.732 151.428 146.125  1.00  0.00     0.014 C 
ENDROOT
BRANCH   8  11
ATOM     11  O   UNL     1     149.616 147.997 145.941  1.00  0.00    -0.392 OA
ATOM     12  H   UNL     1     150.341 147.343 146.109  1.00  0.00     0.211 HD
ENDBRANCH   8  11
TORSDOF 1
ENDMDL
MODEL 4
REMARK VINA RESULT:    -3.505     10.012     11.119
REMARK INTER + INTRA:          -3.607
REMARK INTER:                  -3.607
REMARK INTRA:                   0.000
REMARK UNBOUND:                 0.000
REMARK SMILES CC1(C)[C@H]2CC[C@](C)(C2)[C@@H]1O
REMARK SMILES IDX 1 1 2 2 4 3 5 4 6 5 7 6 9 7 10 8 8 9 3 10 11 11
REMARK H PARENT 11 12
REMARK Flexibility Score: inf
ROOT
ATOM      1  C   UNL     1     148.173 156.214 139.513  1.00  0.00     0.014 C 
ATOM      2  C   UNL     1     147.523 157.450 138.838  1.00  0.00    -0.006 C 
ATOM      3  C   UNL     1     148.638 158.373 138.234  1.00  0.00    -0.002 C 
ATOM      4  C   UNL     1     148.035 159.459 137.318  1.00  0.00     0.005 C 
ATOM      5  C   UNL     1     147.289 160.368 138.309  1.00  0.00     0.010 C 
ATOM      6  C   UNL     1     147.637 159.740 139.680  1.00  0.00    -0.006 C 
ATOM      7  C   UNL     1     149.041 159.230 139.424  1.00  0.00     0.013 C 
ATOM      8  C   UNL     1     146.816 158.425 139.843  1.00  0.00     0.126 C 
ATOM      9  C   UNL     1     147.522 160.734 140.843  1.00  0.00     0.014 C 
ATOM     10  C   UNL     1     146.524 156.919 137.781  1.00  0.00     0.014 C 
ENDROOT
BRANCH   8  11
ATOM     11  O   UNL     1     146.788 157.940 141.168  1.00  0.00    -0.392 OA
ATOM     12  H   UNL     1     145.876 158.056 141.536  1.00  0.00     0.211 HD
ENDBRANCH   8  11
TORSDOF 1
ENDMDL
MODEL 5
REMARK VINA RESULT:    -3.494      8.654     10.268
REMARK INTER + INTRA:          -3.597
REMARK INTER:                  -3.597
REMARK INTRA:                   0.000
REMARK UNBOUND:                 0.000
REMARK SMILES CC1(C)[C@H]2CC[C@](C)(C2)[C@@H]1O
REMARK SMILES IDX 1 1 2 2 4 3 5 4 6 5 7 6 9 7 10 8 8 9 3 10 11 11
REMARK H PARENT 11 12
REMARK Flexibility Score: inf
ROOT
ATOM      1  C   UNL     1     156.221 153.109 139.474  1.00  0.00     0.014 C 
ATOM      2  C   UNL     1     157.468 153.754 138.814  1.00  0.00    -0.006 C 
ATOM      3  C   UNL     1     158.397 152.635 138.226  1.00  0.00    -0.002 C 
ATOM      4  C   UNL     1     159.497 153.234 137.323  1.00  0.00     0.005 C 
ATOM      5  C   UNL     1     160.394 153.980 138.325  1.00  0.00     0.010 C 
ATOM      6  C   UNL     1     159.746 153.636 139.688  1.00  0.00    -0.006 C 
ATOM      7  C   UNL     1     159.236 152.234 139.428  1.00  0.00     0.013 C 
ATOM      8  C   UNL     1     158.431 154.461 139.831  1.00  0.00     0.126 C 
ATOM      9  C   UNL     1     160.724 153.752 140.864  1.00  0.00     0.014 C 
ATOM     10  C   UNL     1     156.954 154.752 137.747  1.00  0.00     0.014 C 
ENDROOT
BRANCH   8  11
ATOM     11  O   UNL     1     157.928 154.493 141.149  1.00  0.00    -0.392 OA
ATOM     12  H   UNL     1     157.992 155.419 141.497  1.00  0.00     0.211 HD
ENDBRANCH   8  11
TORSDOF 1
ENDMDL
MODEL 6
REMARK VINA RESULT:    -3.469      9.223     10.623
REMARK INTER + INTRA:          -3.570
REMARK INTER:                  -3.570
REMARK INTRA:                   0.000
REMARK UNBOUND:                 0.000
REMARK SMILES CC1(C)[C@H]2CC[C@](C)(C2)[C@@H]1O
REMARK SMILES IDX 1 1 2 2 4 3 5 4 6 5 7 6 9 7 10 8 8 9 3 10 11 11
REMARK H PARENT 11 12
REMARK Flexibility Score: inf
ROOT
ATOM      1  C   UNL     1     147.378 160.021 140.174  1.00  0.00     0.014 C 
ATOM      2  C   UNL     1     147.698 158.993 139.058  1.00  0.00    -0.006 C 
ATOM      3  C   UNL     1     146.734 157.761 139.176  1.00  0.00    -0.002 C 
ATOM      4  C   UNL     1     146.825 156.852 137.932  1.00  0.00     0.005 C 
ATOM      5  C   UNL     1     148.232 156.243 138.055  1.00  0.00     0.010 C 
ATOM      6  C   UNL     1     148.734 156.808 139.406  1.00  0.00    -0.006 C 
ATOM      7  C   UNL     1     147.442 156.882 140.194  1.00  0.00     0.013 C 
ATOM      8  C   UNL     1     149.103 158.310 139.206  1.00  0.00     0.126 C 
ATOM      9  C   UNL     1     149.826 155.944 140.050  1.00  0.00     0.014 C 
ATOM     10  C   UNL     1     147.582 159.738 137.705  1.00  0.00     0.014 C 
ENDROOT
BRANCH   8  11
ATOM     11  O   UNL     1     149.877 158.843 140.258  1.00  0.00    -0.392 OA
ATOM     12  H   UNL     1     150.475 158.135 140.611  1.00  0.00     0.211 HD
ENDBRANCH   8  11
TORSDOF 1
ENDMDL
MODEL 7
REMARK VINA RESULT:    -3.467      7.618      9.653
REMARK INTER + INTRA:          -3.569
REMARK INTER:                  -3.569
REMARK INTRA:                   0.000
REMARK UNBOUND:                 0.000
REMARK SMILES CC1(C)[C@H]2CC[C@](C)(C2)[C@@H]1O
REMARK SMILES IDX 1 1 2 2 4 3 5 4 6 5 7 6 9 7 10 8 8 9 3 10 11 11
REMARK H PARENT 11 12
REMARK Flexibility Score: inf
ROOT
ATOM      1  C   UNL     1     153.901 141.251 140.210  1.00  0.00     0.014 C 
ATOM      2  C   UNL     1     153.592 142.269 139.081  1.00  0.00    -0.006 C 
ATOM      3  C   UNL     1     154.558 143.500 139.197  1.00  0.00    -0.002 C 
ATOM      4  C   UNL     1     154.480 144.398 137.943  1.00  0.00     0.005 C 
ATOM      5  C   UNL     1     153.073 145.011 138.049  1.00  0.00     0.010 C 
ATOM      6  C   UNL     1     152.559 144.459 139.400  1.00  0.00    -0.006 C 
ATOM      7  C   UNL     1     153.843 144.390 140.200  1.00  0.00     0.013 C 
ATOM      8  C   UNL     1     152.188 142.957 139.211  1.00  0.00     0.126 C 
ATOM      9  C   UNL     1     151.462 145.331 140.026  1.00  0.00     0.014 C 
ATOM     10  C   UNL     1     153.719 141.511 137.736  1.00  0.00     0.014 C 
ENDROOT
BRANCH   8  11
ATOM     11  O   UNL     1     151.404 142.435 140.261  1.00  0.00    -0.392 OA
ATOM     12  H   UNL     1     150.737 143.115 140.535  1.00  0.00     0.211 HD
ENDBRANCH   8  11
TORSDOF 1
ENDMDL
MODEL 8
REMARK VINA RESULT:    -3.466      9.469     10.644
REMARK INTER + INTRA:          -3.567
REMARK INTER:                  -3.567
REMARK INTRA:                   0.000
REMARK UNBOUND:                 0.000
REMARK SMILES CC1(C)[C@H]2CC[C@](C)(C2)[C@@H]1O
REMARK SMILES IDX 1 1 2 2 4 3 5 4 6 5 7 6 9 7 10 8 8 9 3 10 11 11
REMARK H PARENT 11 12
REMARK Flexibility Score: inf
ROOT
ATOM      1  C   UNL     1     141.250 147.373 140.204  1.00  0.00     0.014 C 
ATOM      2  C   UNL     1     142.271 147.685 139.079  1.00  0.00    -0.006 C 
ATOM      3  C   UNL     1     143.502 146.719 139.195  1.00  0.00    -0.002 C 
ATOM      4  C   UNL     1     144.403 146.802 137.944  1.00  0.00     0.005 C 
ATOM      5  C   UNL     1     145.015 148.208 138.055  1.00  0.00     0.010 C 
ATOM      6  C   UNL     1     144.460 148.719 139.407  1.00  0.00    -0.006 C 
ATOM      7  C   UNL     1     144.389 147.432 140.203  1.00  0.00     0.013 C 
ATOM      8  C   UNL     1     142.958 149.089 139.215  1.00  0.00     0.126 C 
ATOM      9  C   UNL     1     145.329 149.814 140.039  1.00  0.00     0.014 C 
ATOM     10  C   UNL     1     141.517 147.562 137.731  1.00  0.00     0.014 C 
ENDROOT
BRANCH   8  11
ATOM     11  O   UNL     1     142.433 149.870 140.266  1.00  0.00    -0.392 OA
ATOM     12  H   UNL     1     143.178 150.322 140.736  1.00  0.00     0.211 HD
ENDBRANCH   8  11
TORSDOF 1
ENDMDL
MODEL 9
REMARK VINA RESULT:    -3.464      7.951      9.569
REMARK INTER + INTRA:          -3.565
REMARK INTER:                  -3.565
REMARK INTRA:                   0.000
REMARK UNBOUND:                 0.000
REMARK SMILES CC1(C)[C@H]2CC[C@](C)(C2)[C@@H]1O
REMARK SMILES IDX 1 1 2 2 4 3 5 4 6 5 7 6 9 7 10 8 8 9 3 10 11 11
REMARK H PARENT 11 12
REMARK Flexibility Score: inf
ROOT
ATOM      1  C   UNL     1     160.086 153.687 139.885  1.00  0.00     0.014 C 
ATOM      2  C   UNL     1     158.929 153.417 138.889  1.00  0.00    -0.006 C 
ATOM      3  C   UNL     1     157.819 154.513 139.053  1.00  0.00    -0.002 C 
ATOM      4  C   UNL     1     156.790 154.450 137.904  1.00  0.00     0.005 C 
ATOM      5  C   UNL     1     156.055 153.126 138.175  1.00  0.00     0.010 C 
ATOM      6  C   UNL     1     156.693 152.644 139.500  1.00  0.00    -0.006 C 
ATOM      7  C   UNL     1     156.974 153.963 140.190  1.00  0.00     0.013 C 
ATOM      8  C   UNL     1     158.123 152.105 139.191  1.00  0.00     0.126 C 
ATOM      9  C   UNL     1     155.789 151.689 140.290  1.00  0.00     0.014 C 
ATOM     10  C   UNL     1     159.548 153.375 137.470  1.00  0.00     0.014 C 
ENDROOT
BRANCH   8  11
ATOM     11  O   UNL     1     158.674 151.339 140.240  1.00  0.00    -0.392 OA
ATOM     12  H   UNL     1     157.950 150.819 140.675  1.00  0.00     0.211 HD
ENDBRANCH   8  11
TORSDOF 1
ENDMDL
