MODEL 1
REMARK VINA RESULT:    -3.272      0.000      0.000
REMARK INTER + INTRA:          -8.298
REMARK INTER:                  -5.949
REMARK INTRA:                  -2.349
REMARK UNBOUND:                -2.349
REMARK SMILES CCCCCCCCCCCCCCCC(=O)[O-]
REMARK SMILES IDX 9 1 10 2 11 3 12 4 13 5 14 6 15 7 16 8 17 9 18 10 8 11 7 12
REMARK SMILES IDX 6 13 5 14 4 15 3 16 2 17 1 18
REMARK H PARENT
REMARK Flexibility Score: inf
ROOT
ATOM      1  C   UNL     1      17.709   1.691  44.350  1.00  0.00     0.000 C 
ENDROOT
BRANCH   1   2
ATOM      2  C   UNL     1      16.474   2.062  43.510  1.00  0.00     0.000 C 
BRANCH   2   3
ATOM      3  C   UNL     1      16.674   1.989  41.985  1.00  0.00     0.000 C 
BRANCH   3   4
ATOM      4  C   UNL     1      16.291   3.296  41.269  1.00  0.00     0.000 C 
BRANCH   4   5
ATOM      5  C   UNL     1      15.928   3.074  39.791  1.00  0.00     0.000 C 
BRANCH   5   6
ATOM      6  C   UNL     1      15.695   1.594  39.452  1.00  0.00     0.006 C 
BRANCH   6   7
ATOM      7  C   UNL     1      15.888   1.339  37.955  1.00  0.00     0.053 C 
BRANCH   7   8
ATOM      8  C   UNL     1      14.648   0.753  37.358  1.00  0.00     0.041 C 
ATOM      9  O   UNL     1      14.663   0.298  36.185  1.00  0.00    -0.550 OA
ATOM     10  O   UNL     1      13.461   0.757  38.081  1.00  0.00    -0.550 OA
ENDBRANCH   7   8
ENDBRANCH   6   7
ENDBRANCH   5   6
ENDBRANCH   4   5
ENDBRANCH   3   4
ENDBRANCH   2   3
ENDBRANCH   1   2
BRANCH   1  11
ATOM     11  C   UNL     1      18.995   2.374  43.861  1.00  0.00     0.000 C 
BRANCH  11  12
ATOM     12  C   UNL     1      20.022   1.335  43.388  1.00  0.00    -0.000 C 
BRANCH  12  13
ATOM     13  C   UNL     1      19.576  -0.115  43.656  1.00  0.00    -0.000 C 
BRANCH  13  14
ATOM     14  C   UNL     1      19.428  -0.989  42.398  1.00  0.00    -0.000 C 
BRANCH  14  15
ATOM     15  C   UNL     1      20.072  -0.360  41.150  1.00  0.00    -0.000 C 
BRANCH  15  16
ATOM     16  C   UNL     1      19.030  -0.034  40.058  1.00  0.00    -0.000 C 
BRANCH  16  17
ATOM     17  C   UNL     1      19.461   1.104  39.119  1.00  0.00    -0.003 C 
ATOM     18  C   UNL     1      19.648   2.437  39.840  1.00  0.00     0.004 C 
ENDBRANCH  16  17
ENDBRANCH  15  16
ENDBRANCH  14  15
ENDBRANCH  13  14
ENDBRANCH  12  13
ENDBRANCH  11  12
ENDBRANCH   1  11
TORSDOF 14
ENDMDL
MODEL 2
REMARK VINA RESULT:    -3.183      1.962      3.923
REMARK INTER + INTRA:          -8.136
REMARK INTER:                  -6.341
REMARK INTRA:                  -1.795
REMARK UNBOUND:                -2.349
REMARK SMILES CCCCCCCCCCCCCCCC(=O)[O-]
REMARK SMILES IDX 9 1 10 2 11 3 12 4 13 5 14 6 15 7 16 8 17 9 18 10 8 11 7 12
REMARK SMILES IDX 6 13 5 14 4 15 3 16 2 17 1 18
REMARK H PARENT
REMARK Flexibility Score: inf
ROOT
ATOM      1  C   UNL     1      16.893   4.432  39.873  1.00  0.00     0.000 C 
ENDROOT
BRANCH   1   2
ATOM      2  C   UNL     1      16.552   3.465  38.726  1.00  0.00     0.000 C 
BRANCH   2   3
ATOM      3  C   UNL     1      15.109   2.927  38.730  1.00  0.00     0.000 C 
BRANCH   3   4
ATOM      4  C   UNL     1      15.043   1.393  38.824  1.00  0.00     0.000 C 
BRANCH   4   5
ATOM      5  C   UNL     1      15.832   0.699  37.702  1.00  0.00     0.000 C 
BRANCH   5   6
ATOM      6  C   UNL     1      14.967   0.392  36.470  1.00  0.00     0.006 C 
BRANCH   6   7
ATOM      7  C   UNL     1      15.625   0.922  35.194  1.00  0.00     0.053 C 
BRANCH   7   8
ATOM      8  C   UNL     1      15.447  -0.048  34.069  1.00  0.00     0.041 C 
ATOM      9  O   UNL     1      14.300  -0.280  33.607  1.00  0.00    -0.550 OA
ATOM     10  O   UNL     1      16.545  -0.735  33.564  1.00  0.00    -0.550 OA
ENDBRANCH   7   8
ENDBRANCH   6   7
ENDBRANCH   5   6
ENDBRANCH   4   5
ENDBRANCH   3   4
ENDBRANCH   2   3
ENDBRANCH   1   2
BRANCH   1  11
ATOM     11  C   UNL     1      16.084   4.160  41.149  1.00  0.00     0.000 C 
BRANCH  11  12
ATOM     12  C   UNL     1      16.924   3.389  42.178  1.00  0.00    -0.000 C 
BRANCH  12  13
ATOM     13  C   UNL     1      16.754   1.863  42.068  1.00  0.00    -0.000 C 
BRANCH  13  14
ATOM     14  C   UNL     1      17.904   1.134  41.350  1.00  0.00    -0.000 C 
BRANCH  14  15
ATOM     15  C   UNL     1      19.197   1.967  41.289  1.00  0.00    -0.000 C 
BRANCH  15  16
ATOM     16  C   UNL     1      20.252   1.480  42.306  1.00  0.00    -0.000 C 
BRANCH  16  17
ATOM     17  C   UNL     1      20.212   2.240  43.642  1.00  0.00    -0.003 C 
ATOM     18  C   UNL     1      19.440   1.498  44.730  1.00  0.00     0.004 C 
ENDBRANCH  16  17
ENDBRANCH  15  16
ENDBRANCH  14  15
ENDBRANCH  13  14
ENDBRANCH  12  13
ENDBRANCH  11  12
ENDBRANCH   1  11
TORSDOF 14
ENDMDL
MODEL 3
REMARK VINA RESULT:    -3.095      1.603      3.692
REMARK INTER + INTRA:          -7.977
REMARK INTER:                  -6.057
REMARK INTRA:                  -1.919
REMARK UNBOUND:                -2.349
REMARK SMILES CCCCCCCCCCCCCCCC(=O)[O-]
REMARK SMILES IDX 9 1 10 2 11 3 12 4 13 5 14 6 15 7 16 8 17 9 18 10 8 11 7 12
REMARK SMILES IDX 6 13 5 14 4 15 3 16 2 17 1 18
REMARK H PARENT
REMARK Flexibility Score: inf
ROOT
ATOM      1  C   UNL     1      19.815   1.885  41.566  1.00  0.00     0.000 C 
ENDROOT
BRANCH   1   2
ATOM      2  C   UNL     1      18.483   1.116  41.549  1.00  0.00     0.000 C 
BRANCH   2   3
ATOM      3  C   UNL     1      17.470   1.584  40.487  1.00  0.00     0.000 C 
BRANCH   3   4
ATOM      4  C   UNL     1      16.281   2.350  41.092  1.00  0.00     0.000 C 
BRANCH   4   5
ATOM      5  C   UNL     1      15.894   3.587  40.264  1.00  0.00     0.000 C 
BRANCH   5   6
ATOM      6  C   UNL     1      16.184   3.413  38.766  1.00  0.00     0.006 C 
BRANCH   6   7
ATOM      7  C   UNL     1      14.918   3.007  38.007  1.00  0.00     0.053 C 
BRANCH   7   8
ATOM      8  C   UNL     1      15.095   1.666  37.368  1.00  0.00     0.041 C 
ATOM      9  O   UNL     1      15.256   1.573  36.123  1.00  0.00    -0.550 OA
ATOM     10  O   UNL     1      15.033   0.514  38.142  1.00  0.00    -0.550 OA
ENDBRANCH   7   8
ENDBRANCH   6   7
ENDBRANCH   5   6
ENDBRANCH   4   5
ENDBRANCH   3   4
ENDBRANCH   2   3
ENDBRANCH   1   2
BRANCH   1  11
ATOM     11  C   UNL     1      20.464   1.935  42.957  1.00  0.00     0.000 C 
BRANCH  11  12
ATOM     12  C   UNL     1      19.495   1.421  44.033  1.00  0.00    -0.000 C 
BRANCH  12  13
ATOM     13  C   UNL     1      19.556   2.242  45.335  1.00  0.00    -0.000 C 
BRANCH  13  14
ATOM     14  C   UNL     1      18.432   3.280  45.498  1.00  0.00    -0.000 C 
BRANCH  14  15
ATOM     15  C   UNL     1      17.326   3.140  44.437  1.00  0.00    -0.000 C 
BRANCH  15  16
ATOM     16  C   UNL     1      15.940   2.892  45.070  1.00  0.00    -0.000 C 
BRANCH  16  17
ATOM     17  C   UNL     1      15.687   1.420  45.436  1.00  0.00    -0.003 C 
ATOM     18  C   UNL     1      15.912   0.465  44.266  1.00  0.00     0.004 C 
ENDBRANCH  16  17
ENDBRANCH  15  16
ENDBRANCH  14  15
ENDBRANCH  13  14
ENDBRANCH  12  13
ENDBRANCH  11  12
ENDBRANCH   1  11
TORSDOF 14
ENDMDL
MODEL 4
REMARK VINA RESULT:    -3.070      1.344      2.385
REMARK INTER + INTRA:          -7.931
REMARK INTER:                  -5.673
REMARK INTRA:                  -2.258
REMARK UNBOUND:                -2.349
REMARK SMILES CCCCCCCCCCCCCCCC(=O)[O-]
REMARK SMILES IDX 9 1 10 2 11 3 12 4 13 5 14 6 15 7 16 8 17 9 18 10 8 11 7 12
REMARK SMILES IDX 6 13 5 14 4 15 3 16 2 17 1 18
REMARK H PARENT
REMARK Flexibility Score: inf
ROOT
ATOM      1  C   UNL     1      18.100   2.310  44.944  1.00  0.00     0.000 C 
ENDROOT
BRANCH   1   2
ATOM      2  C   UNL     1      17.426   1.115  44.247  1.00  0.00     0.000 C 
BRANCH   2   3
ATOM      3  C   UNL     1      16.408   1.485  43.152  1.00  0.00     0.000 C 
BRANCH   3   4
ATOM      4  C   UNL     1      16.644   2.886  42.565  1.00  0.00     0.000 C 
BRANCH   4   5
ATOM      5  C   UNL     1      17.048   2.844  41.082  1.00  0.00     0.000 C 
BRANCH   5   6
ATOM      6  C   UNL     1      16.113   1.967  40.236  1.00  0.00     0.006 C 
BRANCH   6   7
ATOM      7  C   UNL     1      16.595   1.895  38.785  1.00  0.00     0.053 C 
BRANCH   7   8
ATOM      8  C   UNL     1      15.475   2.205  37.844  1.00  0.00     0.041 C 
ATOM      9  O   UNL     1      15.271   1.477  36.837  1.00  0.00    -0.550 OA
ATOM     10  O   UNL     1      14.684   3.330  38.051  1.00  0.00    -0.550 OA
ENDBRANCH   7   8
ENDBRANCH   6   7
ENDBRANCH   5   6
ENDBRANCH   4   5
ENDBRANCH   3   4
ENDBRANCH   2   3
ENDBRANCH   1   2
BRANCH   1  11
ATOM     11  C   UNL     1      19.596   2.430  44.620  1.00  0.00     0.000 C 
BRANCH  11  12
ATOM     12  C   UNL     1      20.027   1.354  43.612  1.00  0.00    -0.000 C 
BRANCH  12  13
ATOM     13  C   UNL     1      20.556   1.946  42.292  1.00  0.00    -0.000 C 
BRANCH  13  14
ATOM     14  C   UNL     1      20.317   1.071  41.049  1.00  0.00    -0.000 C 
BRANCH  14  15
ATOM     15  C   UNL     1      19.286  -0.045  41.290  1.00  0.00    -0.000 C 
BRANCH  15  16
ATOM     16  C   UNL     1      19.906  -1.452  41.148  1.00  0.00    -0.000 C 
BRANCH  16  17
ATOM     17  C   UNL     1      20.121  -2.165  42.493  1.00  0.00    -0.003 C 
ATOM     18  C   UNL     1      18.858  -2.223  43.349  1.00  0.00     0.004 C 
ENDBRANCH  16  17
ENDBRANCH  15  16
ENDBRANCH  14  15
ENDBRANCH  13  14
ENDBRANCH  12  13
ENDBRANCH  11  12
ENDBRANCH   1  11
TORSDOF 14
ENDMDL
MODEL 5
REMARK VINA RESULT:    -3.022      1.366      2.057
REMARK INTER + INTRA:          -7.845
REMARK INTER:                  -5.701
REMARK INTRA:                  -2.145
REMARK UNBOUND:                -2.349
REMARK SMILES CCCCCCCCCCCCCCCC(=O)[O-]
REMARK SMILES IDX 9 1 10 2 11 3 12 4 13 5 14 6 15 7 16 8 17 9 18 10 8 11 7 12
REMARK SMILES IDX 6 13 5 14 4 15 3 16 2 17 1 18
REMARK H PARENT
REMARK Flexibility Score: inf
ROOT
ATOM      1  C   UNL     1      17.537   3.113  43.166  1.00  0.00     0.000 C 
ENDROOT
BRANCH   1   2
ATOM      2  C   UNL     1      16.806   1.856  42.665  1.00  0.00     0.000 C 
BRANCH   2   3
ATOM      3  C   UNL     1      16.257   1.947  41.229  1.00  0.00     0.000 C 
BRANCH   3   4
ATOM      4  C   UNL     1      17.183   2.730  40.283  1.00  0.00     0.000 C 
BRANCH   4   5
ATOM      5  C   UNL     1      17.591   1.913  39.046  1.00  0.00     0.000 C 
BRANCH   5   6
ATOM      6  C   UNL     1      16.500   0.931  38.596  1.00  0.00     0.006 C 
BRANCH   6   7
ATOM      7  C   UNL     1      15.648   1.535  37.476  1.00  0.00     0.053 C 
BRANCH   7   8
ATOM      8  C   UNL     1      14.278   1.864  37.978  1.00  0.00     0.041 C 
ATOM      9  O   UNL     1      13.989   3.045  38.306  1.00  0.00    -0.550 OA
ATOM     10  O   UNL     1      13.333   0.856  38.131  1.00  0.00    -0.550 OA
ENDBRANCH   7   8
ENDBRANCH   6   7
ENDBRANCH   5   6
ENDBRANCH   4   5
ENDBRANCH   3   4
ENDBRANCH   2   3
ENDBRANCH   1   2
BRANCH   1  11
ATOM     11  C   UNL     1      18.637   2.801  44.191  1.00  0.00     0.000 C 
BRANCH  11  12
ATOM     12  C   UNL     1      19.475   1.593  43.746  1.00  0.00    -0.000 C 
BRANCH  12  13
ATOM     13  C   UNL     1      20.423   1.918  42.577  1.00  0.00    -0.000 C 
BRANCH  13  14
ATOM     14  C   UNL     1      20.343   0.944  41.388  1.00  0.00    -0.000 C 
BRANCH  14  15
ATOM     15  C   UNL     1      19.586  -0.353  41.725  1.00  0.00    -0.000 C 
BRANCH  15  16
ATOM     16  C   UNL     1      19.908  -1.490  40.732  1.00  0.00    -0.000 C 
BRANCH  16  17
ATOM     17  C   UNL     1      19.344  -1.251  39.322  1.00  0.00    -0.003 C 
ATOM     18  C   UNL     1      18.486  -2.408  38.817  1.00  0.00     0.004 C 
ENDBRANCH  16  17
ENDBRANCH  15  16
ENDBRANCH  14  15
ENDBRANCH  13  14
ENDBRANCH  12  13
ENDBRANCH  11  12
ENDBRANCH   1  11
TORSDOF 14
ENDMDL
MODEL 6
REMARK VINA RESULT:    -3.007      1.367      3.295
REMARK INTER + INTRA:          -7.818
REMARK INTER:                  -5.784
REMARK INTRA:                  -2.034
REMARK UNBOUND:                -2.349
REMARK SMILES CCCCCCCCCCCCCCCC(=O)[O-]
REMARK SMILES IDX 9 1 10 2 11 3 12 4 13 5 14 6 15 7 16 8 17 9 18 10 8 11 7 12
REMARK SMILES IDX 6 13 5 14 4 15 3 16 2 17 1 18
REMARK H PARENT
REMARK Flexibility Score: inf
ROOT
ATOM      1  C   UNL     1      19.508   1.992  40.568  1.00  0.00     0.000 C 
ENDROOT
BRANCH   1   2
ATOM      2  C   UNL     1      18.360   1.480  39.679  1.00  0.00     0.000 C 
BRANCH   2   3
ATOM      3  C   UNL     1      17.931   2.435  38.550  1.00  0.00     0.000 C 
BRANCH   3   4
ATOM      4  C   UNL     1      16.689   3.268  38.911  1.00  0.00     0.000 C 
BRANCH   4   5
ATOM      5  C   UNL     1      15.502   2.396  39.352  1.00  0.00     0.000 C 
BRANCH   5   6
ATOM      6  C   UNL     1      14.491   2.154  38.221  1.00  0.00     0.006 C 
BRANCH   6   7
ATOM      7  C   UNL     1      14.557   0.706  37.729  1.00  0.00     0.053 C 
BRANCH   7   8
ATOM      8  C   UNL     1      15.080   0.650  36.328  1.00  0.00     0.041 C 
ATOM      9  O   UNL     1      15.071  -0.435  35.691  1.00  0.00    -0.550 OA
ATOM     10  O   UNL     1      15.623   1.788  35.744  1.00  0.00    -0.550 OA
ENDBRANCH   7   8
ENDBRANCH   6   7
ENDBRANCH   5   6
ENDBRANCH   4   5
ENDBRANCH   3   4
ENDBRANCH   2   3
ENDBRANCH   1   2
BRANCH   1  11
ATOM     11  C   UNL     1      20.351   0.860  41.172  1.00  0.00     0.000 C 
BRANCH  11  12
ATOM     12  C   UNL     1      19.503  -0.019  42.103  1.00  0.00    -0.000 C 
BRANCH  12  13
ATOM     13  C   UNL     1      19.073   0.709  43.390  1.00  0.00    -0.000 C 
BRANCH  13  14
ATOM     14  C   UNL     1      17.585   0.555  43.754  1.00  0.00    -0.000 C 
BRANCH  14  15
ATOM     15  C   UNL     1      16.668   1.480  42.935  1.00  0.00    -0.000 C 
BRANCH  15  16
ATOM     16  C   UNL     1      16.612   2.909  43.516  1.00  0.00    -0.000 C 
BRANCH  16  17
ATOM     17  C   UNL     1      17.007   3.998  42.506  1.00  0.00    -0.003 C 
ATOM     18  C   UNL     1      15.852   4.929  42.146  1.00  0.00     0.004 C 
ENDBRANCH  16  17
ENDBRANCH  15  16
ENDBRANCH  14  15
ENDBRANCH  13  14
ENDBRANCH  12  13
ENDBRANCH  11  12
ENDBRANCH   1  11
TORSDOF 14
ENDMDL
MODEL 7
REMARK VINA RESULT:    -3.004      1.687      3.611
REMARK INTER + INTRA:          -7.812
REMARK INTER:                  -5.330
REMARK INTRA:                  -2.482
REMARK UNBOUND:                -2.349
REMARK SMILES CCCCCCCCCCCCCCCC(=O)[O-]
REMARK SMILES IDX 9 1 10 2 11 3 12 4 13 5 14 6 15 7 16 8 17 9 18 10 8 11 7 12
REMARK SMILES IDX 6 13 5 14 4 15 3 16 2 17 1 18
REMARK H PARENT
REMARK Flexibility Score: inf
ROOT
ATOM      1  C   UNL     1      18.405   0.418  38.003  1.00  0.00     0.000 C 
ENDROOT
BRANCH   1   2
ATOM      2  C   UNL     1      18.411   1.921  37.672  1.00  0.00     0.000 C 
BRANCH   2   3
ATOM      3  C   UNL     1      17.971   2.847  38.821  1.00  0.00     0.000 C 
BRANCH   3   4
ATOM      4  C   UNL     1      16.579   3.461  38.594  1.00  0.00     0.000 C 
BRANCH   4   5
ATOM      5  C   UNL     1      15.451   2.600  39.184  1.00  0.00     0.000 C 
BRANCH   5   6
ATOM      6  C   UNL     1      14.398   2.203  38.138  1.00  0.00     0.006 C 
BRANCH   6   7
ATOM      7  C   UNL     1      14.569   0.740  37.719  1.00  0.00     0.053 C 
BRANCH   7   8
ATOM      8  C   UNL     1      15.111   0.653  36.327  1.00  0.00     0.041 C 
ATOM      9  O   UNL     1      15.472   1.696  35.721  1.00  0.00    -0.550 OA
ATOM     10  O   UNL     1      15.171  -0.575  35.681  1.00  0.00    -0.550 OA
ENDBRANCH   7   8
ENDBRANCH   6   7
ENDBRANCH   5   6
ENDBRANCH   4   5
ENDBRANCH   3   4
ENDBRANCH   2   3
ENDBRANCH   1   2
BRANCH   1  11
ATOM     11  C   UNL     1      18.132   0.131  39.487  1.00  0.00     0.000 C 
BRANCH  11  12
ATOM     12  C   UNL     1      19.336  -0.561  40.143  1.00  0.00    -0.000 C 
BRANCH  12  13
ATOM     13  C   UNL     1      20.674   0.129  39.819  1.00  0.00    -0.000 C 
BRANCH  13  14
ATOM     14  C   UNL     1      21.048   1.291  40.757  1.00  0.00    -0.000 C 
BRANCH  14  15
ATOM     15  C   UNL     1      20.245   1.284  42.070  1.00  0.00    -0.000 C 
BRANCH  15  16
ATOM     16  C   UNL     1      19.433   2.583  42.263  1.00  0.00    -0.000 C 
BRANCH  16  17
ATOM     17  C   UNL     1      17.930   2.341  42.474  1.00  0.00    -0.003 C 
ATOM     18  C   UNL     1      17.625   0.988  43.112  1.00  0.00     0.004 C 
ENDBRANCH  16  17
ENDBRANCH  15  16
ENDBRANCH  14  15
ENDBRANCH  13  14
ENDBRANCH  12  13
ENDBRANCH  11  12
ENDBRANCH   1  11
TORSDOF 14
ENDMDL
MODEL 8
REMARK VINA RESULT:    -3.004      1.495      3.983
REMARK INTER + INTRA:          -7.812
REMARK INTER:                  -5.394
REMARK INTRA:                  -2.417
REMARK UNBOUND:                -2.349
REMARK SMILES CCCCCCCCCCCCCCCC(=O)[O-]
REMARK SMILES IDX 9 1 10 2 11 3 12 4 13 5 14 6 15 7 16 8 17 9 18 10 8 11 7 12
REMARK SMILES IDX 6 13 5 14 4 15 3 16 2 17 1 18
REMARK H PARENT
REMARK Flexibility Score: inf
ROOT
ATOM      1  C   UNL     1      18.552   3.951  40.251  1.00  0.00     0.000 C 
ENDROOT
BRANCH   1   2
ATOM      2  C   UNL     1      19.198   2.963  39.263  1.00  0.00     0.000 C 
BRANCH   2   3
ATOM      3  C   UNL     1      18.842   1.483  39.490  1.00  0.00     0.000 C 
BRANCH   3   4
ATOM      4  C   UNL     1      18.927   0.643  38.205  1.00  0.00     0.000 C 
BRANCH   4   5
ATOM      5  C   UNL     1      17.551   0.143  37.734  1.00  0.00     0.000 C 
BRANCH   5   6
ATOM      6  C   UNL     1      16.390   0.779  38.513  1.00  0.00     0.006 C 
BRANCH   6   7
ATOM      7  C   UNL     1      15.634   1.787  37.643  1.00  0.00     0.053 C 
BRANCH   7   8
ATOM      8  C   UNL     1      14.208   1.892  38.080  1.00  0.00     0.041 C 
ATOM      9  O   UNL     1      13.517   0.853  38.246  1.00  0.00    -0.550 OA
ATOM     10  O   UNL     1      13.625   3.142  38.255  1.00  0.00    -0.550 OA
ENDBRANCH   7   8
ENDBRANCH   6   7
ENDBRANCH   5   6
ENDBRANCH   4   5
ENDBRANCH   3   4
ENDBRANCH   2   3
ENDBRANCH   1   2
BRANCH   1  11
ATOM     11  C   UNL     1      17.119   4.342  39.859  1.00  0.00     0.000 C 
BRANCH  11  12
ATOM     12  C   UNL     1      16.100   3.746  40.841  1.00  0.00    -0.000 C 
BRANCH  12  13
ATOM     13  C   UNL     1      16.236   4.314  42.266  1.00  0.00    -0.000 C 
BRANCH  13  14
ATOM     14  C   UNL     1      16.656   3.289  43.335  1.00  0.00    -0.000 C 
BRANCH  14  15
ATOM     15  C   UNL     1      16.714   1.849  42.795  1.00  0.00    -0.000 C 
BRANCH  15  16
ATOM     16  C   UNL     1      18.105   1.210  42.990  1.00  0.00    -0.000 C 
BRANCH  16  17
ATOM     17  C   UNL     1      19.168   2.197  43.500  1.00  0.00    -0.003 C 
ATOM     18  C   UNL     1      20.515   2.041  42.800  1.00  0.00     0.004 C 
ENDBRANCH  16  17
ENDBRANCH  15  16
ENDBRANCH  14  15
ENDBRANCH  13  14
ENDBRANCH  12  13
ENDBRANCH  11  12
ENDBRANCH   1  11
TORSDOF 14
ENDMDL
MODEL 9
REMARK VINA RESULT:    -2.997      1.433      3.499
REMARK INTER + INTRA:          -7.800
REMARK INTER:                  -5.520
REMARK INTRA:                  -2.280
REMARK UNBOUND:                -2.349
REMARK SMILES CCCCCCCCCCCCCCCC(=O)[O-]
REMARK SMILES IDX 9 1 10 2 11 3 12 4 13 5 14 6 15 7 16 8 17 9 18 10 8 11 7 12
REMARK SMILES IDX 6 13 5 14 4 15 3 16 2 17 1 18
REMARK H PARENT
REMARK Flexibility Score: inf
ROOT
ATOM      1  C   UNL     1      20.094   2.038  41.497  1.00  0.00     0.000 C 
ENDROOT
BRANCH   1   2
ATOM      2  C   UNL     1      21.010   1.128  40.659  1.00  0.00     0.000 C 
BRANCH   2   3
ATOM      3  C   UNL     1      20.293  -0.010  39.909  1.00  0.00     0.000 C 
BRANCH   3   4
ATOM      4  C   UNL     1      19.405   0.497  38.760  1.00  0.00     0.000 C 
BRANCH   4   5
ATOM      5  C   UNL     1      17.906   0.405  39.088  1.00  0.00     0.000 C 
BRANCH   5   6
ATOM      6  C   UNL     1      17.203   1.770  39.044  1.00  0.00     0.006 C 
BRANCH   6   7
ATOM      7  C   UNL     1      15.718   1.631  39.389  1.00  0.00     0.053 C 
BRANCH   7   8
ATOM      8  C   UNL     1      14.923   1.303  38.165  1.00  0.00     0.041 C 
ATOM      9  O   UNL     1      15.297   1.714  37.036  1.00  0.00    -0.550 OA
ATOM     10  O   UNL     1      13.738   0.585  38.278  1.00  0.00    -0.550 OA
ENDBRANCH   7   8
ENDBRANCH   6   7
ENDBRANCH   5   6
ENDBRANCH   4   5
ENDBRANCH   3   4
ENDBRANCH   2   3
ENDBRANCH   1   2
BRANCH   1  11
ATOM     11  C   UNL     1      20.321   1.891  43.009  1.00  0.00     0.000 C 
BRANCH  11  12
ATOM     12  C   UNL     1      19.304   0.920  43.625  1.00  0.00    -0.000 C 
BRANCH  12  13
ATOM     13  C   UNL     1      18.009   0.804  42.800  1.00  0.00    -0.000 C 
BRANCH  13  14
ATOM     14  C   UNL     1      16.729   1.226  43.543  1.00  0.00    -0.000 C 
BRANCH  14  15
ATOM     15  C   UNL     1      16.609   2.751  43.713  1.00  0.00    -0.000 C 
BRANCH  15  16
ATOM     16  C   UNL     1      16.677   3.494  42.361  1.00  0.00    -0.000 C 
BRANCH  16  17
ATOM     17  C   UNL     1      17.518   4.781  42.411  1.00  0.00    -0.003 C 
ATOM     18  C   UNL     1      18.244   5.072  41.100  1.00  0.00     0.004 C 
ENDBRANCH  16  17
ENDBRANCH  15  16
ENDBRANCH  14  15
ENDBRANCH  13  14
ENDBRANCH  12  13
ENDBRANCH  11  12
ENDBRANCH   1  11
TORSDOF 14
ENDMDL
