MODEL 1
REMARK VINA RESULT:    -2.865      0.000      0.000
REMARK INTER + INTRA:          -2.865
REMARK INTER:                  -2.865
REMARK INTRA:                   0.000
REMARK UNBOUND:                 0.000
REMARK SMILES CC(=O)[O-]
REMARK SMILES IDX 1 1 2 2 3 3 4 4
REMARK H PARENT
REMARK Flexibility Score: inf
ROOT
ATOM      1  C   UNL     1       0.493   0.727  -2.801  1.00  0.00     0.063 C 
ATOM      2  C   UNL     1       0.096   1.589  -3.950  1.00  0.00     0.038 C 
ATOM      3  O   UNL     1       0.782   1.593  -5.006  1.00  0.00    -0.550 OA
ATOM      4  O   UNL     1      -1.004   2.431  -3.840  1.00  0.00    -0.550 OA
ENDROOT
TORSDOF 0
ENDMDL
MODEL 2
REMARK VINA RESULT:    -2.862      1.485      1.996
REMARK INTER + INTRA:          -2.862
REMARK INTER:                  -2.862
REMARK INTRA:                   0.000
REMARK UNBOUND:                 0.000
REMARK SMILES CC(=O)[O-]
REMARK SMILES IDX 1 1 2 2 3 3 4 4
REMARK H PARENT
REMARK Flexibility Score: inf
ROOT
ATOM      1  C   UNL     1       0.764   1.577  -4.836  1.00  0.00     0.063 C 
ATOM      2  C   UNL     1      -0.332   1.592  -3.826  1.00  0.00     0.038 C 
ATOM      3  O   UNL     1      -1.155   2.544  -3.800  1.00  0.00    -0.550 OA
ATOM      4  O   UNL     1      -0.416   0.582  -2.876  1.00  0.00    -0.550 OA
ENDROOT
TORSDOF 0
ENDMDL
MODEL 3
REMARK VINA RESULT:    -2.817      1.596      1.837
REMARK INTER + INTRA:          -2.817
REMARK INTER:                  -2.817
REMARK INTRA:                   0.000
REMARK UNBOUND:                 0.000
REMARK SMILES CC(=O)[O-]
REMARK SMILES IDX 1 1 2 2 3 3 4 4
REMARK H PARENT
REMARK Flexibility Score: inf
ROOT
ATOM      1  C   UNL     1       0.752   1.586  -4.651  1.00  0.00     0.063 C 
ATOM      2  C   UNL     1       0.248   1.252  -3.289  1.00  0.00     0.038 C 
ATOM      3  O   UNL     1       0.826   0.372  -2.598  1.00  0.00    -0.550 OA
ATOM      4  O   UNL     1      -0.893   1.874  -2.798  1.00  0.00    -0.550 OA
ENDROOT
TORSDOF 0
ENDMDL
MODEL 4
REMARK VINA RESULT:    -2.735     21.256     21.551
REMARK INTER + INTRA:          -2.735
REMARK INTER:                  -2.735
REMARK INTRA:                   0.000
REMARK UNBOUND:                 0.000
REMARK SMILES CC(=O)[O-]
REMARK SMILES IDX 1 1 2 2 3 3 4 4
REMARK H PARENT
REMARK Flexibility Score: inf
ROOT
ATOM      1  C   UNL     1      16.614  17.001  -4.617  1.00  0.00     0.063 C 
ATOM      2  C   UNL     1      16.118  15.822  -5.382  1.00  0.00     0.038 C 
ATOM      3  O   UNL     1      16.921  14.930  -5.761  1.00  0.00    -0.550 OA
ATOM      4  O   UNL     1      14.775  15.732  -5.726  1.00  0.00    -0.550 OA
ENDROOT
TORSDOF 0
ENDMDL
MODEL 5
REMARK VINA RESULT:    -2.693     21.517     21.813
REMARK INTER + INTRA:          -2.693
REMARK INTER:                  -2.693
REMARK INTRA:                   0.000
REMARK UNBOUND:                 0.000
REMARK SMILES CC(=O)[O-]
REMARK SMILES IDX 1 1 2 2 3 3 4 4
REMARK H PARENT
REMARK Flexibility Score: inf
ROOT
ATOM      1  C   UNL     1      16.784  15.145  -5.744  1.00  0.00     0.063 C 
ATOM      2  C   UNL     1      16.054  16.265  -5.083  1.00  0.00     0.038 C 
ATOM      3  O   UNL     1      14.796  16.284  -5.079  1.00  0.00    -0.550 OA
ATOM      4  O   UNL     1      16.761  17.317  -4.516  1.00  0.00    -0.550 OA
ENDROOT
TORSDOF 0
ENDMDL
MODEL 6
REMARK VINA RESULT:    -2.625     21.294     21.611
REMARK INTER + INTRA:          -2.625
REMARK INTER:                  -2.625
REMARK INTRA:                   0.000
REMARK UNBOUND:                 0.000
REMARK SMILES CC(=O)[O-]
REMARK SMILES IDX 1 1 2 2 3 3 4 4
REMARK H PARENT
REMARK Flexibility Score: inf
ROOT
ATOM      1  C   UNL     1      14.774  15.697  -5.671  1.00  0.00     0.063 C 
ATOM      2  C   UNL     1      16.227  15.835  -5.367  1.00  0.00     0.038 C 
ATOM      3  O   UNL     1      17.033  14.929  -5.705  1.00  0.00    -0.550 OA
ATOM      4  O   UNL     1      16.688  16.940  -4.662  1.00  0.00    -0.550 OA
ENDROOT
TORSDOF 0
ENDMDL
MODEL 7
REMARK VINA RESULT:    -2.583      2.134      2.461
REMARK INTER + INTRA:          -2.583
REMARK INTER:                  -2.583
REMARK INTRA:                   0.000
REMARK UNBOUND:                 0.000
REMARK SMILES CC(=O)[O-]
REMARK SMILES IDX 1 1 2 2 3 3 4 4
REMARK H PARENT
REMARK Flexibility Score: inf
ROOT
ATOM      1  C   UNL     1      -0.953   0.544  -2.032  1.00  0.00     0.063 C 
ATOM      2  C   UNL     1       0.462   0.498  -2.501  1.00  0.00     0.038 C 
ATOM      3  O   UNL     1       1.306  -0.213  -1.895  1.00  0.00    -0.550 OA
ATOM      4  O   UNL     1       0.864   1.280  -3.576  1.00  0.00    -0.550 OA
ENDROOT
TORSDOF 0
ENDMDL
MODEL 8
REMARK VINA RESULT:    -2.289      7.221      7.702
REMARK INTER + INTRA:          -2.289
REMARK INTER:                  -2.289
REMARK INTRA:                   0.000
REMARK UNBOUND:                 0.000
REMARK SMILES CC(=O)[O-]
REMARK SMILES IDX 1 1 2 2 3 3 4 4
REMARK H PARENT
REMARK Flexibility Score: inf
ROOT
ATOM      1  C   UNL     1       6.232   1.891  -6.585  1.00  0.00     0.063 C 
ATOM      2  C   UNL     1       6.586   2.911  -7.613  1.00  0.00     0.038 C 
ATOM      3  O   UNL     1       5.976   2.938  -8.714  1.00  0.00    -0.550 OA
ATOM      4  O   UNL     1       7.626   3.802  -7.380  1.00  0.00    -0.550 OA
ENDROOT
TORSDOF 0
ENDMDL
