MODEL 1
REMARK VINA RESULT:    -3.591      0.000      0.000
REMARK INTER + INTRA:          -5.811
REMARK INTER:                  -5.060
REMARK INTRA:                  -0.751
REMARK UNBOUND:                -0.751
REMARK SMILES CCCCCCCCC(=O)[O-]
REMARK SMILES IDX 6 1 7 2 8 3 9 4 10 5 11 6 5 7 4 8 3 9 2 10 1 11
REMARK H PARENT
REMARK Flexibility Score: inf
ROOT
ATOM      1  C   UNL     1      14.800  19.060  23.772  1.00  0.00     0.000 C 
ENDROOT
BRANCH   1   2
ATOM      2  C   UNL     1      14.407  19.640  22.401  1.00  0.00     0.006 C 
BRANCH   2   3
ATOM      3  C   UNL     1      13.314  20.713  22.501  1.00  0.00     0.053 C 
BRANCH   3   4
ATOM      4  C   UNL     1      12.148  20.351  21.636  1.00  0.00     0.041 C 
ATOM      5  O   UNL     1      11.820  19.145  21.488  1.00  0.00    -0.550 OA
ATOM      6  O   UNL     1      11.395  21.349  21.032  1.00  0.00    -0.550 OA
ENDBRANCH   3   4
ENDBRANCH   2   3
ENDBRANCH   1   2
BRANCH   1   7
ATOM      7  C   UNL     1      14.345  17.607  24.016  1.00  0.00     0.000 C 
BRANCH   7   8
ATOM      8  C   UNL     1      12.855  17.438  24.374  1.00  0.00    -0.000 C 
BRANCH   8   9
ATOM      9  C   UNL     1      12.505  17.713  25.847  1.00  0.00    -0.000 C 
BRANCH   9  10
ATOM     10  C   UNL     1      11.983  19.137  26.079  1.00  0.00    -0.003 C 
ATOM     11  C   UNL     1      10.890  19.493  25.074  1.00  0.00     0.004 C 
ENDBRANCH   9  10
ENDBRANCH   8   9
ENDBRANCH   7   8
ENDBRANCH   1   7
TORSDOF 7
ENDMDL
MODEL 2
REMARK VINA RESULT:    -3.587      1.968      3.106
REMARK INTER + INTRA:          -5.807
REMARK INTER:                  -4.901
REMARK INTRA:                  -0.905
REMARK UNBOUND:                -0.751
REMARK SMILES CCCCCCCCC(=O)[O-]
REMARK SMILES IDX 6 1 7 2 8 3 9 4 10 5 11 6 5 7 4 8 3 9 2 10 1 11
REMARK H PARENT
REMARK Flexibility Score: inf
ROOT
ATOM      1  C   UNL     1      11.363  15.613  24.510  1.00  0.00     0.000 C 
ENDROOT
BRANCH   1   2
ATOM      2  C   UNL     1      11.376  15.573  22.972  1.00  0.00     0.006 C 
BRANCH   2   3
ATOM      3  C   UNL     1      10.659  16.773  22.339  1.00  0.00     0.053 C 
BRANCH   3   4
ATOM      4  C   UNL     1      11.626  17.606  21.559  1.00  0.00     0.041 C 
ATOM      5  O   UNL     1      12.849  17.306  21.540  1.00  0.00    -0.550 OA
ATOM      6  O   UNL     1      11.170  18.686  20.814  1.00  0.00    -0.550 OA
ENDBRANCH   3   4
ENDBRANCH   2   3
ENDBRANCH   1   2
BRANCH   1   7
ATOM      7  C   UNL     1      12.683  16.077  25.158  1.00  0.00     0.000 C 
BRANCH   7   8
ATOM      8  C   UNL     1      12.657  17.499  25.754  1.00  0.00    -0.000 C 
BRANCH   8   9
ATOM      9  C   UNL     1      13.281  18.588  24.864  1.00  0.00    -0.000 C 
BRANCH   9  10
ATOM     10  C   UNL     1      12.268  19.659  24.437  1.00  0.00    -0.003 C 
ATOM     11  C   UNL     1      10.889  19.379  25.029  1.00  0.00     0.004 C 
ENDBRANCH   9  10
ENDBRANCH   8   9
ENDBRANCH   7   8
ENDBRANCH   1   7
TORSDOF 7
ENDMDL
MODEL 3
REMARK VINA RESULT:    -3.521      6.082      7.209
REMARK INTER + INTRA:          -5.713
REMARK INTER:                  -5.593
REMARK INTRA:                  -0.120
REMARK UNBOUND:                -0.751
REMARK SMILES CCCCCCCCC(=O)[O-]
REMARK SMILES IDX 6 1 7 2 8 3 9 4 10 5 11 6 5 7 4 8 3 9 2 10 1 11
REMARK H PARENT
REMARK Flexibility Score: inf
ROOT
ATOM      1  C   UNL     1      10.238  14.376  22.443  1.00  0.00     0.000 C 
ENDROOT
BRANCH   1   2
ATOM      2  C   UNL     1      10.688  15.692  23.102  1.00  0.00     0.006 C 
BRANCH   2   3
ATOM      3  C   UNL     1      11.439  15.471  24.422  1.00  0.00     0.053 C 
BRANCH   3   4
ATOM      4  C   UNL     1      12.275  16.667  24.752  1.00  0.00     0.041 C 
ATOM      5  O   UNL     1      11.751  17.678  25.288  1.00  0.00    -0.550 OA
ATOM      6  O   UNL     1      13.643  16.646  24.512  1.00  0.00    -0.550 OA
ENDBRANCH   3   4
ENDBRANCH   2   3
ENDBRANCH   1   2
BRANCH   1   7
ATOM      7  C   UNL     1       8.712  14.221  22.281  1.00  0.00     0.000 C 
BRANCH   7   8
ATOM      8  C   UNL     1       8.199  12.767  22.262  1.00  0.00    -0.000 C 
BRANCH   8   9
ATOM      9  C   UNL     1       6.809  12.560  22.889  1.00  0.00    -0.000 C 
BRANCH   9  10
ATOM     10  C   UNL     1       6.396  11.083  22.946  1.00  0.00    -0.003 C 
ATOM     11  C   UNL     1       4.926  10.909  22.569  1.00  0.00     0.004 C 
ENDBRANCH   9  10
ENDBRANCH   8   9
ENDBRANCH   7   8
ENDBRANCH   1   7
TORSDOF 7
ENDMDL
MODEL 4
REMARK VINA RESULT:    -3.520      4.916      6.076
REMARK INTER + INTRA:          -5.712
REMARK INTER:                  -5.525
REMARK INTRA:                  -0.187
REMARK UNBOUND:                -0.751
REMARK SMILES CCCCCCCCC(=O)[O-]
REMARK SMILES IDX 6 1 7 2 8 3 9 4 10 5 11 6 5 7 4 8 3 9 2 10 1 11
REMARK H PARENT
REMARK Flexibility Score: inf
ROOT
ATOM      1  C   UNL     1      11.058  14.744  23.797  1.00  0.00     0.000 C 
ENDROOT
BRANCH   1   2
ATOM      2  C   UNL     1      11.370  16.052  24.548  1.00  0.00     0.006 C 
BRANCH   2   3
ATOM      3  C   UNL     1      12.875  16.285  24.737  1.00  0.00     0.053 C 
BRANCH   3   4
ATOM      4  C   UNL     1      13.131  17.688  25.188  1.00  0.00     0.041 C 
ATOM      5  O   UNL     1      13.948  18.415  24.563  1.00  0.00    -0.550 OA
ATOM      6  O   UNL     1      12.433  18.210  26.269  1.00  0.00    -0.550 OA
ENDBRANCH   3   4
ENDBRANCH   2   3
ENDBRANCH   1   2
BRANCH   1   7
ATOM      7  C   UNL     1      10.234  14.919  22.506  1.00  0.00     0.000 C 
BRANCH   7   8
ATOM      8  C   UNL     1       9.200  13.808  22.232  1.00  0.00    -0.000 C 
BRANCH   8   9
ATOM      9  C   UNL     1       7.735  14.277  22.204  1.00  0.00    -0.000 C 
BRANCH   9  10
ATOM     10  C   UNL     1       6.857  13.547  23.229  1.00  0.00    -0.003 C 
ATOM     11  C   UNL     1       6.710  12.069  22.874  1.00  0.00     0.004 C 
ENDBRANCH   9  10
ENDBRANCH   8   9
ENDBRANCH   7   8
ENDBRANCH   1   7
TORSDOF 7
ENDMDL
MODEL 5
REMARK VINA RESULT:    -3.518      0.907      1.162
REMARK INTER + INTRA:          -5.709
REMARK INTER:                  -4.921
REMARK INTRA:                  -0.788
REMARK UNBOUND:                -0.751
REMARK SMILES CCCCCCCCC(=O)[O-]
REMARK SMILES IDX 6 1 7 2 8 3 9 4 10 5 11 6 5 7 4 8 3 9 2 10 1 11
REMARK H PARENT
REMARK Flexibility Score: inf
ROOT
ATOM      1  C   UNL     1      14.729  18.584  24.006  1.00  0.00     0.000 C 
ENDROOT
BRANCH   1   2
ATOM      2  C   UNL     1      14.819  19.454  22.740  1.00  0.00     0.006 C 
BRANCH   2   3
ATOM      3  C   UNL     1      13.625  20.406  22.585  1.00  0.00     0.053 C 
BRANCH   3   4
ATOM      4  C   UNL     1      12.945  20.179  21.272  1.00  0.00     0.041 C 
ATOM      5  O   UNL     1      12.075  19.276  21.158  1.00  0.00    -0.550 OA
ATOM      6  O   UNL     1      13.238  20.995  20.187  1.00  0.00    -0.550 OA
ENDBRANCH   3   4
ENDBRANCH   2   3
ENDBRANCH   1   2
BRANCH   1   7
ATOM      7  C   UNL     1      13.967  17.255  23.827  1.00  0.00     0.000 C 
BRANCH   7   8
ATOM      8  C   UNL     1      12.757  17.061  24.762  1.00  0.00    -0.000 C 
BRANCH   8   9
ATOM      9  C   UNL     1      11.438  17.669  24.252  1.00  0.00    -0.000 C 
BRANCH   9  10
ATOM     10  C   UNL     1      11.104  19.010  24.920  1.00  0.00    -0.003 C 
ATOM     11  C   UNL     1      11.886  19.187  26.219  1.00  0.00     0.004 C 
ENDBRANCH   9  10
ENDBRANCH   8   9
ENDBRANCH   7   8
ENDBRANCH   1   7
TORSDOF 7
ENDMDL
MODEL 6
REMARK VINA RESULT:    -3.516      1.935      3.723
REMARK INTER + INTRA:          -5.705
REMARK INTER:                  -4.982
REMARK INTRA:                  -0.724
REMARK UNBOUND:                -0.751
REMARK SMILES CCCCCCCCC(=O)[O-]
REMARK SMILES IDX 6 1 7 2 8 3 9 4 10 5 11 6 5 7 4 8 3 9 2 10 1 11
REMARK H PARENT
REMARK Flexibility Score: inf
ROOT
ATOM      1  C   UNL     1      14.722  18.827  23.962  1.00  0.00     0.000 C 
ENDROOT
BRANCH   1   2
ATOM      2  C   UNL     1      13.923  17.512  23.924  1.00  0.00     0.006 C 
BRANCH   2   3
ATOM      3  C   UNL     1      13.005  17.339  25.141  1.00  0.00     0.053 C 
BRANCH   3   4
ATOM      4  C   UNL     1      11.835  18.267  25.048  1.00  0.00     0.041 C 
ATOM      5  O   UNL     1      10.994  18.135  24.120  1.00  0.00    -0.550 OA
ATOM      6  O   UNL     1      11.649  19.249  26.012  1.00  0.00    -0.550 OA
ENDBRANCH   3   4
ENDBRANCH   2   3
ENDBRANCH   1   2
BRANCH   1   7
ATOM      7  C   UNL     1      14.528  19.739  22.733  1.00  0.00     0.000 C 
BRANCH   7   8
ATOM      8  C   UNL     1      13.375  19.336  21.792  1.00  0.00    -0.000 C 
BRANCH   8   9
ATOM      9  C   UNL     1      12.218  20.348  21.713  1.00  0.00    -0.000 C 
BRANCH   9  10
ATOM     10  C   UNL     1      12.238  21.366  22.860  1.00  0.00    -0.003 C 
ATOM     11  C   UNL     1      11.420  22.607  22.509  1.00  0.00     0.004 C 
ENDBRANCH   9  10
ENDBRANCH   8   9
ENDBRANCH   7   8
ENDBRANCH   1   7
TORSDOF 7
ENDMDL
MODEL 7
REMARK VINA RESULT:    -3.499      2.057      2.774
REMARK INTER + INTRA:          -5.681
REMARK INTER:                  -4.808
REMARK INTRA:                  -0.873
REMARK UNBOUND:                -0.751
REMARK SMILES CCCCCCCCC(=O)[O-]
REMARK SMILES IDX 6 1 7 2 8 3 9 4 10 5 11 6 5 7 4 8 3 9 2 10 1 11
REMARK H PARENT
REMARK Flexibility Score: inf
ROOT
ATOM      1  C   UNL     1      11.645  17.122  22.049  1.00  0.00     0.000 C 
ENDROOT
BRANCH   1   2
ATOM      2  C   UNL     1      12.543  18.316  21.677  1.00  0.00     0.006 C 
BRANCH   2   3
ATOM      3  C   UNL     1      14.005  18.115  22.097  1.00  0.00     0.053 C 
BRANCH   3   4
ATOM      4  C   UNL     1      14.515  19.329  22.806  1.00  0.00     0.041 C 
ATOM      5  O   UNL     1      14.121  20.475  22.465  1.00  0.00    -0.550 OA
ATOM      6  O   UNL     1      15.390  19.192  23.876  1.00  0.00    -0.550 OA
ENDBRANCH   3   4
ENDBRANCH   2   3
ENDBRANCH   1   2
BRANCH   1   7
ATOM      7  C   UNL     1      12.128  16.300  23.261  1.00  0.00     0.000 C 
BRANCH   7   8
ATOM      8  C   UNL     1      11.548  16.736  24.622  1.00  0.00    -0.000 C 
BRANCH   8   9
ATOM      9  C   UNL     1      12.569  17.349  25.597  1.00  0.00    -0.000 C 
BRANCH   9  10
ATOM     10  C   UNL     1      12.417  18.869  25.739  1.00  0.00    -0.003 C 
ATOM     11  C   UNL     1      11.105  19.351  25.123  1.00  0.00     0.004 C 
ENDBRANCH   9  10
ENDBRANCH   8   9
ENDBRANCH   7   8
ENDBRANCH   1   7
TORSDOF 7
ENDMDL
MODEL 8
REMARK VINA RESULT:    -3.485      6.796      8.208
REMARK INTER + INTRA:          -5.662
REMARK INTER:                  -5.407
REMARK INTRA:                  -0.255
REMARK UNBOUND:                -0.751
REMARK SMILES CCCCCCCCC(=O)[O-]
REMARK SMILES IDX 6 1 7 2 8 3 9 4 10 5 11 6 5 7 4 8 3 9 2 10 1 11
REMARK H PARENT
REMARK Flexibility Score: inf
ROOT
ATOM      1  C   UNL     1       8.483  14.205  22.289  1.00  0.00     0.000 C 
ENDROOT
BRANCH   1   2
ATOM      2  C   UNL     1       8.016  12.742  22.404  1.00  0.00     0.006 C 
BRANCH   2   3
ATOM      3  C   UNL     1       6.613  12.611  23.011  1.00  0.00     0.053 C 
BRANCH   3   4
ATOM      4  C   UNL     1       6.079  11.231  22.795  1.00  0.00     0.041 C 
ATOM      5  O   UNL     1       6.852  10.238  22.841  1.00  0.00    -0.550 OA
ATOM      6  O   UNL     1       4.719  11.036  22.589  1.00  0.00    -0.550 OA
ENDBRANCH   3   4
ENDBRANCH   2   3
ENDBRANCH   1   2
BRANCH   1   7
ATOM      7  C   UNL     1      10.007  14.411  22.409  1.00  0.00     0.000 C 
BRANCH   7   8
ATOM      8  C   UNL     1      10.475  15.879  22.380  1.00  0.00    -0.000 C 
BRANCH   8   9
ATOM      9  C   UNL     1      11.186  16.360  23.657  1.00  0.00    -0.000 C 
BRANCH   9  10
ATOM     10  C   UNL     1      11.607  15.204  24.575  1.00  0.00    -0.003 C 
ATOM     11  C   UNL     1      13.112  14.962  24.498  1.00  0.00     0.004 C 
ENDBRANCH   9  10
ENDBRANCH   8   9
ENDBRANCH   7   8
ENDBRANCH   1   7
TORSDOF 7
ENDMDL
MODEL 9
REMARK VINA RESULT:    -3.470      1.784      2.471
REMARK INTER + INTRA:          -5.640
REMARK INTER:                  -4.813
REMARK INTRA:                  -0.827
REMARK UNBOUND:                -0.751
REMARK SMILES CCCCCCCCC(=O)[O-]
REMARK SMILES IDX 6 1 7 2 8 3 9 4 10 5 11 6 5 7 4 8 3 9 2 10 1 11
REMARK H PARENT
REMARK Flexibility Score: inf
ROOT
ATOM      1  C   UNL     1      14.318  18.913  22.672  1.00  0.00     0.000 C 
ENDROOT
BRANCH   1   2
ATOM      2  C   UNL     1      14.251  17.984  21.447  1.00  0.00     0.006 C 
BRANCH   2   3
ATOM      3  C   UNL     1      13.025  17.061  21.466  1.00  0.00     0.053 C 
BRANCH   3   4
ATOM      4  C   UNL     1      11.767  17.864  21.348  1.00  0.00     0.041 C 
ATOM      5  O   UNL     1      10.887  17.797  22.245  1.00  0.00    -0.550 OA
ATOM      6  O   UNL     1      11.589  18.721  20.270  1.00  0.00    -0.550 OA
ENDBRANCH   3   4
ENDBRANCH   2   3
ENDBRANCH   1   2
BRANCH   1   7
ATOM      7  C   UNL     1      14.332  18.190  24.034  1.00  0.00     0.000 C 
BRANCH   7   8
ATOM      8  C   UNL     1      13.244  18.643  25.029  1.00  0.00    -0.000 C 
BRANCH   8   9
ATOM      9  C   UNL     1      12.428  17.503  25.662  1.00  0.00    -0.000 C 
BRANCH   9  10
ATOM     10  C   UNL     1      12.737  16.134  25.042  1.00  0.00    -0.003 C 
ATOM     11  C   UNL     1      11.453  15.403  24.656  1.00  0.00     0.004 C 
ENDBRANCH   9  10
ENDBRANCH   8   9
ENDBRANCH   7   8
ENDBRANCH   1   7
TORSDOF 7
ENDMDL
