MODEL 1
REMARK VINA RESULT:    -4.023      0.000      0.000
REMARK INTER + INTRA:          -6.477
REMARK INTER:                  -5.670
REMARK INTRA:                  -0.807
REMARK UNBOUND:                -0.807
REMARK SMILES COc1ccc(-c2cc(=O)c3c(OC)c(OC)c(OC)c(OC)c3o2)cc1OC
REMARK SMILES IDX 7 1 8 2 9 3 10 4 11 5 24 6 25 7 21 8 18 9 15 10 12 11 6 12
REMARK SMILES IDX 3 13 27 14 4 15 26 16 5 17 2 18 1 19 28 20 29 21 22 22 23 23
REMARK SMILES IDX 13 24 14 25 19 26 20 27 16 28 17 29
REMARK H PARENT
REMARK Flexibility Score: inf
ROOT
ATOM      1  C   UNL     1     119.244 106.498 122.484  1.00  0.00     0.138 A 
ATOM      2  C   UNL     1     120.593 106.140 122.615  1.00  0.00     0.100 A 
ATOM      3  C   UNL     1     121.582 107.034 122.210  1.00  0.00     0.197 A 
ATOM      4  O   UNL     1     122.790 106.700 122.334  1.00  0.00    -0.289 OA
ATOM      5  C   UNL     1     121.213 108.284 121.667  1.00  0.00     0.115 A 
ATOM      6  C   UNL     1     119.833 108.564 121.544  1.00  0.00     0.188 A 
ATOM      7  O   UNL     1     118.928 107.677 121.951  1.00  0.00    -0.452 OA
ATOM      8  C   UNL     1     119.408 109.794 121.021  1.00  0.00     0.209 A 
ATOM      9  C   UNL     1     120.339 110.762 120.622  1.00  0.00     0.211 A 
ATOM     10  C   UNL     1     121.722 110.477 120.705  1.00  0.00     0.208 A 
ATOM     11  C   UNL     1     122.157 109.261 121.277  1.00  0.00     0.179 A 
ENDROOT
BRANCH   1  12
ATOM     12  C   UNL     1     118.155 105.589 122.919  1.00  0.00     0.021 A 
ATOM     13  C   UNL     1     116.104 103.820 123.721  1.00  0.00     0.160 A 
ATOM     14  C   UNL     1     115.803 105.162 123.446  1.00  0.00     0.161 A 
ATOM     15  C   UNL     1     117.429 103.366 123.585  1.00  0.00     0.051 A 
ATOM     16  C   UNL     1     116.828 106.041 123.043  1.00  0.00     0.062 A 
ATOM     17  C   UNL     1     118.439 104.242 123.184  1.00  0.00     0.016 A 
BRANCH  13  18
ATOM     18  O   UNL     1     115.063 102.970 124.122  1.00  0.00    -0.493 OA
ATOM     19  C   UNL     1     114.410 102.034 123.269  1.00  0.00     0.278 C 
ENDBRANCH  13  18
BRANCH  14  20
ATOM     20  O   UNL     1     114.470 105.585 123.582  1.00  0.00    -0.493 OA
ATOM     21  C   UNL     1     113.555 105.736 122.502  1.00  0.00     0.278 C 
ENDBRANCH  14  20
ENDBRANCH   1  12
BRANCH   8  22
ATOM     22  O   UNL     1     118.045 110.088 120.903  1.00  0.00    -0.490 OA
ATOM     23  C   UNL     1     117.285 109.721 119.758  1.00  0.00     0.278 C 
ENDBRANCH   8  22
BRANCH  11  24
ATOM     24  O   UNL     1     123.523 109.024 121.476  1.00  0.00    -0.492 OA
ATOM     25  C   UNL     1     124.250 109.622 122.545  1.00  0.00     0.278 C 
ENDBRANCH  11  24
BRANCH   9  26
ATOM     26  O   UNL     1     119.818 111.977 120.133  1.00  0.00    -0.490 OA
ATOM     27  C   UNL     1     119.701 113.200 120.850  1.00  0.00     0.279 C 
ENDBRANCH   9  26
BRANCH  10  28
ATOM     28  O   UNL     1     122.657 111.392 120.211  1.00  0.00    -0.490 OA
ATOM     29  C   UNL     1     123.100 111.380 118.857  1.00  0.00     0.278 C 
ENDBRANCH  10  28
TORSDOF 7
ENDMDL
MODEL 2
REMARK VINA RESULT:    -4.001      1.391      3.438
REMARK INTER + INTRA:          -6.446
REMARK INTER:                  -5.733
REMARK INTRA:                  -0.713
REMARK UNBOUND:                -0.807
REMARK SMILES COc1ccc(-c2cc(=O)c3c(OC)c(OC)c(OC)c(OC)c3o2)cc1OC
REMARK SMILES IDX 7 1 8 2 9 3 10 4 11 5 24 6 25 7 21 8 18 9 15 10 12 11 6 12
REMARK SMILES IDX 3 13 27 14 4 15 26 16 5 17 2 18 1 19 28 20 29 21 22 22 23 23
REMARK SMILES IDX 13 24 14 25 19 26 20 27 16 28 17 29
REMARK H PARENT
REMARK Flexibility Score: inf
ROOT
ATOM      1  C   UNL     1     118.781 107.158 122.046  1.00  0.00     0.138 A 
ATOM      2  C   UNL     1     117.974 108.063 121.343  1.00  0.00     0.100 A 
ATOM      3  C   UNL     1     118.520 109.265 120.899  1.00  0.00     0.197 A 
ATOM      4  O   UNL     1     117.784 110.069 120.267  1.00  0.00    -0.289 OA
ATOM      5  C   UNL     1     119.874 109.559 121.168  1.00  0.00     0.115 A 
ATOM      6  C   UNL     1     120.618 108.609 121.903  1.00  0.00     0.188 A 
ATOM      7  O   UNL     1     120.049 107.472 122.301  1.00  0.00    -0.452 OA
ATOM      8  C   UNL     1     121.970 108.842 122.192  1.00  0.00     0.209 A 
ATOM      9  C   UNL     1     122.604 110.011 121.752  1.00  0.00     0.211 A 
ATOM     10  C   UNL     1     121.859 110.987 121.048  1.00  0.00     0.208 A 
ATOM     11  C   UNL     1     120.510 110.735 120.711  1.00  0.00     0.179 A 
ENDROOT
BRANCH   1  12
ATOM     12  C   UNL     1     118.251 105.856 122.523  1.00  0.00     0.021 A 
ATOM     13  C   UNL     1     117.266 103.356 123.391  1.00  0.00     0.160 A 
ATOM     14  C   UNL     1     116.470 104.503 123.519  1.00  0.00     0.161 A 
ATOM     15  C   UNL     1     118.549 103.462 122.822  1.00  0.00     0.051 A 
ATOM     16  C   UNL     1     116.964 105.748 123.081  1.00  0.00     0.062 A 
ATOM     17  C   UNL     1     119.030 104.698 122.389  1.00  0.00     0.016 A 
BRANCH  13  18
ATOM     18  O   UNL     1     116.749 102.130 123.837  1.00  0.00    -0.493 OA
ATOM     19  C   UNL     1     117.524 100.953 124.044  1.00  0.00     0.278 C 
ENDBRANCH  13  18
BRANCH  14  20
ATOM     20  O   UNL     1     115.191 104.365 124.083  1.00  0.00    -0.493 OA
ATOM     21  C   UNL     1     114.064 105.163 123.736  1.00  0.00     0.278 C 
ENDBRANCH  14  20
ENDBRANCH   1  12
BRANCH   8  22
ATOM     22  O   UNL     1     122.721 107.904 122.910  1.00  0.00    -0.490 OA
ATOM     23  C   UNL     1     123.377 106.812 122.278  1.00  0.00     0.278 C 
ENDBRANCH   8  22
BRANCH  11  24
ATOM     24  O   UNL     1     119.803 111.640 119.909  1.00  0.00    -0.492 OA
ATOM     25  C   UNL     1     120.051 111.773 118.514  1.00  0.00     0.278 C 
ENDBRANCH  11  24
BRANCH   9  26
ATOM     26  O   UNL     1     123.970 110.147 122.067  1.00  0.00    -0.490 OA
ATOM     27  C   UNL     1     125.068 109.973 121.179  1.00  0.00     0.279 C 
ENDBRANCH   9  26
BRANCH  10  28
ATOM     28  O   UNL     1     122.453 112.203 120.697  1.00  0.00    -0.490 OA
ATOM     29  C   UNL     1     122.478 113.325 121.575  1.00  0.00     0.278 C 
ENDBRANCH  10  28
TORSDOF 7
ENDMDL
MODEL 3
REMARK VINA RESULT:    -3.945      3.209      5.590
REMARK INTER + INTRA:          -6.366
REMARK INTER:                  -5.611
REMARK INTRA:                  -0.755
REMARK UNBOUND:                -0.807
REMARK SMILES COc1ccc(-c2cc(=O)c3c(OC)c(OC)c(OC)c(OC)c3o2)cc1OC
REMARK SMILES IDX 7 1 8 2 9 3 10 4 11 5 24 6 25 7 21 8 18 9 15 10 12 11 6 12
REMARK SMILES IDX 3 13 27 14 4 15 26 16 5 17 2 18 1 19 28 20 29 21 22 22 23 23
REMARK SMILES IDX 13 24 14 25 19 26 20 27 16 28 17 29
REMARK H PARENT
REMARK Flexibility Score: inf
ROOT
ATOM      1  C   UNL     1     119.457 105.306 122.199  1.00  0.00     0.138 A 
ATOM      2  C   UNL     1     120.215 106.467 122.407  1.00  0.00     0.100 A 
ATOM      3  C   UNL     1     121.525 106.523 121.936  1.00  0.00     0.197 A 
ATOM      4  O   UNL     1     122.195 107.573 122.128  1.00  0.00    -0.289 OA
ATOM      5  C   UNL     1     122.073 105.411 121.262  1.00  0.00     0.115 A 
ATOM      6  C   UNL     1     121.257 104.267 121.111  1.00  0.00     0.188 A 
ATOM      7  O   UNL     1     120.008 104.267 121.576  1.00  0.00    -0.452 OA
ATOM      8  C   UNL     1     121.744 103.136 120.442  1.00  0.00     0.209 A 
ATOM      9  C   UNL     1     123.039 103.124 119.908  1.00  0.00     0.211 A 
ATOM     10  C   UNL     1     123.879 104.249 120.086  1.00  0.00     0.208 A 
ATOM     11  C   UNL     1     123.377 105.410 120.715  1.00  0.00     0.179 A 
ENDROOT
BRANCH   1  12
ATOM     12  C   UNL     1     118.052 105.205 122.664  1.00  0.00     0.021 A 
ATOM     13  C   UNL     1     115.380 105.059 123.569  1.00  0.00     0.160 A 
ATOM     14  C   UNL     1     116.194 103.917 123.604  1.00  0.00     0.161 A 
ATOM     15  C   UNL     1     115.909 106.271 123.090  1.00  0.00     0.051 A 
ATOM     16  C   UNL     1     117.527 103.995 123.155  1.00  0.00     0.062 A 
ATOM     17  C   UNL     1     117.231 106.341 122.648  1.00  0.00     0.016 A 
BRANCH  13  18
ATOM     18  O   UNL     1     114.057 104.950 124.022  1.00  0.00    -0.493 OA
ATOM     19  C   UNL     1     112.935 105.563 123.393  1.00  0.00     0.278 C 
ENDBRANCH  13  18
BRANCH  14  20
ATOM     20  O   UNL     1     115.642 102.722 124.096  1.00  0.00    -0.493 OA
ATOM     21  C   UNL     1     116.228 101.435 123.936  1.00  0.00     0.278 C 
ENDBRANCH  14  20
ENDBRANCH   1  12
BRANCH   8  22
ATOM     22  O   UNL     1     120.942 102.001 120.277  1.00  0.00    -0.490 OA
ATOM     23  C   UNL     1     120.770 101.037 121.308  1.00  0.00     0.278 C 
ENDBRANCH   8  22
BRANCH  11  24
ATOM     24  O   UNL     1     124.160 106.569 120.786  1.00  0.00    -0.492 OA
ATOM     25  C   UNL     1     124.421 107.379 119.645  1.00  0.00     0.278 C 
ENDBRANCH  11  24
BRANCH   9  26
ATOM     26  O   UNL     1     123.433 101.953 119.230  1.00  0.00    -0.490 OA
ATOM     27  C   UNL     1     124.173 100.866 119.773  1.00  0.00     0.279 C 
ENDBRANCH   9  26
BRANCH  10  28
ATOM     28  O   UNL     1     125.208 104.208 119.652  1.00  0.00    -0.490 OA
ATOM     29  C   UNL     1     126.283 103.831 120.507  1.00  0.00     0.278 C 
ENDBRANCH  10  28
TORSDOF 7
ENDMDL
MODEL 4
REMARK VINA RESULT:    -3.871      2.723      3.890
REMARK INTER + INTRA:          -6.263
REMARK INTER:                  -5.495
REMARK INTRA:                  -0.768
REMARK UNBOUND:                -0.807
REMARK SMILES COc1ccc(-c2cc(=O)c3c(OC)c(OC)c(OC)c(OC)c3o2)cc1OC
REMARK SMILES IDX 7 1 8 2 9 3 10 4 11 5 24 6 25 7 21 8 18 9 15 10 12 11 6 12
REMARK SMILES IDX 3 13 27 14 4 15 26 16 5 17 2 18 1 19 28 20 29 21 22 22 23 23
REMARK SMILES IDX 13 24 14 25 19 26 20 27 16 28 17 29
REMARK H PARENT
REMARK Flexibility Score: inf
ROOT
ATOM      1  C   UNL     1     120.121 105.216 121.758  1.00  0.00     0.138 A 
ATOM      2  C   UNL     1     120.740 103.990 121.478  1.00  0.00     0.100 A 
ATOM      3  C   UNL     1     122.014 103.979 120.914  1.00  0.00     0.197 A 
ATOM      4  O   UNL     1     122.560 102.870 120.669  1.00  0.00    -0.289 OA
ATOM      5  C   UNL     1     122.662 105.200 120.627  1.00  0.00     0.115 A 
ATOM      6  C   UNL     1     121.965 106.395 120.914  1.00  0.00     0.188 A 
ATOM      7  O   UNL     1     120.749 106.351 121.458  1.00  0.00    -0.452 OA
ATOM      8  C   UNL     1     122.562 107.639 120.659  1.00  0.00     0.209 A 
ATOM      9  C   UNL     1     123.855 107.715 120.125  1.00  0.00     0.211 A 
ATOM     10  C   UNL     1     124.546 106.524 119.798  1.00  0.00     0.208 A 
ATOM     11  C   UNL     1     123.971 105.270 120.099  1.00  0.00     0.179 A 
ENDROOT
BRANCH   1  12
ATOM     12  C   UNL     1     118.773 105.281 122.376  1.00  0.00     0.021 A 
ATOM     13  C   UNL     1     116.209 105.353 123.557  1.00  0.00     0.160 A 
ATOM     14  C   UNL     1     116.522 106.234 122.512  1.00  0.00     0.161 A 
ATOM     15  C   UNL     1     117.177 104.434 124.002  1.00  0.00     0.051 A 
ATOM     16  C   UNL     1     117.802 106.193 121.923  1.00  0.00     0.062 A 
ATOM     17  C   UNL     1     118.442 104.397 123.412  1.00  0.00     0.016 A 
BRANCH  13  18
ATOM     18  O   UNL     1     114.928 105.419 124.125  1.00  0.00    -0.493 OA
ATOM     19  C   UNL     1     113.919 104.426 123.960  1.00  0.00     0.278 C 
ENDBRANCH  13  18
BRANCH  14  20
ATOM     20  O   UNL     1     115.533 107.135 122.083  1.00  0.00    -0.493 OA
ATOM     21  C   UNL     1     115.775 108.265 121.252  1.00  0.00     0.278 C 
ENDBRANCH  14  20
ENDBRANCH   1  12
BRANCH   8  22
ATOM     22  O   UNL     1     121.887 108.829 120.949  1.00  0.00    -0.490 OA
ATOM     23  C   UNL     1     121.887 109.405 122.249  1.00  0.00     0.278 C 
ENDBRANCH   8  22
BRANCH  11  24
ATOM     24  O   UNL     1     124.699 104.092 119.892  1.00  0.00    -0.492 OA
ATOM     25  C   UNL     1     125.793 103.719 120.724  1.00  0.00     0.278 C 
ENDBRANCH  11  24
BRANCH   9  26
ATOM     26  O   UNL     1     124.382 109.006 119.927  1.00  0.00    -0.490 OA
ATOM     27  C   UNL     1     125.308 109.684 120.768  1.00  0.00     0.279 C 
ENDBRANCH   9  26
BRANCH  10  28
ATOM     28  O   UNL     1     125.792 106.589 119.166  1.00  0.00    -0.490 OA
ATOM     29  C   UNL     1     125.931 106.668 117.750  1.00  0.00     0.278 C 
ENDBRANCH  10  28
TORSDOF 7
ENDMDL
MODEL 5
REMARK VINA RESULT:    -3.860      2.900      8.558
REMARK INTER + INTRA:          -6.247
REMARK INTER:                  -5.632
REMARK INTRA:                  -0.615
REMARK UNBOUND:                -0.807
REMARK SMILES COc1ccc(-c2cc(=O)c3c(OC)c(OC)c(OC)c(OC)c3o2)cc1OC
REMARK SMILES IDX 7 1 8 2 9 3 10 4 11 5 24 6 25 7 21 8 18 9 15 10 12 11 6 12
REMARK SMILES IDX 3 13 27 14 4 15 26 16 5 17 2 18 1 19 28 20 29 21 22 22 23 23
REMARK SMILES IDX 13 24 14 25 19 26 20 27 16 28 17 29
REMARK H PARENT
REMARK Flexibility Score: inf
ROOT
ATOM      1  C   UNL     1     121.673 107.633 121.913  1.00  0.00     0.138 A 
ATOM      2  C   UNL     1     120.344 107.582 122.355  1.00  0.00     0.100 A 
ATOM      3  C   UNL     1     119.649 106.375 122.301  1.00  0.00     0.197 A 
ATOM      4  O   UNL     1     118.456 106.343 122.703  1.00  0.00    -0.289 OA
ATOM      5  C   UNL     1     120.290 105.223 121.796  1.00  0.00     0.115 A 
ATOM      6  C   UNL     1     121.623 105.358 121.347  1.00  0.00     0.188 A 
ATOM      7  O   UNL     1     122.243 106.534 121.425  1.00  0.00    -0.452 OA
ATOM      8  C   UNL     1     122.314 104.245 120.845  1.00  0.00     0.209 A 
ATOM      9  C   UNL     1     121.699 102.988 120.788  1.00  0.00     0.211 A 
ATOM     10  C   UNL     1     120.352 102.850 121.199  1.00  0.00     0.208 A 
ATOM     11  C   UNL     1     119.667 103.955 121.753  1.00  0.00     0.179 A 
ENDROOT
BRANCH   1  12
ATOM     12  C   UNL     1     122.460 108.890 121.969  1.00  0.00     0.021 A 
ATOM     13  C   UNL     1     123.979 111.266 122.120  1.00  0.00     0.160 A 
ATOM     14  C   UNL     1     122.679 111.300 121.596  1.00  0.00     0.161 A 
ATOM     15  C   UNL     1     124.512 110.046 122.574  1.00  0.00     0.051 A 
ATOM     16  C   UNL     1     121.923 110.112 121.525  1.00  0.00     0.062 A 
ATOM     17  C   UNL     1     123.756 108.874 122.503  1.00  0.00     0.016 A 
BRANCH  13  18
ATOM     18  O   UNL     1     124.708 112.463 122.175  1.00  0.00    -0.493 OA
ATOM     19  C   UNL     1     124.976 113.192 123.370  1.00  0.00     0.278 C 
ENDBRANCH  13  18
BRANCH  14  20
ATOM     20  O   UNL     1     122.170 112.534 121.158  1.00  0.00    -0.493 OA
ATOM     21  C   UNL     1     120.813 112.768 120.800  1.00  0.00     0.278 C 
ENDBRANCH  14  20
ENDBRANCH   1  12
BRANCH   8  22
ATOM     22  O   UNL     1     123.637 104.363 120.406  1.00  0.00    -0.490 OA
ATOM     23  C   UNL     1     124.745 104.168 121.276  1.00  0.00     0.278 C 
ENDBRANCH   8  22
BRANCH  11  24
ATOM     24  O   UNL     1     118.378 103.797 122.275  1.00  0.00    -0.492 OA
ATOM     25  C   UNL     1     118.143 103.227 123.559  1.00  0.00     0.278 C 
ENDBRANCH  11  24
BRANCH   9  26
ATOM     26  O   UNL     1     122.478 101.924 120.293  1.00  0.00    -0.490 OA
ATOM     27  C   UNL     1     122.475 101.416 118.964  1.00  0.00     0.279 C 
ENDBRANCH   9  26
BRANCH  10  28
ATOM     28  O   UNL     1     119.694 101.625 121.047  1.00  0.00    -0.490 OA
ATOM     29  C   UNL     1     119.918 100.521 121.920  1.00  0.00     0.278 C 
ENDBRANCH  10  28
TORSDOF 7
ENDMDL
MODEL 6
REMARK VINA RESULT:    -3.819     13.192     17.080
REMARK INTER + INTRA:          -6.189
REMARK INTER:                  -5.423
REMARK INTRA:                  -0.766
REMARK UNBOUND:                -0.807
REMARK SMILES COc1ccc(-c2cc(=O)c3c(OC)c(OC)c(OC)c(OC)c3o2)cc1OC
REMARK SMILES IDX 7 1 8 2 9 3 10 4 11 5 24 6 25 7 21 8 18 9 15 10 12 11 6 12
REMARK SMILES IDX 3 13 27 14 4 15 26 16 5 17 2 18 1 19 28 20 29 21 22 22 23 23
REMARK SMILES IDX 13 24 14 25 19 26 20 27 16 28 17 29
REMARK H PARENT
REMARK Flexibility Score: inf
ROOT
ATOM      1  C   UNL     1     124.720 113.882 108.978  1.00  0.00     0.138 A 
ATOM      2  C   UNL     1     123.335 114.082 108.909  1.00  0.00     0.100 A 
ATOM      3  C   UNL     1     122.484 112.980 108.863  1.00  0.00     0.197 A 
ATOM      4  O   UNL     1     121.241 113.174 108.802  1.00  0.00    -0.289 OA
ATOM      5  C   UNL     1     123.028 111.677 108.881  1.00  0.00     0.115 A 
ATOM      6  C   UNL     1     124.435 111.554 108.928  1.00  0.00     0.188 A 
ATOM      7  O   UNL     1     125.203 112.641 108.975  1.00  0.00    -0.452 OA
ATOM      8  C   UNL     1     125.031 110.285 108.958  1.00  0.00     0.209 A 
ATOM      9  C   UNL     1     124.246 109.125 108.950  1.00  0.00     0.211 A 
ATOM     10  C   UNL     1     122.838 109.237 108.864  1.00  0.00     0.208 A 
ATOM     11  C   UNL     1     122.229 110.511 108.884  1.00  0.00     0.179 A 
ENDROOT
BRANCH   1  12
ATOM     12  C   UNL     1     125.666 115.023 109.049  1.00  0.00     0.021 A 
ATOM     13  C   UNL     1     127.442 117.216 109.143  1.00  0.00     0.160 A 
ATOM     14  C   UNL     1     127.908 115.927 109.436  1.00  0.00     0.161 A 
ATOM     15  C   UNL     1     126.091 117.403 108.796  1.00  0.00     0.051 A 
ATOM     16  C   UNL     1     127.019 114.834 109.385  1.00  0.00     0.062 A 
ATOM     17  C   UNL     1     125.217 116.316 108.745  1.00  0.00     0.016 A 
BRANCH  13  18
ATOM     18  O   UNL     1     128.350 118.285 109.204  1.00  0.00    -0.493 OA
ATOM     19  C   UNL     1     128.533 119.125 110.340  1.00  0.00     0.278 C 
ENDBRANCH  13  18
BRANCH  14  20
ATOM     20  O   UNL     1     129.263 115.770 109.771  1.00  0.00    -0.493 OA
ATOM     21  C   UNL     1     129.938 114.518 109.847  1.00  0.00     0.278 C 
ENDBRANCH  14  20
ENDBRANCH   1  12
BRANCH   8  22
ATOM     22  O   UNL     1     126.423 110.150 109.015  1.00  0.00    -0.490 OA
ATOM     23  C   UNL     1     127.143 110.214 110.240  1.00  0.00     0.278 C 
ENDBRANCH   8  22
BRANCH  11  24
ATOM     24  O   UNL     1     120.834 110.626 108.925  1.00  0.00    -0.492 OA
ATOM     25  C   UNL     1     120.082 110.343 110.100  1.00  0.00     0.278 C 
ENDBRANCH  11  24
BRANCH   9  26
ATOM     26  O   UNL     1     124.932 107.896 109.008  1.00  0.00    -0.490 OA
ATOM     27  C   UNL     1     125.049 107.042 110.139  1.00  0.00     0.279 C 
ENDBRANCH   9  26
BRANCH  10  28
ATOM     28  O   UNL     1     122.050 108.087 108.747  1.00  0.00    -0.490 OA
ATOM     29  C   UNL     1     121.787 107.461 107.494  1.00  0.00     0.278 C 
ENDBRANCH  10  28
TORSDOF 7
ENDMDL
MODEL 7
REMARK VINA RESULT:    -3.815     14.040     16.188
REMARK INTER + INTRA:          -6.184
REMARK INTER:                  -5.472
REMARK INTRA:                  -0.712
REMARK UNBOUND:                -0.807
REMARK SMILES COc1ccc(-c2cc(=O)c3c(OC)c(OC)c(OC)c(OC)c3o2)cc1OC
REMARK SMILES IDX 7 1 8 2 9 3 10 4 11 5 24 6 25 7 21 8 18 9 15 10 12 11 6 12
REMARK SMILES IDX 3 13 27 14 4 15 26 16 5 17 2 18 1 19 28 20 29 21 22 22 23 23
REMARK SMILES IDX 13 24 14 25 19 26 20 27 16 28 17 29
REMARK H PARENT
REMARK Flexibility Score: inf
ROOT
ATOM      1  C   UNL     1     125.235 113.736 109.257  1.00  0.00     0.138 A 
ATOM      2  C   UNL     1     124.758 115.019 108.956  1.00  0.00     0.100 A 
ATOM      3  C   UNL     1     125.584 116.123 109.161  1.00  0.00     0.197 A 
ATOM      4  O   UNL     1     125.143 117.270 108.885  1.00  0.00    -0.289 OA
ATOM      5  C   UNL     1     126.885 115.935 109.674  1.00  0.00     0.115 A 
ATOM      6  C   UNL     1     127.288 114.615 109.976  1.00  0.00     0.188 A 
ATOM      7  O   UNL     1     126.461 113.594 109.757  1.00  0.00    -0.452 OA
ATOM      8  C   UNL     1     128.573 114.367 110.479  1.00  0.00     0.209 A 
ATOM      9  C   UNL     1     129.477 115.418 110.681  1.00  0.00     0.211 A 
ATOM     10  C   UNL     1     129.071 116.748 110.418  1.00  0.00     0.208 A 
ATOM     11  C   UNL     1     127.796 116.999 109.864  1.00  0.00     0.179 A 
ENDROOT
BRANCH   1  12
ATOM     12  C   UNL     1     124.401 112.528 109.038  1.00  0.00     0.021 A 
ATOM     13  C   UNL     1     122.794 110.236 108.668  1.00  0.00     0.160 A 
ATOM     14  C   UNL     1     124.104 110.259 108.170  1.00  0.00     0.161 A 
ATOM     15  C   UNL     1     122.295 111.357 109.357  1.00  0.00     0.051 A 
ATOM     16  C   UNL     1     124.904 111.403 108.359  1.00  0.00     0.062 A 
ATOM     17  C   UNL     1     123.094 112.486 109.542  1.00  0.00     0.016 A 
BRANCH  13  18
ATOM     18  O   UNL     1     122.020 109.084 108.462  1.00  0.00    -0.493 OA
ATOM     19  C   UNL     1     120.604 109.078 108.304  1.00  0.00     0.278 C 
ENDBRANCH  13  18
BRANCH  14  20
ATOM     20  O   UNL     1     124.578 109.122 107.493  1.00  0.00    -0.493 OA
ATOM     21  C   UNL     1     125.444 108.146 108.062  1.00  0.00     0.278 C 
ENDBRANCH  14  20
ENDBRANCH   1  12
BRANCH   8  22
ATOM     22  O   UNL     1     128.987 113.063 110.772  1.00  0.00    -0.490 OA
ATOM     23  C   UNL     1     128.747 112.456 112.036  1.00  0.00     0.278 C 
ENDBRANCH   8  22
BRANCH  11  24
ATOM     24  O   UNL     1     127.435 118.298 109.487  1.00  0.00    -0.492 OA
ATOM     25  C   UNL     1     128.110 119.003 108.450  1.00  0.00     0.278 C 
ENDBRANCH  11  24
BRANCH   9  26
ATOM     26  O   UNL     1     130.754 115.070 111.164  1.00  0.00    -0.490 OA
ATOM     27  C   UNL     1     131.946 114.943 110.399  1.00  0.00     0.279 C 
ENDBRANCH   9  26
BRANCH  10  28
ATOM     28  O   UNL     1     129.927 117.813 110.717  1.00  0.00    -0.490 OA
ATOM     29  C   UNL     1     129.959 118.434 111.998  1.00  0.00     0.278 C 
ENDBRANCH  10  28
TORSDOF 7
ENDMDL
MODEL 8
REMARK VINA RESULT:    -3.807      2.741      8.652
REMARK INTER + INTRA:          -6.172
REMARK INTER:                  -5.395
REMARK INTRA:                  -0.777
REMARK UNBOUND:                -0.807
REMARK SMILES COc1ccc(-c2cc(=O)c3c(OC)c(OC)c(OC)c(OC)c3o2)cc1OC
REMARK SMILES IDX 7 1 8 2 9 3 10 4 11 5 24 6 25 7 21 8 18 9 15 10 12 11 6 12
REMARK SMILES IDX 3 13 27 14 4 15 26 16 5 17 2 18 1 19 28 20 29 21 22 22 23 23
REMARK SMILES IDX 13 24 14 25 19 26 20 27 16 28 17 29
REMARK H PARENT
REMARK Flexibility Score: inf
ROOT
ATOM      1  C   UNL     1     123.172 109.891 122.019  1.00  0.00     0.138 A 
ATOM      2  C   UNL     1     123.757 108.627 122.182  1.00  0.00     0.100 A 
ATOM      3  C   UNL     1     122.963 107.487 122.084  1.00  0.00     0.197 A 
ATOM      4  O   UNL     1     123.502 106.357 122.232  1.00  0.00    -0.289 OA
ATOM      5  C   UNL     1     121.581 107.617 121.829  1.00  0.00     0.115 A 
ATOM      6  C   UNL     1     121.058 108.924 121.701  1.00  0.00     0.188 A 
ATOM      7  O   UNL     1     121.862 109.982 121.798  1.00  0.00    -0.452 OA
ATOM      8  C   UNL     1     119.694 109.116 121.438  1.00  0.00     0.209 A 
ATOM      9  C   UNL     1     118.834 108.020 121.291  1.00  0.00     0.211 A 
ATOM     10  C   UNL     1     119.339 106.708 121.456  1.00  0.00     0.208 A 
ATOM     11  C   UNL     1     120.720 106.507 121.672  1.00  0.00     0.179 A 
ENDROOT
BRANCH   1  12
ATOM     12  C   UNL     1     123.978 111.134 122.094  1.00  0.00     0.021 A 
ATOM     13  C   UNL     1     125.483 113.521 122.202  1.00  0.00     0.160 A 
ATOM     14  C   UNL     1     126.130 112.282 122.314  1.00  0.00     0.161 A 
ATOM     15  C   UNL     1     124.088 113.561 122.029  1.00  0.00     0.051 A 
ATOM     16  C   UNL     1     125.376 111.092 122.256  1.00  0.00     0.062 A 
ATOM     17  C   UNL     1     123.348 112.380 121.971  1.00  0.00     0.016 A 
BRANCH  13  18
ATOM     18  O   UNL     1     126.260 114.688 122.266  1.00  0.00    -0.493 OA
ATOM     19  C   UNL     1     126.245 115.611 123.350  1.00  0.00     0.278 C 
ENDBRANCH  13  18
BRANCH  14  20
ATOM     20  O   UNL     1     127.525 112.272 122.478  1.00  0.00    -0.493 OA
ATOM     21  C   UNL     1     128.191 112.107 123.725  1.00  0.00     0.278 C 
ENDBRANCH  14  20
ENDBRANCH   1  12
BRANCH   8  22
ATOM     22  O   UNL     1     119.166 110.404 121.298  1.00  0.00    -0.490 OA
ATOM     23  C   UNL     1     119.220 111.117 120.068  1.00  0.00     0.278 C 
ENDBRANCH   8  22
BRANCH  11  24
ATOM     24  O   UNL     1     121.247 105.210 121.712  1.00  0.00    -0.492 OA
ATOM     25  C   UNL     1     121.375 104.406 120.545  1.00  0.00     0.278 C 
ENDBRANCH  11  24
BRANCH   9  26
ATOM     26  O   UNL     1     117.485 108.309 121.003  1.00  0.00    -0.490 OA
ATOM     27  C   UNL     1     116.847 108.204 119.736  1.00  0.00     0.279 C 
ENDBRANCH   9  26
BRANCH  10  28
ATOM     28  O   UNL     1     118.470 105.613 121.419  1.00  0.00    -0.490 OA
ATOM     29  C   UNL     1     117.784 105.138 122.574  1.00  0.00     0.278 C 
ENDBRANCH  10  28
TORSDOF 7
ENDMDL
MODEL 9
REMARK VINA RESULT:    -3.805      5.134      8.838
REMARK INTER + INTRA:          -6.169
REMARK INTER:                  -5.518
REMARK INTRA:                  -0.651
REMARK UNBOUND:                -0.807
REMARK SMILES COc1ccc(-c2cc(=O)c3c(OC)c(OC)c(OC)c(OC)c3o2)cc1OC
REMARK SMILES IDX 7 1 8 2 9 3 10 4 11 5 24 6 25 7 21 8 18 9 15 10 12 11 6 12
REMARK SMILES IDX 3 13 27 14 4 15 26 16 5 17 2 18 1 19 28 20 29 21 22 22 23 23
REMARK SMILES IDX 13 24 14 25 19 26 20 27 16 28 17 29
REMARK H PARENT
REMARK Flexibility Score: inf
ROOT
ATOM      1  C   UNL     1     124.158 103.571 120.444  1.00  0.00     0.138 A 
ATOM      2  C   UNL     1     123.104 102.648 120.403  1.00  0.00     0.100 A 
ATOM      3  C   UNL     1     121.821 103.057 120.762  1.00  0.00     0.197 A 
ATOM      4  O   UNL     1     120.882 102.218 120.720  1.00  0.00    -0.289 OA
ATOM      5  C   UNL     1     121.601 104.391 121.167  1.00  0.00     0.115 A 
ATOM      6  C   UNL     1     122.717 105.257 121.206  1.00  0.00     0.188 A 
ATOM      7  O   UNL     1     123.923 104.817 120.848  1.00  0.00    -0.452 OA
ATOM      8  C   UNL     1     122.558 106.596 121.592  1.00  0.00     0.209 A 
ATOM      9  C   UNL     1     121.295 107.096 121.935  1.00  0.00     0.211 A 
ATOM     10  C   UNL     1     120.178 106.228 121.937  1.00  0.00     0.208 A 
ATOM     11  C   UNL     1     120.323 104.892 121.501  1.00  0.00     0.179 A 
ENDROOT
BRANCH   1  12
ATOM     12  C   UNL     1     125.538 103.189 120.052  1.00  0.00     0.021 A 
ATOM     13  C   UNL     1     128.149 102.413 119.309  1.00  0.00     0.160 A 
ATOM     14  C   UNL     1     127.961 103.521 120.148  1.00  0.00     0.161 A 
ATOM     15  C   UNL     1     127.031 101.692 118.852  1.00  0.00     0.051 A 
ATOM     16  C   UNL     1     126.657 103.903 120.519  1.00  0.00     0.062 A 
ATOM     17  C   UNL     1     125.742 102.075 119.226  1.00  0.00     0.016 A 
BRANCH  13  18
ATOM     18  O   UNL     1     129.460 102.058 118.955  1.00  0.00    -0.493 OA
ATOM     19  C   UNL     1     130.191 100.984 119.539  1.00  0.00     0.278 C 
ENDBRANCH  13  18
BRANCH  14  20
ATOM     20  O   UNL     1     129.097 104.216 120.595  1.00  0.00    -0.493 OA
ATOM     21  C   UNL     1     129.611 105.398 119.991  1.00  0.00     0.278 C 
ENDBRANCH  14  20
ENDBRANCH   1  12
BRANCH   8  22
ATOM     22  O   UNL     1     123.653 107.467 121.624  1.00  0.00    -0.490 OA
ATOM     23  C   UNL     1     124.143 108.115 120.457  1.00  0.00     0.278 C 
ENDBRANCH   8  22
BRANCH  11  24
ATOM     24  O   UNL     1     119.200 104.063 121.383  1.00  0.00    -0.492 OA
ATOM     25  C   UNL     1     118.518 103.540 122.518  1.00  0.00     0.278 C 
ENDBRANCH  11  24
BRANCH   9  26
ATOM     26  O   UNL     1     121.228 108.459 122.284  1.00  0.00    -0.490 OA
ATOM     27  C   UNL     1     120.876 109.539 121.427  1.00  0.00     0.279 C 
ENDBRANCH   9  26
BRANCH  10  28
ATOM     28  O   UNL     1     118.934 106.688 122.380  1.00  0.00    -0.490 OA
ATOM     29  C   UNL     1     117.965 107.249 121.499  1.00  0.00     0.278 C 
ENDBRANCH  10  28
TORSDOF 7
ENDMDL
