MODEL 1
REMARK VINA RESULT:    -4.603      0.000      0.000
REMARK INTER + INTRA:          -7.221
REMARK INTER:                  -6.756
REMARK INTRA:                  -0.464
REMARK UNBOUND:                -0.464
REMARK SMILES O=C([O-])CCCCCCCC(=O)[O-]
REMARK SMILES IDX 7 1 6 2 5 3 4 4 2 5 1 6 3 7 8 8 9 9 10 10 11 11 12 12 13 13
REMARK H PARENT
REMARK Flexibility Score: inf
ROOT
ATOM      1  C   UNL     1     117.796 -83.247  21.117  1.00  0.00     0.000 C 
ENDROOT
BRANCH   1   2
ATOM      2  C   UNL     1     118.735 -82.992  22.306  1.00  0.00     0.000 C 
BRANCH   2   3
ATOM      3  C   UNL     1     119.181 -81.523  22.404  1.00  0.00     0.006 C 
BRANCH   3   4
ATOM      4  C   UNL     1     118.884 -80.741  21.118  1.00  0.00     0.053 C 
BRANCH   4   5
ATOM      5  C   UNL     1     117.953 -79.592  21.366  1.00  0.00     0.041 C 
ATOM      6  O   UNL     1     116.793 -79.602  20.878  1.00  0.00    -0.550 OA
ATOM      7  O   UNL     1     118.378 -78.499  22.110  1.00  0.00    -0.550 OA
ENDBRANCH   4   5
ENDBRANCH   3   4
ENDBRANCH   2   3
ENDBRANCH   1   2
BRANCH   1   8
ATOM      8  C   UNL     1     116.333 -83.439  21.547  1.00  0.00     0.000 C 
BRANCH   8   9
ATOM      9  C   UNL     1     115.375 -83.128  20.387  1.00  0.00     0.006 C 
BRANCH   9  10
ATOM     10  C   UNL     1     114.019 -83.827  20.550  1.00  0.00     0.053 C 
BRANCH  10  11
ATOM     11  C   UNL     1     113.094 -83.044  21.431  1.00  0.00     0.041 C 
ATOM     12  O   UNL     1     113.038 -81.789  21.336  1.00  0.00    -0.550 OA
ATOM     13  O   UNL     1     112.273 -83.703  22.337  1.00  0.00    -0.550 OA
ENDBRANCH  10  11
ENDBRANCH   9  10
ENDBRANCH   8   9
ENDBRANCH   1   8
TORSDOF 8
ENDMDL
MODEL 2
REMARK VINA RESULT:    -4.576      2.713      4.705
REMARK INTER + INTRA:          -7.180
REMARK INTER:                  -6.565
REMARK INTRA:                  -0.616
REMARK UNBOUND:                -0.464
REMARK SMILES O=C([O-])CCCCCCCC(=O)[O-]
REMARK SMILES IDX 7 1 6 2 5 3 4 4 2 5 1 6 3 7 8 8 9 9 10 10 11 11 12 12 13 13
REMARK H PARENT
REMARK Flexibility Score: inf
ROOT
ATOM      1  C   UNL     1     116.085 -81.908  21.874  1.00  0.00     0.000 C 
ENDROOT
BRANCH   1   2
ATOM      2  C   UNL     1     115.106 -81.432  20.789  1.00  0.00     0.000 C 
BRANCH   2   3
ATOM      3  C   UNL     1     115.434 -80.020  20.273  1.00  0.00     0.006 C 
BRANCH   3   4
ATOM      4  C   UNL     1     116.458 -79.303  21.162  1.00  0.00     0.053 C 
BRANCH   4   5
ATOM      5  C   UNL     1     115.862 -78.112  21.850  1.00  0.00     0.041 C 
ATOM      6  O   UNL     1     114.636 -77.858  21.727  1.00  0.00    -0.550 OA
ATOM      7  O   UNL     1     116.668 -77.266  22.602  1.00  0.00    -0.550 OA
ENDBRANCH   4   5
ENDBRANCH   3   4
ENDBRANCH   2   3
ENDBRANCH   1   2
BRANCH   1   8
ATOM      8  C   UNL     1     116.783 -83.227  21.505  1.00  0.00     0.000 C 
BRANCH   8   9
ATOM      9  C   UNL     1     118.310 -83.053  21.487  1.00  0.00     0.006 C 
BRANCH   9  10
ATOM     10  C   UNL     1     118.774 -81.902  22.389  1.00  0.00     0.053 C 
BRANCH  10  11
ATOM     11  C   UNL     1     119.624 -82.393  23.520  1.00  0.00     0.041 C 
ATOM     12  O   UNL     1     119.244 -83.365  24.224  1.00  0.00    -0.550 OA
ATOM     13  O   UNL     1     120.852 -81.796  23.776  1.00  0.00    -0.550 OA
ENDBRANCH  10  11
ENDBRANCH   9  10
ENDBRANCH   8   9
ENDBRANCH   1   8
TORSDOF 8
ENDMDL
MODEL 3
REMARK VINA RESULT:    -4.555      2.725      4.240
REMARK INTER + INTRA:          -7.150
REMARK INTER:                  -6.517
REMARK INTRA:                  -0.633
REMARK UNBOUND:                -0.464
REMARK SMILES O=C([O-])CCCCCCCC(=O)[O-]
REMARK SMILES IDX 7 1 6 2 5 3 4 4 2 5 1 6 3 7 8 8 9 9 10 10 11 11 12 12 13 13
REMARK H PARENT
REMARK Flexibility Score: inf
ROOT
ATOM      1  C   UNL     1     116.158 -81.902  21.993  1.00  0.00     0.000 C 
ENDROOT
BRANCH   1   2
ATOM      2  C   UNL     1     116.771 -83.209  21.467  1.00  0.00     0.000 C 
BRANCH   2   3
ATOM      3  C   UNL     1     118.308 -83.166  21.420  1.00  0.00     0.006 C 
BRANCH   3   4
ATOM      4  C   UNL     1     118.880 -82.002  22.240  1.00  0.00     0.053 C 
BRANCH   4   5
ATOM      5  C   UNL     1     119.707 -82.485  23.393  1.00  0.00     0.041 C 
ATOM      6  O   UNL     1     119.292 -83.425  24.119  1.00  0.00    -0.550 OA
ATOM      7  O   UNL     1     120.921 -81.875  23.683  1.00  0.00    -0.550 OA
ENDBRANCH   4   5
ENDBRANCH   3   4
ENDBRANCH   2   3
ENDBRANCH   1   2
BRANCH   1   8
ATOM      8  C   UNL     1     115.033 -81.370  21.092  1.00  0.00     0.000 C 
BRANCH   8   9
ATOM      9  C   UNL     1     115.481 -80.103  20.347  1.00  0.00     0.006 C 
BRANCH   9  10
ATOM     10  C   UNL     1     116.519 -79.299  21.140  1.00  0.00     0.053 C 
BRANCH  10  11
ATOM     11  C   UNL     1     115.902 -78.117  21.823  1.00  0.00     0.041 C 
ATOM     12  O   UNL     1     116.580 -77.423  22.626  1.00  0.00    -0.550 OA
ATOM     13  O   UNL     1     114.586 -77.765  21.549  1.00  0.00    -0.550 OA
ENDBRANCH  10  11
ENDBRANCH   9  10
ENDBRANCH   8   9
ENDBRANCH   1   8
TORSDOF 8
ENDMDL
MODEL 4
REMARK VINA RESULT:    -4.512      2.655      4.783
REMARK INTER + INTRA:          -7.087
REMARK INTER:                  -6.464
REMARK INTRA:                  -0.622
REMARK UNBOUND:                -0.464
REMARK SMILES O=C([O-])CCCCCCCC(=O)[O-]
REMARK SMILES IDX 7 1 6 2 5 3 4 4 2 5 1 6 3 7 8 8 9 9 10 10 11 11 12 12 13 13
REMARK H PARENT
REMARK Flexibility Score: inf
ROOT
ATOM      1  C   UNL     1     115.985 -82.011  21.842  1.00  0.00     0.000 C 
ENDROOT
BRANCH   1   2
ATOM      2  C   UNL     1     114.918 -81.629  20.803  1.00  0.00     0.000 C 
BRANCH   2   3
ATOM      3  C   UNL     1     115.059 -80.176  20.316  1.00  0.00     0.006 C 
BRANCH   3   4
ATOM      4  C   UNL     1     116.128 -79.404  21.100  1.00  0.00     0.053 C 
BRANCH   4   5
ATOM      5  C   UNL     1     115.589 -78.126  21.668  1.00  0.00     0.041 C 
ATOM      6  O   UNL     1     116.309 -77.410  22.411  1.00  0.00    -0.550 OA
ATOM      7  O   UNL     1     114.281 -77.741  21.399  1.00  0.00    -0.550 OA
ENDBRANCH   4   5
ENDBRANCH   3   4
ENDBRANCH   2   3
ENDBRANCH   1   2
BRANCH   1   8
ATOM      8  C   UNL     1     116.793 -83.252  21.431  1.00  0.00     0.000 C 
BRANCH   8   9
ATOM      9  C   UNL     1     118.301 -83.000  21.584  1.00  0.00     0.006 C 
BRANCH   9  10
ATOM     10  C   UNL     1     118.600 -81.798  22.491  1.00  0.00     0.053 C 
BRANCH  10  11
ATOM     11  C   UNL     1     119.520 -80.820  21.829  1.00  0.00     0.041 C 
ATOM     12  O   UNL     1     120.289 -80.102  22.522  1.00  0.00    -0.550 OA
ATOM     13  O   UNL     1     119.551 -80.722  20.444  1.00  0.00    -0.550 OA
ENDBRANCH  10  11
ENDBRANCH   9  10
ENDBRANCH   8   9
ENDBRANCH   1   8
TORSDOF 8
ENDMDL
MODEL 5
REMARK VINA RESULT:    -4.496      3.070      4.515
REMARK INTER + INTRA:          -7.064
REMARK INTER:                  -6.230
REMARK INTRA:                  -0.834
REMARK UNBOUND:                -0.464
REMARK SMILES O=C([O-])CCCCCCCC(=O)[O-]
REMARK SMILES IDX 7 1 6 2 5 3 4 4 2 5 1 6 3 7 8 8 9 9 10 10 11 11 12 12 13 13
REMARK H PARENT
REMARK Flexibility Score: inf
ROOT
ATOM      1  C   UNL     1     115.117 -81.571  21.601  1.00  0.00     0.000 C 
ENDROOT
BRANCH   1   2
ATOM      2  C   UNL     1     115.887 -82.855  21.255  1.00  0.00     0.000 C 
BRANCH   2   3
ATOM      3  C   UNL     1     117.142 -83.046  22.125  1.00  0.00     0.006 C 
BRANCH   3   4
ATOM      4  C   UNL     1     118.436 -82.884  21.317  1.00  0.00     0.053 C 
BRANCH   4   5
ATOM      5  C   UNL     1     119.076 -81.549  21.550  1.00  0.00     0.041 C 
ATOM      6  O   UNL     1     119.255 -81.129  22.722  1.00  0.00    -0.550 OA
ATOM      7  O   UNL     1     119.447 -80.757  20.470  1.00  0.00    -0.550 OA
ENDBRANCH   4   5
ENDBRANCH   3   4
ENDBRANCH   2   3
ENDBRANCH   1   2
BRANCH   1   8
ATOM      8  C   UNL     1     115.146 -80.538  20.463  1.00  0.00     0.000 C 
BRANCH   8   9
ATOM      9  C   UNL     1     116.125 -79.398  20.782  1.00  0.00     0.006 C 
BRANCH   9  10
ATOM     10  C   UNL     1     116.294 -79.182  22.291  1.00  0.00     0.053 C 
BRANCH  10  11
ATOM     11  C   UNL     1     117.062 -77.932  22.591  1.00  0.00     0.041 C 
ATOM     12  O   UNL     1     116.454 -76.874  22.904  1.00  0.00    -0.550 OA
ATOM     13  O   UNL     1     118.450 -77.943  22.553  1.00  0.00    -0.550 OA
ENDBRANCH  10  11
ENDBRANCH   9  10
ENDBRANCH   8   9
ENDBRANCH   1   8
TORSDOF 8
ENDMDL
MODEL 6
REMARK VINA RESULT:    -4.489      2.306      2.944
REMARK INTER + INTRA:          -7.052
REMARK INTER:                  -6.814
REMARK INTRA:                  -0.239
REMARK UNBOUND:                -0.464
REMARK SMILES O=C([O-])CCCCCCCC(=O)[O-]
REMARK SMILES IDX 7 1 6 2 5 3 4 4 2 5 1 6 3 7 8 8 9 9 10 10 11 11 12 12 13 13
REMARK H PARENT
REMARK Flexibility Score: inf
ROOT
ATOM      1  C   UNL     1     117.484 -83.311  21.273  1.00  0.00     0.000 C 
ENDROOT
BRANCH   1   2
ATOM      2  C   UNL     1     118.208 -82.332  22.211  1.00  0.00     0.000 C 
BRANCH   2   3
ATOM      3  C   UNL     1     119.457 -82.950  22.864  1.00  0.00     0.006 C 
BRANCH   3   4
ATOM      4  C   UNL     1     119.237 -83.266  24.349  1.00  0.00     0.053 C 
BRANCH   4   5
ATOM      5  C   UNL     1     119.846 -82.224  25.237  1.00  0.00     0.041 C 
ATOM      6  O   UNL     1     120.382 -82.556  26.327  1.00  0.00    -0.550 OA
ATOM      7  O   UNL     1     119.795 -80.883  24.875  1.00  0.00    -0.550 OA
ENDBRANCH   4   5
ENDBRANCH   3   4
ENDBRANCH   2   3
ENDBRANCH   1   2
BRANCH   1   8
ATOM      8  C   UNL     1     115.973 -83.382  21.544  1.00  0.00     0.000 C 
BRANCH   8   9
ATOM      9  C   UNL     1     115.177 -83.300  20.232  1.00  0.00     0.006 C 
BRANCH   9  10
ATOM     10  C   UNL     1     113.747 -83.837  20.386  1.00  0.00     0.053 C 
BRANCH  10  11
ATOM     11  C   UNL     1     112.945 -83.010  21.343  1.00  0.00     0.041 C 
ATOM     12  O   UNL     1     112.933 -81.755  21.243  1.00  0.00    -0.550 OA
ATOM     13  O   UNL     1     112.185 -83.629  22.327  1.00  0.00    -0.550 OA
ENDBRANCH  10  11
ENDBRANCH   9  10
ENDBRANCH   8   9
ENDBRANCH   1   8
TORSDOF 8
ENDMDL
MODEL 7
REMARK VINA RESULT:    -4.486      0.579      5.062
REMARK INTER + INTRA:          -7.049
REMARK INTER:                  -6.465
REMARK INTRA:                  -0.584
REMARK UNBOUND:                -0.464
REMARK SMILES O=C([O-])CCCCCCCC(=O)[O-]
REMARK SMILES IDX 7 1 6 2 5 3 4 4 2 5 1 6 3 7 8 8 9 9 10 10 11 11 12 12 13 13
REMARK H PARENT
REMARK Flexibility Score: inf
ROOT
ATOM      1  C   UNL     1     118.034 -82.991  21.466  1.00  0.00     0.000 C 
ENDROOT
BRANCH   1   2
ATOM      2  C   UNL     1     116.553 -83.211  21.813  1.00  0.00     0.000 C 
BRANCH   2   3
ATOM      3  C   UNL     1     115.625 -83.021  20.601  1.00  0.00     0.006 C 
BRANCH   3   4
ATOM      4  C   UNL     1     114.342 -83.854  20.718  1.00  0.00     0.053 C 
BRANCH   4   5
ATOM      5  C   UNL     1     113.262 -83.116  21.450  1.00  0.00     0.041 C 
ATOM      6  O   UNL     1     112.485 -83.734  22.222  1.00  0.00    -0.550 OA
ATOM      7  O   UNL     1     113.097 -81.750  21.255  1.00  0.00    -0.550 OA
ENDBRANCH   4   5
ENDBRANCH   3   4
ENDBRANCH   2   3
ENDBRANCH   1   2
BRANCH   1   8
ATOM      8  C   UNL     1     118.755 -82.094  22.484  1.00  0.00     0.000 C 
BRANCH   8   9
ATOM      9  C   UNL     1     119.417 -80.895  21.787  1.00  0.00     0.006 C 
BRANCH   9  10
ATOM     10  C   UNL     1     118.450 -80.162  20.850  1.00  0.00     0.053 C 
BRANCH  10  11
ATOM     11  C   UNL     1     117.501 -79.285  21.608  1.00  0.00     0.041 C 
ATOM     12  O   UNL     1     117.922 -78.253  22.196  1.00  0.00    -0.550 OA
ATOM     13  O   UNL     1     116.147 -79.590  21.640  1.00  0.00    -0.550 OA
ENDBRANCH  10  11
ENDBRANCH   9  10
ENDBRANCH   8   9
ENDBRANCH   1   8
TORSDOF 8
ENDMDL
MODEL 8
REMARK VINA RESULT:    -4.435      2.455      5.866
REMARK INTER + INTRA:          -6.974
REMARK INTER:                  -6.690
REMARK INTRA:                  -0.284
REMARK UNBOUND:                -0.464
REMARK SMILES O=C([O-])CCCCCCCC(=O)[O-]
REMARK SMILES IDX 7 1 6 2 5 3 4 4 2 5 1 6 3 7 8 8 9 9 10 10 11 11 12 12 13 13
REMARK H PARENT
REMARK Flexibility Score: inf
ROOT
ATOM      1  C   UNL     1     116.778 -82.868  21.823  1.00  0.00     0.000 C 
ENDROOT
BRANCH   1   2
ATOM      2  C   UNL     1     115.900 -83.742  20.914  1.00  0.00     0.000 C 
BRANCH   2   3
ATOM      3  C   UNL     1     114.756 -82.951  20.257  1.00  0.00     0.006 C 
BRANCH   3   4
ATOM      4  C   UNL     1     114.011 -82.065  21.264  1.00  0.00     0.053 C 
BRANCH   4   5
ATOM      5  C   UNL     1     112.625 -82.569  21.533  1.00  0.00     0.041 C 
ATOM      6  O   UNL     1     111.628 -81.948  21.082  1.00  0.00    -0.550 OA
ATOM      7  O   UNL     1     112.436 -83.707  22.307  1.00  0.00    -0.550 OA
ENDBRANCH   4   5
ENDBRANCH   3   4
ENDBRANCH   2   3
ENDBRANCH   1   2
BRANCH   1   8
ATOM      8  C   UNL     1     118.276 -82.994  21.500  1.00  0.00     0.000 C 
BRANCH   8   9
ATOM      9  C   UNL     1     119.131 -82.367  22.612  1.00  0.00     0.006 C 
BRANCH   9  10
ATOM     10  C   UNL     1     119.299 -83.306  23.814  1.00  0.00     0.053 C 
BRANCH  10  11
ATOM     11  C   UNL     1     119.670 -82.555  25.056  1.00  0.00     0.041 C 
ATOM     12  O   UNL     1     119.810 -81.304  25.023  1.00  0.00    -0.550 OA
ATOM     13  O   UNL     1     119.830 -83.234  26.257  1.00  0.00    -0.550 OA
ENDBRANCH  10  11
ENDBRANCH   9  10
ENDBRANCH   8   9
ENDBRANCH   1   8
TORSDOF 8
ENDMDL
MODEL 9
REMARK VINA RESULT:    -4.434      2.074      2.963
REMARK INTER + INTRA:          -6.972
REMARK INTER:                  -6.560
REMARK INTRA:                  -0.412
REMARK UNBOUND:                -0.464
REMARK SMILES O=C([O-])CCCCCCCC(=O)[O-]
REMARK SMILES IDX 7 1 6 2 5 3 4 4 2 5 1 6 3 7 8 8 9 9 10 10 11 11 12 12 13 13
REMARK H PARENT
REMARK Flexibility Score: inf
ROOT
ATOM      1  C   UNL     1     115.260 -83.094  20.204  1.00  0.00     0.000 C 
ENDROOT
BRANCH   1   2
ATOM      2  C   UNL     1     116.062 -82.956  21.507  1.00  0.00     0.000 C 
BRANCH   2   3
ATOM      3  C   UNL     1     117.524 -83.409  21.355  1.00  0.00     0.006 C 
BRANCH   3   4
ATOM      4  C   UNL     1     118.512 -82.248  21.528  1.00  0.00     0.053 C 
BRANCH   4   5
ATOM      5  C   UNL     1     119.281 -82.357  22.809  1.00  0.00     0.041 C 
ATOM      6  O   UNL     1     119.509 -83.485  23.317  1.00  0.00    -0.550 OA
ATOM      7  O   UNL     1     119.721 -81.209  23.457  1.00  0.00    -0.550 OA
ENDBRANCH   4   5
ENDBRANCH   3   4
ENDBRANCH   2   3
ENDBRANCH   1   2
BRANCH   1   8
ATOM      8  C   UNL     1     114.004 -83.965  20.369  1.00  0.00     0.000 C 
BRANCH   8   9
ATOM      9  C   UNL     1     113.064 -83.375  21.432  1.00  0.00     0.006 C 
BRANCH   9  10
ATOM     10  C   UNL     1     112.147 -82.288  20.856  1.00  0.00     0.053 C 
BRANCH  10  11
ATOM     11  C   UNL     1     112.363 -80.967  21.530  1.00  0.00     0.041 C 
ATOM     12  O   UNL     1     113.425 -80.320  21.333  1.00  0.00    -0.550 OA
ATOM     13  O   UNL     1     111.377 -80.437  22.351  1.00  0.00    -0.550 OA
ENDBRANCH  10  11
ENDBRANCH   9  10
ENDBRANCH   8   9
ENDBRANCH   1   8
TORSDOF 8
ENDMDL
