MODEL 1
REMARK VINA RESULT:    -3.128      0.000      0.000
REMARK INTER + INTRA:          -9.123
REMARK INTER:                  -6.054
REMARK INTRA:                  -3.069
REMARK UNBOUND:                -3.069
REMARK SMILES CCCCCCCCCCCCCCCCCC(=O)[O-]
REMARK SMILES IDX 10 1 11 2 12 3 13 4 14 5 15 6 16 7 17 8 18 9 19 10 20 11
REMARK SMILES IDX 9 12 8 13 7 14 6 15 5 16 4 17 3 18 2 19 1 20
REMARK H PARENT
REMARK Flexibility Score: inf
ROOT
ATOM      1  C   UNL     1      40.852  35.507  48.071  1.00  0.00     0.000 C 
ENDROOT
BRANCH   1   2
ATOM      2  C   UNL     1      41.805  34.469  48.689  1.00  0.00     0.000 C 
BRANCH   2   3
ATOM      3  C   UNL     1      42.687  35.035  49.822  1.00  0.00     0.000 C 
BRANCH   3   4
ATOM      4  C   UNL     1      43.799  34.057  50.234  1.00  0.00     0.000 C 
BRANCH   4   5
ATOM      5  C   UNL     1      43.850  32.850  49.286  1.00  0.00     0.000 C 
BRANCH   5   6
ATOM      6  C   UNL     1      45.052  31.929  49.559  1.00  0.00     0.000 C 
BRANCH   6   7
ATOM      7  C   UNL     1      45.787  31.474  48.279  1.00  0.00     0.006 C 
BRANCH   7   8
ATOM      8  C   UNL     1      45.198  30.196  47.663  1.00  0.00     0.053 C 
BRANCH   8   9
ATOM      9  C   UNL     1      45.331  29.023  48.585  1.00  0.00     0.041 C 
ATOM     10  O   UNL     1      44.341  28.277  48.810  1.00  0.00    -0.550 OA
ATOM     11  O   UNL     1      46.539  28.771  49.223  1.00  0.00    -0.550 OA
ENDBRANCH   8   9
ENDBRANCH   7   8
ENDBRANCH   6   7
ENDBRANCH   5   6
ENDBRANCH   4   5
ENDBRANCH   3   4
ENDBRANCH   2   3
ENDBRANCH   1   2
BRANCH   1  12
ATOM     12  C   UNL     1      40.664  35.315  46.557  1.00  0.00     0.000 C 
BRANCH  12  13
ATOM     13  C   UNL     1      41.318  34.025  46.039  1.00  0.00    -0.000 C 
BRANCH  13  14
ATOM     14  C   UNL     1      42.527  34.293  45.130  1.00  0.00    -0.000 C 
BRANCH  14  15
ATOM     15  C   UNL     1      43.759  33.518  45.612  1.00  0.00    -0.000 C 
BRANCH  15  16
ATOM     16  C   UNL     1      44.787  34.462  46.254  1.00  0.00    -0.000 C 
BRANCH  16  17
ATOM     17  C   UNL     1      44.430  35.945  46.064  1.00  0.00    -0.000 C 
BRANCH  17  18
ATOM     18  C   UNL     1      44.739  36.792  47.308  1.00  0.00    -0.000 C 
BRANCH  18  19
ATOM     19  C   UNL     1      43.635  37.827  47.555  1.00  0.00    -0.003 C 
ATOM     20  C   UNL     1      42.922  38.192  46.256  1.00  0.00     0.004 C 
ENDBRANCH  18  19
ENDBRANCH  17  18
ENDBRANCH  16  17
ENDBRANCH  15  16
ENDBRANCH  14  15
ENDBRANCH  13  14
ENDBRANCH  12  13
ENDBRANCH   1  12
TORSDOF 16
ENDMDL
MODEL 2
REMARK VINA RESULT:    -2.977      2.786      6.920
REMARK INTER + INTRA:          -8.830
REMARK INTER:                  -6.889
REMARK INTRA:                  -1.942
REMARK UNBOUND:                -3.069
REMARK SMILES CCCCCCCCCCCCCCCCCC(=O)[O-]
REMARK SMILES IDX 10 1 11 2 12 3 13 4 14 5 15 6 16 7 17 8 18 9 19 10 20 11
REMARK SMILES IDX 9 12 8 13 7 14 6 15 5 16 4 17 3 18 2 19 1 20
REMARK H PARENT
REMARK Flexibility Score: inf
ROOT
ATOM      1  C   UNL     1      45.077  32.879  46.818  1.00  0.00     0.000 C 
ENDROOT
BRANCH   1   2
ATOM      2  C   UNL     1      44.016  32.978  45.708  1.00  0.00     0.000 C 
BRANCH   2   3
ATOM      3  C   UNL     1      43.699  34.427  45.280  1.00  0.00     0.000 C 
BRANCH   3   4
ATOM      4  C   UNL     1      42.201  34.636  45.012  1.00  0.00     0.000 C 
BRANCH   4   5
ATOM      5  C   UNL     1      41.354  34.126  46.186  1.00  0.00     0.000 C 
BRANCH   5   6
ATOM      6  C   UNL     1      40.743  35.265  47.020  1.00  0.00     0.000 C 
BRANCH   6   7
ATOM      7  C   UNL     1      41.066  35.171  48.528  1.00  0.00     0.006 C 
BRANCH   7   8
ATOM      8  C   UNL     1      42.293  34.297  48.832  1.00  0.00     0.053 C 
BRANCH   8   9
ATOM      9  C   UNL     1      43.290  35.018  49.685  1.00  0.00     0.041 C 
ATOM     10  O   UNL     1      43.046  35.231  50.903  1.00  0.00    -0.550 OA
ATOM     11  O   UNL     1      44.474  35.485  49.131  1.00  0.00    -0.550 OA
ENDBRANCH   8   9
ENDBRANCH   7   8
ENDBRANCH   6   7
ENDBRANCH   5   6
ENDBRANCH   4   5
ENDBRANCH   3   4
ENDBRANCH   2   3
ENDBRANCH   1   2
BRANCH   1  12
ATOM     12  C   UNL     1      45.041  31.532  47.558  1.00  0.00     0.000 C 
BRANCH  12  13
ATOM     13  C   UNL     1      44.995  31.699  49.085  1.00  0.00    -0.000 C 
BRANCH  13  14
ATOM     14  C   UNL     1      46.382  31.943  49.699  1.00  0.00    -0.000 C 
BRANCH  14  15
ATOM     15  C   UNL     1      47.261  30.692  49.581  1.00  0.00    -0.000 C 
BRANCH  15  16
ATOM     16  C   UNL     1      47.290  29.913  50.905  1.00  0.00    -0.000 C 
BRANCH  16  17
ATOM     17  C   UNL     1      46.367  28.684  50.891  1.00  0.00    -0.000 C 
BRANCH  17  18
ATOM     18  C   UNL     1      46.822  27.615  49.886  1.00  0.00    -0.000 C 
BRANCH  18  19
ATOM     19  C   UNL     1      45.617  26.952  49.207  1.00  0.00    -0.003 C 
ATOM     20  C   UNL     1      44.564  27.988  48.820  1.00  0.00     0.004 C 
ENDBRANCH  18  19
ENDBRANCH  17  18
ENDBRANCH  16  17
ENDBRANCH  15  16
ENDBRANCH  14  15
ENDBRANCH  13  14
ENDBRANCH  12  13
ENDBRANCH   1  12
TORSDOF 16
ENDMDL
MODEL 3
REMARK VINA RESULT:    -2.965      1.346      2.070
REMARK INTER + INTRA:          -8.807
REMARK INTER:                  -6.063
REMARK INTRA:                  -2.744
REMARK UNBOUND:                -3.069
REMARK SMILES CCCCCCCCCCCCCCCCCC(=O)[O-]
REMARK SMILES IDX 10 1 11 2 12 3 13 4 14 5 15 6 16 7 17 8 18 9 19 10 20 11
REMARK SMILES IDX 9 12 8 13 7 14 6 15 5 16 4 17 3 18 2 19 1 20
REMARK H PARENT
REMARK Flexibility Score: inf
ROOT
ATOM      1  C   UNL     1      41.709  34.575  48.586  1.00  0.00     0.000 C 
ENDROOT
BRANCH   1   2
ATOM      2  C   UNL     1      42.779  35.161  49.525  1.00  0.00     0.000 C 
BRANCH   2   3
ATOM      3  C   UNL     1      43.566  34.091  50.311  1.00  0.00     0.000 C 
BRANCH   3   4
ATOM      4  C   UNL     1      43.975  32.906  49.422  1.00  0.00     0.000 C 
BRANCH   4   5
ATOM      5  C   UNL     1      45.498  32.858  49.234  1.00  0.00     0.000 C 
BRANCH   5   6
ATOM      6  C   UNL     1      45.961  31.625  48.438  1.00  0.00     0.000 C 
BRANCH   6   7
ATOM      7  C   UNL     1      45.217  30.326  48.819  1.00  0.00     0.006 C 
BRANCH   7   8
ATOM      8  C   UNL     1      46.131  29.091  48.853  1.00  0.00     0.053 C 
BRANCH   8   9
ATOM      9  C   UNL     1      46.943  29.037  50.111  1.00  0.00     0.041 C 
ATOM     10  O   UNL     1      46.399  28.722  51.203  1.00  0.00    -0.550 OA
ATOM     11  O   UNL     1      48.292  29.366  50.086  1.00  0.00    -0.550 OA
ENDBRANCH   8   9
ENDBRANCH   7   8
ENDBRANCH   6   7
ENDBRANCH   5   6
ENDBRANCH   4   5
ENDBRANCH   3   4
ENDBRANCH   2   3
ENDBRANCH   1   2
BRANCH   1  12
ATOM     12  C   UNL     1      40.933  35.658  47.818  1.00  0.00     0.000 C 
BRANCH  12  13
ATOM     13  C   UNL     1      40.818  35.348  46.317  1.00  0.00    -0.000 C 
BRANCH  13  14
ATOM     14  C   UNL     1      41.341  33.950  45.956  1.00  0.00    -0.000 C 
BRANCH  14  15
ATOM     15  C   UNL     1      42.593  34.044  45.074  1.00  0.00    -0.000 C 
BRANCH  15  16
ATOM     16  C   UNL     1      43.781  33.321  45.726  1.00  0.00    -0.000 C 
BRANCH  16  17
ATOM     17  C   UNL     1      45.023  34.217  45.853  1.00  0.00    -0.000 C 
BRANCH  17  18
ATOM     18  C   UNL     1      44.678  35.647  46.295  1.00  0.00    -0.000 C 
BRANCH  18  19
ATOM     19  C   UNL     1      45.655  36.139  47.370  1.00  0.00    -0.003 C 
ATOM     20  C   UNL     1      47.037  35.519  47.184  1.00  0.00     0.004 C 
ENDBRANCH  18  19
ENDBRANCH  17  18
ENDBRANCH  16  17
ENDBRANCH  15  16
ENDBRANCH  14  15
ENDBRANCH  13  14
ENDBRANCH  12  13
ENDBRANCH   1  12
TORSDOF 16
ENDMDL
MODEL 4
REMARK VINA RESULT:    -2.937      3.464      5.658
REMARK INTER + INTRA:          -8.754
REMARK INTER:                  -5.834
REMARK INTRA:                  -2.919
REMARK UNBOUND:                -3.069
REMARK SMILES CCCCCCCCCCCCCCCCCC(=O)[O-]
REMARK SMILES IDX 10 1 11 2 12 3 13 4 14 5 15 6 16 7 17 8 18 9 19 10 20 11
REMARK SMILES IDX 9 12 8 13 7 14 6 15 5 16 4 17 3 18 2 19 1 20
REMARK H PARENT
REMARK Flexibility Score: inf
ROOT
ATOM      1  C   UNL     1      40.853  35.279  47.222  1.00  0.00     0.000 C 
ENDROOT
BRANCH   1   2
ATOM      2  C   UNL     1      41.227  35.261  48.714  1.00  0.00     0.000 C 
BRANCH   2   3
ATOM      3  C   UNL     1      42.387  34.301  49.050  1.00  0.00     0.000 C 
BRANCH   3   4
ATOM      4  C   UNL     1      43.170  34.753  50.292  1.00  0.00     0.000 C 
BRANCH   4   5
ATOM      5  C   UNL     1      43.969  36.032  50.006  1.00  0.00     0.000 C 
BRANCH   5   6
ATOM      6  C   UNL     1      45.005  35.849  48.884  1.00  0.00     0.000 C 
BRANCH   6   7
ATOM      7  C   UNL     1      44.993  36.986  47.838  1.00  0.00     0.006 C 
BRANCH   7   8
ATOM      8  C   UNL     1      43.672  37.771  47.811  1.00  0.00     0.053 C 
BRANCH   8   9
ATOM      9  C   UNL     1      43.205  38.022  46.410  1.00  0.00     0.041 C 
ATOM     10  O   UNL     1      42.034  38.435  46.197  1.00  0.00    -0.550 OA
ATOM     11  O   UNL     1      44.050  37.769  45.337  1.00  0.00    -0.550 OA
ENDBRANCH   8   9
ENDBRANCH   7   8
ENDBRANCH   6   7
ENDBRANCH   5   6
ENDBRANCH   4   5
ENDBRANCH   3   4
ENDBRANCH   2   3
ENDBRANCH   1   2
BRANCH   1  12
ATOM     12  C   UNL     1      41.405  34.067  46.454  1.00  0.00     0.000 C 
BRANCH  12  13
ATOM     13  C   UNL     1      42.388  34.470  45.343  1.00  0.00    -0.000 C 
BRANCH  13  14
ATOM     14  C   UNL     1      43.856  34.256  45.741  1.00  0.00    -0.000 C 
BRANCH  14  15
ATOM     15  C   UNL     1      44.145  32.771  45.994  1.00  0.00    -0.000 C 
BRANCH  15  16
ATOM     16  C   UNL     1      45.348  32.597  46.933  1.00  0.00    -0.000 C 
BRANCH  16  17
ATOM     17  C   UNL     1      44.972  31.920  48.260  1.00  0.00    -0.000 C 
BRANCH  17  18
ATOM     18  C   UNL     1      45.915  32.308  49.410  1.00  0.00    -0.000 C 
BRANCH  18  19
ATOM     19  C   UNL     1      46.759  31.108  49.856  1.00  0.00    -0.003 C 
ATOM     20  C   UNL     1      45.890  29.872  50.068  1.00  0.00     0.004 C 
ENDBRANCH  18  19
ENDBRANCH  17  18
ENDBRANCH  16  17
ENDBRANCH  15  16
ENDBRANCH  14  15
ENDBRANCH  13  14
ENDBRANCH  12  13
ENDBRANCH   1  12
TORSDOF 16
ENDMDL
MODEL 5
REMARK VINA RESULT:    -2.936      1.516      2.194
REMARK INTER + INTRA:          -8.752
REMARK INTER:                  -5.749
REMARK INTRA:                  -3.003
REMARK UNBOUND:                -3.069
REMARK SMILES CCCCCCCCCCCCCCCCCC(=O)[O-]
REMARK SMILES IDX 10 1 11 2 12 3 13 4 14 5 15 6 16 7 17 8 18 9 19 10 20 11
REMARK SMILES IDX 9 12 8 13 7 14 6 15 5 16 4 17 3 18 2 19 1 20
REMARK H PARENT
REMARK Flexibility Score: inf
ROOT
ATOM      1  C   UNL     1      40.853  35.608  48.008  1.00  0.00     0.000 C 
ENDROOT
BRANCH   1   2
ATOM      2  C   UNL     1      41.741  34.536  48.663  1.00  0.00     0.000 C 
BRANCH   2   3
ATOM      3  C   UNL     1      42.909  35.118  49.485  1.00  0.00     0.000 C 
BRANCH   3   4
ATOM      4  C   UNL     1      43.789  34.018  50.100  1.00  0.00     0.000 C 
BRANCH   4   5
ATOM      5  C   UNL     1      43.996  32.862  49.112  1.00  0.00     0.000 C 
BRANCH   5   6
ATOM      6  C   UNL     1      44.983  31.802  49.632  1.00  0.00     0.000 C 
BRANCH   6   7
ATOM      7  C   UNL     1      45.903  31.220  48.536  1.00  0.00     0.006 C 
BRANCH   7   8
ATOM      8  C   UNL     1      45.192  31.030  47.186  1.00  0.00     0.053 C 
BRANCH   8   9
ATOM      9  C   UNL     1      45.228  29.601  46.737  1.00  0.00     0.041 C 
ATOM     10  O   UNL     1      44.998  29.309  45.534  1.00  0.00    -0.550 OA
ATOM     11  O   UNL     1      45.484  28.588  47.652  1.00  0.00    -0.550 OA
ENDBRANCH   8   9
ENDBRANCH   7   8
ENDBRANCH   6   7
ENDBRANCH   5   6
ENDBRANCH   4   5
ENDBRANCH   3   4
ENDBRANCH   2   3
ENDBRANCH   1   2
BRANCH   1  12
ATOM     12  C   UNL     1      40.717  35.422  46.487  1.00  0.00     0.000 C 
BRANCH  12  13
ATOM     13  C   UNL     1      41.255  34.064  46.009  1.00  0.00    -0.000 C 
BRANCH  13  14
ATOM     14  C   UNL     1      42.306  34.200  44.896  1.00  0.00    -0.000 C 
BRANCH  14  15
ATOM     15  C   UNL     1      43.703  33.838  45.415  1.00  0.00    -0.000 C 
BRANCH  15  16
ATOM     16  C   UNL     1      44.431  35.082  45.949  1.00  0.00    -0.000 C 
BRANCH  16  17
ATOM     17  C   UNL     1      45.777  34.743  46.609  1.00  0.00    -0.000 C 
BRANCH  17  18
ATOM     18  C   UNL     1      46.121  35.690  47.769  1.00  0.00    -0.000 C 
BRANCH  18  19
ATOM     19  C   UNL     1      47.139  35.047  48.719  1.00  0.00    -0.003 C 
ATOM     20  C   UNL     1      48.072  34.102  47.967  1.00  0.00     0.004 C 
ENDBRANCH  18  19
ENDBRANCH  17  18
ENDBRANCH  16  17
ENDBRANCH  15  16
ENDBRANCH  14  15
ENDBRANCH  13  14
ENDBRANCH  12  13
ENDBRANCH   1  12
TORSDOF 16
ENDMDL
MODEL 6
REMARK VINA RESULT:    -2.914      4.806      8.247
REMARK INTER + INTRA:          -8.708
REMARK INTER:                  -6.927
REMARK INTRA:                  -1.781
REMARK UNBOUND:                -3.069
REMARK SMILES CCCCCCCCCCCCCCCCCC(=O)[O-]
REMARK SMILES IDX 10 1 11 2 12 3 13 4 14 5 15 6 16 7 17 8 18 9 19 10 20 11
REMARK SMILES IDX 9 12 8 13 7 14 6 15 5 16 4 17 3 18 2 19 1 20
REMARK H PARENT
REMARK Flexibility Score: inf
ROOT
ATOM      1  C   UNL     1      46.514  28.987  50.877  1.00  0.00     0.000 C 
ENDROOT
BRANCH   1   2
ATOM      2  C   UNL     1      45.380  29.121  49.846  1.00  0.00     0.000 C 
BRANCH   2   3
ATOM      3  C   UNL     1      45.867  29.517  48.437  1.00  0.00     0.000 C 
BRANCH   3   4
ATOM      4  C   UNL     1      45.206  30.811  47.938  1.00  0.00     0.000 C 
BRANCH   4   5
ATOM      5  C   UNL     1      46.164  32.003  48.062  1.00  0.00     0.000 C 
BRANCH   5   6
ATOM      6  C   UNL     1      45.681  33.054  49.077  1.00  0.00     0.000 C 
BRANCH   6   7
ATOM      7  C   UNL     1      44.269  32.770  49.637  1.00  0.00     0.006 C 
BRANCH   7   8
ATOM      8  C   UNL     1      43.488  34.047  49.989  1.00  0.00     0.053 C 
BRANCH   8   9
ATOM      9  C   UNL     1      42.530  34.429  48.903  1.00  0.00     0.041 C 
ATOM     10  O   UNL     1      41.598  35.242  49.137  1.00  0.00    -0.550 OA
ATOM     11  O   UNL     1      42.647  33.863  47.640  1.00  0.00    -0.550 OA
ENDBRANCH   8   9
ENDBRANCH   7   8
ENDBRANCH   6   7
ENDBRANCH   5   6
ENDBRANCH   4   5
ENDBRANCH   3   4
ENDBRANCH   2   3
ENDBRANCH   1   2
BRANCH   1  12
ATOM     12  C   UNL     1      47.811  29.682  50.430  1.00  0.00     0.000 C 
BRANCH  12  13
ATOM     13  C   UNL     1      48.148  30.911  51.287  1.00  0.00    -0.000 C 
BRANCH  13  14
ATOM     14  C   UNL     1      48.946  31.974  50.517  1.00  0.00    -0.000 C 
BRANCH  14  15
ATOM     15  C   UNL     1      49.840  32.783  51.465  1.00  0.00    -0.000 C 
BRANCH  15  16
ATOM     16  C   UNL     1      50.440  31.885  52.557  1.00  0.00    -0.000 C 
BRANCH  16  17
ATOM     17  C   UNL     1      50.613  32.616  53.898  1.00  0.00    -0.000 C 
BRANCH  17  18
ATOM     18  C   UNL     1      49.574  32.184  54.945  1.00  0.00    -0.000 C 
BRANCH  18  19
ATOM     19  C   UNL     1      50.238  31.931  56.304  1.00  0.00    -0.003 C 
ATOM     20  C   UNL     1      50.750  30.497  56.408  1.00  0.00     0.004 C 
ENDBRANCH  18  19
ENDBRANCH  17  18
ENDBRANCH  16  17
ENDBRANCH  15  16
ENDBRANCH  14  15
ENDBRANCH  13  14
ENDBRANCH  12  13
ENDBRANCH   1  12
TORSDOF 16
ENDMDL
MODEL 7
REMARK VINA RESULT:    -2.888      2.374      4.564
REMARK INTER + INTRA:          -8.659
REMARK INTER:                  -6.139
REMARK INTRA:                  -2.520
REMARK UNBOUND:                -3.069
REMARK SMILES CCCCCCCCCCCCCCCCCC(=O)[O-]
REMARK SMILES IDX 10 1 11 2 12 3 13 4 14 5 15 6 16 7 17 8 18 9 19 10 20 11
REMARK SMILES IDX 9 12 8 13 7 14 6 15 5 16 4 17 3 18 2 19 1 20
REMARK H PARENT
REMARK Flexibility Score: inf
ROOT
ATOM      1  C   UNL     1      46.622  33.973  47.544  1.00  0.00     0.000 C 
ENDROOT
BRANCH   1   2
ATOM      2  C   UNL     1      45.414  33.772  46.613  1.00  0.00     0.000 C 
BRANCH   2   3
ATOM      3  C   UNL     1      44.780  32.368  46.715  1.00  0.00     0.000 C 
BRANCH   3   4
ATOM      4  C   UNL     1      45.634  31.409  47.560  1.00  0.00     0.000 C 
BRANCH   4   5
ATOM      5  C   UNL     1      44.959  31.110  48.905  1.00  0.00     0.000 C 
BRANCH   5   6
ATOM      6  C   UNL     1      45.920  30.476  49.926  1.00  0.00     0.000 C 
BRANCH   6   7
ATOM      7  C   UNL     1      47.411  30.743  49.621  1.00  0.00     0.006 C 
BRANCH   7   8
ATOM      8  C   UNL     1      47.991  31.923  50.417  1.00  0.00     0.053 C 
BRANCH   8   9
ATOM      9  C   UNL     1      49.193  31.517  51.214  1.00  0.00     0.041 C 
ATOM     10  O   UNL     1      49.696  32.312  52.052  1.00  0.00    -0.550 OA
ATOM     11  O   UNL     1      49.778  30.275  51.009  1.00  0.00    -0.550 OA
ENDBRANCH   8   9
ENDBRANCH   7   8
ENDBRANCH   6   7
ENDBRANCH   5   6
ENDBRANCH   4   5
ENDBRANCH   3   4
ENDBRANCH   2   3
ENDBRANCH   1   2
BRANCH   1  12
ATOM     12  C   UNL     1      46.291  34.841  48.770  1.00  0.00     0.000 C 
BRANCH  12  13
ATOM     13  C   UNL     1      44.960  35.595  48.617  1.00  0.00    -0.000 C 
BRANCH  13  14
ATOM     14  C   UNL     1      44.208  35.749  49.948  1.00  0.00    -0.000 C 
BRANCH  14  15
ATOM     15  C   UNL     1      43.258  34.568  50.181  1.00  0.00    -0.000 C 
BRANCH  15  16
ATOM     16  C   UNL     1      42.455  34.248  48.911  1.00  0.00    -0.000 C 
BRANCH  16  17
ATOM     17  C   UNL     1      41.232  35.163  48.737  1.00  0.00    -0.000 C 
BRANCH  17  18
ATOM     18  C   UNL     1      40.768  35.257  47.276  1.00  0.00    -0.000 C 
BRANCH  18  19
ATOM     19  C   UNL     1      41.332  34.097  46.446  1.00  0.00    -0.003 C 
ATOM     20  C   UNL     1      41.864  34.589  45.102  1.00  0.00     0.004 C 
ENDBRANCH  18  19
ENDBRANCH  17  18
ENDBRANCH  16  17
ENDBRANCH  15  16
ENDBRANCH  14  15
ENDBRANCH  13  14
ENDBRANCH  12  13
ENDBRANCH   1  12
TORSDOF 16
ENDMDL
MODEL 8
REMARK VINA RESULT:    -2.874      1.505      3.139
REMARK INTER + INTRA:          -8.630
REMARK INTER:                  -6.069
REMARK INTRA:                  -2.561
REMARK UNBOUND:                -3.069
REMARK SMILES CCCCCCCCCCCCCCCCCC(=O)[O-]
REMARK SMILES IDX 10 1 11 2 12 3 13 4 14 5 15 6 16 7 17 8 18 9 19 10 20 11
REMARK SMILES IDX 9 12 8 13 7 14 6 15 5 16 4 17 3 18 2 19 1 20
REMARK H PARENT
REMARK Flexibility Score: inf
ROOT
ATOM      1  C   UNL     1      43.968  34.463  49.759  1.00  0.00     0.000 C 
ENDROOT
BRANCH   1   2
ATOM      2  C   UNL     1      43.851  32.985  49.348  1.00  0.00     0.000 C 
BRANCH   2   3
ATOM      3  C   UNL     1      45.208  32.319  49.038  1.00  0.00     0.000 C 
BRANCH   3   4
ATOM      4  C   UNL     1      45.293  31.830  47.584  1.00  0.00     0.000 C 
BRANCH   4   5
ATOM      5  C   UNL     1      45.464  30.306  47.524  1.00  0.00     0.000 C 
BRANCH   5   6
ATOM      6  C   UNL     1      45.028  29.605  48.822  1.00  0.00     0.000 C 
BRANCH   6   7
ATOM      7  C   UNL     1      46.142  28.750  49.468  1.00  0.00     0.006 C 
BRANCH   7   8
ATOM      8  C   UNL     1      46.678  29.344  50.780  1.00  0.00     0.053 C 
BRANCH   8   9
ATOM      9  C   UNL     1      47.936  30.127  50.561  1.00  0.00     0.041 C 
ATOM     10  O   UNL     1      48.276  31.023  51.379  1.00  0.00    -0.550 OA
ATOM     11  O   UNL     1      48.718  29.891  49.437  1.00  0.00    -0.550 OA
ENDBRANCH   8   9
ENDBRANCH   7   8
ENDBRANCH   6   7
ENDBRANCH   5   6
ENDBRANCH   4   5
ENDBRANCH   3   4
ENDBRANCH   2   3
ENDBRANCH   1   2
BRANCH   1  12
ATOM     12  C   UNL     1      42.673  35.255  49.511  1.00  0.00     0.000 C 
BRANCH  12  13
ATOM     13  C   UNL     1      41.672  34.489  48.633  1.00  0.00    -0.000 C 
BRANCH  13  14
ATOM     14  C   UNL     1      40.928  35.399  47.645  1.00  0.00    -0.000 C 
BRANCH  14  15
ATOM     15  C   UNL     1      41.047  34.867  46.212  1.00  0.00    -0.000 C 
BRANCH  15  16
ATOM     16  C   UNL     1      42.242  33.911  46.078  1.00  0.00    -0.000 C 
BRANCH  16  17
ATOM     17  C   UNL     1      43.403  34.521  45.276  1.00  0.00    -0.000 C 
BRANCH  17  18
ATOM     18  C   UNL     1      44.451  35.196  46.174  1.00  0.00    -0.000 C 
BRANCH  18  19
ATOM     19  C   UNL     1      44.575  36.689  45.844  1.00  0.00    -0.003 C 
ATOM     20  C   UNL     1      43.887  37.546  46.904  1.00  0.00     0.004 C 
ENDBRANCH  18  19
ENDBRANCH  17  18
ENDBRANCH  16  17
ENDBRANCH  15  16
ENDBRANCH  14  15
ENDBRANCH  13  14
ENDBRANCH  12  13
ENDBRANCH   1  12
TORSDOF 16
ENDMDL
MODEL 9
REMARK VINA RESULT:    -2.865      1.795      3.957
REMARK INTER + INTRA:          -8.613
REMARK INTER:                  -6.125
REMARK INTRA:                  -2.488
REMARK UNBOUND:                -3.069
REMARK SMILES CCCCCCCCCCCCCCCCCC(=O)[O-]
REMARK SMILES IDX 10 1 11 2 12 3 13 4 14 5 15 6 16 7 17 8 18 9 19 10 20 11
REMARK SMILES IDX 9 12 8 13 7 14 6 15 5 16 4 17 3 18 2 19 1 20
REMARK H PARENT
REMARK Flexibility Score: inf
ROOT
ATOM      1  C   UNL     1      44.913  31.971  46.135  1.00  0.00     0.000 C 
ENDROOT
BRANCH   1   2
ATOM      2  C   UNL     1      45.742  31.312  47.251  1.00  0.00     0.000 C 
BRANCH   2   3
ATOM      3  C   UNL     1      44.957  31.097  48.562  1.00  0.00     0.000 C 
BRANCH   3   4
ATOM      4  C   UNL     1      45.692  31.682  49.778  1.00  0.00     0.000 C 
BRANCH   4   5
ATOM      5  C   UNL     1      47.186  31.332  49.741  1.00  0.00     0.000 C 
BRANCH   5   6
ATOM      6  C   UNL     1      47.617  30.435  50.914  1.00  0.00     0.000 C 
BRANCH   6   7
ATOM      7  C   UNL     1      46.849  29.096  50.985  1.00  0.00     0.006 C 
BRANCH   7   8
ATOM      8  C   UNL     1      47.044  28.219  49.738  1.00  0.00     0.053 C 
BRANCH   8   9
ATOM      9  C   UNL     1      45.946  27.209  49.594  1.00  0.00     0.041 C 
ATOM     10  O   UNL     1      46.139  26.011  49.931  1.00  0.00    -0.550 OA
ATOM     11  O   UNL     1      44.721  27.583  49.057  1.00  0.00    -0.550 OA
ENDBRANCH   8   9
ENDBRANCH   7   8
ENDBRANCH   6   7
ENDBRANCH   5   6
ENDBRANCH   4   5
ENDBRANCH   3   4
ENDBRANCH   2   3
ENDBRANCH   1   2
BRANCH   1  12
ATOM     12  C   UNL     1      45.047  33.503  46.118  1.00  0.00     0.000 C 
BRANCH  12  13
ATOM     13  C   UNL     1      46.379  33.984  46.714  1.00  0.00    -0.000 C 
BRANCH  13  14
ATOM     14  C   UNL     1      46.195  34.791  48.009  1.00  0.00    -0.000 C 
BRANCH  14  15
ATOM     15  C   UNL     1      44.830  35.490  48.030  1.00  0.00    -0.000 C 
BRANCH  15  16
ATOM     16  C   UNL     1      44.278  35.575  49.461  1.00  0.00    -0.000 C 
BRANCH  16  17
ATOM     17  C   UNL     1      43.322  34.419  49.797  1.00  0.00    -0.000 C 
BRANCH  17  18
ATOM     18  C   UNL     1      42.332  34.120  48.661  1.00  0.00    -0.000 C 
BRANCH  18  19
ATOM     19  C   UNL     1      41.140  35.083  48.707  1.00  0.00    -0.003 C 
ATOM     20  C   UNL     1      40.897  35.723  47.343  1.00  0.00     0.004 C 
ENDBRANCH  18  19
ENDBRANCH  17  18
ENDBRANCH  16  17
ENDBRANCH  15  16
ENDBRANCH  14  15
ENDBRANCH  13  14
ENDBRANCH  12  13
ENDBRANCH   1  12
TORSDOF 16
ENDMDL
