MODEL 1
REMARK VINA RESULT:    -2.268      0.000      0.000
REMARK INTER + INTRA:          -2.268
REMARK INTER:                  -2.268
REMARK INTRA:                   0.000
REMARK UNBOUND:                 0.000
REMARK SMILES CC(=O)[O-]
REMARK SMILES IDX 1 1 2 2 3 3 4 4
REMARK H PARENT
REMARK Flexibility Score: inf
ROOT
ATOM      1  C   UNL     1     -26.617  21.935   0.077  1.00  0.00     0.063 C 
ATOM      2  C   UNL     1     -26.613  23.426   0.064  1.00  0.00     0.038 C 
ATOM      3  O   UNL     1     -25.524  24.055   0.123  1.00  0.00    -0.550 OA
ATOM      4  O   UNL     1     -27.813  24.125   0.040  1.00  0.00    -0.550 OA
ENDROOT
TORSDOF 0
ENDMDL
MODEL 2
REMARK VINA RESULT:    -1.922     11.698     11.815
REMARK INTER + INTRA:          -1.922
REMARK INTER:                  -1.922
REMARK INTRA:                   0.000
REMARK UNBOUND:                 0.000
REMARK SMILES CC(=O)[O-]
REMARK SMILES IDX 1 1 2 2 3 3 4 4
REMARK H PARENT
REMARK Flexibility Score: inf
ROOT
ATOM      1  C   UNL     1     -32.847  23.371 -10.004  1.00  0.00     0.063 C 
ATOM      2  C   UNL     1     -31.908  22.242 -10.263  1.00  0.00     0.038 C 
ATOM      3  O   UNL     1     -30.770  22.467 -10.752  1.00  0.00    -0.550 OA
ATOM      4  O   UNL     1     -32.305  20.935 -10.015  1.00  0.00    -0.550 OA
ENDROOT
TORSDOF 0
ENDMDL
MODEL 3
REMARK VINA RESULT:    -1.896     11.344     11.599
REMARK INTER + INTRA:          -1.896
REMARK INTER:                  -1.896
REMARK INTRA:                   0.000
REMARK UNBOUND:                 0.000
REMARK SMILES CC(=O)[O-]
REMARK SMILES IDX 1 1 2 2 3 3 4 4
REMARK H PARENT
REMARK Flexibility Score: inf
ROOT
ATOM      1  C   UNL     1     -32.014  21.956 -10.375  1.00  0.00     0.063 C 
ATOM      2  C   UNL     1     -32.340  23.363 -10.003  1.00  0.00     0.038 C 
ATOM      3  O   UNL     1     -31.441  24.124  -9.560  1.00  0.00    -0.550 OA
ATOM      4  O   UNL     1     -33.648  23.822 -10.095  1.00  0.00    -0.550 OA
ENDROOT
TORSDOF 0
ENDMDL
MODEL 4
REMARK VINA RESULT:    -1.791     11.330     11.690
REMARK INTER + INTRA:          -1.791
REMARK INTER:                  -1.791
REMARK INTRA:                   0.000
REMARK UNBOUND:                 0.000
REMARK SMILES CC(=O)[O-]
REMARK SMILES IDX 1 1 2 2 3 3 4 4
REMARK H PARENT
REMARK Flexibility Score: inf
ROOT
ATOM      1  C   UNL     1     -31.920  21.890 -10.395  1.00  0.00     0.063 C 
ATOM      2  C   UNL     1     -32.378  23.251  -9.992  1.00  0.00     0.038 C 
ATOM      3  O   UNL     1     -33.549  23.628 -10.260  1.00  0.00    -0.550 OA
ATOM      4  O   UNL     1     -31.498  24.125  -9.367  1.00  0.00    -0.550 OA
ENDROOT
TORSDOF 0
ENDMDL
MODEL 5
REMARK VINA RESULT:    -1.782     13.290     13.576
REMARK INTER + INTRA:          -1.782
REMARK INTER:                  -1.782
REMARK INTRA:                   0.000
REMARK UNBOUND:                 0.000
REMARK SMILES CC(=O)[O-]
REMARK SMILES IDX 1 1 2 2 3 3 4 4
REMARK H PARENT
REMARK Flexibility Score: inf
ROOT
ATOM      1  C   UNL     1     -29.380  18.464 -10.731  1.00  0.00     0.063 C 
ATOM      2  C   UNL     1     -29.349  17.216 -11.548  1.00  0.00     0.038 C 
ATOM      3  O   UNL     1     -29.724  16.124 -11.047  1.00  0.00    -0.550 OA
ATOM      4  O   UNL     1     -28.857  17.246 -12.846  1.00  0.00    -0.550 OA
ENDROOT
TORSDOF 0
ENDMDL
MODEL 6
REMARK VINA RESULT:    -1.768     13.111     13.363
REMARK INTER + INTRA:          -1.768
REMARK INTER:                  -1.768
REMARK INTRA:                   0.000
REMARK UNBOUND:                 0.000
REMARK SMILES CC(=O)[O-]
REMARK SMILES IDX 1 1 2 2 3 3 4 4
REMARK H PARENT
REMARK Flexibility Score: inf
ROOT
ATOM      1  C   UNL     1     -29.961  16.104 -11.056  1.00  0.00     0.063 C 
ATOM      2  C   UNL     1     -29.361  17.388 -11.522  1.00  0.00     0.038 C 
ATOM      3  O   UNL     1     -28.847  17.465 -12.668  1.00  0.00    -0.550 OA
ATOM      4  O   UNL     1     -29.321  18.486 -10.673  1.00  0.00    -0.550 OA
ENDROOT
TORSDOF 0
ENDMDL
MODEL 7
REMARK VINA RESULT:    -1.622      1.494      2.063
REMARK INTER + INTRA:          -1.622
REMARK INTER:                  -1.622
REMARK INTRA:                   0.000
REMARK UNBOUND:                 0.000
REMARK SMILES CC(=O)[O-]
REMARK SMILES IDX 1 1 2 2 3 3 4 4
REMARK H PARENT
REMARK Flexibility Score: inf
ROOT
ATOM      1  C   UNL     1     -27.641  24.031   0.125  1.00  0.00     0.063 C 
ATOM      2  C   UNL     1     -26.313  23.366  -0.020  1.00  0.00     0.038 C 
ATOM      3  O   UNL     1     -26.247  22.120  -0.192  1.00  0.00    -0.550 OA
ATOM      4  O   UNL     1     -25.146  24.111   0.087  1.00  0.00    -0.550 OA
ENDROOT
TORSDOF 0
ENDMDL
MODEL 8
REMARK VINA RESULT:    -0.128     28.319     28.746
REMARK INTER + INTRA:          -0.128
REMARK INTER:                  -0.128
REMARK INTRA:                   0.000
REMARK UNBOUND:                 0.000
REMARK SMILES CC(=O)[O-]
REMARK SMILES IDX 1 1 2 2 3 3 4 4
REMARK H PARENT
REMARK Flexibility Score: inf
ROOT
ATOM      1  C   UNL     1     -18.901   4.590 -19.679  1.00  0.00     0.063 C 
ATOM      2  C   UNL     1     -17.513   4.229 -19.269  1.00  0.00     0.038 C 
ATOM      3  O   UNL     1     -16.590   4.197 -20.125  1.00  0.00    -0.550 OA
ATOM      4  O   UNL     1     -17.245   3.876 -17.953  1.00  0.00    -0.550 OA
ENDROOT
TORSDOF 0
ENDMDL
