MODEL 1
REMARK VINA RESULT:    -5.552      0.000      0.000
REMARK INTER + INTRA:          -5.552
REMARK INTER:                  -5.552
REMARK INTRA:                   0.000
REMARK UNBOUND:                 0.000
REMARK SMILES C=C1CCC[C@]2(C)CC(=O)C(=C(C)C)C[C@H]12
REMARK SMILES IDX 13 1 12 2 11 3 15 4 16 5 2 6 1 7 3 8 4 9 5 10 6 11 8 12 9 13
REMARK SMILES IDX 10 14 7 15 14 16
REMARK H PARENT
REMARK Flexibility Score: inf
ROOT
ATOM      1  C   UNL     1      18.131  27.572  27.799  1.00  0.00     0.039 C 
ATOM      2  C   UNL     1      19.232  28.271  28.562  1.00  0.00    -0.070 C 
ATOM      3  C   UNL     1      19.041  29.506  29.107  1.00  0.00    -0.006 C 
ATOM      4  C   UNL     1      17.727  30.250  28.980  1.00  0.00     0.047 C 
ATOM      5  C   UNL     1      17.384  31.111  30.223  1.00  0.00     0.025 C 
ATOM      6  C   UNL     1      16.188  31.989  29.893  1.00  0.00    -0.073 C 
ATOM      7  C   UNL     1      14.950  31.627  30.267  1.00  0.00     0.008 C 
ATOM      8  C   UNL     1      16.394  33.193  28.999  1.00  0.00     0.031 C 
ATOM      9  C   UNL     1      17.616  34.016  29.429  1.00  0.00     0.005 C 
ATOM     10  C   UNL     1      18.853  33.141  29.709  1.00  0.00     0.008 C 
ATOM     11  C   UNL     1      18.568  31.997  30.726  1.00  0.00    -0.018 C 
ATOM     12  C   UNL     1      19.840  31.133  30.926  1.00  0.00     0.088 C 
ATOM     13  C   UNL     1      20.141  30.268  29.743  1.00  0.00     0.159 C 
ATOM     14  O   UNL     1      21.321  30.205  29.307  1.00  0.00    -0.295 OA
ATOM     15  C   UNL     1      18.215  32.601  32.113  1.00  0.00     0.012 C 
ATOM     16  C   UNL     1      20.538  27.529  28.728  1.00  0.00     0.039 C 
ENDROOT
TORSDOF 0
ENDMDL
MODEL 2
REMARK VINA RESULT:    -5.332      1.796      3.273
REMARK INTER + INTRA:          -5.332
REMARK INTER:                  -5.332
REMARK INTRA:                   0.000
REMARK UNBOUND:                 0.000
REMARK SMILES C=C1CCC[C@]2(C)CC(=O)C(=C(C)C)C[C@H]12
REMARK SMILES IDX 13 1 12 2 11 3 15 4 16 5 2 6 1 7 3 8 4 9 5 10 6 11 8 12 9 13
REMARK SMILES IDX 10 14 7 15 14 16
REMARK H PARENT
REMARK Flexibility Score: inf
ROOT
ATOM      1  C   UNL     1      20.005  28.308  28.623  1.00  0.00     0.039 C 
ATOM      2  C   UNL     1      18.509  28.460  28.773  1.00  0.00    -0.070 C 
ATOM      3  C   UNL     1      17.960  29.598  29.285  1.00  0.00    -0.006 C 
ATOM      4  C   UNL     1      18.809  30.771  29.737  1.00  0.00     0.047 C 
ATOM      5  C   UNL     1      18.140  32.147  29.489  1.00  0.00     0.025 C 
ATOM      6  C   UNL     1      18.957  33.220  30.191  1.00  0.00    -0.073 C 
ATOM      7  C   UNL     1      19.852  33.952  29.509  1.00  0.00     0.008 C 
ATOM      8  C   UNL     1      18.861  33.339  31.697  1.00  0.00     0.031 C 
ATOM      9  C   UNL     1      17.402  33.315  32.175  1.00  0.00     0.005 C 
ATOM     10  C   UNL     1      16.579  32.193  31.515  1.00  0.00     0.008 C 
ATOM     11  C   UNL     1      16.652  32.222  29.960  1.00  0.00    -0.018 C 
ATOM     12  C   UNL     1      15.839  31.043  29.365  1.00  0.00     0.088 C 
ATOM     13  C   UNL     1      16.511  29.722  29.565  1.00  0.00     0.159 C 
ATOM     14  O   UNL     1      15.835  28.738  29.970  1.00  0.00    -0.295 OA
ATOM     15  C   UNL     1      16.002  33.528  29.427  1.00  0.00     0.012 C 
ATOM     16  C   UNL     1      17.646  27.315  28.295  1.00  0.00     0.039 C 
ENDROOT
TORSDOF 0
ENDMDL
MODEL 3
REMARK VINA RESULT:    -5.265      1.901      5.165
REMARK INTER + INTRA:          -5.265
REMARK INTER:                  -5.265
REMARK INTRA:                   0.000
REMARK UNBOUND:                 0.000
REMARK SMILES C=C1CCC[C@]2(C)CC(=O)C(=C(C)C)C[C@H]12
REMARK SMILES IDX 13 1 12 2 11 3 15 4 16 5 2 6 1 7 3 8 4 9 5 10 6 11 8 12 9 13
REMARK SMILES IDX 10 14 7 15 14 16
REMARK H PARENT
REMARK Flexibility Score: inf
ROOT
ATOM      1  C   UNL     1      21.203  34.402  29.887  1.00  0.00     0.039 C 
ATOM      2  C   UNL     1      19.748  34.009  29.781  1.00  0.00    -0.070 C 
ATOM      3  C   UNL     1      19.371  32.700  29.720  1.00  0.00    -0.006 C 
ATOM      4  C   UNL     1      20.378  31.568  29.749  1.00  0.00     0.047 C 
ATOM      5  C   UNL     1      19.861  30.302  30.480  1.00  0.00     0.025 C 
ATOM      6  C   UNL     1      20.841  29.165  30.240  1.00  0.00    -0.073 C 
ATOM      7  C   UNL     1      21.771  28.860  31.160  1.00  0.00     0.008 C 
ATOM      8  C   UNL     1      20.856  28.491  28.885  1.00  0.00     0.031 C 
ATOM      9  C   UNL     1      19.439  28.144  28.409  1.00  0.00     0.005 C 
ATOM     10  C   UNL     1      18.449  29.310  28.592  1.00  0.00     0.008 C 
ATOM     11  C   UNL     1      18.425  29.863  30.048  1.00  0.00    -0.018 C 
ATOM     12  C   UNL     1      17.443  31.059  30.148  1.00  0.00     0.088 C 
ATOM     13  C   UNL     1      17.967  32.292  29.483  1.00  0.00     0.159 C 
ATOM     14  O   UNL     1      17.207  32.960  28.731  1.00  0.00    -0.295 OA
ATOM     15  C   UNL     1      17.900  28.769  31.017  1.00  0.00     0.012 C 
ATOM     16  C   UNL     1      18.728  35.124  29.785  1.00  0.00     0.039 C 
ENDROOT
TORSDOF 0
ENDMDL
MODEL 4
REMARK VINA RESULT:    -5.230      1.670      2.016
REMARK INTER + INTRA:          -5.230
REMARK INTER:                  -5.230
REMARK INTRA:                   0.000
REMARK UNBOUND:                 0.000
REMARK SMILES C=C1CCC[C@]2(C)CC(=O)C(=C(C)C)C[C@H]12
REMARK SMILES IDX 13 1 12 2 11 3 15 4 16 5 2 6 1 7 3 8 4 9 5 10 6 11 8 12 9 13
REMARK SMILES IDX 10 14 7 15 14 16
REMARK H PARENT
REMARK Flexibility Score: inf
ROOT
ATOM      1  C   UNL     1      15.176  26.997  29.232  1.00  0.00     0.039 C 
ATOM      2  C   UNL     1      16.627  27.379  29.055  1.00  0.00    -0.070 C 
ATOM      3  C   UNL     1      17.058  28.652  29.288  1.00  0.00    -0.006 C 
ATOM      4  C   UNL     1      16.117  29.754  29.731  1.00  0.00     0.047 C 
ATOM      5  C   UNL     1      16.774  30.775  30.695  1.00  0.00     0.025 C 
ATOM      6  C   UNL     1      15.829  31.951  30.877  1.00  0.00    -0.073 C 
ATOM      7  C   UNL     1      15.025  32.021  31.950  1.00  0.00     0.008 C 
ATOM      8  C   UNL     1      15.694  32.957  29.754  1.00  0.00     0.031 C 
ATOM      9  C   UNL     1      17.064  33.392  29.216  1.00  0.00     0.005 C 
ATOM     10  C   UNL     1      18.011  32.201  28.970  1.00  0.00     0.008 C 
ATOM     11  C   UNL     1      18.171  31.286  30.219  1.00  0.00    -0.018 C 
ATOM     12  C   UNL     1      19.099  30.089  29.888  1.00  0.00     0.088 C 
ATOM     13  C   UNL     1      18.445  29.083  28.995  1.00  0.00     0.159 C 
ATOM     14  O   UNL     1      19.081  28.622  28.010  1.00  0.00    -0.295 OA
ATOM     15  C   UNL     1      18.855  32.079  31.367  1.00  0.00     0.012 C 
ATOM     16  C   UNL     1      17.586  26.284  28.647  1.00  0.00     0.039 C 
ENDROOT
TORSDOF 0
ENDMDL
MODEL 5
REMARK VINA RESULT:    -5.187      2.136      3.195
REMARK INTER + INTRA:          -5.187
REMARK INTER:                  -5.187
REMARK INTRA:                   0.000
REMARK UNBOUND:                 0.000
REMARK SMILES C=C1CCC[C@]2(C)CC(=O)C(=C(C)C)C[C@H]12
REMARK SMILES IDX 13 1 12 2 11 3 15 4 16 5 2 6 1 7 3 8 4 9 5 10 6 11 8 12 9 13
REMARK SMILES IDX 10 14 7 15 14 16
REMARK H PARENT
REMARK Flexibility Score: inf
ROOT
ATOM      1  C   UNL     1      18.498  25.006  27.531  1.00  0.00     0.039 C 
ATOM      2  C   UNL     1      19.856  25.487  27.985  1.00  0.00    -0.070 C 
ATOM      3  C   UNL     1      20.010  26.695  28.599  1.00  0.00    -0.006 C 
ATOM      4  C   UNL     1      18.840  27.623  28.859  1.00  0.00     0.047 C 
ATOM      5  C   UNL     1      18.977  28.434  30.174  1.00  0.00     0.025 C 
ATOM      6  C   UNL     1      17.887  29.492  30.210  1.00  0.00    -0.073 C 
ATOM      7  C   UNL     1      16.753  29.281  30.898  1.00  0.00     0.008 C 
ATOM      8  C   UNL     1      18.031  30.716  29.331  1.00  0.00     0.031 C 
ATOM      9  C   UNL     1      19.436  31.326  29.436  1.00  0.00     0.005 C 
ATOM     10  C   UNL     1      20.552  30.268  29.340  1.00  0.00     0.008 C 
ATOM     11  C   UNL     1      20.375  29.106  30.361  1.00  0.00    -0.018 C 
ATOM     12  C   UNL     1      21.505  28.059  30.180  1.00  0.00     0.088 C 
ATOM     13  C   UNL     1      21.343  27.248  28.934  1.00  0.00     0.159 C 
ATOM     14  O   UNL     1      22.341  27.051  28.189  1.00  0.00    -0.295 OA
ATOM     15  C   UNL     1      20.500  29.654  31.809  1.00  0.00     0.012 C 
ATOM     16  C   UNL     1      21.028  24.560  27.765  1.00  0.00     0.039 C 
ENDROOT
TORSDOF 0
ENDMDL
MODEL 6
REMARK VINA RESULT:    -5.147      3.158      5.251
REMARK INTER + INTRA:          -5.147
REMARK INTER:                  -5.147
REMARK INTRA:                   0.000
REMARK UNBOUND:                 0.000
REMARK SMILES C=C1CCC[C@]2(C)CC(=O)C(=C(C)C)C[C@H]12
REMARK SMILES IDX 13 1 12 2 11 3 15 4 16 5 2 6 1 7 3 8 4 9 5 10 6 11 8 12 9 13
REMARK SMILES IDX 10 14 7 15 14 16
REMARK H PARENT
REMARK Flexibility Score: inf
ROOT
ATOM      1  C   UNL     1      21.373  23.988  27.525  1.00  0.00     0.039 C 
ATOM      2  C   UNL     1      19.970  24.547  27.462  1.00  0.00    -0.070 C 
ATOM      3  C   UNL     1      19.657  25.741  28.041  1.00  0.00    -0.006 C 
ATOM      4  C   UNL     1      20.685  26.574  28.780  1.00  0.00     0.047 C 
ATOM      5  C   UNL     1      20.464  28.101  28.631  1.00  0.00     0.025 C 
ATOM      6  C   UNL     1      21.390  28.825  29.595  1.00  0.00    -0.073 C 
ATOM      7  C   UNL     1      22.558  29.331  29.170  1.00  0.00     0.008 C 
ATOM      8  C   UNL     1      21.048  28.824  31.070  1.00  0.00     0.031 C 
ATOM      9  C   UNL     1      19.573  29.174  31.310  1.00  0.00     0.005 C 
ATOM     10  C   UNL     1      18.620  28.401  30.378  1.00  0.00     0.008 C 
ATOM     11  C   UNL     1      18.988  28.554  28.872  1.00  0.00    -0.018 C 
ATOM     12  C   UNL     1      18.018  27.717  27.998  1.00  0.00     0.088 C 
ATOM     13  C   UNL     1      18.266  26.247  28.109  1.00  0.00     0.159 C 
ATOM     14  O   UNL     1      17.290  25.464  28.261  1.00  0.00    -0.295 OA
ATOM     15  C   UNL     1      18.819  30.035  28.437  1.00  0.00     0.012 C 
ATOM     16  C   UNL     1      18.940  23.746  26.700  1.00  0.00     0.039 C 
ENDROOT
TORSDOF 0
ENDMDL
MODEL 7
REMARK VINA RESULT:    -5.116      2.919      4.972
REMARK INTER + INTRA:          -5.116
REMARK INTER:                  -5.116
REMARK INTRA:                   0.000
REMARK UNBOUND:                 0.000
REMARK SMILES C=C1CCC[C@]2(C)CC(=O)C(=C(C)C)C[C@H]12
REMARK SMILES IDX 13 1 12 2 11 3 15 4 16 5 2 6 1 7 3 8 4 9 5 10 6 11 8 12 9 13
REMARK SMILES IDX 10 14 7 15 14 16
REMARK H PARENT
REMARK Flexibility Score: inf
ROOT
ATOM      1  C   UNL     1      19.607  24.313  27.486  1.00  0.00     0.039 C 
ATOM      2  C   UNL     1      18.497  25.262  27.876  1.00  0.00    -0.070 C 
ATOM      3  C   UNL     1      18.763  26.446  28.497  1.00  0.00    -0.006 C 
ATOM      4  C   UNL     1      20.175  26.881  28.835  1.00  0.00     0.047 C 
ATOM      5  C   UNL     1      20.390  28.413  28.730  1.00  0.00     0.025 C 
ATOM      6  C   UNL     1      21.749  28.756  29.318  1.00  0.00    -0.073 C 
ATOM      7  C   UNL     1      22.814  28.929  28.519  1.00  0.00     0.008 C 
ATOM      8  C   UNL     1      21.916  28.741  30.822  1.00  0.00     0.031 C 
ATOM      9  C   UNL     1      20.775  29.487  31.527  1.00  0.00     0.005 C 
ATOM     10  C   UNL     1      19.386  29.102  30.980  1.00  0.00     0.008 C 
ATOM     11  C   UNL     1      19.280  29.257  29.434  1.00  0.00    -0.018 C 
ATOM     12  C   UNL     1      17.875  28.813  28.949  1.00  0.00     0.088 C 
ATOM     13  C   UNL     1      17.689  27.330  29.007  1.00  0.00     0.159 C 
ATOM     14  O   UNL     1      16.625  26.858  29.491  1.00  0.00    -0.295 OA
ATOM     15  C   UNL     1      19.436  30.752  29.043  1.00  0.00     0.012 C 
ATOM     16  C   UNL     1      17.086  24.860  27.515  1.00  0.00     0.039 C 
ENDROOT
TORSDOF 0
ENDMDL
MODEL 8
REMARK VINA RESULT:    -5.113      1.567      3.146
REMARK INTER + INTRA:          -5.113
REMARK INTER:                  -5.113
REMARK INTRA:                   0.000
REMARK UNBOUND:                 0.000
REMARK SMILES C=C1CCC[C@]2(C)CC(=O)C(=C(C)C)C[C@H]12
REMARK SMILES IDX 13 1 12 2 11 3 15 4 16 5 2 6 1 7 3 8 4 9 5 10 6 11 8 12 9 13
REMARK SMILES IDX 10 14 7 15 14 16
REMARK H PARENT
REMARK Flexibility Score: inf
ROOT
ATOM      1  C   UNL     1      21.567  29.493  29.129  1.00  0.00     0.039 C 
ATOM      2  C   UNL     1      20.084  29.203  29.157  1.00  0.00    -0.070 C 
ATOM      3  C   UNL     1      19.186  30.141  29.573  1.00  0.00    -0.006 C 
ATOM      4  C   UNL     1      19.615  31.520  30.033  1.00  0.00     0.047 C 
ATOM      5  C   UNL     1      18.599  32.634  29.672  1.00  0.00     0.025 C 
ATOM      6  C   UNL     1      19.005  33.914  30.384  1.00  0.00    -0.073 C 
ATOM      7  C   UNL     1      19.705  34.862  29.739  1.00  0.00     0.008 C 
ATOM      8  C   UNL     1      18.749  34.033  31.871  1.00  0.00     0.031 C 
ATOM      9  C   UNL     1      17.325  33.593  32.237  1.00  0.00     0.005 C 
ATOM     10  C   UNL     1      16.923  32.264  31.568  1.00  0.00     0.008 C 
ATOM     11  C   UNL     1      17.119  32.279  30.024  1.00  0.00    -0.018 C 
ATOM     12  C   UNL     1      16.738  30.900  29.424  1.00  0.00     0.088 C 
ATOM     13  C   UNL     1      17.745  29.839  29.735  1.00  0.00     0.159 C 
ATOM     14  O   UNL     1      17.352  28.710  30.132  1.00  0.00    -0.295 OA
ATOM     15  C   UNL     1      16.165  33.324  29.383  1.00  0.00     0.012 C 
ATOM     16  C   UNL     1      19.636  27.845  28.668  1.00  0.00     0.039 C 
ENDROOT
TORSDOF 0
ENDMDL
MODEL 9
REMARK VINA RESULT:    -5.070      2.595      4.235
REMARK INTER + INTRA:          -5.070
REMARK INTER:                  -5.070
REMARK INTRA:                   0.000
REMARK UNBOUND:                 0.000
REMARK SMILES C=C1CCC[C@]2(C)CC(=O)C(=C(C)C)C[C@H]12
REMARK SMILES IDX 13 1 12 2 11 3 15 4 16 5 2 6 1 7 3 8 4 9 5 10 6 11 8 12 9 13
REMARK SMILES IDX 10 14 7 15 14 16
REMARK H PARENT
REMARK Flexibility Score: inf
ROOT
ATOM      1  C   UNL     1      16.054  28.129  29.759  1.00  0.00     0.039 C 
ATOM      2  C   UNL     1      15.362  29.472  29.784  1.00  0.00    -0.070 C 
ATOM      3  C   UNL     1      16.051  30.619  30.046  1.00  0.00    -0.006 C 
ATOM      4  C   UNL     1      17.540  30.619  30.331  1.00  0.00     0.047 C 
ATOM      5  C   UNL     1      18.270  31.877  29.797  1.00  0.00     0.025 C 
ATOM      6  C   UNL     1      19.688  31.888  30.343  1.00  0.00    -0.073 C 
ATOM      7  C   UNL     1      20.711  31.437  29.598  1.00  0.00     0.008 C 
ATOM      8  C   UNL     1      19.907  32.262  31.794  1.00  0.00     0.031 C 
ATOM      9  C   UNL     1      19.129  33.529  32.175  1.00  0.00     0.005 C 
ATOM     10  C   UNL     1      17.671  33.504  31.678  1.00  0.00     0.008 C 
ATOM     11  C   UNL     1      17.556  33.221  30.151  1.00  0.00    -0.018 C 
ATOM     12  C   UNL     1      16.065  33.167  29.729  1.00  0.00     0.088 C 
ATOM     13  C   UNL     1      15.377  31.928  30.207  1.00  0.00     0.159 C 
ATOM     14  O   UNL     1      14.238  32.018  30.739  1.00  0.00    -0.295 OA
ATOM     15  C   UNL     1      18.206  34.383  29.351  1.00  0.00     0.012 C 
ATOM     16  C   UNL     1      13.884  29.495  29.468  1.00  0.00     0.039 C 
ENDROOT
TORSDOF 0
ENDMDL
