MODEL 1
REMARK VINA RESULT:    -3.755      0.000      0.000
REMARK INTER + INTRA:          -5.588
REMARK INTER:                  -5.072
REMARK INTRA:                  -0.516
REMARK UNBOUND:                -0.516
REMARK SMILES CCCCCCCC(=O)[O-]
REMARK SMILES IDX 5 1 6 2 7 3 8 4 9 5 10 6 4 7 3 8 2 9 1 10
REMARK H PARENT
REMARK Flexibility Score: inf
ROOT
ATOM      1  C   UNL     1       7.632   5.516  18.933  1.00  0.00     0.000 C 
ENDROOT
BRANCH   1   2
ATOM      2  C   UNL     1       7.332   4.077  19.399  1.00  0.00     0.006 C 
BRANCH   2   3
ATOM      3  C   UNL     1       5.854   3.667  19.296  1.00  0.00     0.053 C 
BRANCH   3   4
ATOM      4  C   UNL     1       5.266   3.352  20.637  1.00  0.00     0.041 C 
ATOM      5  O   UNL     1       5.488   2.238  21.181  1.00  0.00    -0.550 OA
ATOM      6  O   UNL     1       4.447   4.277  21.271  1.00  0.00    -0.550 OA
ENDBRANCH   3   4
ENDBRANCH   2   3
ENDBRANCH   1   2
BRANCH   1   7
ATOM      7  C   UNL     1       6.392   6.351  18.565  1.00  0.00     0.000 C 
BRANCH   7   8
ATOM      8  C   UNL     1       6.437   6.881  17.121  1.00  0.00    -0.000 C 
BRANCH   8   9
ATOM      9  C   UNL     1       6.642   5.760  16.090  1.00  0.00    -0.003 C 
ATOM     10  C   UNL     1       5.352   4.998  15.785  1.00  0.00     0.004 C 
ENDBRANCH   8   9
ENDBRANCH   7   8
ENDBRANCH   1   7
TORSDOF 6
ENDMDL
MODEL 2
REMARK VINA RESULT:    -3.715      1.295      1.953
REMARK INTER + INTRA:          -5.535
REMARK INTER:                  -5.248
REMARK INTRA:                  -0.287
REMARK UNBOUND:                -0.516
REMARK SMILES CCCCCCCC(=O)[O-]
REMARK SMILES IDX 5 1 6 2 7 3 8 4 9 5 10 6 4 7 3 8 2 9 1 10
REMARK H PARENT
REMARK Flexibility Score: inf
ROOT
ATOM      1  C   UNL     1       6.385   4.761  19.939  1.00  0.00     0.000 C 
ENDROOT
BRANCH   1   2
ATOM      2  C   UNL     1       5.649   3.456  19.574  1.00  0.00     0.006 C 
BRANCH   2   3
ATOM      3  C   UNL     1       5.906   2.287  20.538  1.00  0.00     0.053 C 
BRANCH   3   4
ATOM      4  C   UNL     1       5.554   2.639  21.951  1.00  0.00     0.041 C 
ATOM      5  O   UNL     1       4.373   2.960  22.249  1.00  0.00    -0.550 OA
ATOM      6  O   UNL     1       6.537   2.644  22.931  1.00  0.00    -0.550 OA
ENDBRANCH   3   4
ENDBRANCH   2   3
ENDBRANCH   1   2
BRANCH   1   7
ATOM      7  C   UNL     1       6.430   5.816  18.818  1.00  0.00     0.000 C 
BRANCH   7   8
ATOM      8  C   UNL     1       6.242   5.206  17.418  1.00  0.00    -0.000 C 
BRANCH   8   9
ATOM      9  C   UNL     1       5.998   6.274  16.340  1.00  0.00    -0.003 C 
ATOM     10  C   UNL     1       6.370   7.681  16.810  1.00  0.00     0.004 C 
ENDBRANCH   8   9
ENDBRANCH   7   8
ENDBRANCH   1   7
TORSDOF 6
ENDMDL
MODEL 3
REMARK VINA RESULT:    -3.702      4.854      6.151
REMARK INTER + INTRA:          -5.517
REMARK INTER:                  -5.253
REMARK INTRA:                  -0.264
REMARK UNBOUND:                -0.516
REMARK SMILES CCCCCCCC(=O)[O-]
REMARK SMILES IDX 5 1 6 2 7 3 8 4 9 5 10 6 4 7 3 8 2 9 1 10
REMARK H PARENT
REMARK Flexibility Score: inf
ROOT
ATOM      1  C   UNL     1       7.021   5.011  15.462  1.00  0.00     0.000 C 
ENDROOT
BRANCH   1   2
ATOM      2  C   UNL     1       8.414   5.663  15.570  1.00  0.00     0.006 C 
BRANCH   2   3
ATOM      3  C   UNL     1       9.290   5.511  14.317  1.00  0.00     0.053 C 
BRANCH   3   4
ATOM      4  C   UNL     1      10.204   6.682  14.128  1.00  0.00     0.041 C 
ATOM      5  O   UNL     1      10.582   7.359  15.120  1.00  0.00    -0.550 OA
ATOM      6  O   UNL     1      10.612   7.047  12.851  1.00  0.00    -0.550 OA
ENDBRANCH   3   4
ENDBRANCH   2   3
ENDBRANCH   1   2
BRANCH   1   7
ATOM      7  C   UNL     1       5.897   5.754  16.208  1.00  0.00     0.000 C 
BRANCH   7   8
ATOM      8  C   UNL     1       6.362   7.092  16.808  1.00  0.00    -0.000 C 
BRANCH   8   9
ATOM      9  C   UNL     1       6.466   7.044  18.340  1.00  0.00    -0.003 C 
ATOM     10  C   UNL     1       6.277   5.633  18.899  1.00  0.00     0.004 C 
ENDBRANCH   8   9
ENDBRANCH   7   8
ENDBRANCH   1   7
TORSDOF 6
ENDMDL
MODEL 4
REMARK VINA RESULT:    -3.649      5.684      7.154
REMARK INTER + INTRA:          -5.445
REMARK INTER:                  -5.235
REMARK INTRA:                  -0.210
REMARK UNBOUND:                -0.516
REMARK SMILES CCCCCCCC(=O)[O-]
REMARK SMILES IDX 5 1 6 2 7 3 8 4 9 5 10 6 4 7 3 8 2 9 1 10
REMARK H PARENT
REMARK Flexibility Score: inf
ROOT
ATOM      1  C   UNL     1       7.820   4.374  14.105  1.00  0.00     0.000 C 
ENDROOT
BRANCH   1   2
ATOM      2  C   UNL     1       9.152   4.373  13.330  1.00  0.00     0.006 C 
BRANCH   2   3
ATOM      3  C   UNL     1       9.290   5.500  12.294  1.00  0.00     0.053 C 
BRANCH   3   4
ATOM      4  C   UNL     1      10.472   6.375  12.574  1.00  0.00     0.041 C 
ATOM      5  O   UNL     1      10.484   7.120  13.589  1.00  0.00    -0.550 OA
ATOM      6  O   UNL     1      11.547   6.393  11.695  1.00  0.00    -0.550 OA
ENDBRANCH   3   4
ENDBRANCH   2   3
ENDBRANCH   1   2
BRANCH   1   7
ATOM      7  C   UNL     1       7.793   5.285  15.347  1.00  0.00     0.000 C 
BRANCH   7   8
ATOM      8  C   UNL     1       6.409   5.339  16.017  1.00  0.00    -0.000 C 
BRANCH   8   9
ATOM      9  C   UNL     1       6.370   6.311  17.206  1.00  0.00    -0.003 C 
ATOM     10  C   UNL     1       6.399   7.777  16.770  1.00  0.00     0.004 C 
ENDBRANCH   8   9
ENDBRANCH   7   8
ENDBRANCH   1   7
TORSDOF 6
ENDMDL
MODEL 5
REMARK VINA RESULT:    -3.623      1.526      2.046
REMARK INTER + INTRA:          -5.410
REMARK INTER:                  -5.096
REMARK INTRA:                  -0.314
REMARK UNBOUND:                -0.516
REMARK SMILES CCCCCCCC(=O)[O-]
REMARK SMILES IDX 5 1 6 2 7 3 8 4 9 5 10 6 4 7 3 8 2 9 1 10
REMARK H PARENT
REMARK Flexibility Score: inf
ROOT
ATOM      1  C   UNL     1       6.567   5.535  20.532  1.00  0.00     0.000 C 
ENDROOT
BRANCH   1   2
ATOM      2  C   UNL     1       5.266   5.432  21.352  1.00  0.00     0.006 C 
BRANCH   2   3
ATOM      3  C   UNL     1       4.490   4.120  21.158  1.00  0.00     0.053 C 
BRANCH   3   4
ATOM      4  C   UNL     1       5.394   2.926  21.179  1.00  0.00     0.041 C 
ATOM      5  O   UNL     1       5.879   2.517  22.267  1.00  0.00    -0.550 OA
ATOM      6  O   UNL     1       5.728   2.286  19.993  1.00  0.00    -0.550 OA
ENDBRANCH   3   4
ENDBRANCH   2   3
ENDBRANCH   1   2
BRANCH   1   7
ATOM      7  C   UNL     1       6.443   6.323  19.214  1.00  0.00     0.000 C 
BRANCH   7   8
ATOM      8  C   UNL     1       6.333   5.411  17.981  1.00  0.00    -0.000 C 
BRANCH   8   9
ATOM      9  C   UNL     1       6.025   6.195  16.696  1.00  0.00    -0.003 C 
ATOM     10  C   UNL     1       6.379   7.678  16.812  1.00  0.00     0.004 C 
ENDBRANCH   8   9
ENDBRANCH   7   8
ENDBRANCH   1   7
TORSDOF 6
ENDMDL
MODEL 6
REMARK VINA RESULT:    -3.602      1.062      1.750
REMARK INTER + INTRA:          -5.382
REMARK INTER:                  -5.039
REMARK INTRA:                  -0.343
REMARK UNBOUND:                -0.516
REMARK SMILES CCCCCCCC(=O)[O-]
REMARK SMILES IDX 5 1 6 2 7 3 8 4 9 5 10 6 4 7 3 8 2 9 1 10
REMARK H PARENT
REMARK Flexibility Score: inf
ROOT
ATOM      1  C   UNL     1       7.148   4.075  19.337  1.00  0.00     0.000 C 
ENDROOT
BRANCH   1   2
ATOM      2  C   UNL     1       5.649   3.790  19.564  1.00  0.00     0.006 C 
BRANCH   2   3
ATOM      3  C   UNL     1       5.325   3.101  20.898  1.00  0.00     0.053 C 
BRANCH   3   4
ATOM      4  C   UNL     1       4.530   3.987  21.807  1.00  0.00     0.041 C 
ATOM      5  O   UNL     1       4.215   5.151  21.442  1.00  0.00    -0.550 OA
ATOM      6  O   UNL     1       4.167   3.541  23.071  1.00  0.00    -0.550 OA
ENDBRANCH   3   4
ENDBRANCH   2   3
ENDBRANCH   1   2
BRANCH   1   7
ATOM      7  C   UNL     1       7.461   4.986  18.135  1.00  0.00     0.000 C 
BRANCH   7   8
ATOM      8  C   UNL     1       6.511   6.193  18.039  1.00  0.00    -0.000 C 
BRANCH   8   9
ATOM      9  C   UNL     1       6.000   6.424  16.608  1.00  0.00    -0.003 C 
ATOM     10  C   UNL     1       5.549   5.131  15.928  1.00  0.00     0.004 C 
ENDBRANCH   8   9
ENDBRANCH   7   8
ENDBRANCH   1   7
TORSDOF 6
ENDMDL
MODEL 7
REMARK VINA RESULT:    -3.575      2.778      4.224
REMARK INTER + INTRA:          -5.345
REMARK INTER:                  -5.046
REMARK INTRA:                  -0.299
REMARK UNBOUND:                -0.516
REMARK SMILES CCCCCCCC(=O)[O-]
REMARK SMILES IDX 5 1 6 2 7 3 8 4 9 5 10 6 4 7 3 8 2 9 1 10
REMARK H PARENT
REMARK Flexibility Score: inf
ROOT
ATOM      1  C   UNL     1       6.952   5.084  15.539  1.00  0.00     0.000 C 
ENDROOT
BRANCH   1   2
ATOM      2  C   UNL     1       5.908   5.903  16.325  1.00  0.00     0.006 C 
BRANCH   2   3
ATOM      3  C   UNL     1       6.503   6.951  17.277  1.00  0.00     0.053 C 
BRANCH   3   4
ATOM      4  C   UNL     1       6.475   6.492  18.703  1.00  0.00     0.041 C 
ATOM      5  O   UNL     1       6.505   7.332  19.641  1.00  0.00    -0.550 OA
ATOM      6  O   UNL     1       6.449   5.135  18.995  1.00  0.00    -0.550 OA
ENDBRANCH   3   4
ENDBRANCH   2   3
ENDBRANCH   1   2
BRANCH   1   7
ATOM      7  C   UNL     1       8.378   5.667  15.554  1.00  0.00     0.000 C 
BRANCH   7   8
ATOM      8  C   UNL     1       9.123   5.455  14.225  1.00  0.00    -0.000 C 
BRANCH   8   9
ATOM      9  C   UNL     1      10.319   6.406  14.064  1.00  0.00    -0.003 C 
ATOM     10  C   UNL     1      10.600   7.219  15.329  1.00  0.00     0.004 C 
ENDBRANCH   8   9
ENDBRANCH   7   8
ENDBRANCH   1   7
TORSDOF 6
ENDMDL
MODEL 8
REMARK VINA RESULT:    -3.509      1.217      1.849
REMARK INTER + INTRA:          -5.255
REMARK INTER:                  -4.962
REMARK INTRA:                  -0.293
REMARK UNBOUND:                -0.516
REMARK SMILES CCCCCCCC(=O)[O-]
REMARK SMILES IDX 5 1 6 2 7 3 8 4 9 5 10 6 4 7 3 8 2 9 1 10
REMARK H PARENT
REMARK Flexibility Score: inf
ROOT
ATOM      1  C   UNL     1       6.408   6.722  18.312  1.00  0.00     0.000 C 
ENDROOT
BRANCH   1   2
ATOM      2  C   UNL     1       6.489   5.277  18.843  1.00  0.00     0.006 C 
BRANCH   2   3
ATOM      3  C   UNL     1       5.771   5.047  20.182  1.00  0.00     0.053 C 
BRANCH   3   4
ATOM      4  C   UNL     1       5.742   3.598  20.559  1.00  0.00     0.041 C 
ATOM      5  O   UNL     1       5.615   2.713  19.671  1.00  0.00    -0.550 OA
ATOM      6  O   UNL     1       5.821   3.225  21.894  1.00  0.00    -0.550 OA
ENDBRANCH   3   4
ENDBRANCH   2   3
ENDBRANCH   1   2
BRANCH   1   7
ATOM      7  C   UNL     1       6.360   6.848  16.777  1.00  0.00     0.000 C 
BRANCH   7   8
ATOM      8  C   UNL     1       6.118   5.501  16.076  1.00  0.00    -0.000 C 
BRANCH   8   9
ATOM      9  C   UNL     1       7.329   5.043  15.249  1.00  0.00    -0.003 C 
ATOM     10  C   UNL     1       8.593   5.844  15.563  1.00  0.00     0.004 C 
ENDBRANCH   8   9
ENDBRANCH   7   8
ENDBRANCH   1   7
TORSDOF 6
ENDMDL
MODEL 9
REMARK VINA RESULT:    -3.465      3.477      5.154
REMARK INTER + INTRA:          -5.196
REMARK INTER:                  -4.978
REMARK INTRA:                  -0.219
REMARK UNBOUND:                -0.516
REMARK SMILES CCCCCCCC(=O)[O-]
REMARK SMILES IDX 5 1 6 2 7 3 8 4 9 5 10 6 4 7 3 8 2 9 1 10
REMARK H PARENT
REMARK Flexibility Score: inf
ROOT
ATOM      1  C   UNL     1       6.381   6.301  18.297  1.00  0.00     0.000 C 
ENDROOT
BRANCH   1   2
ATOM      2  C   UNL     1       6.367   6.614  16.787  1.00  0.00     0.006 C 
BRANCH   2   3
ATOM      3  C   UNL     1       6.532   5.387  15.878  1.00  0.00     0.053 C 
BRANCH   3   4
ATOM      4  C   UNL     1       7.900   5.319  15.271  1.00  0.00     0.041 C 
ATOM      5  O   UNL     1       8.123   4.559  14.292  1.00  0.00    -0.550 OA
ATOM      6  O   UNL     1       8.936   6.072  15.808  1.00  0.00    -0.550 OA
ENDBRANCH   3   4
ENDBRANCH   2   3
ENDBRANCH   1   2
BRANCH   1   7
ATOM      7  C   UNL     1       6.586   4.815  18.649  1.00  0.00     0.000 C 
BRANCH   7   8
ATOM      8  C   UNL     1       5.889   4.411  19.960  1.00  0.00    -0.000 C 
BRANCH   8   9
ATOM      9  C   UNL     1       5.675   2.894  20.067  1.00  0.00    -0.003 C 
ATOM     10  C   UNL     1       5.436   2.434  21.506  1.00  0.00     0.004 C 
ENDBRANCH   8   9
ENDBRANCH   7   8
ENDBRANCH   1   7
TORSDOF 6
ENDMDL
