MODEL 1
REMARK VINA RESULT:    -4.897      0.000      0.000
REMARK INTER + INTRA:          -5.555
REMARK INTER:                  -5.470
REMARK INTRA:                  -0.085
REMARK UNBOUND:                -0.085
REMARK SMILES CCc1ccc(O)cc1O
REMARK SMILES IDX 3 1 9 2 8 3 6 4 5 5 4 6 2 7 1 8 10 9 7 11
REMARK H PARENT 10 10 7 12
REMARK Flexibility Score: inf
ROOT
ATOM      1  C   UNL     1      25.619   3.733  29.014  1.00  0.00    -0.006 A 
ATOM      2  C   UNL     1      26.218   4.861  29.629  1.00  0.00     0.122 A 
ATOM      3  C   UNL     1      25.417   5.787  30.310  1.00  0.00     0.092 A 
ATOM      4  C   UNL     1      24.035   5.603  30.404  1.00  0.00     0.119 A 
ATOM      5  C   UNL     1      23.443   4.481  29.814  1.00  0.00     0.047 A 
ATOM      6  C   UNL     1      24.229   3.552  29.128  1.00  0.00     0.011 A 
ENDROOT
BRANCH   1   7
ATOM      7  C   UNL     1      26.429   2.694  28.276  1.00  0.00     0.036 C 
ATOM      8  C   UNL     1      25.694   1.358  28.233  1.00  0.00     0.009 C 
ENDBRANCH   1   7
BRANCH   2   9
ATOM      9  O   UNL     1      27.595   5.092  29.591  1.00  0.00    -0.508 OA
ATOM     10  H   UNL     1      28.227   4.833  30.338  1.00  0.00     0.293 HD
ENDBRANCH   2   9
BRANCH   4  11
ATOM     11  O   UNL     1      23.262   6.538  31.087  1.00  0.00    -0.508 OA
ATOM     12  H   UNL     1      22.291   6.356  31.315  1.00  0.00     0.293 HD
ENDBRANCH   4  11
TORSDOF 3
ENDMDL
MODEL 2
REMARK VINA RESULT:    -4.836     12.460     13.740
REMARK INTER + INTRA:          -5.487
REMARK INTER:                  -5.392
REMARK INTRA:                  -0.094
REMARK UNBOUND:                -0.085
REMARK SMILES CCc1ccc(O)cc1O
REMARK SMILES IDX 3 1 9 2 8 3 6 4 5 5 4 6 2 7 1 8 10 9 7 11
REMARK H PARENT 10 10 7 12
REMARK Flexibility Score: inf
ROOT
ATOM      1  C   UNL     1      14.387  -3.597  33.879  1.00  0.00    -0.006 A 
ATOM      2  C   UNL     1      14.938  -3.395  35.169  1.00  0.00     0.122 A 
ATOM      3  C   UNL     1      15.784  -2.303  35.398  1.00  0.00     0.092 A 
ATOM      4  C   UNL     1      16.078  -1.399  34.373  1.00  0.00     0.119 A 
ATOM      5  C   UNL     1      15.521  -1.586  33.104  1.00  0.00     0.047 A 
ATOM      6  C   UNL     1      14.680  -2.674  32.860  1.00  0.00     0.011 A 
ENDROOT
BRANCH   1   7
ATOM      7  C   UNL     1      13.460  -4.750  33.571  1.00  0.00     0.036 C 
ATOM      8  C   UNL     1      12.069  -4.246  33.198  1.00  0.00     0.009 C 
ENDBRANCH   1   7
BRANCH   2   9
ATOM      9  O   UNL     1      14.666  -4.247  36.241  1.00  0.00    -0.508 OA
ATOM     10  H   UNL     1      13.781  -4.268  36.730  1.00  0.00     0.293 HD
ENDBRANCH   2   9
BRANCH   4  11
ATOM     11  O   UNL     1      16.921  -0.321  34.628  1.00  0.00    -0.508 OA
ATOM     12  H   UNL     1      17.124  -0.021  35.575  1.00  0.00     0.293 HD
ENDBRANCH   4  11
TORSDOF 3
ENDMDL
MODEL 3
REMARK VINA RESULT:    -4.812     12.095     13.151
REMARK INTER + INTRA:          -5.460
REMARK INTER:                  -5.374
REMARK INTRA:                  -0.085
REMARK UNBOUND:                -0.085
REMARK SMILES CCc1ccc(O)cc1O
REMARK SMILES IDX 3 1 9 2 8 3 6 4 5 5 4 6 2 7 1 8 10 9 7 11
REMARK H PARENT 10 10 7 12
REMARK Flexibility Score: inf
ROOT
ATOM      1  C   UNL     1      16.346  -3.959  34.244  1.00  0.00    -0.006 A 
ATOM      2  C   UNL     1      15.328  -3.667  35.185  1.00  0.00     0.122 A 
ATOM      3  C   UNL     1      14.623  -2.460  35.091  1.00  0.00     0.092 A 
ATOM      4  C   UNL     1      14.900  -1.549  34.069  1.00  0.00     0.119 A 
ATOM      5  C   UNL     1      15.892  -1.843  33.128  1.00  0.00     0.047 A 
ATOM      6  C   UNL     1      16.606  -3.040  33.212  1.00  0.00     0.011 A 
ENDROOT
BRANCH   1   7
ATOM      7  C   UNL     1      17.134  -5.248  34.286  1.00  0.00     0.036 C 
ATOM      8  C   UNL     1      17.723  -5.571  32.915  1.00  0.00     0.009 C 
ENDBRANCH   1   7
BRANCH   2   9
ATOM      9  O   UNL     1      14.987  -4.544  36.217  1.00  0.00    -0.508 OA
ATOM     10  H   UNL     1      14.930  -4.271  37.189  1.00  0.00     0.293 HD
ENDBRANCH   2   9
BRANCH   4  11
ATOM     11  O   UNL     1      14.183  -0.357  33.998  1.00  0.00    -0.508 OA
ATOM     12  H   UNL     1      13.464  -0.213  33.298  1.00  0.00     0.293 HD
ENDBRANCH   4  11
TORSDOF 3
ENDMDL
MODEL 4
REMARK VINA RESULT:    -4.798      2.165      4.305
REMARK INTER + INTRA:          -5.445
REMARK INTER:                  -5.358
REMARK INTRA:                  -0.087
REMARK UNBOUND:                -0.085
REMARK SMILES CCc1ccc(O)cc1O
REMARK SMILES IDX 3 1 9 2 8 3 6 4 5 5 4 6 2 7 1 8 10 9 7 11
REMARK H PARENT 10 10 7 12
REMARK Flexibility Score: inf
ROOT
ATOM      1  C   UNL     1      24.773   3.989  29.097  1.00  0.00    -0.006 A 
ATOM      2  C   UNL     1      25.154   2.625  29.040  1.00  0.00     0.122 A 
ATOM      3  C   UNL     1      26.313   2.258  28.344  1.00  0.00     0.092 A 
ATOM      4  C   UNL     1      27.107   3.224  27.720  1.00  0.00     0.119 A 
ATOM      5  C   UNL     1      26.744   4.572  27.791  1.00  0.00     0.047 A 
ATOM      6  C   UNL     1      25.588   4.952  28.477  1.00  0.00     0.011 A 
ENDROOT
BRANCH   1   7
ATOM      7  C   UNL     1      23.541   4.449  29.841  1.00  0.00     0.036 C 
ATOM      8  C   UNL     1      23.829   5.715  30.643  1.00  0.00     0.009 C 
ENDBRANCH   1   7
BRANCH   2   9
ATOM      9  O   UNL     1      24.416   1.614  29.660  1.00  0.00    -0.508 OA
ATOM     10  H   UNL     1      23.463   1.385  29.414  1.00  0.00     0.293 HD
ENDBRANCH   2   9
BRANCH   4  11
ATOM     11  O   UNL     1      28.255   2.832  27.036  1.00  0.00    -0.508 OA
ATOM     12  H   UNL     1      28.552   3.301  26.188  1.00  0.00     0.293 HD
ENDBRANCH   4  11
TORSDOF 3
ENDMDL
MODEL 5
REMARK VINA RESULT:    -4.728      7.601      8.696
REMARK INTER + INTRA:          -5.366
REMARK INTER:                  -5.264
REMARK INTRA:                  -0.102
REMARK UNBOUND:                -0.085
REMARK SMILES CCc1ccc(O)cc1O
REMARK SMILES IDX 3 1 9 2 8 3 6 4 5 5 4 6 2 7 1 8 10 9 7 11
REMARK H PARENT 10 10 7 12
REMARK Flexibility Score: inf
ROOT
ATOM      1  C   UNL     1      24.519  -2.771  25.464  1.00  0.00    -0.006 A 
ATOM      2  C   UNL     1      25.665  -2.613  26.282  1.00  0.00     0.122 A 
ATOM      3  C   UNL     1      25.844  -3.446  27.394  1.00  0.00     0.092 A 
ATOM      4  C   UNL     1      24.914  -4.444  27.695  1.00  0.00     0.119 A 
ATOM      5  C   UNL     1      23.791  -4.615  26.879  1.00  0.00     0.047 A 
ATOM      6  C   UNL     1      23.598  -3.788  25.770  1.00  0.00     0.011 A 
ENDROOT
BRANCH   1   7
ATOM      7  C   UNL     1      24.276  -1.912  24.245  1.00  0.00     0.036 C 
ATOM      8  C   UNL     1      23.315  -0.770  24.566  1.00  0.00     0.009 C 
ENDBRANCH   1   7
BRANCH   2   9
ATOM      9  O   UNL     1      26.644  -1.650  26.023  1.00  0.00    -0.508 OA
ATOM     10  H   UNL     1      27.165  -1.173  26.747  1.00  0.00     0.293 HD
ENDBRANCH   2   9
BRANCH   4  11
ATOM     11  O   UNL     1      25.116  -5.259  28.806  1.00  0.00    -0.508 OA
ATOM     12  H   UNL     1      25.850  -5.959  28.821  1.00  0.00     0.293 HD
ENDBRANCH   4  11
TORSDOF 3
ENDMDL
MODEL 6
REMARK VINA RESULT:    -4.728     12.518     13.587
REMARK INTER + INTRA:          -5.365
REMARK INTER:                  -5.280
REMARK INTRA:                  -0.085
REMARK UNBOUND:                -0.085
REMARK SMILES CCc1ccc(O)cc1O
REMARK SMILES IDX 3 1 9 2 8 3 6 4 5 5 4 6 2 7 1 8 10 9 7 11
REMARK H PARENT 10 10 7 12
REMARK Flexibility Score: inf
ROOT
ATOM      1  C   UNL     1      16.343  -3.878  34.608  1.00  0.00    -0.006 A 
ATOM      2  C   UNL     1      16.938  -5.005  35.228  1.00  0.00     0.122 A 
ATOM      3  C   UNL     1      17.736  -5.872  34.471  1.00  0.00     0.092 A 
ATOM      4  C   UNL     1      17.966  -5.629  33.114  1.00  0.00     0.119 A 
ATOM      5  C   UNL     1      17.395  -4.508  32.503  1.00  0.00     0.047 A 
ATOM      6  C   UNL     1      16.594  -3.637  33.245  1.00  0.00     0.011 A 
ENDROOT
BRANCH   1   7
ATOM      7  C   UNL     1      15.483  -2.900  35.373  1.00  0.00     0.036 C 
ATOM      8  C   UNL     1      15.489  -1.528  34.704  1.00  0.00     0.009 C 
ENDBRANCH   1   7
BRANCH   2   9
ATOM      9  O   UNL     1      16.767  -5.291  36.584  1.00  0.00    -0.508 OA
ATOM     10  H   UNL     1      15.942  -5.738  36.962  1.00  0.00     0.293 HD
ENDBRANCH   2   9
BRANCH   4  11
ATOM     11  O   UNL     1      18.764  -6.507  32.384  1.00  0.00    -0.508 OA
ATOM     12  H   UNL     1      18.572  -6.711  31.410  1.00  0.00     0.293 HD
ENDBRANCH   4  11
TORSDOF 3
ENDMDL
MODEL 7
REMARK VINA RESULT:    -4.724      1.834      3.728
REMARK INTER + INTRA:          -5.361
REMARK INTER:                  -5.276
REMARK INTRA:                  -0.085
REMARK UNBOUND:                -0.085
REMARK SMILES CCc1ccc(O)cc1O
REMARK SMILES IDX 3 1 9 2 8 3 6 4 5 5 4 6 2 7 1 8 10 9 7 11
REMARK H PARENT 10 10 7 12
REMARK Flexibility Score: inf
ROOT
ATOM      1  C   UNL     1      24.802   4.678  29.101  1.00  0.00    -0.006 A 
ATOM      2  C   UNL     1      26.098   4.262  28.704  1.00  0.00     0.122 A 
ATOM      3  C   UNL     1      26.368   2.898  28.539  1.00  0.00     0.092 A 
ATOM      4  C   UNL     1      25.369   1.942  28.745  1.00  0.00     0.119 A 
ATOM      5  C   UNL     1      24.084   2.351  29.120  1.00  0.00     0.047 A 
ATOM      6  C   UNL     1      23.803   3.708  29.292  1.00  0.00     0.011 A 
ENDROOT
BRANCH   1   7
ATOM      7  C   UNL     1      24.446   6.135  29.285  1.00  0.00     0.036 C 
ATOM      8  C   UNL     1      23.652   6.344  30.571  1.00  0.00     0.009 C 
ENDBRANCH   1   7
BRANCH   2   9
ATOM      9  O   UNL     1      27.133   5.167  28.460  1.00  0.00    -0.508 OA
ATOM     10  H   UNL     1      26.987   6.154  28.297  1.00  0.00     0.293 HD
ENDBRANCH   2   9
BRANCH   4  11
ATOM     11  O   UNL     1      25.663   0.592  28.574  1.00  0.00    -0.508 OA
ATOM     12  H   UNL     1      26.579   0.218  28.797  1.00  0.00     0.293 HD
ENDBRANCH   4  11
TORSDOF 3
ENDMDL
MODEL 8
REMARK VINA RESULT:    -4.716     12.316     13.850
REMARK INTER + INTRA:          -5.353
REMARK INTER:                  -5.247
REMARK INTRA:                  -0.106
REMARK UNBOUND:                -0.085
REMARK SMILES CCc1ccc(O)cc1O
REMARK SMILES IDX 3 1 9 2 8 3 6 4 5 5 4 6 2 7 1 8 10 9 7 11
REMARK H PARENT 10 10 7 12
REMARK Flexibility Score: inf
ROOT
ATOM      1  C   UNL     1      18.603  -6.145  27.367  1.00  0.00    -0.006 A 
ATOM      2  C   UNL     1      18.770  -7.539  27.168  1.00  0.00     0.122 A 
ATOM      3  C   UNL     1      17.859  -8.239  26.367  1.00  0.00     0.092 A 
ATOM      4  C   UNL     1      16.796  -7.576  25.747  1.00  0.00     0.119 A 
ATOM      5  C   UNL     1      16.640  -6.197  25.927  1.00  0.00     0.047 A 
ATOM      6  C   UNL     1      17.538  -5.487  26.726  1.00  0.00     0.011 A 
ENDROOT
BRANCH   1   7
ATOM      7  C   UNL     1      19.558  -5.333  28.209  1.00  0.00     0.036 C 
ATOM      8  C   UNL     1      20.665  -4.728  27.350  1.00  0.00     0.009 C 
ENDBRANCH   1   7
BRANCH   2   9
ATOM      9  O   UNL     1      19.823  -8.256  27.740  1.00  0.00    -0.508 OA
ATOM     10  H   UNL     1      20.782  -8.186  27.428  1.00  0.00     0.293 HD
ENDBRANCH   2   9
BRANCH   4  11
ATOM     11  O   UNL     1      15.905  -8.295  24.955  1.00  0.00    -0.508 OA
ATOM     12  H   UNL     1      14.935  -8.415  25.225  1.00  0.00     0.293 HD
ENDBRANCH   4  11
TORSDOF 3
ENDMDL
MODEL 9
REMARK VINA RESULT:    -4.690      1.575      2.355
REMARK INTER + INTRA:          -5.324
REMARK INTER:                  -5.236
REMARK INTRA:                  -0.087
REMARK UNBOUND:                -0.085
REMARK SMILES CCc1ccc(O)cc1O
REMARK SMILES IDX 3 1 9 2 8 3 6 4 5 5 4 6 2 7 1 8 10 9 7 11
REMARK H PARENT 10 10 7 12
REMARK Flexibility Score: inf
ROOT
ATOM      1  C   UNL     1      25.503   3.647  29.080  1.00  0.00    -0.006 A 
ATOM      2  C   UNL     1      24.113   3.510  29.319  1.00  0.00     0.122 A 
ATOM      3  C   UNL     1      23.414   4.543  29.955  1.00  0.00     0.092 A 
ATOM      4  C   UNL     1      24.068   5.716  30.342  1.00  0.00     0.119 A 
ATOM      5  C   UNL     1      25.437   5.862  30.091  1.00  0.00     0.047 A 
ATOM      6  C   UNL     1      26.147   4.837  29.462  1.00  0.00     0.011 A 
ENDROOT
BRANCH   1   7
ATOM      7  C   UNL     1      26.310   2.574  28.388  1.00  0.00     0.036 C 
ATOM      8  C   UNL     1      27.200   3.174  27.303  1.00  0.00     0.009 C 
ENDBRANCH   1   7
BRANCH   2   9
ATOM      9  O   UNL     1      23.396   2.374  28.937  1.00  0.00    -0.508 OA
ATOM     10  H   UNL     1      23.330   2.049  27.982  1.00  0.00     0.293 HD
ENDBRANCH   2   9
BRANCH   4  11
ATOM     11  O   UNL     1      23.349   6.728  30.972  1.00  0.00    -0.508 OA
ATOM     12  H   UNL     1      23.814   7.448  31.514  1.00  0.00     0.293 HD
ENDBRANCH   4  11
TORSDOF 3
ENDMDL
