MODEL 1
REMARK VINA RESULT:    29.498      0.000      0.000
REMARK INTER + INTRA:          34.542
REMARK INTER:                  34.671
REMARK INTRA:                  -0.128
REMARK UNBOUND:                -0.128
REMARK SMILES O=c1c(O)c(-c2ccc(O)c(O)c2)oc2cc(O)ccc12
REMARK SMILES IDX 5 1 3 2 2 3 1 4 21 5 15 6 14 7 16 8 17 9 19 10 20 11 6 12
REMARK SMILES IDX 7 13 8 14 9 15 13 16 11 17 10 18 12 20 4 22 18 24
REMARK H PARENT 10 19 12 21 4 23 18 25
REMARK Flexibility Score: inf
ROOT
ATOM      1  C   UNL     1      12.295   5.460  17.821  1.00  0.00     0.180 A 
ATOM      2  C   UNL     1      11.494   5.721  16.691  1.00  0.00     0.208 A 
ATOM      3  C   UNL     1      11.261   7.055  16.319  1.00  0.00     0.235 A 
ATOM      4  O   UNL     1      10.538   7.314  15.319  1.00  0.00    -0.285 OA
ATOM      5  C   UNL     1      11.846   8.090  17.065  1.00  0.00     0.069 A 
ATOM      6  C   UNL     1      12.656   7.746  18.168  1.00  0.00     0.142 A 
ATOM      7  O   UNL     1      12.843   6.471  18.492  1.00  0.00    -0.452 OA
ATOM      8  C   UNL     1      13.264   8.749  18.930  1.00  0.00     0.094 A 
ATOM      9  C   UNL     1      13.071  10.098  18.604  1.00  0.00     0.119 A 
ATOM     10  C   UNL     1      12.267  10.442  17.512  1.00  0.00     0.047 A 
ATOM     11  C   UNL     1      11.656   9.446  16.743  1.00  0.00     0.020 A 
ENDROOT
BRANCH   1  12
ATOM     12  C   UNL     1      12.572   4.082  18.286  1.00  0.00     0.025 A 
ATOM     13  C   UNL     1      12.091   3.666  19.538  1.00  0.00     0.016 A 
ATOM     14  C   UNL     1      12.323   2.364  19.989  1.00  0.00     0.051 A 
ATOM     15  C   UNL     1      13.022   1.454  19.191  1.00  0.00     0.157 A 
ATOM     16  C   UNL     1      13.258   3.159  17.476  1.00  0.00     0.062 A 
ATOM     17  C   UNL     1      13.490   1.850  17.926  1.00  0.00     0.158 A 
BRANCH  15  18
ATOM     18  O   UNL     1      13.240   0.161  19.668  1.00  0.00    -0.504 OA
ATOM     19  H   UNL     1      13.750  -0.531  19.132  1.00  0.00     0.293 HD
ENDBRANCH  15  18
BRANCH  17  20
ATOM     20  O   UNL     1      14.175   0.944  17.120  1.00  0.00    -0.504 OA
ATOM     21  H   UNL     1      14.286  -0.027  17.388  1.00  0.00     0.293 HD
ENDBRANCH  17  20
ENDBRANCH   1  12
BRANCH   2  22
ATOM     22  O   UNL     1      10.965   4.668  15.939  1.00  0.00    -0.502 OA
ATOM     23  H   UNL     1      10.018   4.681  15.579  1.00  0.00     0.293 HD
ENDBRANCH   2  22
BRANCH   9  24
ATOM     24  O   UNL     1      13.673  11.104  19.357  1.00  0.00    -0.508 OA
ATOM     25  H   UNL     1      13.525  11.176  20.357  1.00  0.00     0.293 HD
ENDBRANCH   9  24
TORSDOF 5
ENDMDL
MODEL 2
REMARK VINA RESULT:    30.080      4.361      7.865
REMARK INTER + INTRA:          35.227
REMARK INTER:                  35.379
REMARK INTRA:                  -0.152
REMARK UNBOUND:                -0.128
REMARK SMILES O=c1c(O)c(-c2ccc(O)c(O)c2)oc2cc(O)ccc12
REMARK SMILES IDX 5 1 3 2 2 3 1 4 21 5 15 6 14 7 16 8 17 9 19 10 20 11 6 12
REMARK SMILES IDX 7 13 8 14 9 15 13 16 11 17 10 18 12 20 4 22 18 24
REMARK H PARENT 10 19 12 21 4 23 18 25
REMARK Flexibility Score: inf
ROOT
ATOM      1  C   UNL     1      10.099   9.930  19.498  1.00  0.00     0.180 A 
ATOM      2  C   UNL     1      11.444  10.219  19.803  1.00  0.00     0.208 A 
ATOM      3  C   UNL     1      12.450   9.749  18.943  1.00  0.00     0.235 A 
ATOM      4  O   UNL     1      13.662   9.985  19.201  1.00  0.00    -0.285 OA
ATOM      5  C   UNL     1      12.092   9.024  17.796  1.00  0.00     0.069 A 
ATOM      6  C   UNL     1      10.722   8.797  17.547  1.00  0.00     0.142 A 
ATOM      7  O   UNL     1       9.802   9.252  18.391  1.00  0.00    -0.452 OA
ATOM      8  C   UNL     1      10.326   8.088  16.408  1.00  0.00     0.094 A 
ATOM      9  C   UNL     1      11.285   7.598  15.511  1.00  0.00     0.119 A 
ATOM     10  C   UNL     1      12.644   7.821  15.757  1.00  0.00     0.047 A 
ATOM     11  C   UNL     1      13.050   8.530  16.892  1.00  0.00     0.020 A 
ENDROOT
BRANCH   1  12
ATOM     12  C   UNL     1       8.983  10.374  20.364  1.00  0.00     0.025 A 
ATOM     13  C   UNL     1       8.221   9.418  21.053  1.00  0.00     0.016 A 
ATOM     14  C   UNL     1       7.176   9.816  21.892  1.00  0.00     0.051 A 
ATOM     15  C   UNL     1       6.889  11.173  22.068  1.00  0.00     0.157 A 
ATOM     16  C   UNL     1       8.706  11.739  20.558  1.00  0.00     0.062 A 
ATOM     17  C   UNL     1       7.659  12.141  21.402  1.00  0.00     0.158 A 
BRANCH  15  18
ATOM     18  O   UNL     1       5.840  11.540  22.910  1.00  0.00    -0.504 OA
ATOM     19  H   UNL     1       4.870  11.377  22.664  1.00  0.00     0.293 HD
ENDBRANCH  15  18
BRANCH  17  20
ATOM     20  O   UNL     1       7.388  13.495  21.584  1.00  0.00    -0.504 OA
ATOM     21  H   UNL     1       8.122  14.161  21.795  1.00  0.00     0.293 HD
ENDBRANCH  17  20
ENDBRANCH   1  12
BRANCH   2  22
ATOM     22  O   UNL     1      11.767  10.985  20.927  1.00  0.00    -0.502 OA
ATOM     23  H   UNL     1      12.640  11.491  21.004  1.00  0.00     0.293 HD
ENDBRANCH   2  22
BRANCH   9  24
ATOM     24  O   UNL     1      10.899   6.891  14.375  1.00  0.00    -0.508 OA
ATOM     25  H   UNL     1      11.565   6.654  13.648  1.00  0.00     0.293 HD
ENDBRANCH   9  24
TORSDOF 5
ENDMDL
MODEL 3
REMARK VINA RESULT:    32.233      1.239      2.825
REMARK INTER + INTRA:          37.758
REMARK INTER:                  38.024
REMARK INTRA:                  -0.267
REMARK UNBOUND:                -0.128
REMARK SMILES O=c1c(O)c(-c2ccc(O)c(O)c2)oc2cc(O)ccc12
REMARK SMILES IDX 5 1 3 2 2 3 1 4 21 5 15 6 14 7 16 8 17 9 19 10 20 11 6 12
REMARK SMILES IDX 7 13 8 14 9 15 13 16 11 17 10 18 12 20 4 22 18 24
REMARK H PARENT 10 19 12 21 4 23 18 25
REMARK Flexibility Score: inf
ROOT
ATOM      1  C   UNL     1      12.852   5.133  18.297  1.00  0.00     0.180 A 
ATOM      2  C   UNL     1      13.730   6.061  18.893  1.00  0.00     0.208 A 
ATOM      3  C   UNL     1      13.628   7.415  18.537  1.00  0.00     0.235 A 
ATOM      4  O   UNL     1      14.410   8.263  19.047  1.00  0.00    -0.285 OA
ATOM      5  C   UNL     1      12.646   7.813  17.616  1.00  0.00     0.069 A 
ATOM      6  C   UNL     1      11.789   6.828  17.083  1.00  0.00     0.142 A 
ATOM      7  O   UNL     1      11.925   5.555  17.440  1.00  0.00    -0.452 OA
ATOM      8  C   UNL     1      10.791   7.187  16.171  1.00  0.00     0.094 A 
ATOM      9  C   UNL     1      10.638   8.524  15.781  1.00  0.00     0.119 A 
ATOM     10  C   UNL     1      11.488   9.503  16.307  1.00  0.00     0.047 A 
ATOM     11  C   UNL     1      12.488   9.154  17.221  1.00  0.00     0.020 A 
ENDROOT
BRANCH   1  12
ATOM     12  C   UNL     1      12.909   3.686  18.608  1.00  0.00     0.025 A 
ATOM     13  C   UNL     1      12.348   3.215  19.805  1.00  0.00     0.016 A 
ATOM     14  C   UNL     1      12.372   1.851  20.109  1.00  0.00     0.051 A 
ATOM     15  C   UNL     1      12.940   0.938  19.215  1.00  0.00     0.157 A 
ATOM     16  C   UNL     1      13.461   2.764  17.701  1.00  0.00     0.062 A 
ATOM     17  C   UNL     1      13.484   1.394  18.003  1.00  0.00     0.158 A 
BRANCH  15  18
ATOM     18  O   UNL     1      12.951  -0.418  19.546  1.00  0.00    -0.504 OA
ATOM     19  H   UNL     1      12.232  -1.055  19.225  1.00  0.00     0.293 HD
ENDBRANCH  15  18
BRANCH  17  20
ATOM     20  O   UNL     1      14.038   0.488  17.102  1.00  0.00    -0.504 OA
ATOM     21  H   UNL     1      14.688  -0.230  17.401  1.00  0.00     0.293 HD
ENDBRANCH  17  20
ENDBRANCH   1  12
BRANCH   2  22
ATOM     22  O   UNL     1      14.666   5.642  19.843  1.00  0.00    -0.502 OA
ATOM     23  H   UNL     1      14.411   5.069  20.638  1.00  0.00     0.293 HD
ENDBRANCH   2  22
BRANCH   9  24
ATOM     24  O   UNL     1       9.647   8.891  14.873  1.00  0.00    -0.508 OA
ATOM     25  H   UNL     1       9.822   8.898  13.874  1.00  0.00     0.293 HD
ENDBRANCH   9  24
TORSDOF 5
ENDMDL
