MODEL 1
REMARK VINA RESULT:    -4.463      0.000      0.000
REMARK INTER + INTRA:          -9.807
REMARK INTER:                  -8.638
REMARK INTRA:                  -1.169
REMARK UNBOUND:                -1.169
REMARK SMILES CCCCCCCCCCCCCCCCCC(=O)[O-]
REMARK SMILES IDX 10 1 11 2 12 3 13 4 14 5 15 6 16 7 17 8 18 9 19 10 20 11
REMARK SMILES IDX 9 12 8 13 7 14 6 15 5 16 4 17 3 18 2 19 1 20
REMARK H PARENT
REMARK Flexibility Score: inf
ROOT
ATOM      1  C   UNL     1      43.139  65.785  53.627  1.00  0.00     0.000 C 
ENDROOT
BRANCH   1   2
ATOM      2  C   UNL     1      43.910  66.415  52.447  1.00  0.00     0.000 C 
BRANCH   2   3
ATOM      3  C   UNL     1      45.010  65.483  51.908  1.00  0.00     0.000 C 
BRANCH   3   4
ATOM      4  C   UNL     1      45.456  65.858  50.485  1.00  0.00     0.000 C 
BRANCH   4   5
ATOM      5  C   UNL     1      44.370  66.634  49.717  1.00  0.00     0.000 C 
BRANCH   5   6
ATOM      6  C   UNL     1      44.359  66.305  48.215  1.00  0.00     0.000 C 
BRANCH   6   7
ATOM      7  C   UNL     1      43.008  66.616  47.552  1.00  0.00     0.006 C 
BRANCH   7   8
ATOM      8  C   UNL     1      42.567  65.462  46.647  1.00  0.00     0.053 C 
BRANCH   8   9
ATOM      9  C   UNL     1      41.135  65.109  46.898  1.00  0.00     0.041 C 
ATOM     10  O   UNL     1      40.732  63.927  46.729  1.00  0.00    -0.550 OA
ATOM     11  O   UNL     1      40.245  66.084  47.335  1.00  0.00    -0.550 OA
ENDBRANCH   8   9
ENDBRANCH   7   8
ENDBRANCH   6   7
ENDBRANCH   5   6
ENDBRANCH   4   5
ENDBRANCH   3   4
ENDBRANCH   2   3
ENDBRANCH   1   2
BRANCH   1  12
ATOM     12  C   UNL     1      43.670  64.402  54.048  1.00  0.00     0.000 C 
BRANCH  12  13
ATOM     13  C   UNL     1      43.547  64.083  55.551  1.00  0.00    -0.000 C 
BRANCH  13  14
ATOM     14  C   UNL     1      42.870  65.181  56.393  1.00  0.00    -0.000 C 
BRANCH  14  15
ATOM     15  C   UNL     1      41.514  64.737  56.971  1.00  0.00    -0.000 C 
BRANCH  15  16
ATOM     16  C   UNL     1      40.320  65.460  56.317  1.00  0.00    -0.000 C 
BRANCH  16  17
ATOM     17  C   UNL     1      39.560  64.642  55.257  1.00  0.00    -0.000 C 
BRANCH  17  18
ATOM     18  C   UNL     1      38.035  64.723  55.414  1.00  0.00    -0.000 C 
BRANCH  18  19
ATOM     19  C   UNL     1      37.510  63.566  56.270  1.00  0.00    -0.003 C 
ATOM     20  C   UNL     1      38.354  62.309  56.078  1.00  0.00     0.004 C 
ENDBRANCH  18  19
ENDBRANCH  17  18
ENDBRANCH  16  17
ENDBRANCH  15  16
ENDBRANCH  14  15
ENDBRANCH  13  14
ENDBRANCH  12  13
ENDBRANCH   1  12
TORSDOF 16
ENDMDL
MODEL 2
REMARK VINA RESULT:    -4.373      2.643      4.286
REMARK INTER + INTRA:          -9.633
REMARK INTER:                  -8.183
REMARK INTRA:                  -1.449
REMARK UNBOUND:                -1.169
REMARK SMILES CCCCCCCCCCCCCCCCCC(=O)[O-]
REMARK SMILES IDX 10 1 11 2 12 3 13 4 14 5 15 6 16 7 17 8 18 9 19 10 20 11
REMARK SMILES IDX 9 12 8 13 7 14 6 15 5 16 4 17 3 18 2 19 1 20
REMARK H PARENT
REMARK Flexibility Score: inf
ROOT
ATOM      1  C   UNL     1      44.252  66.675  49.190  1.00  0.00     0.000 C 
ENDROOT
BRANCH   1   2
ATOM      2  C   UNL     1      43.237  67.788  48.850  1.00  0.00     0.000 C 
BRANCH   2   3
ATOM      3  C   UNL     1      42.094  67.867  49.877  1.00  0.00     0.000 C 
BRANCH   3   4
ATOM      4  C   UNL     1      40.706  67.768  49.223  1.00  0.00     0.000 C 
BRANCH   4   5
ATOM      5  C   UNL     1      40.779  67.269  47.768  1.00  0.00     0.000 C 
BRANCH   5   6
ATOM      6  C   UNL     1      40.222  65.846  47.602  1.00  0.00     0.000 C 
BRANCH   6   7
ATOM      7  C   UNL     1      41.117  64.959  46.723  1.00  0.00     0.006 C 
BRANCH   7   8
ATOM      8  C   UNL     1      42.326  65.745  46.207  1.00  0.00     0.053 C 
BRANCH   8   9
ATOM      9  C   UNL     1      42.428  65.641  44.718  1.00  0.00     0.041 C 
ATOM     10  O   UNL     1      43.347  64.958  44.190  1.00  0.00    -0.550 OA
ATOM     11  O   UNL     1      41.500  66.287  43.910  1.00  0.00    -0.550 OA
ENDBRANCH   8   9
ENDBRANCH   7   8
ENDBRANCH   6   7
ENDBRANCH   5   6
ENDBRANCH   4   5
ENDBRANCH   3   4
ENDBRANCH   2   3
ENDBRANCH   1   2
BRANCH   1  12
ATOM     12  C   UNL     1      44.827  66.776  50.616  1.00  0.00     0.000 C 
BRANCH  12  13
ATOM     13  C   UNL     1      45.160  65.426  51.283  1.00  0.00    -0.000 C 
BRANCH  13  14
ATOM     14  C   UNL     1      44.439  65.168  52.619  1.00  0.00    -0.000 C 
BRANCH  14  15
ATOM     15  C   UNL     1      43.287  66.157  52.875  1.00  0.00    -0.000 C 
BRANCH  15  16
ATOM     16  C   UNL     1      42.751  66.090  54.318  1.00  0.00    -0.000 C 
BRANCH  16  17
ATOM     17  C   UNL     1      42.939  64.736  55.026  1.00  0.00    -0.000 C 
BRANCH  17  18
ATOM     18  C   UNL     1      42.863  64.841  56.556  1.00  0.00    -0.000 C 
BRANCH  18  19
ATOM     19  C   UNL     1      44.049  64.127  57.214  1.00  0.00    -0.003 C 
ATOM     20  C   UNL     1      44.436  62.870  56.439  1.00  0.00     0.004 C 
ENDBRANCH  18  19
ENDBRANCH  17  18
ENDBRANCH  16  17
ENDBRANCH  15  16
ENDBRANCH  14  15
ENDBRANCH  13  14
ENDBRANCH  12  13
ENDBRANCH   1  12
TORSDOF 16
ENDMDL
MODEL 3
REMARK VINA RESULT:    -4.360      3.635      8.273
REMARK INTER + INTRA:          -9.607
REMARK INTER:                  -7.861
REMARK INTRA:                  -1.746
REMARK UNBOUND:                -1.169
REMARK SMILES CCCCCCCCCCCCCCCCCC(=O)[O-]
REMARK SMILES IDX 10 1 11 2 12 3 13 4 14 5 15 6 16 7 17 8 18 9 19 10 20 11
REMARK SMILES IDX 9 12 8 13 7 14 6 15 5 16 4 17 3 18 2 19 1 20
REMARK H PARENT
REMARK Flexibility Score: inf
ROOT
ATOM      1  C   UNL     1      44.403  66.390  48.984  1.00  0.00     0.000 C 
ENDROOT
BRANCH   1   2
ATOM      2  C   UNL     1      44.948  66.677  50.400  1.00  0.00     0.000 C 
BRANCH   2   3
ATOM      3  C   UNL     1      45.345  65.389  51.143  1.00  0.00     0.000 C 
BRANCH   3   4
ATOM      4  C   UNL     1      44.518  65.166  52.420  1.00  0.00     0.000 C 
BRANCH   4   5
ATOM      5  C   UNL     1      43.605  66.364  52.742  1.00  0.00     0.000 C 
BRANCH   5   6
ATOM      6  C   UNL     1      42.542  66.028  53.800  1.00  0.00     0.000 C 
BRANCH   6   7
ATOM      7  C   UNL     1      42.847  64.724  54.553  1.00  0.00     0.006 C 
BRANCH   7   8
ATOM      8  C   UNL     1      43.101  64.997  56.038  1.00  0.00     0.053 C 
BRANCH   8   9
ATOM      9  C   UNL     1      41.837  65.408  56.724  1.00  0.00     0.041 C 
ATOM     10  O   UNL     1      41.824  66.416  57.482  1.00  0.00    -0.550 OA
ATOM     11  O   UNL     1      40.667  64.687  56.517  1.00  0.00    -0.550 OA
ENDBRANCH   8   9
ENDBRANCH   7   8
ENDBRANCH   6   7
ENDBRANCH   5   6
ENDBRANCH   4   5
ENDBRANCH   3   4
ENDBRANCH   2   3
ENDBRANCH   1   2
BRANCH   1  12
ATOM     12  C   UNL     1      43.411  67.452  48.475  1.00  0.00     0.000 C 
BRANCH  12  13
ATOM     13  C   UNL     1      42.357  67.909  49.504  1.00  0.00    -0.000 C 
BRANCH  13  14
ATOM     14  C   UNL     1      40.895  67.777  49.036  1.00  0.00    -0.000 C 
BRANCH  14  15
ATOM     15  C   UNL     1      40.673  66.572  48.106  1.00  0.00    -0.000 C 
BRANCH  15  16
ATOM     16  C   UNL     1      40.556  66.973  46.623  1.00  0.00    -0.000 C 
BRANCH  16  17
ATOM     17  C   UNL     1      41.322  66.071  45.638  1.00  0.00    -0.000 C 
BRANCH  17  18
ATOM     18  C   UNL     1      41.957  64.847  46.312  1.00  0.00    -0.000 C 
BRANCH  18  19
ATOM     19  C   UNL     1      43.284  64.479  45.640  1.00  0.00    -0.003 C 
ATOM     20  C   UNL     1      44.056  65.728  45.220  1.00  0.00     0.004 C 
ENDBRANCH  18  19
ENDBRANCH  17  18
ENDBRANCH  16  17
ENDBRANCH  15  16
ENDBRANCH  14  15
ENDBRANCH  13  14
ENDBRANCH  12  13
ENDBRANCH   1  12
TORSDOF 16
ENDMDL
MODEL 4
REMARK VINA RESULT:    -4.358      1.957      3.208
REMARK INTER + INTRA:          -9.603
REMARK INTER:                  -8.544
REMARK INTRA:                  -1.059
REMARK UNBOUND:                -1.169
REMARK SMILES CCCCCCCCCCCCCCCCCC(=O)[O-]
REMARK SMILES IDX 10 1 11 2 12 3 13 4 14 5 15 6 16 7 17 8 18 9 19 10 20 11
REMARK SMILES IDX 9 12 8 13 7 14 6 15 5 16 4 17 3 18 2 19 1 20
REMARK H PARENT
REMARK Flexibility Score: inf
ROOT
ATOM      1  C   UNL     1      44.949  65.180  51.691  1.00  0.00     0.000 C 
ENDROOT
BRANCH   1   2
ATOM      2  C   UNL     1      45.473  66.164  50.622  1.00  0.00     0.000 C 
BRANCH   2   3
ATOM      3  C   UNL     1      44.510  66.291  49.428  1.00  0.00     0.000 C 
BRANCH   3   4
ATOM      4  C   UNL     1      43.708  67.603  49.455  1.00  0.00     0.000 C 
BRANCH   4   5
ATOM      5  C   UNL     1      42.661  67.670  48.327  1.00  0.00     0.000 C 
BRANCH   5   6
ATOM      6  C   UNL     1      41.223  67.498  48.844  1.00  0.00     0.000 C 
BRANCH   6   7
ATOM      7  C   UNL     1      40.345  66.676  47.887  1.00  0.00     0.006 C 
BRANCH   7   8
ATOM      8  C   UNL     1      41.114  66.319  46.612  1.00  0.00     0.053 C 
BRANCH   8   9
ATOM      9  C   UNL     1      41.402  64.851  46.561  1.00  0.00     0.041 C 
ATOM     10  O   UNL     1      42.503  64.435  46.110  1.00  0.00    -0.550 OA
ATOM     11  O   UNL     1      40.460  63.941  47.026  1.00  0.00    -0.550 OA
ENDBRANCH   8   9
ENDBRANCH   7   8
ENDBRANCH   6   7
ENDBRANCH   5   6
ENDBRANCH   4   5
ENDBRANCH   3   4
ENDBRANCH   2   3
ENDBRANCH   1   2
BRANCH   1  12
ATOM     12  C   UNL     1      43.988  65.823  52.708  1.00  0.00     0.000 C 
BRANCH  12  13
ATOM     13  C   UNL     1      43.398  64.855  53.753  1.00  0.00    -0.000 C 
BRANCH  13  14
ATOM     14  C   UNL     1      41.921  65.107  54.109  1.00  0.00    -0.000 C 
BRANCH  14  15
ATOM     15  C   UNL     1      41.748  66.112  55.261  1.00  0.00    -0.000 C 
BRANCH  15  16
ATOM     16  C   UNL     1      41.435  65.432  56.607  1.00  0.00    -0.000 C 
BRANCH  16  17
ATOM     17  C   UNL     1      42.658  64.875  57.360  1.00  0.00    -0.000 C 
BRANCH  17  18
ATOM     18  C   UNL     1      42.479  63.416  57.801  1.00  0.00    -0.000 C 
BRANCH  18  19
ATOM     19  C   UNL     1      43.809  62.658  57.741  1.00  0.00    -0.003 C 
ATOM     20  C   UNL     1      44.488  62.841  56.386  1.00  0.00     0.004 C 
ENDBRANCH  18  19
ENDBRANCH  17  18
ENDBRANCH  16  17
ENDBRANCH  15  16
ENDBRANCH  14  15
ENDBRANCH  13  14
ENDBRANCH  12  13
ENDBRANCH   1  12
TORSDOF 16
ENDMDL
MODEL 5
REMARK VINA RESULT:    -4.253      7.480      9.927
REMARK INTER + INTRA:          -9.400
REMARK INTER:                  -8.654
REMARK INTRA:                  -0.746
REMARK UNBOUND:                -1.169
REMARK SMILES CCCCCCCCCCCCCCCCCC(=O)[O-]
REMARK SMILES IDX 10 1 11 2 12 3 13 4 14 5 15 6 16 7 17 8 18 9 19 10 20 11
REMARK SMILES IDX 9 12 8 13 7 14 6 15 5 16 4 17 3 18 2 19 1 20
REMARK H PARENT
REMARK Flexibility Score: inf
ROOT
ATOM      1  C   UNL     1      36.208  61.807  55.507  1.00  0.00     0.000 C 
ENDROOT
BRANCH   1   2
ATOM      2  C   UNL     1      37.455  62.637  55.884  1.00  0.00     0.000 C 
BRANCH   2   3
ATOM      3  C   UNL     1      37.168  64.149  55.888  1.00  0.00     0.000 C 
BRANCH   3   4
ATOM      4  C   UNL     1      35.676  64.466  56.078  1.00  0.00     0.000 C 
BRANCH   4   5
ATOM      5  C   UNL     1      35.171  65.525  55.080  1.00  0.00     0.000 C 
BRANCH   5   6
ATOM      6  C   UNL     1      33.830  66.145  55.504  1.00  0.00     0.000 C 
BRANCH   6   7
ATOM      7  C   UNL     1      33.523  67.455  54.763  1.00  0.00     0.006 C 
BRANCH   7   8
ATOM      8  C   UNL     1      34.210  67.482  53.394  1.00  0.00     0.053 C 
BRANCH   8   9
ATOM      9  C   UNL     1      33.203  67.364  52.294  1.00  0.00     0.041 C 
ATOM     10  O   UNL     1      33.572  67.088  51.121  1.00  0.00    -0.550 OA
ATOM     11  O   UNL     1      31.852  67.545  52.566  1.00  0.00    -0.550 OA
ENDBRANCH   8   9
ENDBRANCH   7   8
ENDBRANCH   6   7
ENDBRANCH   5   6
ENDBRANCH   4   5
ENDBRANCH   3   4
ENDBRANCH   2   3
ENDBRANCH   1   2
BRANCH   1  12
ATOM     12  C   UNL     1      36.272  60.343  55.979  1.00  0.00     0.000 C 
BRANCH  12  13
ATOM     13  C   UNL     1      37.280  59.455  55.222  1.00  0.00    -0.000 C 
BRANCH  13  14
ATOM     14  C   UNL     1      37.183  57.950  55.537  1.00  0.00    -0.000 C 
BRANCH  14  15
ATOM     15  C   UNL     1      37.776  57.589  56.910  1.00  0.00    -0.000 C 
BRANCH  15  16
ATOM     16  C   UNL     1      37.296  56.220  57.428  1.00  0.00    -0.000 C 
BRANCH  16  17
ATOM     17  C   UNL     1      36.658  55.304  56.368  1.00  0.00    -0.000 C 
BRANCH  17  18
ATOM     18  C   UNL     1      35.581  54.375  56.944  1.00  0.00    -0.000 C 
BRANCH  18  19
ATOM     19  C   UNL     1      34.654  53.858  55.838  1.00  0.00    -0.003 C 
ATOM     20  C   UNL     1      34.718  52.336  55.731  1.00  0.00     0.004 C 
ENDBRANCH  18  19
ENDBRANCH  17  18
ENDBRANCH  16  17
ENDBRANCH  15  16
ENDBRANCH  14  15
ENDBRANCH  13  14
ENDBRANCH  12  13
ENDBRANCH   1  12
TORSDOF 16
ENDMDL
MODEL 6
REMARK VINA RESULT:    -4.245      3.191      7.943
REMARK INTER + INTRA:          -9.385
REMARK INTER:                  -8.117
REMARK INTRA:                  -1.268
REMARK UNBOUND:                -1.169
REMARK SMILES CCCCCCCCCCCCCCCCCC(=O)[O-]
REMARK SMILES IDX 10 1 11 2 12 3 13 4 14 5 15 6 16 7 17 8 18 9 19 10 20 11
REMARK SMILES IDX 9 12 8 13 7 14 6 15 5 16 4 17 3 18 2 19 1 20
REMARK H PARENT
REMARK Flexibility Score: inf
ROOT
ATOM      1  C   UNL     1      44.220  67.433  50.887  1.00  0.00     0.000 C 
ENDROOT
BRANCH   1   2
ATOM      2  C   UNL     1      45.092  66.184  50.635  1.00  0.00     0.000 C 
BRANCH   2   3
ATOM      3  C   UNL     1      45.112  65.235  51.847  1.00  0.00     0.000 C 
BRANCH   3   4
ATOM      4  C   UNL     1      44.042  65.590  52.892  1.00  0.00     0.000 C 
BRANCH   4   5
ATOM      5  C   UNL     1      43.756  64.423  53.857  1.00  0.00     0.000 C 
BRANCH   5   6
ATOM      6  C   UNL     1      42.923  64.854  55.075  1.00  0.00     0.000 C 
BRANCH   6   7
ATOM      7  C   UNL     1      41.695  65.691  54.685  1.00  0.00     0.006 C 
BRANCH   7   8
ATOM      8  C   UNL     1      40.500  64.789  54.361  1.00  0.00     0.053 C 
BRANCH   8   9
ATOM      9  C   UNL     1      39.508  64.801  55.481  1.00  0.00     0.041 C 
ATOM     10  O   UNL     1      39.899  64.903  56.675  1.00  0.00    -0.550 OA
ATOM     11  O   UNL     1      38.149  64.715  55.206  1.00  0.00    -0.550 OA
ENDBRANCH   8   9
ENDBRANCH   7   8
ENDBRANCH   6   7
ENDBRANCH   5   6
ENDBRANCH   4   5
ENDBRANCH   3   4
ENDBRANCH   2   3
ENDBRANCH   1   2
BRANCH   1  12
ATOM     12  C   UNL     1      43.177  67.694  49.784  1.00  0.00     0.000 C 
BRANCH  12  13
ATOM     13  C   UNL     1      41.767  68.059  50.289  1.00  0.00    -0.000 C 
BRANCH  13  14
ATOM     14  C   UNL     1      40.621  67.709  49.322  1.00  0.00    -0.000 C 
BRANCH  14  15
ATOM     15  C   UNL     1      41.076  67.656  47.852  1.00  0.00    -0.000 C 
BRANCH  15  16
ATOM     16  C   UNL     1      40.446  66.487  47.072  1.00  0.00    -0.000 C 
BRANCH  16  17
ATOM     17  C   UNL     1      41.355  65.259  46.884  1.00  0.00    -0.000 C 
BRANCH  17  18
ATOM     18  C   UNL     1      42.848  65.615  46.849  1.00  0.00    -0.000 C 
BRANCH  18  19
ATOM     19  C   UNL     1      43.607  64.704  45.879  1.00  0.00    -0.003 C 
ATOM     20  C   UNL     1      43.320  65.081  44.427  1.00  0.00     0.004 C 
ENDBRANCH  18  19
ENDBRANCH  17  18
ENDBRANCH  16  17
ENDBRANCH  15  16
ENDBRANCH  14  15
ENDBRANCH  13  14
ENDBRANCH  12  13
ENDBRANCH   1  12
TORSDOF 16
ENDMDL
MODEL 7
REMARK VINA RESULT:    -4.235      9.013     11.745
REMARK INTER + INTRA:          -9.364
REMARK INTER:                  -8.594
REMARK INTRA:                  -0.770
REMARK UNBOUND:                -1.169
REMARK SMILES CCCCCCCCCCCCCCCCCC(=O)[O-]
REMARK SMILES IDX 10 1 11 2 12 3 13 4 14 5 15 6 16 7 17 8 18 9 19 10 20 11
REMARK SMILES IDX 9 12 8 13 7 14 6 15 5 16 4 17 3 18 2 19 1 20
REMARK H PARENT
REMARK Flexibility Score: inf
ROOT
ATOM      1  C   UNL     1      36.665  60.222  56.164  1.00  0.00     0.000 C 
ENDROOT
BRANCH   1   2
ATOM      2  C   UNL     1      37.249  59.245  55.120  1.00  0.00     0.000 C 
BRANCH   2   3
ATOM      3  C   UNL     1      37.263  57.792  55.628  1.00  0.00     0.000 C 
BRANCH   3   4
ATOM      4  C   UNL     1      37.656  57.689  57.110  1.00  0.00     0.000 C 
BRANCH   4   5
ATOM      5  C   UNL     1      37.199  56.362  57.746  1.00  0.00     0.000 C 
BRANCH   5   6
ATOM      6  C   UNL     1      36.636  55.375  56.711  1.00  0.00     0.000 C 
BRANCH   6   7
ATOM      7  C   UNL     1      35.460  54.552  57.258  1.00  0.00     0.006 C 
BRANCH   7   8
ATOM      8  C   UNL     1      35.462  53.138  56.670  1.00  0.00     0.053 C 
BRANCH   8   9
ATOM      9  C   UNL     1      34.404  52.998  55.622  1.00  0.00     0.041 C 
ATOM     10  O   UNL     1      33.500  53.870  55.511  1.00  0.00    -0.550 OA
ATOM     11  O   UNL     1      34.423  51.912  54.755  1.00  0.00    -0.550 OA
ENDBRANCH   8   9
ENDBRANCH   7   8
ENDBRANCH   6   7
ENDBRANCH   5   6
ENDBRANCH   4   5
ENDBRANCH   3   4
ENDBRANCH   2   3
ENDBRANCH   1   2
BRANCH   1  12
ATOM     12  C   UNL     1      37.134  61.678  55.981  1.00  0.00     0.000 C 
BRANCH  12  13
ATOM     13  C   UNL     1      36.076  62.638  55.402  1.00  0.00    -0.000 C 
BRANCH  13  14
ATOM     14  C   UNL     1      36.085  64.054  56.009  1.00  0.00    -0.000 C 
BRANCH  14  15
ATOM     15  C   UNL     1      35.525  65.118  55.048  1.00  0.00    -0.000 C 
BRANCH  15  16
ATOM     16  C   UNL     1      35.346  66.494  55.716  1.00  0.00    -0.000 C 
BRANCH  16  17
ATOM     17  C   UNL     1      33.910  67.049  55.698  1.00  0.00    -0.000 C 
BRANCH  17  18
ATOM     18  C   UNL     1      32.895  66.072  55.089  1.00  0.00    -0.000 C 
BRANCH  18  19
ATOM     19  C   UNL     1      31.745  66.827  54.413  1.00  0.00    -0.003 C 
ATOM     20  C   UNL     1      32.121  67.254  52.997  1.00  0.00     0.004 C 
ENDBRANCH  18  19
ENDBRANCH  17  18
ENDBRANCH  16  17
ENDBRANCH  15  16
ENDBRANCH  14  15
ENDBRANCH  13  14
ENDBRANCH  12  13
ENDBRANCH   1  12
TORSDOF 16
ENDMDL
MODEL 8
REMARK VINA RESULT:    -4.223      1.682      2.505
REMARK INTER + INTRA:          -9.343
REMARK INTER:                  -8.212
REMARK INTRA:                  -1.131
REMARK UNBOUND:                -1.169
REMARK SMILES CCCCCCCCCCCCCCCCCC(=O)[O-]
REMARK SMILES IDX 10 1 11 2 12 3 13 4 14 5 15 6 16 7 17 8 18 9 19 10 20 11
REMARK SMILES IDX 9 12 8 13 7 14 6 15 5 16 4 17 3 18 2 19 1 20
REMARK H PARENT
REMARK Flexibility Score: inf
ROOT
ATOM      1  C   UNL     1      43.402  64.776  53.985  1.00  0.00     0.000 C 
ENDROOT
BRANCH   1   2
ATOM      2  C   UNL     1      43.833  65.749  52.866  1.00  0.00     0.000 C 
BRANCH   2   3
ATOM      3  C   UNL     1      44.917  65.145  51.956  1.00  0.00     0.000 C 
BRANCH   3   4
ATOM      4  C   UNL     1      45.430  66.145  50.906  1.00  0.00     0.000 C 
BRANCH   4   5
ATOM      5  C   UNL     1      44.536  67.394  50.802  1.00  0.00     0.000 C 
BRANCH   5   6
ATOM      6  C   UNL     1      43.668  67.396  49.533  1.00  0.00     0.000 C 
BRANCH   6   7
ATOM      7  C   UNL     1      44.229  66.481  48.433  1.00  0.00     0.006 C 
BRANCH   7   8
ATOM      8  C   UNL     1      43.174  66.214  47.356  1.00  0.00     0.053 C 
BRANCH   8   9
ATOM      9  C   UNL     1      43.815  65.716  46.099  1.00  0.00     0.041 C 
ATOM     10  O   UNL     1      44.361  66.525  45.301  1.00  0.00    -0.550 OA
ATOM     11  O   UNL     1      43.823  64.356  45.813  1.00  0.00    -0.550 OA
ENDBRANCH   8   9
ENDBRANCH   7   8
ENDBRANCH   6   7
ENDBRANCH   5   6
ENDBRANCH   4   5
ENDBRANCH   3   4
ENDBRANCH   2   3
ENDBRANCH   1   2
BRANCH   1  12
ATOM     12  C   UNL     1      42.133  65.219  54.736  1.00  0.00     0.000 C 
BRANCH  12  13
ATOM     13  C   UNL     1      40.804  64.752  54.109  1.00  0.00    -0.000 C 
BRANCH  13  14
ATOM     14  C   UNL     1      39.605  64.724  55.076  1.00  0.00    -0.000 C 
BRANCH  14  15
ATOM     15  C   UNL     1      39.997  64.291  56.500  1.00  0.00    -0.000 C 
BRANCH  15  16
ATOM     16  C   UNL     1      39.064  63.208  57.075  1.00  0.00    -0.000 C 
BRANCH  16  17
ATOM     17  C   UNL     1      38.354  62.331  56.027  1.00  0.00    -0.000 C 
BRANCH  17  18
ATOM     18  C   UNL     1      36.828  62.314  56.191  1.00  0.00    -0.000 C 
BRANCH  18  19
ATOM     19  C   UNL     1      36.162  63.299  55.223  1.00  0.00    -0.003 C 
ATOM     20  C   UNL     1      35.815  64.611  55.922  1.00  0.00     0.004 C 
ENDBRANCH  18  19
ENDBRANCH  17  18
ENDBRANCH  16  17
ENDBRANCH  15  16
ENDBRANCH  14  15
ENDBRANCH  13  14
ENDBRANCH  12  13
ENDBRANCH   1  12
TORSDOF 16
ENDMDL
MODEL 9
REMARK VINA RESULT:    -4.176      2.972      7.910
REMARK INTER + INTRA:          -9.251
REMARK INTER:                  -7.968
REMARK INTRA:                  -1.283
REMARK UNBOUND:                -1.169
REMARK SMILES CCCCCCCCCCCCCCCCCC(=O)[O-]
REMARK SMILES IDX 10 1 11 2 12 3 13 4 14 5 15 6 16 7 17 8 18 9 19 10 20 11
REMARK SMILES IDX 9 12 8 13 7 14 6 15 5 16 4 17 3 18 2 19 1 20
REMARK H PARENT
REMARK Flexibility Score: inf
ROOT
ATOM      1  C   UNL     1      43.218  65.894  53.718  1.00  0.00     0.000 C 
ENDROOT
BRANCH   1   2
ATOM      2  C   UNL     1      43.416  64.375  53.912  1.00  0.00     0.000 C 
BRANCH   2   3
ATOM      3  C   UNL     1      43.659  64.004  55.386  1.00  0.00     0.000 C 
BRANCH   3   4
ATOM      4  C   UNL     1      42.958  64.964  56.360  1.00  0.00     0.000 C 
BRANCH   4   5
ATOM      5  C   UNL     1      42.190  64.218  57.466  1.00  0.00     0.000 C 
BRANCH   5   6
ATOM      6  C   UNL     1      40.668  64.246  57.251  1.00  0.00     0.000 C 
BRANCH   6   7
ATOM      7  C   UNL     1      40.230  65.341  56.267  1.00  0.00     0.006 C 
BRANCH   7   8
ATOM      8  C   UNL     1      39.395  64.750  55.128  1.00  0.00     0.053 C 
BRANCH   8   9
ATOM      9  C   UNL     1      37.973  64.563  55.556  1.00  0.00     0.041 C 
ATOM     10  O   UNL     1      37.154  65.518  55.476  1.00  0.00    -0.550 OA
ATOM     11  O   UNL     1      37.546  63.328  56.030  1.00  0.00    -0.550 OA
ENDBRANCH   8   9
ENDBRANCH   7   8
ENDBRANCH   6   7
ENDBRANCH   5   6
ENDBRANCH   4   5
ENDBRANCH   3   4
ENDBRANCH   2   3
ENDBRANCH   1   2
BRANCH   1  12
ATOM     12  C   UNL     1      44.005  66.475  52.528  1.00  0.00     0.000 C 
BRANCH  12  13
ATOM     13  C   UNL     1      44.994  65.499  51.860  1.00  0.00    -0.000 C 
BRANCH  13  14
ATOM     14  C   UNL     1      45.404  65.874  50.423  1.00  0.00    -0.000 C 
BRANCH  14  15
ATOM     15  C   UNL     1      44.378  66.787  49.729  1.00  0.00    -0.000 C 
BRANCH  15  16
ATOM     16  C   UNL     1      44.291  66.544  48.210  1.00  0.00    -0.000 C 
BRANCH  16  17
ATOM     17  C   UNL     1      42.881  66.670  47.606  1.00  0.00    -0.000 C 
BRANCH  17  18
ATOM     18  C   UNL     1      42.509  65.492  46.694  1.00  0.00    -0.000 C 
BRANCH  18  19
ATOM     19  C   UNL     1      40.999  65.235  46.718  1.00  0.00    -0.003 C 
ATOM     20  C   UNL     1      40.283  66.234  47.625  1.00  0.00     0.004 C 
ENDBRANCH  18  19
ENDBRANCH  17  18
ENDBRANCH  16  17
ENDBRANCH  15  16
ENDBRANCH  14  15
ENDBRANCH  13  14
ENDBRANCH  12  13
ENDBRANCH   1  12
TORSDOF 16
ENDMDL
