MODEL 1
REMARK VINA RESULT:    -4.314      0.000      0.000
REMARK INTER + INTRA:         -10.178
REMARK INTER:                  -7.844
REMARK INTRA:                  -2.334
REMARK UNBOUND:                -2.334
REMARK SMILES CCCCCCCCCCCCCCCC(=O)[O-]
REMARK SMILES IDX 9 1 10 2 11 3 12 4 13 5 14 6 15 7 16 8 17 9 18 10 8 11 7 12
REMARK SMILES IDX 6 13 5 14 4 15 3 16 2 17 1 18
REMARK H PARENT
REMARK Flexibility Score: inf
ROOT
ATOM      1  C   UNL     1       5.213  -2.717  45.716  1.00  0.00     0.000 C 
ENDROOT
BRANCH   1   2
ATOM      2  C   UNL     1       4.795  -4.169  46.028  1.00  0.00     0.000 C 
BRANCH   2   3
ATOM      3  C   UNL     1       5.815  -4.982  46.848  1.00  0.00     0.000 C 
BRANCH   3   4
ATOM      4  C   UNL     1       5.292  -5.489  48.204  1.00  0.00     0.000 C 
BRANCH   4   5
ATOM      5  C   UNL     1       4.073  -4.698  48.732  1.00  0.00     0.000 C 
BRANCH   5   6
ATOM      6  C   UNL     1       4.393  -3.800  49.941  1.00  0.00     0.006 C 
BRANCH   6   7
ATOM      7  C   UNL     1       5.901  -3.698  50.211  1.00  0.00     0.053 C 
BRANCH   7   8
ATOM      8  C   UNL     1       6.262  -2.305  50.621  1.00  0.00     0.041 C 
ATOM      9  O   UNL     1       5.397  -1.392  50.592  1.00  0.00    -0.550 OA
ATOM     10  O   UNL     1       7.569  -2.005  50.987  1.00  0.00    -0.550 OA
ENDBRANCH   7   8
ENDBRANCH   6   7
ENDBRANCH   5   6
ENDBRANCH   4   5
ENDBRANCH   3   4
ENDBRANCH   2   3
ENDBRANCH   1   2
BRANCH   1  11
ATOM     11  C   UNL     1       5.428  -1.818  46.947  1.00  0.00     0.000 C 
BRANCH  11  12
ATOM     12  C   UNL     1       6.437  -0.689  46.695  1.00  0.00    -0.000 C 
BRANCH  12  13
ATOM     13  C   UNL     1       7.646  -0.813  47.632  1.00  0.00    -0.000 C 
BRANCH  13  14
ATOM     14  C   UNL     1       8.301  -2.193  47.508  1.00  0.00    -0.000 C 
BRANCH  14  15
ATOM     15  C   UNL     1       9.653  -2.228  48.229  1.00  0.00    -0.000 C 
BRANCH  15  16
ATOM     16  C   UNL     1       9.877  -3.579  48.916  1.00  0.00    -0.000 C 
BRANCH  16  17
ATOM     17  C   UNL     1       8.971  -4.660  48.315  1.00  0.00    -0.003 C 
ATOM     18  C   UNL     1       8.747  -5.804  49.299  1.00  0.00     0.004 C 
ENDBRANCH  16  17
ENDBRANCH  15  16
ENDBRANCH  14  15
ENDBRANCH  13  14
ENDBRANCH  12  13
ENDBRANCH  11  12
ENDBRANCH   1  11
TORSDOF 14
ENDMDL
MODEL 2
REMARK VINA RESULT:    -4.022      2.612      5.632
REMARK INTER + INTRA:          -9.647
REMARK INTER:                  -7.861
REMARK INTRA:                  -1.786
REMARK UNBOUND:                -2.334
REMARK SMILES CCCCCCCCCCCCCCCC(=O)[O-]
REMARK SMILES IDX 9 1 10 2 11 3 12 4 13 5 14 6 15 7 16 8 17 9 18 10 8 11 7 12
REMARK SMILES IDX 6 13 5 14 4 15 3 16 2 17 1 18
REMARK H PARENT
REMARK Flexibility Score: inf
ROOT
ATOM      1  C   UNL     1       9.188  -4.290  48.884  1.00  0.00     0.000 C 
ENDROOT
BRANCH   1   2
ATOM      2  C   UNL     1       8.613  -2.899  48.546  1.00  0.00     0.000 C 
BRANCH   2   3
ATOM      3  C   UNL     1       7.806  -2.232  49.676  1.00  0.00     0.000 C 
BRANCH   3   4
ATOM      4  C   UNL     1       6.431  -1.686  49.248  1.00  0.00     0.000 C 
BRANCH   4   5
ATOM      5  C   UNL     1       6.424  -1.069  47.831  1.00  0.00     0.000 C 
BRANCH   5   6
ATOM      6  C   UNL     1       5.213  -1.484  46.978  1.00  0.00     0.006 C 
BRANCH   6   7
ATOM      7  C   UNL     1       5.563  -2.576  45.957  1.00  0.00     0.053 C 
BRANCH   7   8
ATOM      8  C   UNL     1       4.829  -2.344  44.675  1.00  0.00     0.041 C 
ATOM      9  O   UNL     1       4.579  -1.171  44.291  1.00  0.00    -0.550 OA
ATOM     10  O   UNL     1       4.376  -3.424  43.927  1.00  0.00    -0.550 OA
ENDBRANCH   7   8
ENDBRANCH   6   7
ENDBRANCH   5   6
ENDBRANCH   4   5
ENDBRANCH   3   4
ENDBRANCH   2   3
ENDBRANCH   1   2
BRANCH   1  11
ATOM     11  C   UNL     1       8.726  -5.433  47.961  1.00  0.00     0.000 C 
BRANCH  11  12
ATOM     12  C   UNL     1       7.331  -5.964  48.319  1.00  0.00    -0.000 C 
BRANCH  12  13
ATOM     13  C   UNL     1       6.369  -5.824  47.132  1.00  0.00    -0.000 C 
BRANCH  13  14
ATOM     14  C   UNL     1       4.911  -5.821  47.602  1.00  0.00    -0.000 C 
BRANCH  14  15
ATOM     15  C   UNL     1       4.717  -4.872  48.791  1.00  0.00    -0.000 C 
BRANCH  15  16
ATOM     16  C   UNL     1       3.427  -5.197  49.551  1.00  0.00    -0.000 C 
BRANCH  16  17
ATOM     17  C   UNL     1       2.370  -5.794  48.614  1.00  0.00    -0.003 C 
ATOM     18  C   UNL     1       0.959  -5.489  49.108  1.00  0.00     0.004 C 
ENDBRANCH  16  17
ENDBRANCH  15  16
ENDBRANCH  14  15
ENDBRANCH  13  14
ENDBRANCH  12  13
ENDBRANCH  11  12
ENDBRANCH   1  11
TORSDOF 14
ENDMDL
MODEL 3
REMARK VINA RESULT:    -3.970      1.118      2.136
REMARK INTER + INTRA:          -9.553
REMARK INTER:                  -7.291
REMARK INTRA:                  -2.262
REMARK UNBOUND:                -2.334
REMARK SMILES CCCCCCCCCCCCCCCC(=O)[O-]
REMARK SMILES IDX 9 1 10 2 11 3 12 4 13 5 14 6 15 7 16 8 17 9 18 10 8 11 7 12
REMARK SMILES IDX 6 13 5 14 4 15 3 16 2 17 1 18
REMARK H PARENT
REMARK Flexibility Score: inf
ROOT
ATOM      1  C   UNL     1       4.845  -5.152  46.673  1.00  0.00     0.000 C 
ENDROOT
BRANCH   1   2
ATOM      2  C   UNL     1       5.537  -6.101  47.674  1.00  0.00     0.000 C 
BRANCH   2   3
ATOM      3  C   UNL     1       6.913  -5.628  48.180  1.00  0.00     0.000 C 
BRANCH   3   4
ATOM      4  C   UNL     1       7.092  -5.690  49.708  1.00  0.00     0.000 C 
BRANCH   4   5
ATOM      5  C   UNL     1       5.778  -5.477  50.495  1.00  0.00     0.000 C 
BRANCH   5   6
ATOM      6  C   UNL     1       5.387  -3.998  50.661  1.00  0.00     0.006 C 
BRANCH   6   7
ATOM      7  C   UNL     1       6.598  -3.059  50.565  1.00  0.00     0.053 C 
BRANCH   7   8
ATOM      8  C   UNL     1       6.326  -1.783  51.297  1.00  0.00     0.041 C 
ATOM      9  O   UNL     1       5.459  -0.978  50.866  1.00  0.00    -0.550 OA
ATOM     10  O   UNL     1       7.065  -1.459  52.428  1.00  0.00    -0.550 OA
ENDBRANCH   7   8
ENDBRANCH   6   7
ENDBRANCH   5   6
ENDBRANCH   4   5
ENDBRANCH   3   4
ENDBRANCH   2   3
ENDBRANCH   1   2
BRANCH   1  11
ATOM     11  C   UNL     1       5.415  -3.722  46.625  1.00  0.00     0.000 C 
BRANCH  11  12
ATOM     12  C   UNL     1       4.585  -2.720  47.439  1.00  0.00    -0.000 C 
BRANCH  12  13
ATOM     13  C   UNL     1       5.271  -1.348  47.486  1.00  0.00    -0.000 C 
BRANCH  13  14
ATOM     14  C   UNL     1       6.498  -1.314  46.569  1.00  0.00    -0.000 C 
BRANCH  14  15
ATOM     15  C   UNL     1       7.783  -1.092  47.376  1.00  0.00    -0.000 C 
BRANCH  15  16
ATOM     16  C   UNL     1       8.623  -2.372  47.438  1.00  0.00    -0.000 C 
BRANCH  16  17
ATOM     17  C   UNL     1       9.739  -2.249  48.482  1.00  0.00    -0.003 C 
ATOM     18  C   UNL     1      10.020  -3.591  49.151  1.00  0.00     0.004 C 
ENDBRANCH  16  17
ENDBRANCH  15  16
ENDBRANCH  14  15
ENDBRANCH  13  14
ENDBRANCH  12  13
ENDBRANCH  11  12
ENDBRANCH   1  11
TORSDOF 14
ENDMDL
MODEL 4
REMARK VINA RESULT:    -3.862      2.197      5.171
REMARK INTER + INTRA:          -9.356
REMARK INTER:                  -7.513
REMARK INTRA:                  -1.844
REMARK UNBOUND:                -2.334
REMARK SMILES CCCCCCCCCCCCCCCC(=O)[O-]
REMARK SMILES IDX 9 1 10 2 11 3 12 4 13 5 14 6 15 7 16 8 17 9 18 10 8 11 7 12
REMARK SMILES IDX 6 13 5 14 4 15 3 16 2 17 1 18
REMARK H PARENT
REMARK Flexibility Score: inf
ROOT
ATOM      1  C   UNL     1       9.065  -4.405  48.012  1.00  0.00     0.000 C 
ENDROOT
BRANCH   1   2
ATOM      2  C   UNL     1       7.951  -3.446  47.542  1.00  0.00     0.000 C 
BRANCH   2   3
ATOM      3  C   UNL     1       8.414  -2.014  47.215  1.00  0.00     0.000 C 
BRANCH   3   4
ATOM      4  C   UNL     1       7.411  -0.911  47.598  1.00  0.00     0.000 C 
BRANCH   4   5
ATOM      5  C   UNL     1       6.321  -0.667  46.529  1.00  0.00     0.000 C 
BRANCH   5   6
ATOM      6  C   UNL     1       5.162  -1.677  46.583  1.00  0.00     0.006 C 
BRANCH   6   7
ATOM      7  C   UNL     1       5.072  -2.532  45.311  1.00  0.00     0.053 C 
BRANCH   7   8
ATOM      8  C   UNL     1       4.736  -3.948  45.658  1.00  0.00     0.041 C 
ATOM      9  O   UNL     1       4.933  -4.377  46.826  1.00  0.00    -0.550 OA
ATOM     10  O   UNL     1       4.252  -4.808  44.680  1.00  0.00    -0.550 OA
ENDBRANCH   7   8
ENDBRANCH   6   7
ENDBRANCH   5   6
ENDBRANCH   4   5
ENDBRANCH   3   4
ENDBRANCH   2   3
ENDBRANCH   1   2
BRANCH   1  11
ATOM     11  C   UNL     1       8.579  -5.770  48.532  1.00  0.00     0.000 C 
BRANCH  11  12
ATOM     12  C   UNL     1       8.008  -5.699  49.955  1.00  0.00    -0.000 C 
BRANCH  12  13
ATOM     13  C   UNL     1       6.508  -6.019  49.962  1.00  0.00    -0.000 C 
BRANCH  13  14
ATOM     14  C   UNL     1       5.765  -5.161  50.992  1.00  0.00    -0.000 C 
BRANCH  14  15
ATOM     15  C   UNL     1       4.723  -4.265  50.314  1.00  0.00    -0.000 C 
BRANCH  15  16
ATOM     16  C   UNL     1       5.299  -2.875  50.021  1.00  0.00    -0.000 C 
BRANCH  16  17
ATOM     17  C   UNL     1       6.072  -2.333  51.228  1.00  0.00    -0.003 C 
ATOM     18  C   UNL     1       7.505  -1.968  50.848  1.00  0.00     0.004 C 
ENDBRANCH  16  17
ENDBRANCH  15  16
ENDBRANCH  14  15
ENDBRANCH  13  14
ENDBRANCH  12  13
ENDBRANCH  11  12
ENDBRANCH   1  11
TORSDOF 14
ENDMDL
MODEL 5
REMARK VINA RESULT:    -3.779     12.248     14.602
REMARK INTER + INTRA:          -9.206
REMARK INTER:                  -6.914
REMARK INTRA:                  -2.292
REMARK UNBOUND:                -2.334
REMARK SMILES CCCCCCCCCCCCCCCC(=O)[O-]
REMARK SMILES IDX 9 1 10 2 11 3 12 4 13 5 14 6 15 7 16 8 17 9 18 10 8 11 7 12
REMARK SMILES IDX 6 13 5 14 4 15 3 16 2 17 1 18
REMARK H PARENT
REMARK Flexibility Score: inf
ROOT
ATOM      1  C   UNL     1       5.470  10.861  46.182  1.00  0.00     0.000 C 
ENDROOT
BRANCH   1   2
ATOM      2  C   UNL     1       6.202  10.629  47.520  1.00  0.00     0.000 C 
BRANCH   2   3
ATOM      3  C   UNL     1       6.617  11.909  48.270  1.00  0.00     0.000 C 
BRANCH   3   4
ATOM      4  C   UNL     1       5.479  12.924  48.486  1.00  0.00     0.000 C 
BRANCH   4   5
ATOM      5  C   UNL     1       4.593  12.608  49.714  1.00  0.00     0.000 C 
BRANCH   5   6
ATOM      6  C   UNL     1       3.093  12.855  49.477  1.00  0.00     0.006 C 
BRANCH   6   7
ATOM      7  C   UNL     1       2.594  12.216  48.173  1.00  0.00     0.053 C 
BRANCH   7   8
ATOM      8  C   UNL     1       2.296  10.766  48.385  1.00  0.00     0.041 C 
ATOM      9  O   UNL     1       2.217   9.985  47.400  1.00  0.00    -0.550 OA
ATOM     10  O   UNL     1       2.055  10.285  49.667  1.00  0.00    -0.550 OA
ENDBRANCH   7   8
ENDBRANCH   6   7
ENDBRANCH   5   6
ENDBRANCH   4   5
ENDBRANCH   3   4
ENDBRANCH   2   3
ENDBRANCH   1   2
BRANCH   1  11
ATOM     11  C   UNL     1       6.368  10.839  44.931  1.00  0.00     0.000 C 
BRANCH  11  12
ATOM     12  C   UNL     1       6.825  12.239  44.498  1.00  0.00    -0.000 C 
BRANCH  12  13
ATOM     13  C   UNL     1       8.296  12.474  44.864  1.00  0.00    -0.000 C 
BRANCH  13  14
ATOM     14  C   UNL     1       9.069  11.152  44.921  1.00  0.00    -0.000 C 
BRANCH  14  15
ATOM     15  C   UNL     1       9.798  10.997  46.261  1.00  0.00    -0.000 C 
BRANCH  15  16
ATOM     16  C   UNL     1       9.658   9.571  46.803  1.00  0.00    -0.000 C 
BRANCH  16  17
ATOM     17  C   UNL     1       9.199   8.605  45.704  1.00  0.00    -0.003 C 
ATOM     18  C   UNL     1       8.452   7.412  46.293  1.00  0.00     0.004 C 
ENDBRANCH  16  17
ENDBRANCH  15  16
ENDBRANCH  14  15
ENDBRANCH  13  14
ENDBRANCH  12  13
ENDBRANCH  11  12
ENDBRANCH   1  11
TORSDOF 14
ENDMDL
MODEL 6
REMARK VINA RESULT:    -3.754     13.886     15.084
REMARK INTER + INTRA:          -9.159
REMARK INTER:                  -7.781
REMARK INTRA:                  -1.378
REMARK UNBOUND:                -2.334
REMARK SMILES CCCCCCCCCCCCCCCC(=O)[O-]
REMARK SMILES IDX 9 1 10 2 11 3 12 4 13 5 14 6 15 7 16 8 17 9 18 10 8 11 7 12
REMARK SMILES IDX 6 13 5 14 4 15 3 16 2 17 1 18
REMARK H PARENT
REMARK Flexibility Score: inf
ROOT
ATOM      1  C   UNL     1       1.334   9.284  47.397  1.00  0.00     0.000 C 
ENDROOT
BRANCH   1   2
ATOM      2  C   UNL     1       0.076   8.782  48.138  1.00  0.00     0.000 C 
BRANCH   2   3
ATOM      3  C   UNL     1      -1.259   9.352  47.619  1.00  0.00     0.000 C 
BRANCH   3   4
ATOM      4  C   UNL     1      -2.305   8.290  47.235  1.00  0.00     0.000 C 
BRANCH   4   5
ATOM      5  C   UNL     1      -2.473   8.112  45.708  1.00  0.00     0.000 C 
BRANCH   5   6
ATOM      6  C   UNL     1      -1.144   7.940  44.953  1.00  0.00     0.006 C 
BRANCH   6   7
ATOM      7  C   UNL     1      -0.865   9.102  43.989  1.00  0.00     0.053 C 
BRANCH   7   8
ATOM      8  C   UNL     1      -0.709   8.593  42.591  1.00  0.00     0.041 C 
ATOM      9  O   UNL     1      -0.882   9.366  41.612  1.00  0.00    -0.550 OA
ATOM     10  O   UNL     1      -0.421   7.252  42.367  1.00  0.00    -0.550 OA
ENDBRANCH   7   8
ENDBRANCH   6   7
ENDBRANCH   5   6
ENDBRANCH   4   5
ENDBRANCH   3   4
ENDBRANCH   2   3
ENDBRANCH   1   2
BRANCH   1  11
ATOM     11  C   UNL     1       1.208  10.682  46.766  1.00  0.00     0.000 C 
BRANCH  11  12
ATOM     12  C   UNL     1       2.163  11.709  47.391  1.00  0.00    -0.000 C 
BRANCH  12  13
ATOM     13  C   UNL     1       2.045  11.708  48.920  1.00  0.00    -0.000 C 
BRANCH  13  14
ATOM     14  C   UNL     1       2.784  12.905  49.531  1.00  0.00    -0.000 C 
BRANCH  14  15
ATOM     15  C   UNL     1       4.277  12.866  49.183  1.00  0.00    -0.000 C 
BRANCH  15  16
ATOM     16  C   UNL     1       4.953  11.633  49.792  1.00  0.00    -0.000 C 
BRANCH  16  17
ATOM     17  C   UNL     1       5.882  10.956  48.778  1.00  0.00    -0.003 C 
ATOM     18  C   UNL     1       5.924  11.731  47.464  1.00  0.00     0.004 C 
ENDBRANCH  16  17
ENDBRANCH  15  16
ENDBRANCH  14  15
ENDBRANCH  13  14
ENDBRANCH  12  13
ENDBRANCH  11  12
ENDBRANCH   1  11
TORSDOF 14
ENDMDL
MODEL 7
REMARK VINA RESULT:    -3.704     13.967     14.968
REMARK INTER + INTRA:          -9.069
REMARK INTER:                  -7.618
REMARK INTRA:                  -1.451
REMARK UNBOUND:                -2.334
REMARK SMILES CCCCCCCCCCCCCCCC(=O)[O-]
REMARK SMILES IDX 9 1 10 2 11 3 12 4 13 5 14 6 15 7 16 8 17 9 18 10 8 11 7 12
REMARK SMILES IDX 6 13 5 14 4 15 3 16 2 17 1 18
REMARK H PARENT
REMARK Flexibility Score: inf
ROOT
ATOM      1  C   UNL     1       1.776  11.417  47.801  1.00  0.00     0.000 C 
ENDROOT
BRANCH   1   2
ATOM      2  C   UNL     1       2.109  10.083  47.101  1.00  0.00     0.000 C 
BRANCH   2   3
ATOM      3  C   UNL     1       0.890   9.222  46.718  1.00  0.00     0.000 C 
BRANCH   3   4
ATOM      4  C   UNL     1      -0.140   9.030  47.846  1.00  0.00     0.000 C 
BRANCH   4   5
ATOM      5  C   UNL     1      -1.607   9.140  47.370  1.00  0.00     0.000 C 
BRANCH   5   6
ATOM      6  C   UNL     1      -1.989   8.107  46.295  1.00  0.00     0.006 C 
BRANCH   6   7
ATOM      7  C   UNL     1      -2.259   8.756  44.930  1.00  0.00     0.053 C 
BRANCH   7   8
ATOM      8  C   UNL     1      -1.313   8.220  43.903  1.00  0.00     0.041 C 
ATOM      9  O   UNL     1      -0.730   9.004  43.109  1.00  0.00    -0.550 OA
ATOM     10  O   UNL     1      -1.113   6.850  43.789  1.00  0.00    -0.550 OA
ENDBRANCH   7   8
ENDBRANCH   6   7
ENDBRANCH   5   6
ENDBRANCH   4   5
ENDBRANCH   3   4
ENDBRANCH   2   3
ENDBRANCH   1   2
BRANCH   1  11
ATOM     11  C   UNL     1       2.275  11.538  49.252  1.00  0.00     0.000 C 
BRANCH  11  12
ATOM     12  C   UNL     1       2.881  12.914  49.564  1.00  0.00    -0.000 C 
BRANCH  12  13
ATOM     13  C   UNL     1       4.405  12.824  49.705  1.00  0.00    -0.000 C 
BRANCH  13  14
ATOM     14  C   UNL     1       4.871  11.364  49.734  1.00  0.00    -0.000 C 
BRANCH  14  15
ATOM     15  C   UNL     1       5.891  11.089  48.623  1.00  0.00    -0.000 C 
BRANCH  15  16
ATOM     16  C   UNL     1       6.169  12.354  47.805  1.00  0.00    -0.000 C 
BRANCH  16  17
ATOM     17  C   UNL     1       5.990  12.092  46.305  1.00  0.00    -0.003 C 
ATOM     18  C   UNL     1       5.488  10.674  46.048  1.00  0.00     0.004 C 
ENDBRANCH  16  17
ENDBRANCH  15  16
ENDBRANCH  14  15
ENDBRANCH  13  14
ENDBRANCH  12  13
ENDBRANCH  11  12
ENDBRANCH   1  11
TORSDOF 14
ENDMDL
MODEL 8
REMARK VINA RESULT:    -3.676     13.499     14.582
REMARK INTER + INTRA:          -9.018
REMARK INTER:                  -8.166
REMARK INTRA:                  -0.852
REMARK UNBOUND:                -2.334
REMARK SMILES CCCCCCCCCCCCCCCC(=O)[O-]
REMARK SMILES IDX 9 1 10 2 11 3 12 4 13 5 14 6 15 7 16 8 17 9 18 10 8 11 7 12
REMARK SMILES IDX 6 13 5 14 4 15 3 16 2 17 1 18
REMARK H PARENT
REMARK Flexibility Score: inf
ROOT
ATOM      1  C   UNL     1      -0.489   7.572  43.018  1.00  0.00     0.000 C 
ENDROOT
BRANCH   1   2
ATOM      2  C   UNL     1      -0.868   8.604  44.101  1.00  0.00     0.000 C 
BRANCH   2   3
ATOM      3  C   UNL     1      -2.261   8.410  44.729  1.00  0.00     0.000 C 
BRANCH   3   4
ATOM      4  C   UNL     1      -2.249   7.807  46.146  1.00  0.00     0.000 C 
BRANCH   4   5
ATOM      5  C   UNL     1      -2.386   8.862  47.269  1.00  0.00     0.000 C 
BRANCH   5   6
ATOM      6  C   UNL     1      -1.110   9.689  47.503  1.00  0.00     0.006 C 
BRANCH   6   7
ATOM      7  C   UNL     1       0.126   8.806  47.728  1.00  0.00     0.053 C 
BRANCH   7   8
ATOM      8  C   UNL     1       1.366   9.642  47.750  1.00  0.00     0.041 C 
ATOM      9  O   UNL     1       2.103   9.709  46.731  1.00  0.00    -0.550 OA
ATOM     10  O   UNL     1       1.735  10.309  48.912  1.00  0.00    -0.550 OA
ENDBRANCH   7   8
ENDBRANCH   6   7
ENDBRANCH   5   6
ENDBRANCH   4   5
ENDBRANCH   3   4
ENDBRANCH   2   3
ENDBRANCH   1   2
BRANCH   1  11
ATOM     11  C   UNL     1      -1.416   6.346  42.928  1.00  0.00     0.000 C 
BRANCH  11  12
ATOM     12  C   UNL     1      -1.876   6.048  41.494  1.00  0.00    -0.000 C 
BRANCH  12  13
ATOM     13  C   UNL     1      -3.068   5.083  41.488  1.00  0.00    -0.000 C 
BRANCH  13  14
ATOM     14  C   UNL     1      -3.119   4.278  40.184  1.00  0.00    -0.000 C 
BRANCH  14  15
ATOM     15  C   UNL     1      -2.044   4.754  39.200  1.00  0.00    -0.000 C 
BRANCH  15  16
ATOM     16  C   UNL     1      -1.837   3.734  38.075  1.00  0.00    -0.000 C 
BRANCH  16  17
ATOM     17  C   UNL     1      -2.838   2.578  38.187  1.00  0.00    -0.003 C 
ATOM     18  C   UNL     1      -2.124   1.251  38.430  1.00  0.00     0.004 C 
ENDBRANCH  16  17
ENDBRANCH  15  16
ENDBRANCH  14  15
ENDBRANCH  13  14
ENDBRANCH  12  13
ENDBRANCH  11  12
ENDBRANCH   1  11
TORSDOF 14
ENDMDL
MODEL 9
REMARK VINA RESULT:    -2.868      1.614      5.095
REMARK INTER + INTRA:          -7.548
REMARK INTER:                  -5.877
REMARK INTRA:                  -1.671
REMARK UNBOUND:                -2.334
REMARK SMILES CCCCCCCCCCCCCCCC(=O)[O-]
REMARK SMILES IDX 9 1 10 2 11 3 12 4 13 5 14 6 15 7 16 8 17 9 18 10 8 11 7 12
REMARK SMILES IDX 6 13 5 14 4 15 3 16 2 17 1 18
REMARK H PARENT
REMARK Flexibility Score: inf
ROOT
ATOM      1  C   UNL     1       5.119  -3.693  50.131  1.00  0.00     0.000 C 
ENDROOT
BRANCH   1   2
ATOM      2  C   UNL     1       6.645  -3.491  50.027  1.00  0.00     0.000 C 
BRANCH   2   3
ATOM      3  C   UNL     1       7.439  -4.730  49.570  1.00  0.00     0.000 C 
BRANCH   3   4
ATOM      4  C   UNL     1       8.501  -4.451  48.491  1.00  0.00     0.000 C 
BRANCH   4   5
ATOM      5  C   UNL     1       9.545  -3.390  48.911  1.00  0.00     0.000 C 
BRANCH   5   6
ATOM      6  C   UNL     1       9.310  -2.005  48.282  1.00  0.00     0.006 C 
BRANCH   6   7
ATOM      7  C   UNL     1       8.193  -2.022  47.230  1.00  0.00     0.053 C 
BRANCH   7   8
ATOM      8  C   UNL     1       7.329  -0.809  47.368  1.00  0.00     0.041 C 
ATOM      9  O   UNL     1       7.656   0.268  46.803  1.00  0.00    -0.550 OA
ATOM     10  O   UNL     1       6.190  -0.852  48.162  1.00  0.00    -0.550 OA
ENDBRANCH   7   8
ENDBRANCH   6   7
ENDBRANCH   5   6
ENDBRANCH   4   5
ENDBRANCH   3   4
ENDBRANCH   2   3
ENDBRANCH   1   2
BRANCH   1  11
ATOM     11  C   UNL     1       4.637  -5.147  49.970  1.00  0.00     0.000 C 
BRANCH  11  12
ATOM     12  C   UNL     1       3.282  -5.252  49.258  1.00  0.00    -0.000 C 
BRANCH  12  13
ATOM     13  C   UNL     1       3.388  -6.125  48.001  1.00  0.00    -0.000 C 
BRANCH  13  14
ATOM     14  C   UNL     1       4.729  -5.909  47.292  1.00  0.00    -0.000 C 
BRANCH  14  15
ATOM     15  C   UNL     1       4.579  -4.944  46.111  1.00  0.00    -0.000 C 
BRANCH  15  16
ATOM     16  C   UNL     1       5.173  -3.571  46.442  1.00  0.00    -0.000 C 
BRANCH  16  17
ATOM     17  C   UNL     1       5.026  -2.606  45.259  1.00  0.00    -0.003 C 
ATOM     18  C   UNL     1       4.368  -3.292  44.065  1.00  0.00     0.004 C 
ENDBRANCH  16  17
ENDBRANCH  15  16
ENDBRANCH  14  15
ENDBRANCH  13  14
ENDBRANCH  12  13
ENDBRANCH  11  12
ENDBRANCH   1  11
TORSDOF 14
ENDMDL
