MODEL 1
REMARK VINA RESULT:    -6.107      0.000      0.000
REMARK INTER + INTRA:          -7.462
REMARK INTER:                  -7.178
REMARK INTRA:                  -0.283
REMARK UNBOUND:                -0.283
REMARK SMILES O=c1c(O)c(-c2ccc(O)c(O)c2)oc2cc(O)ccc12
REMARK SMILES IDX 5 1 3 2 2 3 1 4 21 5 15 6 14 7 16 8 17 9 19 10 20 11 6 12
REMARK SMILES IDX 7 13 8 14 9 15 13 16 11 17 10 18 12 20 4 22 18 24
REMARK H PARENT 10 19 12 21 4 23 18 25
REMARK Flexibility Score: inf
ROOT
ATOM      1  C   UNL     1     -20.397  39.843  -3.589  1.00  0.00     0.180 A 
ATOM      2  C   UNL     1     -19.995  40.802  -4.541  1.00  0.00     0.208 A 
ATOM      3  C   UNL     1     -19.858  40.410  -5.881  1.00  0.00     0.235 A 
ATOM      4  O   UNL     1     -19.511  41.252  -6.754  1.00  0.00    -0.285 OA
ATOM      5  C   UNL     1     -20.103  39.074  -6.237  1.00  0.00     0.069 A 
ATOM      6  C   UNL     1     -20.478  38.168  -5.221  1.00  0.00     0.142 A 
ATOM      7  O   UNL     1     -20.605  38.583  -3.966  1.00  0.00    -0.452 OA
ATOM      8  C   UNL     1     -20.722  36.827  -5.535  1.00  0.00     0.094 A 
ATOM      9  C   UNL     1     -20.596  36.376  -6.856  1.00  0.00     0.119 A 
ATOM     10  C   UNL     1     -20.226  37.272  -7.864  1.00  0.00     0.047 A 
ATOM     11  C   UNL     1     -19.979  38.615  -7.562  1.00  0.00     0.020 A 
ENDROOT
BRANCH   1  12
ATOM     12  C   UNL     1     -20.581  40.182  -2.159  1.00  0.00     0.025 A 
ATOM     13  C   UNL     1     -19.582  39.908  -1.208  1.00  0.00     0.016 A 
ATOM     14  C   UNL     1     -19.768  40.258   0.132  1.00  0.00     0.051 A 
ATOM     15  C   UNL     1     -20.946  40.899   0.538  1.00  0.00     0.157 A 
ATOM     16  C   UNL     1     -21.751  40.843  -1.751  1.00  0.00     0.062 A 
ATOM     17  C   UNL     1     -21.937  41.195  -0.406  1.00  0.00     0.158 A 
BRANCH  15  18
ATOM     18  O   UNL     1     -21.135  41.249   1.873  1.00  0.00    -0.504 OA
ATOM     19  H   UNL     1     -21.714  42.036   2.138  1.00  0.00     0.293 HD
ENDBRANCH  15  18
BRANCH  17  20
ATOM     20  O   UNL     1     -23.106  41.838  -0.001  1.00  0.00    -0.504 OA
ATOM     21  H   UNL     1     -23.289  42.806  -0.242  1.00  0.00     0.293 HD
ENDBRANCH  17  20
ENDBRANCH   1  12
BRANCH   2  22
ATOM     22  O   UNL     1     -19.710  42.113  -4.148  1.00  0.00    -0.502 OA
ATOM     23  H   UNL     1     -20.238  42.907  -4.490  1.00  0.00     0.293 HD
ENDBRANCH   2  22
BRANCH   9  24
ATOM     24  O   UNL     1     -20.837  35.043  -7.177  1.00  0.00    -0.508 OA
ATOM     25  H   UNL     1     -21.576  34.515  -6.728  1.00  0.00     0.293 HD
ENDBRANCH   9  24
TORSDOF 5
ENDMDL
MODEL 2
REMARK VINA RESULT:    -6.032      0.600      1.458
REMARK INTER + INTRA:          -7.374
REMARK INTER:                  -7.078
REMARK INTRA:                  -0.296
REMARK UNBOUND:                -0.283
REMARK SMILES O=c1c(O)c(-c2ccc(O)c(O)c2)oc2cc(O)ccc12
REMARK SMILES IDX 5 1 3 2 2 3 1 4 21 5 15 6 14 7 16 8 17 9 19 10 20 11 6 12
REMARK SMILES IDX 7 13 8 14 9 15 13 16 11 17 10 18 12 20 4 22 18 24
REMARK H PARENT 10 19 12 21 4 23 18 25
REMARK Flexibility Score: inf
ROOT
ATOM      1  C   UNL     1     -20.473  39.908  -3.749  1.00  0.00     0.180 A 
ATOM      2  C   UNL     1     -19.967  40.812  -4.705  1.00  0.00     0.208 A 
ATOM      3  C   UNL     1     -19.757  40.363  -6.018  1.00  0.00     0.235 A 
ATOM      4  O   UNL     1     -19.316  41.157  -6.894  1.00  0.00    -0.285 OA
ATOM      5  C   UNL     1     -20.035  39.026  -6.341  1.00  0.00     0.069 A 
ATOM      6  C   UNL     1     -20.516  38.176  -5.322  1.00  0.00     0.142 A 
ATOM      7  O   UNL     1     -20.709  38.644  -4.094  1.00  0.00    -0.452 OA
ATOM      8  C   UNL     1     -20.795  36.834  -5.603  1.00  0.00     0.094 A 
ATOM      9  C   UNL     1     -20.600  36.328  -6.896  1.00  0.00     0.119 A 
ATOM     10  C   UNL     1     -20.125  37.169  -7.907  1.00  0.00     0.047 A 
ATOM     11  C   UNL     1     -19.841  38.511  -7.637  1.00  0.00     0.020 A 
ENDROOT
BRANCH   1  12
ATOM     12  C   UNL     1     -20.739  40.310  -2.349  1.00  0.00     0.025 A 
ATOM     13  C   UNL     1     -21.897  41.026  -2.000  1.00  0.00     0.016 A 
ATOM     14  C   UNL     1     -22.139  41.375  -0.669  1.00  0.00     0.051 A 
ATOM     15  C   UNL     1     -21.235  41.000   0.334  1.00  0.00     0.157 A 
ATOM     16  C   UNL     1     -19.847  39.918  -1.336  1.00  0.00     0.062 A 
ATOM     17  C   UNL     1     -20.089  40.268  -0.000  1.00  0.00     0.158 A 
BRANCH  15  18
ATOM     18  O   UNL     1     -21.473  41.346   1.663  1.00  0.00    -0.504 OA
ATOM     19  H   UNL     1     -21.629  40.643   2.375  1.00  0.00     0.293 HD
ENDBRANCH  15  18
BRANCH  17  20
ATOM     20  O   UNL     1     -19.195  39.891   1.001  1.00  0.00    -0.504 OA
ATOM     21  H   UNL     1     -19.397  40.053   1.981  1.00  0.00     0.293 HD
ENDBRANCH  17  20
ENDBRANCH   1  12
BRANCH   2  22
ATOM     22  O   UNL     1     -19.654  42.125  -4.341  1.00  0.00    -0.502 OA
ATOM     23  H   UNL     1     -20.356  42.854  -4.286  1.00  0.00     0.293 HD
ENDBRANCH   2  22
BRANCH   9  24
ATOM     24  O   UNL     1     -20.875  34.994  -7.184  1.00  0.00    -0.508 OA
ATOM     25  H   UNL     1     -21.589  34.733  -7.855  1.00  0.00     0.293 HD
ENDBRANCH   9  24
TORSDOF 5
ENDMDL
MODEL 3
REMARK VINA RESULT:    -5.917      1.598      6.766
REMARK INTER + INTRA:          -7.238
REMARK INTER:                  -6.996
REMARK INTRA:                  -0.241
REMARK UNBOUND:                -0.283
REMARK SMILES O=c1c(O)c(-c2ccc(O)c(O)c2)oc2cc(O)ccc12
REMARK SMILES IDX 5 1 3 2 2 3 1 4 21 5 15 6 14 7 16 8 17 9 19 10 20 11 6 12
REMARK SMILES IDX 7 13 8 14 9 15 13 16 11 17 10 18 12 20 4 22 18 24
REMARK H PARENT 10 19 12 21 4 23 18 25
REMARK Flexibility Score: inf
ROOT
ATOM      1  C   UNL     1     -20.665  39.306  -3.266  1.00  0.00     0.180 A 
ATOM      2  C   UNL     1     -21.529  40.417  -3.169  1.00  0.00     0.208 A 
ATOM      3  C   UNL     1     -21.593  41.121  -1.957  1.00  0.00     0.235 A 
ATOM      4  O   UNL     1     -22.350  42.125  -1.849  1.00  0.00    -0.285 OA
ATOM      5  C   UNL     1     -20.815  40.694  -0.869  1.00  0.00     0.069 A 
ATOM      6  C   UNL     1     -19.994  39.558  -1.038  1.00  0.00     0.142 A 
ATOM      7  O   UNL     1     -19.956  38.925  -2.205  1.00  0.00    -0.452 OA
ATOM      8  C   UNL     1     -19.211  39.096   0.025  1.00  0.00     0.094 A 
ATOM      9  C   UNL     1     -19.238  39.757   1.261  1.00  0.00     0.119 A 
ATOM     10  C   UNL     1     -20.050  40.883   1.430  1.00  0.00     0.047 A 
ATOM     11  C   UNL     1     -20.837  41.352   0.374  1.00  0.00     0.020 A 
ENDROOT
BRANCH   1  12
ATOM     12  C   UNL     1     -20.528  38.523  -4.515  1.00  0.00     0.025 A 
ATOM     13  C   UNL     1     -21.117  37.253  -4.650  1.00  0.00     0.016 A 
ATOM     14  C   UNL     1     -20.994  36.541  -5.846  1.00  0.00     0.051 A 
ATOM     15  C   UNL     1     -20.294  37.093  -6.927  1.00  0.00     0.157 A 
ATOM     16  C   UNL     1     -19.846  39.080  -5.609  1.00  0.00     0.062 A 
ATOM     17  C   UNL     1     -19.722  38.365  -6.809  1.00  0.00     0.158 A 
BRANCH  15  18
ATOM     18  O   UNL     1     -20.169  36.385  -8.122  1.00  0.00    -0.504 OA
ATOM     19  H   UNL     1     -19.375  36.518  -8.736  1.00  0.00     0.293 HD
ENDBRANCH  15  18
BRANCH  17  20
ATOM     20  O   UNL     1     -19.032  38.914  -7.889  1.00  0.00    -0.504 OA
ATOM     21  H   UNL     1     -18.542  39.799  -7.811  1.00  0.00     0.293 HD
ENDBRANCH  17  20
ENDBRANCH   1  12
BRANCH   2  22
ATOM     22  O   UNL     1     -22.327  40.788  -4.254  1.00  0.00    -0.502 OA
ATOM     23  H   UNL     1     -22.786  41.690  -4.305  1.00  0.00     0.293 HD
ENDBRANCH   2  22
BRANCH   9  24
ATOM     24  O   UNL     1     -18.462  39.304   2.325  1.00  0.00    -0.508 OA
ATOM     25  H   UNL     1     -18.402  38.318   2.555  1.00  0.00     0.293 HD
ENDBRANCH   9  24
TORSDOF 5
ENDMDL
MODEL 4
REMARK VINA RESULT:    -5.853      1.311      6.772
REMARK INTER + INTRA:          -7.163
REMARK INTER:                  -7.065
REMARK INTRA:                  -0.098
REMARK UNBOUND:                -0.283
REMARK SMILES O=c1c(O)c(-c2ccc(O)c(O)c2)oc2cc(O)ccc12
REMARK SMILES IDX 5 1 3 2 2 3 1 4 21 5 15 6 14 7 16 8 17 9 19 10 20 11 6 12
REMARK SMILES IDX 7 13 8 14 9 15 13 16 11 17 10 18 12 20 4 22 18 24
REMARK H PARENT 10 19 12 21 4 23 18 25
REMARK Flexibility Score: inf
ROOT
ATOM      1  C   UNL     1     -20.215  39.502  -5.387  1.00  0.00     0.180 A 
ATOM      2  C   UNL     1     -19.137  40.411  -5.352  1.00  0.00     0.208 A 
ATOM      3  C   UNL     1     -18.957  41.205  -4.209  1.00  0.00     0.235 A 
ATOM      4  O   UNL     1     -17.993  42.017  -4.149  1.00  0.00    -0.285 OA
ATOM      5  C   UNL     1     -19.860  41.091  -3.140  1.00  0.00     0.069 A 
ATOM      6  C   UNL     1     -20.928  40.175  -3.262  1.00  0.00     0.142 A 
ATOM      7  O   UNL     1     -21.058  39.437  -4.358  1.00  0.00    -0.452 OA
ATOM      8  C   UNL     1     -21.855  40.040  -2.222  1.00  0.00     0.094 A 
ATOM      9  C   UNL     1     -21.728  40.809  -1.058  1.00  0.00     0.119 A 
ATOM     10  C   UNL     1     -20.670  41.716  -0.935  1.00  0.00     0.047 A 
ATOM     11  C   UNL     1     -19.739  41.860  -1.968  1.00  0.00     0.020 A 
ENDROOT
BRANCH   1  12
ATOM     12  C   UNL     1     -20.462  38.619  -6.548  1.00  0.00     0.025 A 
ATOM     13  C   UNL     1     -20.692  39.144  -7.832  1.00  0.00     0.016 A 
ATOM     14  C   UNL     1     -20.900  38.291  -8.918  1.00  0.00     0.051 A 
ATOM     15  C   UNL     1     -20.867  36.901  -8.741  1.00  0.00     0.157 A 
ATOM     16  C   UNL     1     -20.409  37.225  -6.380  1.00  0.00     0.062 A 
ATOM     17  C   UNL     1     -20.618  36.368  -7.470  1.00  0.00     0.158 A 
BRANCH  15  18
ATOM     18  O   UNL     1     -21.074  36.047  -9.822  1.00  0.00    -0.504 OA
ATOM     19  H   UNL     1     -21.520  36.367 -10.673  1.00  0.00     0.293 HD
ENDBRANCH  15  18
BRANCH  17  20
ATOM     20  O   UNL     1     -20.578  34.986  -7.298  1.00  0.00    -0.504 OA
ATOM     21  H   UNL     1     -21.288  34.381  -7.696  1.00  0.00     0.293 HD
ENDBRANCH  17  20
ENDBRANCH   1  12
BRANCH   2  22
ATOM     22  O   UNL     1     -18.283  40.538  -6.450  1.00  0.00    -0.502 OA
ATOM     23  H   UNL     1     -17.316  40.237  -6.422  1.00  0.00     0.293 HD
ENDBRANCH   2  22
BRANCH   9  24
ATOM     24  O   UNL     1     -22.646  40.681  -0.018  1.00  0.00    -0.508 OA
ATOM     25  H   UNL     1     -23.474  41.263   0.032  1.00  0.00     0.293 HD
ENDBRANCH   9  24
TORSDOF 5
ENDMDL
MODEL 5
REMARK VINA RESULT:    -5.841      1.819      6.948
REMARK INTER + INTRA:          -7.149
REMARK INTER:                  -6.868
REMARK INTRA:                  -0.281
REMARK UNBOUND:                -0.283
REMARK SMILES O=c1c(O)c(-c2ccc(O)c(O)c2)oc2cc(O)ccc12
REMARK SMILES IDX 5 1 3 2 2 3 1 4 21 5 15 6 14 7 16 8 17 9 19 10 20 11 6 12
REMARK SMILES IDX 7 13 8 14 9 15 13 16 11 17 10 18 12 20 4 22 18 24
REMARK H PARENT 10 19 12 21 4 23 18 25
REMARK Flexibility Score: inf
ROOT
ATOM      1  C   UNL     1     -20.448  39.802  -2.183  1.00  0.00     0.180 A 
ATOM      2  C   UNL     1     -21.488  40.724  -1.941  1.00  0.00     0.208 A 
ATOM      3  C   UNL     1     -21.636  41.255  -0.651  1.00  0.00     0.235 A 
ATOM      4  O   UNL     1     -22.551  42.091  -0.413  1.00  0.00    -0.285 OA
ATOM      5  C   UNL     1     -20.764  40.843   0.368  1.00  0.00     0.069 A 
ATOM      6  C   UNL     1     -19.764  39.898   0.053  1.00  0.00     0.142 A 
ATOM      7  O   UNL     1     -19.652  39.426  -1.184  1.00  0.00    -0.452 OA
ATOM      8  C   UNL     1     -18.881  39.456   1.044  1.00  0.00     0.094 A 
ATOM      9  C   UNL     1     -18.984  39.948   2.352  1.00  0.00     0.119 A 
ATOM     10  C   UNL     1     -19.973  40.885   2.667  1.00  0.00     0.047 A 
ATOM     11  C   UNL     1     -20.861  41.333   1.684  1.00  0.00     0.020 A 
ENDROOT
BRANCH   1  12
ATOM     12  C   UNL     1     -20.216  39.211  -3.520  1.00  0.00     0.025 A 
ATOM     13  C   UNL     1     -19.172  39.662  -4.348  1.00  0.00     0.016 A 
ATOM     14  C   UNL     1     -18.956  39.074  -5.597  1.00  0.00     0.051 A 
ATOM     15  C   UNL     1     -19.769  38.018  -6.030  1.00  0.00     0.157 A 
ATOM     16  C   UNL     1     -21.014  38.138  -3.950  1.00  0.00     0.062 A 
ATOM     17  C   UNL     1     -20.797  37.548  -5.204  1.00  0.00     0.158 A 
BRANCH  15  18
ATOM     18  O   UNL     1     -19.557  37.429  -7.275  1.00  0.00    -0.504 OA
ATOM     19  H   UNL     1     -19.035  37.901  -8.003  1.00  0.00     0.293 HD
ENDBRANCH  15  18
BRANCH  17  20
ATOM     20  O   UNL     1     -21.600  36.493  -5.634  1.00  0.00    -0.504 OA
ATOM     21  H   UNL     1     -22.469  36.656  -6.131  1.00  0.00     0.293 HD
ENDBRANCH  17  20
ENDBRANCH   1  12
BRANCH   2  22
ATOM     22  O   UNL     1     -22.371  41.078  -2.965  1.00  0.00    -0.502 OA
ATOM     23  H   UNL     1     -22.307  40.684  -3.896  1.00  0.00     0.293 HD
ENDBRANCH   2  22
BRANCH   9  24
ATOM     24  O   UNL     1     -18.109  39.513   3.345  1.00  0.00    -0.508 OA
ATOM     25  H   UNL     1     -18.162  38.574   3.723  1.00  0.00     0.293 HD
ENDBRANCH   9  24
TORSDOF 5
ENDMDL
MODEL 6
REMARK VINA RESULT:    -5.532      1.802      3.525
REMARK INTER + INTRA:          -6.785
REMARK INTER:                  -6.739
REMARK INTRA:                  -0.046
REMARK UNBOUND:                -0.283
REMARK SMILES O=c1c(O)c(-c2ccc(O)c(O)c2)oc2cc(O)ccc12
REMARK SMILES IDX 5 1 3 2 2 3 1 4 21 5 15 6 14 7 16 8 17 9 19 10 20 11 6 12
REMARK SMILES IDX 7 13 8 14 9 15 13 16 11 17 10 18 12 20 4 22 18 24
REMARK H PARENT 10 19 12 21 4 23 18 25
REMARK Flexibility Score: inf
ROOT
ATOM      1  C   UNL     1     -20.579  39.260  -4.740  1.00  0.00     0.180 A 
ATOM      2  C   UNL     1     -20.457  37.917  -5.152  1.00  0.00     0.208 A 
ATOM      3  C   UNL     1     -20.348  37.636  -6.522  1.00  0.00     0.235 A 
ATOM      4  O   UNL     1     -20.226  36.443  -6.915  1.00  0.00    -0.285 OA
ATOM      5  C   UNL     1     -20.384  38.691  -7.448  1.00  0.00     0.069 A 
ATOM      6  C   UNL     1     -20.533  40.006  -6.958  1.00  0.00     0.142 A 
ATOM      7  O   UNL     1     -20.624  40.230  -5.652  1.00  0.00    -0.452 OA
ATOM      8  C   UNL     1     -20.582  41.084  -7.849  1.00  0.00     0.094 A 
ATOM      9  C   UNL     1     -20.483  40.863  -9.230  1.00  0.00     0.119 A 
ATOM     10  C   UNL     1     -20.334  39.560  -9.717  1.00  0.00     0.047 A 
ATOM     11  C   UNL     1     -20.284  38.477  -8.835  1.00  0.00     0.020 A 
ENDROOT
BRANCH   1  12
ATOM     12  C   UNL     1     -20.681  39.640  -3.313  1.00  0.00     0.025 A 
ATOM     13  C   UNL     1     -21.782  40.367  -2.826  1.00  0.00     0.016 A 
ATOM     14  C   UNL     1     -21.868  40.694  -1.470  1.00  0.00     0.051 A 
ATOM     15  C   UNL     1     -20.864  40.288  -0.581  1.00  0.00     0.157 A 
ATOM     16  C   UNL     1     -19.688  39.218  -2.413  1.00  0.00     0.062 A 
ATOM     17  C   UNL     1     -19.775  39.547  -1.053  1.00  0.00     0.158 A 
BRANCH  15  18
ATOM     18  O   UNL     1     -20.947  40.614   0.772  1.00  0.00    -0.504 OA
ATOM     19  H   UNL     1     -20.978  39.899   1.489  1.00  0.00     0.293 HD
ENDBRANCH  15  18
BRANCH  17  20
ATOM     20  O   UNL     1     -18.782  39.138  -0.164  1.00  0.00    -0.504 OA
ATOM     21  H   UNL     1     -19.008  38.782   0.758  1.00  0.00     0.293 HD
ENDBRANCH  17  20
ENDBRANCH   1  12
BRANCH   2  22
ATOM     22  O   UNL     1     -20.474  36.884  -4.211  1.00  0.00    -0.502 OA
ATOM     23  H   UNL     1     -21.336  36.494  -3.851  1.00  0.00     0.293 HD
ENDBRANCH   2  22
BRANCH   9  24
ATOM     24  O   UNL     1     -20.531  41.929 -10.125  1.00  0.00    -0.508 OA
ATOM     25  H   UNL     1     -21.413  42.331 -10.423  1.00  0.00     0.293 HD
ENDBRANCH   9  24
TORSDOF 5
ENDMDL
MODEL 7
REMARK VINA RESULT:    -5.531      2.843      5.221
REMARK INTER + INTRA:          -6.785
REMARK INTER:                  -6.506
REMARK INTRA:                  -0.279
REMARK UNBOUND:                -0.283
REMARK SMILES O=c1c(O)c(-c2ccc(O)c(O)c2)oc2cc(O)ccc12
REMARK SMILES IDX 5 1 3 2 2 3 1 4 21 5 15 6 14 7 16 8 17 9 19 10 20 11 6 12
REMARK SMILES IDX 7 13 8 14 9 15 13 16 11 17 10 18 12 20 4 22 18 24
REMARK H PARENT 10 19 12 21 4 23 18 25
REMARK Flexibility Score: inf
ROOT
ATOM      1  C   UNL     1     -19.924  40.546   0.941  1.00  0.00     0.180 A 
ATOM      2  C   UNL     1     -21.145  41.197   0.669  1.00  0.00     0.208 A 
ATOM      3  C   UNL     1     -21.805  40.921  -0.538  1.00  0.00     0.235 A 
ATOM      4  O   UNL     1     -22.904  41.482  -0.800  1.00  0.00    -0.285 OA
ATOM      5  C   UNL     1     -21.227  40.023  -1.450  1.00  0.00     0.069 A 
ATOM      6  C   UNL     1     -19.990  39.431  -1.115  1.00  0.00     0.142 A 
ATOM      7  O   UNL     1     -19.403  39.713   0.042  1.00  0.00    -0.452 OA
ATOM      8  C   UNL     1     -19.379  38.539  -2.002  1.00  0.00     0.094 A 
ATOM      9  C   UNL     1     -19.989  38.228  -3.225  1.00  0.00     0.119 A 
ATOM     10  C   UNL     1     -21.215  38.813  -3.558  1.00  0.00     0.047 A 
ATOM     11  C   UNL     1     -21.835  39.707  -2.680  1.00  0.00     0.020 A 
ENDROOT
BRANCH   1  12
ATOM     12  C   UNL     1     -19.176  40.770   2.199  1.00  0.00     0.025 A 
ATOM     13  C   UNL     1     -18.388  41.921   2.387  1.00  0.00     0.016 A 
ATOM     14  C   UNL     1     -17.710  42.123   3.592  1.00  0.00     0.051 A 
ATOM     15  C   UNL     1     -17.819  41.188   4.630  1.00  0.00     0.157 A 
ATOM     16  C   UNL     1     -19.299  39.847   3.251  1.00  0.00     0.062 A 
ATOM     17  C   UNL     1     -18.617  40.050   4.459  1.00  0.00     0.158 A 
BRANCH  15  18
ATOM     18  O   UNL     1     -17.143  41.386   5.832  1.00  0.00    -0.504 OA
ATOM     19  H   UNL     1     -17.191  40.711   6.585  1.00  0.00     0.293 HD
ENDBRANCH  15  18
BRANCH  17  20
ATOM     20  O   UNL     1     -18.729  39.125   5.496  1.00  0.00    -0.504 OA
ATOM     21  H   UNL     1     -19.095  38.193   5.337  1.00  0.00     0.293 HD
ENDBRANCH  17  20
ENDBRANCH   1  12
BRANCH   2  22
ATOM     22  O   UNL     1     -21.670  42.122   1.574  1.00  0.00    -0.502 OA
ATOM     23  H   UNL     1     -22.000  43.035   1.285  1.00  0.00     0.293 HD
ENDBRANCH   2  22
BRANCH   9  24
ATOM     24  O   UNL     1     -19.387  37.341  -4.114  1.00  0.00    -0.508 OA
ATOM     25  H   UNL     1     -19.804  37.127  -5.013  1.00  0.00     0.293 HD
ENDBRANCH   9  24
TORSDOF 5
ENDMDL
MODEL 8
REMARK VINA RESULT:    -5.458      1.548      3.465
REMARK INTER + INTRA:          -6.698
REMARK INTER:                  -6.383
REMARK INTRA:                  -0.315
REMARK UNBOUND:                -0.283
REMARK SMILES O=c1c(O)c(-c2ccc(O)c(O)c2)oc2cc(O)ccc12
REMARK SMILES IDX 5 1 3 2 2 3 1 4 21 5 15 6 14 7 16 8 17 9 19 10 20 11 6 12
REMARK SMILES IDX 7 13 8 14 9 15 13 16 11 17 10 18 12 20 4 22 18 24
REMARK H PARENT 10 19 12 21 4 23 18 25
REMARK Flexibility Score: inf
ROOT
ATOM      1  C   UNL     1     -20.103  39.989  -3.394  1.00  0.00     0.180 A 
ATOM      2  C   UNL     1     -20.574  38.820  -4.027  1.00  0.00     0.208 A 
ATOM      3  C   UNL     1     -20.124  38.523  -5.322  1.00  0.00     0.235 A 
ATOM      4  O   UNL     1     -20.522  37.477  -5.905  1.00  0.00    -0.285 OA
ATOM      5  C   UNL     1     -19.237  39.402  -5.963  1.00  0.00     0.069 A 
ATOM      6  C   UNL     1     -18.831  40.564  -5.272  1.00  0.00     0.142 A 
ATOM      7  O   UNL     1     -19.273  40.804  -4.043  1.00  0.00    -0.452 OA
ATOM      8  C   UNL     1     -17.955  41.470  -5.880  1.00  0.00     0.094 A 
ATOM      9  C   UNL     1     -17.476  41.228  -7.175  1.00  0.00     0.119 A 
ATOM     10  C   UNL     1     -17.876  40.076  -7.861  1.00  0.00     0.047 A 
ATOM     11  C   UNL     1     -18.752  39.166  -7.262  1.00  0.00     0.020 A 
ENDROOT
BRANCH   1  12
ATOM     12  C   UNL     1     -20.515  40.362  -2.022  1.00  0.00     0.025 A 
ATOM     13  C   UNL     1     -21.686  41.106  -1.787  1.00  0.00     0.016 A 
ATOM     14  C   UNL     1     -22.069  41.427  -0.482  1.00  0.00     0.051 A 
ATOM     15  C   UNL     1     -21.297  40.999   0.606  1.00  0.00     0.157 A 
ATOM     16  C   UNL     1     -19.757  39.917  -0.926  1.00  0.00     0.062 A 
ATOM     17  C   UNL     1     -20.141  40.240   0.383  1.00  0.00     0.158 A 
BRANCH  15  18
ATOM     18  O   UNL     1     -21.676  41.318   1.909  1.00  0.00    -0.504 OA
ATOM     19  H   UNL     1     -22.174  40.657   2.493  1.00  0.00     0.293 HD
ENDBRANCH  15  18
BRANCH  17  20
ATOM     20  O   UNL     1     -19.380  39.809   1.468  1.00  0.00    -0.504 OA
ATOM     21  H   UNL     1     -18.936  38.897   1.475  1.00  0.00     0.293 HD
ENDBRANCH  17  20
ENDBRANCH   1  12
BRANCH   2  22
ATOM     22  O   UNL     1     -21.495  37.989  -3.382  1.00  0.00    -0.502 OA
ATOM     23  H   UNL     1     -21.823  38.171  -2.442  1.00  0.00     0.293 HD
ENDBRANCH   2  22
BRANCH   9  24
ATOM     24  O   UNL     1     -16.604  42.124  -7.789  1.00  0.00    -0.508 OA
ATOM     25  H   UNL     1     -15.955  42.685  -7.249  1.00  0.00     0.293 HD
ENDBRANCH   9  24
TORSDOF 5
ENDMDL
MODEL 9
REMARK VINA RESULT:    -5.201      5.407     10.693
REMARK INTER + INTRA:          -6.396
REMARK INTER:                  -6.169
REMARK INTRA:                  -0.228
REMARK UNBOUND:                -0.283
REMARK SMILES O=c1c(O)c(-c2ccc(O)c(O)c2)oc2cc(O)ccc12
REMARK SMILES IDX 5 1 3 2 2 3 1 4 21 5 15 6 14 7 16 8 17 9 19 10 20 11 6 12
REMARK SMILES IDX 7 13 8 14 9 15 13 16 11 17 10 18 12 20 4 22 18 24
REMARK H PARENT 10 19 12 21 4 23 18 25
REMARK Flexibility Score: inf
ROOT
ATOM      1  C   UNL     1     -18.942  41.171   4.156  1.00  0.00     0.180 A 
ATOM      2  C   UNL     1     -17.637  41.615   4.456  1.00  0.00     0.208 A 
ATOM      3  C   UNL     1     -17.252  41.730   5.800  1.00  0.00     0.235 A 
ATOM      4  O   UNL     1     -16.086  42.114   6.093  1.00  0.00    -0.285 OA
ATOM      5  C   UNL     1     -18.176  41.421   6.811  1.00  0.00     0.069 A 
ATOM      6  C   UNL     1     -19.471  41.007   6.430  1.00  0.00     0.142 A 
ATOM      7  O   UNL     1     -19.792  40.903   5.145  1.00  0.00    -0.452 OA
ATOM      8  C   UNL     1     -20.423  40.699   7.408  1.00  0.00     0.094 A 
ATOM      9  C   UNL     1     -20.097  40.800   8.768  1.00  0.00     0.119 A 
ATOM     10  C   UNL     1     -18.814  41.209   9.146  1.00  0.00     0.047 A 
ATOM     11  C   UNL     1     -17.856  41.520   8.177  1.00  0.00     0.020 A 
ENDROOT
BRANCH   1  12
ATOM     12  C   UNL     1     -19.417  41.007   2.764  1.00  0.00     0.025 A 
ATOM     13  C   UNL     1     -20.326  41.914   2.189  1.00  0.00     0.016 A 
ATOM     14  C   UNL     1     -20.743  41.753   0.866  1.00  0.00     0.051 A 
ATOM     15  C   UNL     1     -20.249  40.694   0.094  1.00  0.00     0.157 A 
ATOM     16  C   UNL     1     -18.909  39.959   1.979  1.00  0.00     0.062 A 
ATOM     17  C   UNL     1     -19.329  39.798   0.650  1.00  0.00     0.158 A 
BRANCH  15  18
ATOM     18  O   UNL     1     -20.664  40.530  -1.227  1.00  0.00    -0.504 OA
ATOM     19  H   UNL     1     -19.999  40.457  -1.986  1.00  0.00     0.293 HD
ENDBRANCH  15  18
BRANCH  17  20
ATOM     20  O   UNL     1     -18.834  38.748  -0.122  1.00  0.00    -0.504 OA
ATOM     21  H   UNL     1     -19.069  38.656  -1.104  1.00  0.00     0.293 HD
ENDBRANCH  17  20
ENDBRANCH   1  12
BRANCH   2  22
ATOM     22  O   UNL     1     -16.755  41.962   3.428  1.00  0.00    -0.502 OA
ATOM     23  H   UNL     1     -17.064  42.425   2.583  1.00  0.00     0.293 HD
ENDBRANCH   2  22
BRANCH   9  24
ATOM     24  O   UNL     1     -21.038  40.496   9.748  1.00  0.00    -0.508 OA
ATOM     25  H   UNL     1     -21.530  39.610   9.753  1.00  0.00     0.293 HD
ENDBRANCH   9  24
TORSDOF 5
ENDMDL
