MODEL 1
REMARK VINA RESULT:    -6.352      0.000      0.000
REMARK INTER + INTRA:          -7.848
REMARK INTER:                  -7.652
REMARK INTRA:                  -0.196
REMARK UNBOUND:                -0.196
REMARK SMILES O=c1c(O)c(-c2ccc(O)cc2O)oc2cc(O)cc(O)c12
REMARK SMILES IDX 5 1 3 2 2 3 1 4 22 5 20 6 19 7 17 8 16 9 15 10 14 11 6 12
REMARK SMILES IDX 8 13 7 14 9 15 11 16 12 17 10 18 13 20 4 22 21 24 18 26
REMARK H PARENT 10 19 13 21 4 23 21 25 18 27
REMARK Flexibility Score: inf
ROOT
ATOM      1  C   UNL     1      -3.451  38.488  19.104  1.00  0.00     0.184 A 
ATOM      2  C   UNL     1      -2.471  39.474  18.914  1.00  0.00     0.208 A 
ATOM      3  C   UNL     1      -1.273  39.127  18.269  1.00  0.00     0.238 A 
ATOM      4  O   UNL     1      -0.376  40.001  18.149  1.00  0.00    -0.285 OA
ATOM      5  C   UNL     1      -1.080  37.801  17.810  1.00  0.00     0.111 A 
ATOM      6  C   UNL     1       0.077  37.347  17.108  1.00  0.00     0.134 A 
ATOM      7  C   UNL     1       0.217  35.985  16.815  1.00  0.00     0.093 A 
ATOM      8  C   UNL     1      -0.788  35.071  17.142  1.00  0.00     0.123 A 
ATOM      9  C   UNL     1      -1.947  35.514  17.774  1.00  0.00     0.094 A 
ATOM     10  C   UNL     1      -2.100  36.861  18.111  1.00  0.00     0.146 A 
ATOM     11  O   UNL     1      -3.216  37.239  18.724  1.00  0.00    -0.451 OA
ENDROOT
BRANCH   1  12
ATOM     12  C   UNL     1      -4.741  38.791  19.762  1.00  0.00     0.063 A 
ATOM     13  C   UNL     1      -5.935  39.727  21.660  1.00  0.00     0.047 A 
ATOM     14  C   UNL     1      -4.734  39.432  21.010  1.00  0.00     0.020 A 
ATOM     15  C   UNL     1      -7.155  39.374  21.078  1.00  0.00     0.119 A 
ATOM     16  C   UNL     1      -7.172  38.714  19.843  1.00  0.00     0.093 A 
ATOM     17  C   UNL     1      -5.970  38.408  19.186  1.00  0.00     0.130 A 
BRANCH  15  18
ATOM     18  O   UNL     1      -8.345  39.680  21.736  1.00  0.00    -0.508 OA
ATOM     19  H   UNL     1      -8.914  40.471  21.461  1.00  0.00     0.293 HD
ENDBRANCH  15  18
BRANCH  17  20
ATOM     20  O   UNL     1      -5.998  37.707  17.981  1.00  0.00    -0.507 OA
ATOM     21  H   UNL     1      -6.823  37.203  17.678  1.00  0.00     0.293 HD
ENDBRANCH  17  20
ENDBRANCH   1  12
BRANCH   2  22
ATOM     22  O   UNL     1      -2.680  40.769  19.394  1.00  0.00    -0.502 OA
ATOM     23  H   UNL     1      -2.969  40.956  20.347  1.00  0.00     0.293 HD
ENDBRANCH   2  22
BRANCH   6  24
ATOM     24  O   UNL     1       1.096  38.191  16.655  1.00  0.00    -0.507 OA
ATOM     25  H   UNL     1       1.488  38.954  17.184  1.00  0.00     0.293 HD
ENDBRANCH   6  24
BRANCH   8  26
ATOM     26  O   UNL     1      -0.646  33.720  16.833  1.00  0.00    -0.508 OA
ATOM     27  H   UNL     1       0.009  33.128  17.329  1.00  0.00     0.293 HD
ENDBRANCH   8  26
TORSDOF 6
ENDMDL
MODEL 2
REMARK VINA RESULT:    -6.318      1.499      6.903
REMARK INTER + INTRA:          -7.806
REMARK INTER:                  -7.450
REMARK INTRA:                  -0.356
REMARK UNBOUND:                -0.196
REMARK SMILES O=c1c(O)c(-c2ccc(O)cc2O)oc2cc(O)cc(O)c12
REMARK SMILES IDX 5 1 3 2 2 3 1 4 22 5 20 6 19 7 17 8 16 9 15 10 14 11 6 12
REMARK SMILES IDX 8 13 7 14 9 15 11 16 12 17 10 18 13 20 4 22 21 24 18 26
REMARK H PARENT 10 19 13 21 4 23 21 25 18 27
REMARK Flexibility Score: inf
ROOT
ATOM      1  C   UNL     1      -3.464  37.592  18.994  1.00  0.00     0.184 A 
ATOM      2  C   UNL     1      -4.679  37.722  18.302  1.00  0.00     0.208 A 
ATOM      3  C   UNL     1      -5.813  38.168  19.000  1.00  0.00     0.238 A 
ATOM      4  O   UNL     1      -6.912  38.232  18.389  1.00  0.00    -0.285 OA
ATOM      5  C   UNL     1      -5.712  38.493  20.374  1.00  0.00     0.111 A 
ATOM      6  C   UNL     1      -6.786  38.993  21.170  1.00  0.00     0.134 A 
ATOM      7  C   UNL     1      -6.605  39.158  22.549  1.00  0.00     0.093 A 
ATOM      8  C   UNL     1      -5.369  38.902  23.150  1.00  0.00     0.123 A 
ATOM      9  C   UNL     1      -4.298  38.471  22.371  1.00  0.00     0.094 A 
ATOM     10  C   UNL     1      -4.457  38.263  20.999  1.00  0.00     0.146 A 
ATOM     11  O   UNL     1      -3.413  37.840  20.296  1.00  0.00    -0.451 OA
ENDROOT
BRANCH   1  12
ATOM     12  C   UNL     1      -2.229  37.143  18.316  1.00  0.00     0.063 A 
ATOM     13  C   UNL     1      -1.020  35.385  17.152  1.00  0.00     0.047 A 
ATOM     14  C   UNL     1      -2.173  35.842  17.794  1.00  0.00     0.020 A 
ATOM     15  C   UNL     1       0.097  36.216  17.037  1.00  0.00     0.119 A 
ATOM     16  C   UNL     1       0.061  37.509  17.575  1.00  0.00     0.093 A 
ATOM     17  C   UNL     1      -1.092  37.974  18.226  1.00  0.00     0.130 A 
BRANCH  15  18
ATOM     18  O   UNL     1       1.239  35.748  16.390  1.00  0.00    -0.508 OA
ATOM     19  H   UNL     1       2.053  35.440  16.909  1.00  0.00     0.293 HD
ENDBRANCH  15  18
BRANCH  17  20
ATOM     20  O   UNL     1      -1.099  39.245  18.801  1.00  0.00    -0.507 OA
ATOM     21  H   UNL     1      -1.386  39.392  19.761  1.00  0.00     0.293 HD
ENDBRANCH  17  20
ENDBRANCH   1  12
BRANCH   2  22
ATOM     22  O   UNL     1      -4.755  37.377  16.952  1.00  0.00    -0.502 OA
ATOM     23  H   UNL     1      -5.214  36.533  16.631  1.00  0.00     0.293 HD
ENDBRANCH   2  22
BRANCH   6  24
ATOM     24  O   UNL     1      -8.030  39.366  20.654  1.00  0.00    -0.507 OA
ATOM     25  H   UNL     1      -8.172  40.072  19.948  1.00  0.00     0.293 HD
ENDBRANCH   6  24
BRANCH   8  26
ATOM     26  O   UNL     1      -5.196  39.084  24.520  1.00  0.00    -0.508 OA
ATOM     27  H   UNL     1      -4.762  38.375  25.099  1.00  0.00     0.293 HD
ENDBRANCH   8  26
TORSDOF 6
ENDMDL
MODEL 3
REMARK VINA RESULT:    -6.188     18.830     20.207
REMARK INTER + INTRA:          -7.650
REMARK INTER:                  -7.361
REMARK INTRA:                  -0.289
REMARK UNBOUND:                -0.196
REMARK SMILES O=c1c(O)c(-c2ccc(O)cc2O)oc2cc(O)cc(O)c12
REMARK SMILES IDX 5 1 3 2 2 3 1 4 22 5 20 6 19 7 17 8 16 9 15 10 14 11 6 12
REMARK SMILES IDX 8 13 7 14 9 15 11 16 12 17 10 18 13 20 4 22 21 24 18 26
REMARK H PARENT 10 19 13 21 4 23 21 25 18 27
REMARK Flexibility Score: inf
ROOT
ATOM      1  C   UNL     1      -6.202  25.696  33.860  1.00  0.00     0.184 A 
ATOM      2  C   UNL     1      -6.943  24.730  34.557  1.00  0.00     0.208 A 
ATOM      3  C   UNL     1      -7.217  23.502  33.933  1.00  0.00     0.238 A 
ATOM      4  O   UNL     1      -7.927  22.660  34.542  1.00  0.00    -0.285 OA
ATOM      5  C   UNL     1      -6.732  23.254  32.626  1.00  0.00     0.111 A 
ATOM      6  C   UNL     1      -6.916  22.031  31.912  1.00  0.00     0.134 A 
ATOM      7  C   UNL     1      -6.505  21.942  30.577  1.00  0.00     0.093 A 
ATOM      8  C   UNL     1      -5.860  23.011  29.949  1.00  0.00     0.123 A 
ATOM      9  C   UNL     1      -5.623  24.188  30.655  1.00  0.00     0.094 A 
ATOM     10  C   UNL     1      -6.053  24.319  31.978  1.00  0.00     0.146 A 
ATOM     11  O   UNL     1      -5.817  25.462  32.612  1.00  0.00    -0.451 OA
ENDROOT
BRANCH   1  12
ATOM     12  C   UNL     1      -5.864  27.003  34.465  1.00  0.00     0.063 A 
ATOM     13  C   UNL     1      -6.074  29.424  34.430  1.00  0.00     0.047 A 
ATOM     14  C   UNL     1      -6.377  28.174  33.886  1.00  0.00     0.020 A 
ATOM     15  C   UNL     1      -5.243  29.522  35.549  1.00  0.00     0.119 A 
ATOM     16  C   UNL     1      -4.707  28.360  36.120  1.00  0.00     0.093 A 
ATOM     17  C   UNL     1      -5.002  27.101  35.577  1.00  0.00     0.130 A 
BRANCH  15  18
ATOM     18  O   UNL     1      -4.952  30.775  36.083  1.00  0.00    -0.508 OA
ATOM     19  H   UNL     1      -5.658  31.325  36.557  1.00  0.00     0.293 HD
ENDBRANCH  15  18
BRANCH  17  20
ATOM     20  O   UNL     1      -4.423  25.956  36.124  1.00  0.00    -0.507 OA
ATOM     21  H   UNL     1      -4.844  25.042  36.010  1.00  0.00     0.293 HD
ENDBRANCH  17  20
ENDBRANCH   1  12
BRANCH   2  22
ATOM     22  O   UNL     1      -7.424  25.009  35.838  1.00  0.00    -0.502 OA
ATOM     23  H   UNL     1      -6.982  24.647  36.675  1.00  0.00     0.293 HD
ENDBRANCH   2  22
BRANCH   6  24
ATOM     24  O   UNL     1      -7.465  20.875  32.475  1.00  0.00    -0.507 OA
ATOM     25  H   UNL     1      -7.302  19.939  32.138  1.00  0.00     0.293 HD
ENDBRANCH   6  24
BRANCH   8  26
ATOM     26  O   UNL     1      -5.441  22.908  28.624  1.00  0.00    -0.508 OA
ATOM     27  H   UNL     1      -5.601  22.068  28.081  1.00  0.00     0.293 HD
ENDBRANCH   8  26
TORSDOF 6
ENDMDL
MODEL 4
REMARK VINA RESULT:    -5.990     18.678     19.976
REMARK INTER + INTRA:          -7.411
REMARK INTER:                  -7.199
REMARK INTRA:                  -0.212
REMARK UNBOUND:                -0.196
REMARK SMILES O=c1c(O)c(-c2ccc(O)cc2O)oc2cc(O)cc(O)c12
REMARK SMILES IDX 5 1 3 2 2 3 1 4 22 5 20 6 19 7 17 8 16 9 15 10 14 11 6 12
REMARK SMILES IDX 8 13 7 14 9 15 11 16 12 17 10 18 13 20 4 22 21 24 18 26
REMARK H PARENT 10 19 13 21 4 23 21 25 18 27
REMARK Flexibility Score: inf
ROOT
ATOM      1  C   UNL     1      -5.974  26.266  33.493  1.00  0.00     0.184 A 
ATOM      2  C   UNL     1      -5.523  26.074  32.178  1.00  0.00     0.208 A 
ATOM      3  C   UNL     1      -5.765  24.841  31.550  1.00  0.00     0.238 A 
ATOM      4  O   UNL     1      -5.312  24.655  30.390  1.00  0.00    -0.285 OA
ATOM      5  C   UNL     1      -6.467  23.824  32.242  1.00  0.00     0.111 A 
ATOM      6  C   UNL     1      -6.802  22.551  31.689  1.00  0.00     0.134 A 
ATOM      7  C   UNL     1      -7.385  21.575  32.507  1.00  0.00     0.093 A 
ATOM      8  C   UNL     1      -7.702  21.848  33.841  1.00  0.00     0.123 A 
ATOM      9  C   UNL     1      -7.433  23.107  34.372  1.00  0.00     0.094 A 
ATOM     10  C   UNL     1      -6.820  24.090  33.591  1.00  0.00     0.146 A 
ATOM     11  O   UNL     1      -6.570  25.273  34.140  1.00  0.00    -0.451 OA
ENDROOT
BRANCH   1  12
ATOM     12  C   UNL     1      -5.767  27.545  34.206  1.00  0.00     0.063 A 
ATOM     13  C   UNL     1      -5.944  29.969  34.217  1.00  0.00     0.047 A 
ATOM     14  C   UNL     1      -6.131  28.743  33.573  1.00  0.00     0.020 A 
ATOM     15  C   UNL     1      -5.379  30.014  35.494  1.00  0.00     0.119 A 
ATOM     16  C   UNL     1      -4.990  28.825  36.125  1.00  0.00     0.093 A 
ATOM     17  C   UNL     1      -5.169  27.590  35.483  1.00  0.00     0.130 A 
BRANCH  15  18
ATOM     18  O   UNL     1      -5.203  31.243  36.125  1.00  0.00    -0.508 OA
ATOM     19  H   UNL     1      -5.947  31.928  36.167  1.00  0.00     0.293 HD
ENDBRANCH  15  18
BRANCH  17  20
ATOM     20  O   UNL     1      -4.734  26.418  36.101  1.00  0.00    -0.507 OA
ATOM     21  H   UNL     1      -4.410  26.412  37.061  1.00  0.00     0.293 HD
ENDBRANCH  17  20
ENDBRANCH   1  12
BRANCH   2  22
ATOM     22  O   UNL     1      -4.818  27.087  31.526  1.00  0.00    -0.502 OA
ATOM     23  H   UNL     1      -3.922  27.425  31.857  1.00  0.00     0.293 HD
ENDBRANCH   2  22
BRANCH   6  24
ATOM     24  O   UNL     1      -6.612  22.209  30.347  1.00  0.00    -0.507 OA
ATOM     25  H   UNL     1      -7.274  22.389  29.609  1.00  0.00     0.293 HD
ENDBRANCH   6  24
BRANCH   8  26
ATOM     26  O   UNL     1      -8.295  20.876  34.642  1.00  0.00    -0.508 OA
ATOM     27  H   UNL     1      -7.743  20.174  35.121  1.00  0.00     0.293 HD
ENDBRANCH   8  26
TORSDOF 6
ENDMDL
MODEL 5
REMARK VINA RESULT:    -5.865      2.063      6.821
REMARK INTER + INTRA:          -7.261
REMARK INTER:                  -6.859
REMARK INTRA:                  -0.402
REMARK UNBOUND:                -0.196
REMARK SMILES O=c1c(O)c(-c2ccc(O)cc2O)oc2cc(O)cc(O)c12
REMARK SMILES IDX 5 1 3 2 2 3 1 4 22 5 20 6 19 7 17 8 16 9 15 10 14 11 6 12
REMARK SMILES IDX 8 13 7 14 9 15 11 16 12 17 10 18 13 20 4 22 21 24 18 26
REMARK H PARENT 10 19 13 21 4 23 21 25 18 27
REMARK Flexibility Score: inf
ROOT
ATOM      1  C   UNL     1      -2.733  39.107  20.395  1.00  0.00     0.184 A 
ATOM      2  C   UNL     1      -2.214  39.247  21.691  1.00  0.00     0.208 A 
ATOM      3  C   UNL     1      -3.105  39.389  22.768  1.00  0.00     0.238 A 
ATOM      4  O   UNL     1      -2.634  39.568  23.922  1.00  0.00    -0.285 OA
ATOM      5  C   UNL     1      -4.501  39.374  22.533  1.00  0.00     0.111 A 
ATOM      6  C   UNL     1      -5.496  39.470  23.552  1.00  0.00     0.134 A 
ATOM      7  C   UNL     1      -6.845  39.574  23.194  1.00  0.00     0.093 A 
ATOM      8  C   UNL     1      -7.241  39.521  21.854  1.00  0.00     0.123 A 
ATOM      9  C   UNL     1      -6.282  39.368  20.856  1.00  0.00     0.094 A 
ATOM     10  C   UNL     1      -4.925  39.297  21.180  1.00  0.00     0.146 A 
ATOM     11  O   UNL     1      -4.043  39.163  20.196  1.00  0.00    -0.451 OA
ENDROOT
BRANCH   1  12
ATOM     12  C   UNL     1      -1.851  38.937  19.219  1.00  0.00     0.063 A 
ATOM     13  C   UNL     1      -0.242  39.900  17.674  1.00  0.00     0.047 A 
ATOM     14  C   UNL     1      -1.081  40.026  18.784  1.00  0.00     0.020 A 
ATOM     15  C   UNL     1      -0.173  38.691  16.977  1.00  0.00     0.119 A 
ATOM     16  C   UNL     1      -0.956  37.605  17.390  1.00  0.00     0.093 A 
ATOM     17  C   UNL     1      -1.805  37.724  18.500  1.00  0.00     0.130 A 
BRANCH  15  18
ATOM     18  O   UNL     1       0.672  38.579  15.875  1.00  0.00    -0.508 OA
ATOM     19  H   UNL     1       1.660  38.385  15.982  1.00  0.00     0.293 HD
ENDBRANCH  15  18
BRANCH  17  20
ATOM     20  O   UNL     1      -2.616  36.652  18.872  1.00  0.00    -0.507 OA
ATOM     21  H   UNL     1      -3.008  36.019  18.185  1.00  0.00     0.293 HD
ENDBRANCH  17  20
ENDBRANCH   1  12
BRANCH   2  22
ATOM     22  O   UNL     1      -0.833  39.278  21.892  1.00  0.00    -0.502 OA
ATOM     23  H   UNL     1      -0.243  38.468  21.738  1.00  0.00     0.293 HD
ENDBRANCH   2  22
BRANCH   6  24
ATOM     24  O   UNL     1      -5.214  39.438  24.922  1.00  0.00    -0.507 OA
ATOM     25  H   UNL     1      -5.804  39.832  25.639  1.00  0.00     0.293 HD
ENDBRANCH   6  24
BRANCH   8  26
ATOM     26  O   UNL     1      -8.587  39.610  21.508  1.00  0.00    -0.508 OA
ATOM     27  H   UNL     1      -9.176  40.357  21.856  1.00  0.00     0.293 HD
ENDBRANCH   8  26
TORSDOF 6
ENDMDL
MODEL 6
REMARK VINA RESULT:    -5.855     13.123     15.448
REMARK INTER + INTRA:          -7.249
REMARK INTER:                  -7.221
REMARK INTRA:                  -0.028
REMARK UNBOUND:                -0.196
REMARK SMILES O=c1c(O)c(-c2ccc(O)cc2O)oc2cc(O)cc(O)c12
REMARK SMILES IDX 5 1 3 2 2 3 1 4 22 5 20 6 19 7 17 8 16 9 15 10 14 11 6 12
REMARK SMILES IDX 8 13 7 14 9 15 11 16 12 17 10 18 13 20 4 22 21 24 18 26
REMARK H PARENT 10 19 13 21 4 23 21 25 18 27
REMARK Flexibility Score: inf
ROOT
ATOM      1  C   UNL     1      -4.622  36.743  34.121  1.00  0.00     0.184 A 
ATOM      2  C   UNL     1      -4.452  37.925  34.859  1.00  0.00     0.208 A 
ATOM      3  C   UNL     1      -3.668  38.957  34.318  1.00  0.00     0.238 A 
ATOM      4  O   UNL     1      -3.475  39.993  35.007  1.00  0.00    -0.285 OA
ATOM      5  C   UNL     1      -3.080  38.799  33.040  1.00  0.00     0.111 A 
ATOM      6  C   UNL     1      -2.300  39.794  32.377  1.00  0.00     0.134 A 
ATOM      7  C   UNL     1      -1.660  39.481  31.172  1.00  0.00     0.093 A 
ATOM      8  C   UNL     1      -1.823  38.228  30.574  1.00  0.00     0.123 A 
ATOM      9  C   UNL     1      -2.630  37.271  31.183  1.00  0.00     0.094 A 
ATOM     10  C   UNL     1      -3.253  37.541  32.403  1.00  0.00     0.146 A 
ATOM     11  O   UNL     1      -4.004  36.595  32.956  1.00  0.00    -0.451 OA
ENDROOT
BRANCH   1  12
ATOM     12  C   UNL     1      -5.447  35.624  34.625  1.00  0.00     0.063 A 
ATOM     13  C   UNL     1      -7.443  34.878  35.794  1.00  0.00     0.047 A 
ATOM     14  C   UNL     1      -6.643  35.911  35.301  1.00  0.00     0.020 A 
ATOM     15  C   UNL     1      -7.052  33.547  35.632  1.00  0.00     0.119 A 
ATOM     16  C   UNL     1      -5.848  33.250  34.979  1.00  0.00     0.093 A 
ATOM     17  C   UNL     1      -5.036  34.282  34.485  1.00  0.00     0.130 A 
BRANCH  15  18
ATOM     18  O   UNL     1      -7.862  32.526  36.125  1.00  0.00    -0.508 OA
ATOM     19  H   UNL     1      -7.729  32.147  37.055  1.00  0.00     0.293 HD
ENDBRANCH  15  18
BRANCH  17  20
ATOM     20  O   UNL     1      -3.817  33.977  33.880  1.00  0.00    -0.507 OA
ATOM     21  H   UNL     1      -3.766  33.395  33.052  1.00  0.00     0.293 HD
ENDBRANCH  17  20
ENDBRANCH   1  12
BRANCH   2  22
ATOM     22  O   UNL     1      -5.028  38.047  36.125  1.00  0.00    -0.502 OA
ATOM     23  H   UNL     1      -4.927  38.882  36.690  1.00  0.00     0.293 HD
ENDBRANCH   2  22
BRANCH   6  24
ATOM     24  O   UNL     1      -2.149  41.103  32.843  1.00  0.00    -0.507 OA
ATOM     25  H   UNL     1      -1.886  41.352  33.784  1.00  0.00     0.293 HD
ENDBRANCH   6  24
BRANCH   8  26
ATOM     26  O   UNL     1      -1.194  37.931  29.367  1.00  0.00    -0.508 OA
ATOM     27  H   UNL     1      -1.223  38.570  28.582  1.00  0.00     0.293 HD
ENDBRANCH   8  26
TORSDOF 6
ENDMDL
MODEL 7
REMARK VINA RESULT:    -5.803      1.535      6.819
REMARK INTER + INTRA:          -7.187
REMARK INTER:                  -6.853
REMARK INTRA:                  -0.333
REMARK UNBOUND:                -0.196
REMARK SMILES O=c1c(O)c(-c2ccc(O)cc2O)oc2cc(O)cc(O)c12
REMARK SMILES IDX 5 1 3 2 2 3 1 4 22 5 20 6 19 7 17 8 16 9 15 10 14 11 6 12
REMARK SMILES IDX 8 13 7 14 9 15 11 16 12 17 10 18 13 20 4 22 21 24 18 26
REMARK H PARENT 10 19 13 21 4 23 21 25 18 27
REMARK Flexibility Score: inf
ROOT
ATOM      1  C   UNL     1      -3.216  38.416  19.058  1.00  0.00     0.184 A 
ATOM      2  C   UNL     1      -4.467  38.226  18.449  1.00  0.00     0.208 A 
ATOM      3  C   UNL     1      -5.630  38.401  19.217  1.00  0.00     0.238 A 
ATOM      4  O   UNL     1      -6.746  38.177  18.680  1.00  0.00    -0.285 OA
ATOM      5  C   UNL     1      -5.525  38.779  20.577  1.00  0.00     0.111 A 
ATOM      6  C   UNL     1      -6.637  39.024  21.438  1.00  0.00     0.134 A 
ATOM      7  C   UNL     1      -6.417  39.266  22.800  1.00  0.00     0.093 A 
ATOM      8  C   UNL     1      -5.121  39.337  23.318  1.00  0.00     0.123 A 
ATOM      9  C   UNL     1      -4.028  39.159  22.474  1.00  0.00     0.094 A 
ATOM     10  C   UNL     1      -4.216  38.880  21.118  1.00  0.00     0.146 A 
ATOM     11  O   UNL     1      -3.146  38.705  20.351  1.00  0.00    -0.451 OA
ENDROOT
BRANCH   1  12
ATOM     12  C   UNL     1      -1.954  38.263  18.304  1.00  0.00     0.063 A 
ATOM     13  C   UNL     1      -0.023  39.302  17.253  1.00  0.00     0.047 A 
ATOM     14  C   UNL     1      -1.218  39.411  17.970  1.00  0.00     0.020 A 
ATOM     15  C   UNL     1       0.443  38.049  16.849  1.00  0.00     0.119 A 
ATOM     16  C   UNL     1      -0.296  36.899  17.157  1.00  0.00     0.093 A 
ATOM     17  C   UNL     1      -1.499  37.000  17.871  1.00  0.00     0.130 A 
BRANCH  15  18
ATOM     18  O   UNL     1       1.638  37.956  16.139  1.00  0.00    -0.508 OA
ATOM     19  H   UNL     1       2.453  37.500  16.531  1.00  0.00     0.293 HD
ENDBRANCH  15  18
BRANCH  17  20
ATOM     20  O   UNL     1      -2.251  35.854  18.130  1.00  0.00    -0.507 OA
ATOM     21  H   UNL     1      -2.186  35.364  19.015  1.00  0.00     0.293 HD
ENDBRANCH  17  20
ENDBRANCH   1  12
BRANCH   2  22
ATOM     22  O   UNL     1      -4.540  37.835  17.111  1.00  0.00    -0.502 OA
ATOM     23  H   UNL     1      -5.220  38.223  16.468  1.00  0.00     0.293 HD
ENDBRANCH   2  22
BRANCH   6  24
ATOM     24  O   UNL     1      -7.965  39.067  21.003  1.00  0.00    -0.507 OA
ATOM     25  H   UNL     1      -8.768  38.898  21.590  1.00  0.00     0.293 HD
ENDBRANCH   6  24
BRANCH   8  26
ATOM     26  O   UNL     1      -4.911  39.594  24.671  1.00  0.00    -0.508 OA
ATOM     27  H   UNL     1      -4.102  39.231  25.161  1.00  0.00     0.293 HD
ENDBRANCH   8  26
TORSDOF 6
ENDMDL
MODEL 8
REMARK VINA RESULT:    -5.735      2.677      4.912
REMARK INTER + INTRA:          -7.104
REMARK INTER:                  -6.688
REMARK INTRA:                  -0.417
REMARK UNBOUND:                -0.196
REMARK SMILES O=c1c(O)c(-c2ccc(O)cc2O)oc2cc(O)cc(O)c12
REMARK SMILES IDX 5 1 3 2 2 3 1 4 22 5 20 6 19 7 17 8 16 9 15 10 14 11 6 12
REMARK SMILES IDX 8 13 7 14 9 15 11 16 12 17 10 18 13 20 4 22 21 24 18 26
REMARK H PARENT 10 19 13 21 4 23 21 25 18 27
REMARK Flexibility Score: inf
ROOT
ATOM      1  C   UNL     1      -4.794  39.247  21.474  1.00  0.00     0.184 A 
ATOM      2  C   UNL     1      -5.782  38.396  20.954  1.00  0.00     0.208 A 
ATOM      3  C   UNL     1      -5.704  38.008  19.607  1.00  0.00     0.238 A 
ATOM      4  O   UNL     1      -6.621  37.288  19.131  1.00  0.00    -0.285 OA
ATOM      5  C   UNL     1      -4.631  38.465  18.803  1.00  0.00     0.111 A 
ATOM      6  C   UNL     1      -4.430  38.103  17.437  1.00  0.00     0.134 A 
ATOM      7  C   UNL     1      -3.407  38.716  16.704  1.00  0.00     0.093 A 
ATOM      8  C   UNL     1      -2.537  39.630  17.305  1.00  0.00     0.123 A 
ATOM      9  C   UNL     1      -2.688  39.945  18.653  1.00  0.00     0.094 A 
ATOM     10  C   UNL     1      -3.721  39.377  19.402  1.00  0.00     0.146 A 
ATOM     11  O   UNL     1      -3.837  39.713  20.682  1.00  0.00    -0.451 OA
ENDROOT
BRANCH   1  12
ATOM     12  C   UNL     1      -4.808  39.681  22.888  1.00  0.00     0.063 A 
ATOM     13  C   UNL     1      -5.749  41.112  24.612  1.00  0.00     0.047 A 
ATOM     14  C   UNL     1      -5.714  40.677  23.285  1.00  0.00     0.020 A 
ATOM     15  C   UNL     1      -4.871  40.570  25.554  1.00  0.00     0.119 A 
ATOM     16  C   UNL     1      -3.947  39.592  25.162  1.00  0.00     0.093 A 
ATOM     17  C   UNL     1      -3.901  39.153  23.831  1.00  0.00     0.130 A 
BRANCH  15  18
ATOM     18  O   UNL     1      -4.921  41.012  26.875  1.00  0.00    -0.508 OA
ATOM     19  H   UNL     1      -4.804  40.372  27.651  1.00  0.00     0.293 HD
ENDBRANCH  15  18
BRANCH  17  20
ATOM     20  O   UNL     1      -2.945  38.215  23.442  1.00  0.00    -0.507 OA
ATOM     21  H   UNL     1      -2.340  38.373  22.645  1.00  0.00     0.293 HD
ENDBRANCH  17  20
ENDBRANCH   1  12
BRANCH   2  22
ATOM     22  O   UNL     1      -6.839  37.976  21.763  1.00  0.00    -0.502 OA
ATOM     23  H   UNL     1      -6.994  37.002  21.992  1.00  0.00     0.293 HD
ENDBRANCH   2  22
BRANCH   6  24
ATOM     24  O   UNL     1      -5.183  37.134  16.768  1.00  0.00    -0.507 OA
ATOM     25  H   UNL     1      -6.167  37.212  16.562  1.00  0.00     0.293 HD
ENDBRANCH   6  24
BRANCH   8  26
ATOM     26  O   UNL     1      -1.513  40.223  16.570  1.00  0.00    -0.508 OA
ATOM     27  H   UNL     1      -1.070  39.745  15.795  1.00  0.00     0.293 HD
ENDBRANCH   8  26
TORSDOF 6
ENDMDL
MODEL 9
REMARK VINA RESULT:    -5.683      1.774      6.384
REMARK INTER + INTRA:          -7.041
REMARK INTER:                  -6.707
REMARK INTRA:                  -0.334
REMARK UNBOUND:                -0.196
REMARK SMILES O=c1c(O)c(-c2ccc(O)cc2O)oc2cc(O)cc(O)c12
REMARK SMILES IDX 5 1 3 2 2 3 1 4 22 5 20 6 19 7 17 8 16 9 15 10 14 11 6 12
REMARK SMILES IDX 8 13 7 14 9 15 11 16 12 17 10 18 13 20 4 22 21 24 18 26
REMARK H PARENT 10 19 13 21 4 23 21 25 18 27
REMARK Flexibility Score: inf
ROOT
ATOM      1  C   UNL     1      -2.461  37.927  18.922  1.00  0.00     0.184 A 
ATOM      2  C   UNL     1      -2.769  39.289  18.783  1.00  0.00     0.208 A 
ATOM      3  C   UNL     1      -3.781  39.842  19.584  1.00  0.00     0.238 A 
ATOM      4  O   UNL     1      -4.090  41.051  19.418  1.00  0.00    -0.285 OA
ATOM      5  C   UNL     1      -4.460  39.028  20.523  1.00  0.00     0.111 A 
ATOM      6  C   UNL     1      -5.474  39.492  21.414  1.00  0.00     0.134 A 
ATOM      7  C   UNL     1      -6.168  38.572  22.210  1.00  0.00     0.093 A 
ATOM      8  C   UNL     1      -5.839  37.213  22.193  1.00  0.00     0.123 A 
ATOM      9  C   UNL     1      -4.811  36.760  21.371  1.00  0.00     0.094 A 
ATOM     10  C   UNL     1      -4.124  37.648  20.539  1.00  0.00     0.146 A 
ATOM     11  O   UNL     1      -3.158  37.173  19.762  1.00  0.00    -0.451 OA
ENDROOT
BRANCH   1  12
ATOM     12  C   UNL     1      -1.396  37.285  18.122  1.00  0.00     0.063 A 
ATOM     13  C   UNL     1       0.945  37.193  17.473  1.00  0.00     0.047 A 
ATOM     14  C   UNL     1      -0.084  37.774  18.219  1.00  0.00     0.020 A 
ATOM     15  C   UNL     1       0.674  36.129  16.610  1.00  0.00     0.119 A 
ATOM     16  C   UNL     1      -0.637  35.649  16.487  1.00  0.00     0.093 A 
ATOM     17  C   UNL     1      -1.677  36.230  17.229  1.00  0.00     0.130 A 
BRANCH  15  18
ATOM     18  O   UNL     1       1.711  35.558  15.875  1.00  0.00    -0.508 OA
ATOM     19  H   UNL     1       2.170  34.708  16.179  1.00  0.00     0.293 HD
ENDBRANCH  15  18
BRANCH  17  20
ATOM     20  O   UNL     1      -2.985  35.776  17.062  1.00  0.00    -0.507 OA
ATOM     21  H   UNL     1      -3.776  36.283  17.441  1.00  0.00     0.293 HD
ENDBRANCH  17  20
ENDBRANCH   1  12
BRANCH   2  22
ATOM     22  O   UNL     1      -2.096  40.064  17.836  1.00  0.00    -0.502 OA
ATOM     23  H   UNL     1      -2.067  41.076  17.884  1.00  0.00     0.293 HD
ENDBRANCH   2  22
BRANCH   6  24
ATOM     24  O   UNL     1      -5.815  40.838  21.574  1.00  0.00    -0.507 OA
ATOM     25  H   UNL     1      -5.155  41.584  21.729  1.00  0.00     0.293 HD
ENDBRANCH   6  24
BRANCH   8  26
ATOM     26  O   UNL     1      -6.525  36.308  23.000  1.00  0.00    -0.508 OA
ATOM     27  H   UNL     1      -6.155  35.386  23.196  1.00  0.00     0.293 HD
ENDBRANCH   8  26
TORSDOF 6
ENDMDL
