MODEL 1
REMARK VINA RESULT:    -2.621      0.000      0.000
REMARK INTER + INTRA:          -2.947
REMARK INTER:                  -2.928
REMARK INTRA:                  -0.019
REMARK UNBOUND:                -0.019
REMARK SMILES CCCC(=O)[O-]
REMARK SMILES IDX 3 1 4 2 5 3 6 4 2 5 1 6
REMARK H PARENT
REMARK Flexibility Score: inf
ROOT
ATOM      1  C   UNL     1     -96.515 -27.309  84.792  1.00  0.00     0.052 C 
ENDROOT
BRANCH   1   2
ATOM      2  C   UNL     1     -97.953 -26.892  84.725  1.00  0.00     0.041 C 
ATOM      3  O   UNL     1     -98.388 -25.992  85.489  1.00  0.00    -0.550 OA
ATOM      4  O   UNL     1     -98.804 -27.475  83.794  1.00  0.00    -0.550 OA
ENDBRANCH   1   2
BRANCH   1   5
ATOM      5  C   UNL     1     -96.340 -28.799  84.475  1.00  0.00     0.003 C 
ATOM      6  C   UNL     1     -95.876 -29.602  85.691  1.00  0.00     0.004 C 
ENDBRANCH   1   5
TORSDOF 2
ENDMDL
MODEL 2
REMARK VINA RESULT:    -2.574     12.501     13.620
REMARK INTER + INTRA:          -2.894
REMARK INTER:                  -2.867
REMARK INTRA:                  -0.027
REMARK UNBOUND:                -0.019
REMARK SMILES CCCC(=O)[O-]
REMARK SMILES IDX 3 1 4 2 5 3 6 4 2 5 1 6
REMARK H PARENT
REMARK Flexibility Score: inf
ROOT
ATOM      1  C   UNL     1     -97.304 -40.833  87.386  1.00  0.00     0.052 C 
ENDROOT
BRANCH   1   2
ATOM      2  C   UNL     1     -97.367 -39.848  88.512  1.00  0.00     0.041 C 
ATOM      3  O   UNL     1     -97.865 -40.183  89.619  1.00  0.00    -0.550 OA
ATOM      4  O   UNL     1     -96.846 -38.571  88.351  1.00  0.00    -0.550 OA
ENDBRANCH   1   2
BRANCH   1   5
ATOM      5  C   UNL     1     -96.226 -41.898  87.621  1.00  0.00     0.003 C 
ATOM      6  C   UNL     1     -96.781 -43.320  87.528  1.00  0.00     0.004 C 
ENDBRANCH   1   5
TORSDOF 2
ENDMDL
MODEL 3
REMARK VINA RESULT:    -2.539     13.273     14.460
REMARK INTER + INTRA:          -2.855
REMARK INTER:                  -2.823
REMARK INTRA:                  -0.032
REMARK UNBOUND:                -0.019
REMARK SMILES CCCC(=O)[O-]
REMARK SMILES IDX 3 1 4 2 5 3 6 4 2 5 1 6
REMARK H PARENT
REMARK Flexibility Score: inf
ROOT
ATOM      1  C   UNL     1     -97.159 -41.128  87.338  1.00  0.00     0.052 C 
ENDROOT
BRANCH   1   2
ATOM      2  C   UNL     1     -96.503 -42.410  87.753  1.00  0.00     0.041 C 
ATOM      3  O   UNL     1     -95.713 -42.429  88.732  1.00  0.00    -0.550 OA
ATOM      4  O   UNL     1     -96.791 -43.589  87.077  1.00  0.00    -0.550 OA
ENDBRANCH   1   2
BRANCH   1   5
ATOM      5  C   UNL     1     -97.492 -40.243  88.546  1.00  0.00     0.003 C 
ATOM      6  C   UNL     1     -96.962 -38.818  88.388  1.00  0.00     0.004 C 
ENDBRANCH   1   5
TORSDOF 2
ENDMDL
MODEL 4
REMARK VINA RESULT:    -2.531      1.800      2.217
REMARK INTER + INTRA:          -2.846
REMARK INTER:                  -2.816
REMARK INTRA:                  -0.030
REMARK UNBOUND:                -0.019
REMARK SMILES CCCC(=O)[O-]
REMARK SMILES IDX 3 1 4 2 5 3 6 4 2 5 1 6
REMARK H PARENT
REMARK Flexibility Score: inf
ROOT
ATOM      1  C   UNL     1     -96.498 -27.294  84.539  1.00  0.00     0.052 C 
ENDROOT
BRANCH   1   2
ATOM      2  C   UNL     1     -96.627 -26.897  83.101  1.00  0.00     0.041 C 
ATOM      3  O   UNL     1     -96.070 -27.581  82.202  1.00  0.00    -0.550 OA
ATOM      4  O   UNL     1     -97.389 -25.790  82.750  1.00  0.00    -0.550 OA
ENDBRANCH   1   2
BRANCH   1   5
ATOM      5  C   UNL     1     -96.859 -28.769  84.757  1.00  0.00     0.003 C 
ATOM      6  C   UNL     1     -95.776 -29.527  85.525  1.00  0.00     0.004 C 
ENDBRANCH   1   5
TORSDOF 2
ENDMDL
MODEL 5
REMARK VINA RESULT:    -2.496      2.558      3.210
REMARK INTER + INTRA:          -2.806
REMARK INTER:                  -2.793
REMARK INTRA:                  -0.013
REMARK UNBOUND:                -0.019
REMARK SMILES CCCC(=O)[O-]
REMARK SMILES IDX 3 1 4 2 5 3 6 4 2 5 1 6
REMARK H PARENT
REMARK Flexibility Score: inf
ROOT
ATOM      1  C   UNL     1     -96.725 -28.332  83.670  1.00  0.00     0.052 C 
ENDROOT
BRANCH   1   2
ATOM      2  C   UNL     1     -96.192 -28.541  85.054  1.00  0.00     0.041 C 
ATOM      3  O   UNL     1     -95.988 -27.555  85.810  1.00  0.00    -0.550 OA
ATOM      4  O   UNL     1     -95.951 -29.827  85.521  1.00  0.00    -0.550 OA
ENDBRANCH   1   2
BRANCH   1   5
ATOM      5  C   UNL     1     -96.439 -26.915  83.158  1.00  0.00     0.003 C 
ATOM      6  C   UNL     1     -95.997 -26.902  81.695  1.00  0.00     0.004 C 
ENDBRANCH   1   5
TORSDOF 2
ENDMDL
MODEL 6
REMARK VINA RESULT:    -2.463      2.478      3.315
REMARK INTER + INTRA:          -2.770
REMARK INTER:                  -2.730
REMARK INTRA:                  -0.040
REMARK UNBOUND:                -0.019
REMARK SMILES CCCC(=O)[O-]
REMARK SMILES IDX 3 1 4 2 5 3 6 4 2 5 1 6
REMARK H PARENT
REMARK Flexibility Score: inf
ROOT
ATOM      1  C   UNL     1     -97.177 -28.347  83.924  1.00  0.00     0.052 C 
ENDROOT
BRANCH   1   2
ATOM      2  C   UNL     1     -96.288 -28.610  85.100  1.00  0.00     0.041 C 
ATOM      3  O   UNL     1     -95.910 -29.782  85.360  1.00  0.00    -0.550 OA
ATOM      4  O   UNL     1     -95.850 -27.555  85.891  1.00  0.00    -0.550 OA
ENDBRANCH   1   2
BRANCH   1   5
ATOM      5  C   UNL     1     -96.370 -27.974  82.674  1.00  0.00     0.003 C 
ATOM      6  C   UNL     1     -96.243 -26.461  82.492  1.00  0.00     0.004 C 
ENDBRANCH   1   5
TORSDOF 2
ENDMDL
MODEL 7
REMARK VINA RESULT:    -2.406     13.690     14.219
REMARK INTER + INTRA:          -2.707
REMARK INTER:                  -2.650
REMARK INTRA:                  -0.057
REMARK UNBOUND:                -0.019
REMARK SMILES CCCC(=O)[O-]
REMARK SMILES IDX 3 1 4 2 5 3 6 4 2 5 1 6
REMARK H PARENT
REMARK Flexibility Score: inf
ROOT
ATOM      1  C   UNL     1     -97.248 -40.037  88.712  1.00  0.00     0.052 C 
ENDROOT
BRANCH   1   2
ATOM      2  C   UNL     1     -97.437 -40.834  89.966  1.00  0.00     0.041 C 
ATOM      3  O   UNL     1     -98.554 -41.354  90.224  1.00  0.00    -0.550 OA
ATOM      4  O   UNL     1     -96.370 -41.030  90.835  1.00  0.00    -0.550 OA
ENDBRANCH   1   2
BRANCH   1   5
ATOM      5  C   UNL     1     -97.287 -40.926  87.463  1.00  0.00     0.003 C 
ATOM      6  C   UNL     1     -96.255 -42.052  87.516  1.00  0.00     0.004 C 
ENDBRANCH   1   5
TORSDOF 2
ENDMDL
MODEL 8
REMARK VINA RESULT:    -2.300      2.160      3.388
REMARK INTER + INTRA:          -2.589
REMARK INTER:                  -2.581
REMARK INTRA:                  -0.008
REMARK UNBOUND:                -0.019
REMARK SMILES CCCC(=O)[O-]
REMARK SMILES IDX 3 1 4 2 5 3 6 4 2 5 1 6
REMARK H PARENT
REMARK Flexibility Score: inf
ROOT
ATOM      1  C   UNL     1     -96.838 -27.265  85.132  1.00  0.00     0.052 C 
ENDROOT
BRANCH   1   2
ATOM      2  C   UNL     1     -96.306 -28.488  84.451  1.00  0.00     0.041 C 
ATOM      3  O   UNL     1     -96.231 -28.533  83.195  1.00  0.00    -0.550 OA
ATOM      4  O   UNL     1     -95.862 -29.568  85.205  1.00  0.00    -0.550 OA
ENDBRANCH   1   2
BRANCH   1   5
ATOM      5  C   UNL     1     -97.969 -26.613  84.327  1.00  0.00     0.003 C 
ATOM      6  C   UNL     1     -98.808 -25.654  85.172  1.00  0.00     0.004 C 
ENDBRANCH   1   5
TORSDOF 2
ENDMDL
MODEL 9
REMARK VINA RESULT:    -2.278     12.572     13.734
REMARK INTER + INTRA:          -2.563
REMARK INTER:                  -2.549
REMARK INTRA:                  -0.014
REMARK UNBOUND:                -0.019
REMARK SMILES CCCC(=O)[O-]
REMARK SMILES IDX 3 1 4 2 5 3 6 4 2 5 1 6
REMARK H PARENT
REMARK Flexibility Score: inf
ROOT
ATOM      1  C   UNL     1     -97.702 -40.548  89.671  1.00  0.00     0.052 C 
ENDROOT
BRANCH   1   2
ATOM      2  C   UNL     1     -97.295 -39.982  88.345  1.00  0.00     0.041 C 
ATOM      3  O   UNL     1     -96.902 -38.789  88.259  1.00  0.00    -0.550 OA
ATOM      4  O   UNL     1     -97.319 -40.781  87.209  1.00  0.00    -0.550 OA
ENDBRANCH   1   2
BRANCH   1   5
ATOM      5  C   UNL     1     -96.498 -41.086  90.453  1.00  0.00     0.003 C 
ATOM      6  C   UNL     1     -96.706 -42.524  90.927  1.00  0.00     0.004 C 
ENDBRANCH   1   5
TORSDOF 2
ENDMDL
