MODEL 1
REMARK VINA RESULT:    -3.484      0.000      0.000
REMARK INTER + INTRA:         -10.296
REMARK INTER:                  -7.964
REMARK INTRA:                  -2.332
REMARK UNBOUND:                -2.332
REMARK SMILES CCCCCCCCCCCCCCCCCCCCCCCC(=O)[O-]
REMARK SMILES IDX 13 1 14 2 15 3 16 4 17 5 18 6 19 7 20 8 21 9 22 10 23 11
REMARK SMILES IDX 24 12 25 13 26 14 12 15 11 16 10 17 9 18 8 19 7 20 6 21 5 22
REMARK SMILES IDX 4 23 3 24 2 25 1 26
REMARK H PARENT
REMARK Flexibility Score: inf
ROOT
ATOM      1  C   UNL     1      11.141  11.134  -1.335  1.00  0.00     0.000 C 
ENDROOT
BRANCH   1   2
ATOM      2  C   UNL     1      11.959   9.854  -1.554  1.00  0.00     0.000 C 
BRANCH   2   3
ATOM      3  C   UNL     1      11.091   8.668  -2.017  1.00  0.00     0.000 C 
BRANCH   3   4
ATOM      4  C   UNL     1      11.681   7.275  -1.714  1.00  0.00     0.000 C 
BRANCH   4   5
ATOM      5  C   UNL     1      10.994   6.519  -0.560  1.00  0.00     0.000 C 
BRANCH   5   6
ATOM      6  C   UNL     1      10.871   4.996  -0.770  1.00  0.00     0.000 C 
BRANCH   6   7
ATOM      7  C   UNL     1      10.847   4.543  -2.244  1.00  0.00     0.000 C 
BRANCH   7   8
ATOM      8  C   UNL     1      12.053   3.689  -2.687  1.00  0.00     0.000 C 
BRANCH   8   9
ATOM      9  C   UNL     1      13.331   3.890  -1.853  1.00  0.00     0.000 C 
BRANCH   9  10
ATOM     10  C   UNL     1      14.575   3.265  -2.506  1.00  0.00     0.006 C 
BRANCH  10  11
ATOM     11  C   UNL     1      15.572   2.749  -1.460  1.00  0.00     0.053 C 
BRANCH  11  12
ATOM     12  C   UNL     1      16.467   1.692  -2.036  1.00  0.00     0.041 C 
ATOM     13  O   UNL     1      15.997   0.574  -2.377  1.00  0.00    -0.550 OA
ATOM     14  O   UNL     1      17.814   1.962  -2.247  1.00  0.00    -0.550 OA
ENDBRANCH  11  12
ENDBRANCH  10  11
ENDBRANCH   9  10
ENDBRANCH   8   9
ENDBRANCH   7   8
ENDBRANCH   6   7
ENDBRANCH   5   6
ENDBRANCH   4   5
ENDBRANCH   3   4
ENDBRANCH   2   3
ENDBRANCH   1   2
BRANCH   1  15
ATOM     15  C   UNL     1      10.442  11.579  -2.625  1.00  0.00     0.000 C 
BRANCH  15  16
ATOM     16  C   UNL     1       9.161  12.392  -2.360  1.00  0.00     0.000 C 
BRANCH  16  17
ATOM     17  C   UNL     1       9.048  12.900  -0.907  1.00  0.00     0.000 C 
BRANCH  17  18
ATOM     18  C   UNL     1       7.965  13.984  -0.746  1.00  0.00    -0.000 C 
BRANCH  18  19
ATOM     19  C   UNL     1       8.365  15.315  -1.403  1.00  0.00    -0.000 C 
BRANCH  19  20
ATOM     20  C   UNL     1       9.421  16.079  -0.592  1.00  0.00    -0.000 C 
BRANCH  20  21
ATOM     21  C   UNL     1      10.529  16.617  -1.507  1.00  0.00    -0.000 C 
BRANCH  21  22
ATOM     22  C   UNL     1      10.750  15.692  -2.712  1.00  0.00    -0.000 C 
BRANCH  22  23
ATOM     23  C   UNL     1      12.063  14.895  -2.622  1.00  0.00    -0.000 C 
BRANCH  23  24
ATOM     24  C   UNL     1      12.568  14.686  -1.178  1.00  0.00    -0.000 C 
BRANCH  24  25
ATOM     25  C   UNL     1      14.004  15.197  -0.983  1.00  0.00    -0.003 C 
ATOM     26  C   UNL     1      14.016  16.559  -0.294  1.00  0.00     0.004 C 
ENDBRANCH  24  25
ENDBRANCH  23  24
ENDBRANCH  22  23
ENDBRANCH  21  22
ENDBRANCH  20  21
ENDBRANCH  19  20
ENDBRANCH  18  19
ENDBRANCH  17  18
ENDBRANCH  16  17
ENDBRANCH  15  16
ENDBRANCH   1  15
TORSDOF 22
ENDMDL
MODEL 2
REMARK VINA RESULT:    -3.384      1.541      3.235
REMARK INTER + INTRA:         -10.068
REMARK INTER:                  -7.649
REMARK INTRA:                  -2.418
REMARK UNBOUND:                -2.332
REMARK SMILES CCCCCCCCCCCCCCCCCCCCCCCC(=O)[O-]
REMARK SMILES IDX 13 1 14 2 15 3 16 4 17 5 18 6 19 7 20 8 21 9 22 10 23 11
REMARK SMILES IDX 24 12 25 13 26 14 12 15 11 16 10 17 9 18 8 19 7 20 6 21 5 22
REMARK SMILES IDX 4 23 3 24 2 25 1 26
REMARK H PARENT
REMARK Flexibility Score: inf
ROOT
ATOM      1  C   UNL     1      14.100   9.992  -2.611  1.00  0.00     0.000 C 
ENDROOT
BRANCH   1   2
ATOM      2  C   UNL     1      12.612   9.752  -2.904  1.00  0.00     0.000 C 
BRANCH   2   3
ATOM      3  C   UNL     1      11.836   9.260  -1.668  1.00  0.00     0.000 C 
BRANCH   3   4
ATOM      4  C   UNL     1      10.326   9.039  -1.896  1.00  0.00     0.000 C 
BRANCH   4   5
ATOM      5  C   UNL     1       9.801   7.657  -1.461  1.00  0.00     0.000 C 
BRANCH   5   6
ATOM      6  C   UNL     1      10.729   6.475  -1.811  1.00  0.00     0.000 C 
BRANCH   6   7
ATOM      7  C   UNL     1      11.485   5.866  -0.614  1.00  0.00     0.000 C 
BRANCH   7   8
ATOM      8  C   UNL     1      12.416   4.685  -0.959  1.00  0.00     0.000 C 
BRANCH   8   9
ATOM      9  C   UNL     1      12.825   4.593  -2.441  1.00  0.00     0.000 C 
BRANCH   9  10
ATOM     10  C   UNL     1      13.955   3.579  -2.687  1.00  0.00     0.006 C 
BRANCH  10  11
ATOM     11  C   UNL     1      14.666   3.189  -1.384  1.00  0.00     0.053 C 
BRANCH  11  12
ATOM     12  C   UNL     1      15.693   2.122  -1.625  1.00  0.00     0.041 C 
ATOM     13  O   UNL     1      15.371   0.905  -1.585  1.00  0.00    -0.550 OA
ATOM     14  O   UNL     1      16.998   2.475  -1.946  1.00  0.00    -0.550 OA
ENDBRANCH  11  12
ENDBRANCH  10  11
ENDBRANCH   9  10
ENDBRANCH   8   9
ENDBRANCH   7   8
ENDBRANCH   6   7
ENDBRANCH   5   6
ENDBRANCH   4   5
ENDBRANCH   3   4
ENDBRANCH   2   3
ENDBRANCH   1   2
BRANCH   1  15
ATOM     15  C   UNL     1      14.513  11.429  -2.952  1.00  0.00     0.000 C 
BRANCH  15  16
ATOM     16  C   UNL     1      13.306  12.370  -3.125  1.00  0.00     0.000 C 
BRANCH  16  17
ATOM     17  C   UNL     1      13.688  13.865  -3.114  1.00  0.00     0.000 C 
BRANCH  17  18
ATOM     18  C   UNL     1      14.683  14.210  -1.989  1.00  0.00    -0.000 C 
BRANCH  18  19
ATOM     19  C   UNL     1      14.504  15.645  -1.469  1.00  0.00    -0.000 C 
BRANCH  19  20
ATOM     20  C   UNL     1      13.056  16.141  -1.590  1.00  0.00    -0.000 C 
BRANCH  20  21
ATOM     21  C   UNL     1      12.422  16.320  -0.205  1.00  0.00    -0.000 C 
BRANCH  21  22
ATOM     22  C   UNL     1      10.946  16.729  -0.321  1.00  0.00    -0.000 C 
BRANCH  22  23
ATOM     23  C   UNL     1      10.221  16.032  -1.484  1.00  0.00    -0.000 C 
BRANCH  23  24
ATOM     24  C   UNL     1       9.444  14.765  -1.065  1.00  0.00    -0.000 C 
BRANCH  24  25
ATOM     25  C   UNL     1      10.093  13.480  -1.601  1.00  0.00    -0.003 C 
ATOM     26  C   UNL     1      10.949  12.807  -0.532  1.00  0.00     0.004 C 
ENDBRANCH  24  25
ENDBRANCH  23  24
ENDBRANCH  22  23
ENDBRANCH  21  22
ENDBRANCH  20  21
ENDBRANCH  19  20
ENDBRANCH  18  19
ENDBRANCH  17  18
ENDBRANCH  16  17
ENDBRANCH  15  16
ENDBRANCH   1  15
TORSDOF 22
ENDMDL
MODEL 3
REMARK VINA RESULT:    -3.320      1.736      3.578
REMARK INTER + INTRA:          -9.923
REMARK INTER:                  -7.588
REMARK INTRA:                  -2.335
REMARK UNBOUND:                -2.332
REMARK SMILES CCCCCCCCCCCCCCCCCCCCCCCC(=O)[O-]
REMARK SMILES IDX 13 1 14 2 15 3 16 4 17 5 18 6 19 7 20 8 21 9 22 10 23 11
REMARK SMILES IDX 24 12 25 13 26 14 12 15 11 16 10 17 9 18 8 19 7 20 6 21 5 22
REMARK SMILES IDX 4 23 3 24 2 25 1 26
REMARK H PARENT
REMARK Flexibility Score: inf
ROOT
ATOM      1  C   UNL     1      15.697  12.150  -2.935  1.00  0.00     0.000 C 
ENDROOT
BRANCH   1   2
ATOM      2  C   UNL     1      15.325  10.661  -2.984  1.00  0.00     0.000 C 
BRANCH   2   3
ATOM      3  C   UNL     1      13.949  10.373  -2.352  1.00  0.00     0.000 C 
BRANCH   3   4
ATOM      4  C   UNL     1      13.315   9.029  -2.764  1.00  0.00     0.000 C 
BRANCH   4   5
ATOM      5  C   UNL     1      11.774   9.012  -2.759  1.00  0.00     0.000 C 
BRANCH   5   6
ATOM      6  C   UNL     1      11.140   8.417  -1.485  1.00  0.00     0.000 C 
BRANCH   6   7
ATOM      7  C   UNL     1      10.678   6.951  -1.612  1.00  0.00     0.000 C 
BRANCH   7   8
ATOM      8  C   UNL     1      11.636   5.908  -1.000  1.00  0.00     0.000 C 
BRANCH   8   9
ATOM      9  C   UNL     1      12.376   5.027  -2.023  1.00  0.00     0.000 C 
BRANCH   9  10
ATOM     10  C   UNL     1      13.452   4.138  -1.378  1.00  0.00     0.006 C 
BRANCH  10  11
ATOM     11  C   UNL     1      14.046   3.140  -2.381  1.00  0.00     0.053 C 
BRANCH  11  12
ATOM     12  C   UNL     1      15.267   2.470  -1.823  1.00  0.00     0.041 C 
ATOM     13  O   UNL     1      16.048   3.099  -1.061  1.00  0.00    -0.550 OA
ATOM     14  O   UNL     1      15.513   1.132  -2.104  1.00  0.00    -0.550 OA
ENDBRANCH  11  12
ENDBRANCH  10  11
ENDBRANCH   9  10
ENDBRANCH   8   9
ENDBRANCH   7   8
ENDBRANCH   6   7
ENDBRANCH   5   6
ENDBRANCH   4   5
ENDBRANCH   3   4
ENDBRANCH   2   3
ENDBRANCH   1   2
BRANCH   1  15
ATOM     15  C   UNL     1      14.453  13.033  -2.776  1.00  0.00     0.000 C 
BRANCH  15  16
ATOM     16  C   UNL     1      14.766  14.390  -2.119  1.00  0.00     0.000 C 
BRANCH  16  17
ATOM     17  C   UNL     1      13.649  14.887  -1.178  1.00  0.00     0.000 C 
BRANCH  17  18
ATOM     18  C   UNL     1      13.608  16.424  -1.073  1.00  0.00    -0.000 C 
BRANCH  18  19
ATOM     19  C   UNL     1      12.251  17.005  -1.499  1.00  0.00    -0.000 C 
BRANCH  19  20
ATOM     20  C   UNL     1      11.401  17.458  -0.304  1.00  0.00    -0.000 C 
BRANCH  20  21
ATOM     21  C   UNL     1      10.067  16.702  -0.263  1.00  0.00    -0.000 C 
BRANCH  21  22
ATOM     22  C   UNL     1       9.996  15.645  -1.374  1.00  0.00    -0.000 C 
BRANCH  22  23
ATOM     23  C   UNL     1       9.119  14.438  -0.997  1.00  0.00    -0.000 C 
BRANCH  23  24
ATOM     24  C   UNL     1       9.373  13.187  -1.866  1.00  0.00    -0.000 C 
BRANCH  24  25
ATOM     25  C   UNL     1      10.832  12.710  -1.787  1.00  0.00    -0.003 C 
ATOM     26  C   UNL     1      11.166  12.190  -0.392  1.00  0.00     0.004 C 
ENDBRANCH  24  25
ENDBRANCH  23  24
ENDBRANCH  22  23
ENDBRANCH  21  22
ENDBRANCH  20  21
ENDBRANCH  19  20
ENDBRANCH  18  19
ENDBRANCH  17  18
ENDBRANCH  16  17
ENDBRANCH  15  16
ENDBRANCH   1  15
TORSDOF 22
ENDMDL
MODEL 4
REMARK VINA RESULT:    -3.295      3.824     10.384
REMARK INTER + INTRA:          -9.865
REMARK INTER:                  -7.969
REMARK INTRA:                  -1.896
REMARK UNBOUND:                -2.332
REMARK SMILES CCCCCCCCCCCCCCCCCCCCCCCC(=O)[O-]
REMARK SMILES IDX 13 1 14 2 15 3 16 4 17 5 18 6 19 7 20 8 21 9 22 10 23 11
REMARK SMILES IDX 24 12 25 13 26 14 12 15 11 16 10 17 9 18 8 19 7 20 6 21 5 22
REMARK SMILES IDX 4 23 3 24 2 25 1 26
REMARK H PARENT
REMARK Flexibility Score: inf
ROOT
ATOM      1  C   UNL     1      14.989  10.878  -2.862  1.00  0.00     0.000 C 
ENDROOT
BRANCH   1   2
ATOM      2  C   UNL     1      14.171  12.155  -3.099  1.00  0.00     0.000 C 
BRANCH   2   3
ATOM      3  C   UNL     1      15.045  13.424  -3.124  1.00  0.00     0.000 C 
BRANCH   3   4
ATOM      4  C   UNL     1      14.749  14.438  -2.000  1.00  0.00     0.000 C 
BRANCH   4   5
ATOM      5  C   UNL     1      13.277  14.492  -1.548  1.00  0.00     0.000 C 
BRANCH   5   6
ATOM      6  C   UNL     1      12.940  15.652  -0.588  1.00  0.00     0.000 C 
BRANCH   6   7
ATOM      7  C   UNL     1      11.875  16.638  -1.110  1.00  0.00     0.000 C 
BRANCH   7   8
ATOM      8  C   UNL     1      10.633  15.984  -1.750  1.00  0.00     0.000 C 
BRANCH   8   9
ATOM      9  C   UNL     1       9.495  15.653  -0.767  1.00  0.00     0.000 C 
BRANCH   9  10
ATOM     10  C   UNL     1       8.516  14.603  -1.318  1.00  0.00     0.006 C 
BRANCH  10  11
ATOM     11  C   UNL     1       8.578  13.292  -0.523  1.00  0.00     0.053 C 
BRANCH  11  12
ATOM     12  C   UNL     1       9.679  12.405  -1.023  1.00  0.00     0.041 C 
ATOM     13  O   UNL     1       9.557  11.789  -2.116  1.00  0.00    -0.550 OA
ATOM     14  O   UNL     1      10.865  12.300  -0.306  1.00  0.00    -0.550 OA
ENDBRANCH  11  12
ENDBRANCH  10  11
ENDBRANCH   9  10
ENDBRANCH   8   9
ENDBRANCH   7   8
ENDBRANCH   6   7
ENDBRANCH   5   6
ENDBRANCH   4   5
ENDBRANCH   3   4
ENDBRANCH   2   3
ENDBRANCH   1   2
BRANCH   1  15
ATOM     15  C   UNL     1      14.103   9.732  -2.358  1.00  0.00     0.000 C 
BRANCH  15  16
ATOM     16  C   UNL     1      12.603  10.078  -2.394  1.00  0.00     0.000 C 
BRANCH  16  17
ATOM     17  C   UNL     1      11.730   9.108  -1.572  1.00  0.00     0.000 C 
BRANCH  17  18
ATOM     18  C   UNL     1      10.936   8.132  -2.462  1.00  0.00    -0.000 C 
BRANCH  18  19
ATOM     19  C   UNL     1      11.479   6.697  -2.387  1.00  0.00    -0.000 C 
BRANCH  19  20
ATOM     20  C   UNL     1      11.567   6.174  -0.946  1.00  0.00    -0.000 C 
BRANCH  20  21
ATOM     21  C   UNL     1      12.338   4.849  -0.890  1.00  0.00    -0.000 C 
BRANCH  21  22
ATOM     22  C   UNL     1      12.509   4.248  -2.293  1.00  0.00    -0.000 C 
BRANCH  22  23
ATOM     23  C   UNL     1      13.779   3.393  -2.428  1.00  0.00    -0.000 C 
BRANCH  23  24
ATOM     24  C   UNL     1      14.613   3.305  -1.131  1.00  0.00    -0.000 C 
BRANCH  24  25
ATOM     25  C   UNL     1      16.027   2.761  -1.384  1.00  0.00    -0.003 C 
ATOM     26  C   UNL     1      16.137   2.132  -2.770  1.00  0.00     0.004 C 
ENDBRANCH  24  25
ENDBRANCH  23  24
ENDBRANCH  22  23
ENDBRANCH  21  22
ENDBRANCH  20  21
ENDBRANCH  19  20
ENDBRANCH  18  19
ENDBRANCH  17  18
ENDBRANCH  16  17
ENDBRANCH  15  16
ENDBRANCH   1  15
TORSDOF 22
ENDMDL
MODEL 5
REMARK VINA RESULT:    -3.289      4.826     11.102
REMARK INTER + INTRA:          -9.852
REMARK INTER:                  -7.497
REMARK INTRA:                  -2.355
REMARK UNBOUND:                -2.332
REMARK SMILES CCCCCCCCCCCCCCCCCCCCCCCC(=O)[O-]
REMARK SMILES IDX 13 1 14 2 15 3 16 4 17 5 18 6 19 7 20 8 21 9 22 10 23 11
REMARK SMILES IDX 24 12 25 13 26 14 12 15 11 16 10 17 9 18 8 19 7 20 6 21 5 22
REMARK SMILES IDX 4 23 3 24 2 25 1 26
REMARK H PARENT
REMARK Flexibility Score: inf
ROOT
ATOM      1  C   UNL     1      12.702  13.618  -1.974  1.00  0.00     0.000 C 
ENDROOT
BRANCH   1   2
ATOM      2  C   UNL     1      12.301  14.660  -3.028  1.00  0.00     0.000 C 
BRANCH   2   3
ATOM      3  C   UNL     1      13.307  15.823  -3.125  1.00  0.00     0.000 C 
BRANCH   3   4
ATOM      4  C   UNL     1      14.486  15.745  -2.133  1.00  0.00     0.000 C 
BRANCH   4   5
ATOM      5  C   UNL     1      15.201  17.085  -1.871  1.00  0.00     0.000 C 
BRANCH   5   6
ATOM      6  C   UNL     1      14.877  17.734  -0.510  1.00  0.00     0.000 C 
BRANCH   6   7
ATOM      7  C   UNL     1      13.986  16.884   0.419  1.00  0.00     0.000 C 
BRANCH   7   8
ATOM      8  C   UNL     1      12.624  17.514   0.777  1.00  0.00     0.000 C 
BRANCH   8   9
ATOM      9  C   UNL     1      11.612  17.573  -0.381  1.00  0.00     0.000 C 
BRANCH   9  10
ATOM     10  C   UNL     1      10.206  17.107   0.030  1.00  0.00     0.006 C 
BRANCH  10  11
ATOM     11  C   UNL     1       9.471  16.416  -1.127  1.00  0.00     0.053 C 
BRANCH  11  12
ATOM     12  C   UNL     1       8.261  15.677  -0.638  1.00  0.00     0.041 C 
ATOM     13  O   UNL     1       7.323  16.295  -0.067  1.00  0.00    -0.550 OA
ATOM     14  O   UNL     1       8.145  14.310  -0.861  1.00  0.00    -0.550 OA
ENDBRANCH  11  12
ENDBRANCH  10  11
ENDBRANCH   9  10
ENDBRANCH   8   9
ENDBRANCH   7   8
ENDBRANCH   6   7
ENDBRANCH   5   6
ENDBRANCH   4   5
ENDBRANCH   3   4
ENDBRANCH   2   3
ENDBRANCH   1   2
BRANCH   1  15
ATOM     15  C   UNL     1      11.752  13.645  -0.771  1.00  0.00     0.000 C 
BRANCH  15  16
ATOM     16  C   UNL     1      11.124  12.270  -0.476  1.00  0.00     0.000 C 
BRANCH  16  17
ATOM     17  C   UNL     1      11.423  11.214  -1.561  1.00  0.00     0.000 C 
BRANCH  17  18
ATOM     18  C   UNL     1      10.211  10.308  -1.851  1.00  0.00    -0.000 C 
BRANCH  18  19
ATOM     19  C   UNL     1      10.622   8.952  -2.444  1.00  0.00    -0.000 C 
BRANCH  19  20
ATOM     20  C   UNL     1      11.070   7.950  -1.370  1.00  0.00    -0.000 C 
BRANCH  20  21
ATOM     21  C   UNL     1       9.996   6.879  -1.138  1.00  0.00    -0.000 C 
BRANCH  21  22
ATOM     22  C   UNL     1      10.610   5.472  -1.131  1.00  0.00    -0.000 C 
BRANCH  22  23
ATOM     23  C   UNL     1      12.009   5.425  -1.768  1.00  0.00    -0.000 C 
BRANCH  23  24
ATOM     24  C   UNL     1      13.006   4.516  -1.019  1.00  0.00    -0.000 C 
BRANCH  24  25
ATOM     25  C   UNL     1      13.814   3.625  -1.975  1.00  0.00    -0.003 C 
ATOM     26  C   UNL     1      15.061   3.071  -1.291  1.00  0.00     0.004 C 
ENDBRANCH  24  25
ENDBRANCH  23  24
ENDBRANCH  22  23
ENDBRANCH  21  22
ENDBRANCH  20  21
ENDBRANCH  19  20
ENDBRANCH  18  19
ENDBRANCH  17  18
ENDBRANCH  16  17
ENDBRANCH  15  16
ENDBRANCH   1  15
TORSDOF 22
ENDMDL
MODEL 6
REMARK VINA RESULT:    -3.222      1.357      3.746
REMARK INTER + INTRA:          -9.698
REMARK INTER:                  -7.403
REMARK INTRA:                  -2.294
REMARK UNBOUND:                -2.332
REMARK SMILES CCCCCCCCCCCCCCCCCCCCCCCC(=O)[O-]
REMARK SMILES IDX 13 1 14 2 15 3 16 4 17 5 18 6 19 7 20 8 21 9 22 10 23 11
REMARK SMILES IDX 24 12 25 13 26 14 12 15 11 16 10 17 9 18 8 19 7 20 6 21 5 22
REMARK SMILES IDX 4 23 3 24 2 25 1 26
REMARK H PARENT
REMARK Flexibility Score: inf
ROOT
ATOM      1  C   UNL     1      10.852  12.456  -0.498  1.00  0.00     0.000 C 
ENDROOT
BRANCH   1   2
ATOM      2  C   UNL     1       9.920  12.388  -1.716  1.00  0.00     0.000 C 
BRANCH   2   3
ATOM      3  C   UNL     1       9.284  10.997  -1.899  1.00  0.00     0.000 C 
BRANCH   3   4
ATOM      4  C   UNL     1      10.155   9.982  -2.668  1.00  0.00     0.000 C 
BRANCH   4   5
ATOM      5  C   UNL     1      11.084   9.126  -1.785  1.00  0.00     0.000 C 
BRANCH   5   6
ATOM      6  C   UNL     1      11.025   7.611  -2.067  1.00  0.00     0.000 C 
BRANCH   6   7
ATOM      7  C   UNL     1      10.629   6.740  -0.857  1.00  0.00     0.000 C 
BRANCH   7   8
ATOM      8  C   UNL     1      10.885   5.228  -1.026  1.00  0.00     0.000 C 
BRANCH   8   9
ATOM      9  C   UNL     1      12.276   4.750  -0.572  1.00  0.00     0.000 C 
BRANCH   9  10
ATOM     10  C   UNL     1      13.320   4.791  -1.700  1.00  0.00     0.006 C 
BRANCH  10  11
ATOM     11  C   UNL     1      13.543   3.407  -2.324  1.00  0.00     0.053 C 
BRANCH  11  12
ATOM     12  C   UNL     1      14.795   2.770  -1.798  1.00  0.00     0.041 C 
ATOM     13  O   UNL     1      15.520   3.378  -0.966  1.00  0.00    -0.550 OA
ATOM     14  O   UNL     1      15.134   1.480  -2.188  1.00  0.00    -0.550 OA
ENDBRANCH  11  12
ENDBRANCH  10  11
ENDBRANCH   9  10
ENDBRANCH   8   9
ENDBRANCH   7   8
ENDBRANCH   6   7
ENDBRANCH   5   6
ENDBRANCH   4   5
ENDBRANCH   3   4
ENDBRANCH   2   3
ENDBRANCH   1   2
BRANCH   1  15
ATOM     15  C   UNL     1      11.984  13.468  -0.716  1.00  0.00     0.000 C 
BRANCH  15  16
ATOM     16  C   UNL     1      11.935  14.125  -2.108  1.00  0.00     0.000 C 
BRANCH  16  17
ATOM     17  C   UNL     1      12.712  15.456  -2.185  1.00  0.00     0.000 C 
BRANCH  17  18
ATOM     18  C   UNL     1      14.011  15.428  -1.357  1.00  0.00    -0.000 C 
BRANCH  18  19
ATOM     19  C   UNL     1      14.132  16.636  -0.415  1.00  0.00    -0.000 C 
BRANCH  19  20
ATOM     20  C   UNL     1      12.972  16.721   0.587  1.00  0.00    -0.000 C 
BRANCH  20  21
ATOM     21  C   UNL     1      12.193  18.031   0.413  1.00  0.00    -0.000 C 
BRANCH  21  22
ATOM     22  C   UNL     1      10.693  17.822   0.670  1.00  0.00    -0.000 C 
BRANCH  22  23
ATOM     23  C   UNL     1       9.918  17.429  -0.599  1.00  0.00    -0.000 C 
BRANCH  23  24
ATOM     24  C   UNL     1       9.271  16.029  -0.527  1.00  0.00    -0.000 C 
BRANCH  24  25
ATOM     25  C   UNL     1       8.345  15.753  -1.721  1.00  0.00    -0.003 C 
ATOM     26  C   UNL     1       7.025  16.505  -1.580  1.00  0.00     0.004 C 
ENDBRANCH  24  25
ENDBRANCH  23  24
ENDBRANCH  22  23
ENDBRANCH  21  22
ENDBRANCH  20  21
ENDBRANCH  19  20
ENDBRANCH  18  19
ENDBRANCH  17  18
ENDBRANCH  16  17
ENDBRANCH  15  16
ENDBRANCH   1  15
TORSDOF 22
ENDMDL
MODEL 7
REMARK VINA RESULT:    -3.156      2.395      4.698
REMARK INTER + INTRA:          -9.547
REMARK INTER:                  -7.178
REMARK INTRA:                  -2.369
REMARK UNBOUND:                -2.332
REMARK SMILES CCCCCCCCCCCCCCCCCCCCCCCC(=O)[O-]
REMARK SMILES IDX 13 1 14 2 15 3 16 4 17 5 18 6 19 7 20 8 21 9 22 10 23 11
REMARK SMILES IDX 24 12 25 13 26 14 12 15 11 16 10 17 9 18 8 19 7 20 6 21 5 22
REMARK SMILES IDX 4 23 3 24 2 25 1 26
REMARK H PARENT
REMARK Flexibility Score: inf
ROOT
ATOM      1  C   UNL     1      14.310  13.022  -2.843  1.00  0.00     0.000 C 
ENDROOT
BRANCH   1   2
ATOM      2  C   UNL     1      15.141  11.735  -2.758  1.00  0.00     0.000 C 
BRANCH   2   3
ATOM      3  C   UNL     1      14.290  10.465  -2.953  1.00  0.00     0.000 C 
BRANCH   3   4
ATOM      4  C   UNL     1      12.767  10.683  -2.850  1.00  0.00     0.000 C 
BRANCH   4   5
ATOM      5  C   UNL     1      12.115  10.103  -1.580  1.00  0.00     0.000 C 
BRANCH   5   6
ATOM      6  C   UNL     1      10.610   9.790  -1.713  1.00  0.00     0.000 C 
BRANCH   6   7
ATOM      7  C   UNL     1      10.284   8.417  -2.336  1.00  0.00     0.000 C 
BRANCH   7   8
ATOM      8  C   UNL     1       9.488   7.459  -1.427  1.00  0.00     0.000 C 
BRANCH   8   9
ATOM      9  C   UNL     1       8.989   6.175  -2.115  1.00  0.00     0.000 C 
BRANCH   9  10
ATOM     10  C   UNL     1      10.056   5.069  -2.163  1.00  0.00     0.006 C 
BRANCH  10  11
ATOM     11  C   UNL     1      10.948   5.080  -0.914  1.00  0.00     0.053 C 
BRANCH  11  12
ATOM     12  C   UNL     1      12.401   5.128  -1.284  1.00  0.00     0.041 C 
ATOM     13  O   UNL     1      13.181   4.206  -0.926  1.00  0.00    -0.550 OA
ATOM     14  O   UNL     1      12.882   6.167  -2.071  1.00  0.00    -0.550 OA
ENDBRANCH  11  12
ENDBRANCH  10  11
ENDBRANCH   9  10
ENDBRANCH   8   9
ENDBRANCH   7   8
ENDBRANCH   6   7
ENDBRANCH   5   6
ENDBRANCH   4   5
ENDBRANCH   3   4
ENDBRANCH   2   3
ENDBRANCH   1   2
BRANCH   1  15
ATOM     15  C   UNL     1      15.125  14.244  -2.402  1.00  0.00     0.000 C 
BRANCH  15  16
ATOM     16  C   UNL     1      14.371  15.131  -1.394  1.00  0.00     0.000 C 
BRANCH  16  17
ATOM     17  C   UNL     1      14.732  16.627  -1.502  1.00  0.00     0.000 C 
BRANCH  17  18
ATOM     18  C   UNL     1      14.229  17.443  -0.296  1.00  0.00    -0.000 C 
BRANCH  18  19
ATOM     19  C   UNL     1      13.192  16.675   0.539  1.00  0.00    -0.000 C 
BRANCH  19  20
ATOM     20  C   UNL     1      11.842  17.401   0.616  1.00  0.00    -0.000 C 
BRANCH  20  21
ATOM     21  C   UNL     1      11.461  17.996  -0.746  1.00  0.00    -0.000 C 
BRANCH  21  22
ATOM     22  C   UNL     1      10.687  16.978  -1.597  1.00  0.00    -0.000 C 
BRANCH  22  23
ATOM     23  C   UNL     1       9.666  16.168  -0.781  1.00  0.00    -0.000 C 
BRANCH  23  24
ATOM     24  C   UNL     1       9.183  14.882  -1.486  1.00  0.00    -0.000 C 
BRANCH  24  25
ATOM     25  C   UNL     1       9.666  13.610  -0.771  1.00  0.00    -0.003 C 
ATOM     26  C   UNL     1      11.185  13.481  -0.842  1.00  0.00     0.004 C 
ENDBRANCH  24  25
ENDBRANCH  23  24
ENDBRANCH  22  23
ENDBRANCH  21  22
ENDBRANCH  20  21
ENDBRANCH  19  20
ENDBRANCH  18  19
ENDBRANCH  17  18
ENDBRANCH  16  17
ENDBRANCH  15  16
ENDBRANCH   1  15
TORSDOF 22
ENDMDL
MODEL 8
REMARK VINA RESULT:    -3.132      4.269     10.681
REMARK INTER + INTRA:          -9.492
REMARK INTER:                  -7.188
REMARK INTRA:                  -2.305
REMARK UNBOUND:                -2.332
REMARK SMILES CCCCCCCCCCCCCCCCCCCCCCCC(=O)[O-]
REMARK SMILES IDX 13 1 14 2 15 3 16 4 17 5 18 6 19 7 20 8 21 9 22 10 23 11
REMARK SMILES IDX 24 12 25 13 26 14 12 15 11 16 10 17 9 18 8 19 7 20 6 21 5 22
REMARK SMILES IDX 4 23 3 24 2 25 1 26
REMARK H PARENT
REMARK Flexibility Score: inf
ROOT
ATOM      1  C   UNL     1      12.432  10.245  -1.636  1.00  0.00     0.000 C 
ENDROOT
BRANCH   1   2
ATOM      2  C   UNL     1      12.512  11.584  -2.382  1.00  0.00     0.000 C 
BRANCH   2   3
ATOM      3  C   UNL     1      11.855  12.739  -1.601  1.00  0.00     0.000 C 
BRANCH   3   4
ATOM      4  C   UNL     1      10.828  12.300  -0.537  1.00  0.00     0.000 C 
BRANCH   4   5
ATOM      5  C   UNL     1       9.365  12.660  -0.861  1.00  0.00     0.000 C 
BRANCH   5   6
ATOM      6  C   UNL     1       9.180  14.002  -1.599  1.00  0.00     0.000 C 
BRANCH   6   7
ATOM      7  C   UNL     1       8.710  15.172  -0.712  1.00  0.00     0.000 C 
BRANCH   7   8
ATOM      8  C   UNL     1       9.495  16.488  -0.892  1.00  0.00     0.000 C 
BRANCH   8   9
ATOM      9  C   UNL     1      11.022  16.323  -0.999  1.00  0.00     0.000 C 
BRANCH   9  10
ATOM     10  C   UNL     1      11.584  16.812  -2.344  1.00  0.00     0.006 C 
BRANCH  10  11
ATOM     11  C   UNL     1      12.885  16.090  -2.717  1.00  0.00     0.053 C 
BRANCH  11  12
ATOM     12  C   UNL     1      13.920  16.245  -1.641  1.00  0.00     0.041 C 
ATOM     13  O   UNL     1      14.398  17.379  -1.374  1.00  0.00    -0.550 OA
ATOM     14  O   UNL     1      14.316  15.141  -0.897  1.00  0.00    -0.550 OA
ENDBRANCH  11  12
ENDBRANCH  10  11
ENDBRANCH   9  10
ENDBRANCH   8   9
ENDBRANCH   7   8
ENDBRANCH   6   7
ENDBRANCH   5   6
ENDBRANCH   4   5
ENDBRANCH   3   4
ENDBRANCH   2   3
ENDBRANCH   1   2
BRANCH   1  15
ATOM     15  C   UNL     1      11.963   9.116  -2.562  1.00  0.00     0.000 C 
BRANCH  15  16
ATOM     16  C   UNL     1      10.431   8.973  -2.597  1.00  0.00     0.000 C 
BRANCH  16  17
ATOM     17  C   UNL     1       9.868   8.111  -1.448  1.00  0.00     0.000 C 
BRANCH  17  18
ATOM     18  C   UNL     1       9.179   6.830  -1.957  1.00  0.00    -0.000 C 
BRANCH  18  19
ATOM     19  C   UNL     1      10.049   5.578  -1.759  1.00  0.00    -0.000 C 
BRANCH  19  20
ATOM     20  C   UNL     1      11.245   5.832  -0.831  1.00  0.00    -0.000 C 
BRANCH  20  21
ATOM     21  C   UNL     1      12.570   5.604  -1.570  1.00  0.00    -0.000 C 
BRANCH  21  22
ATOM     22  C   UNL     1      13.169   4.234  -1.223  1.00  0.00    -0.000 C 
BRANCH  22  23
ATOM     23  C   UNL     1      13.390   3.346  -2.459  1.00  0.00    -0.000 C 
BRANCH  23  24
ATOM     24  C   UNL     1      14.875   3.030  -2.742  1.00  0.00    -0.000 C 
BRANCH  24  25
ATOM     25  C   UNL     1      15.391   1.854  -1.899  1.00  0.00    -0.003 C 
ATOM     26  C   UNL     1      16.887   1.639  -2.108  1.00  0.00     0.004 C 
ENDBRANCH  24  25
ENDBRANCH  23  24
ENDBRANCH  22  23
ENDBRANCH  21  22
ENDBRANCH  20  21
ENDBRANCH  19  20
ENDBRANCH  18  19
ENDBRANCH  17  18
ENDBRANCH  16  17
ENDBRANCH  15  16
ENDBRANCH   1  15
TORSDOF 22
ENDMDL
MODEL 9
REMARK VINA RESULT:    -3.128      5.069     12.329
REMARK INTER + INTRA:          -9.483
REMARK INTER:                  -8.372
REMARK INTRA:                  -1.111
REMARK UNBOUND:                -2.332
REMARK SMILES CCCCCCCCCCCCCCCCCCCCCCCC(=O)[O-]
REMARK SMILES IDX 13 1 14 2 15 3 16 4 17 5 18 6 19 7 20 8 21 9 22 10 23 11
REMARK SMILES IDX 24 12 25 13 26 14 12 15 11 16 10 17 9 18 8 19 7 20 6 21 5 22
REMARK SMILES IDX 4 23 3 24 2 25 1 26
REMARK H PARENT
REMARK Flexibility Score: inf
ROOT
ATOM      1  C   UNL     1      10.782   5.303  -1.033  1.00  0.00     0.000 C 
ENDROOT
BRANCH   1   2
ATOM      2  C   UNL     1      10.383   6.784  -0.982  1.00  0.00     0.000 C 
BRANCH   2   3
ATOM      3  C   UNL     1      11.391   7.696  -1.707  1.00  0.00     0.000 C 
BRANCH   3   4
ATOM      4  C   UNL     1      10.765   8.691  -2.705  1.00  0.00     0.000 C 
BRANCH   4   5
ATOM      5  C   UNL     1      11.004  10.177  -2.374  1.00  0.00     0.000 C 
BRANCH   5   6
ATOM      6  C   UNL     1       9.852  10.860  -1.609  1.00  0.00     0.000 C 
BRANCH   6   7
ATOM      7  C   UNL     1      10.052  12.366  -1.343  1.00  0.00     0.000 C 
BRANCH   7   8
ATOM      8  C   UNL     1      11.424  12.930  -1.768  1.00  0.00     0.000 C 
BRANCH   8   9
ATOM      9  C   UNL     1      12.130  13.791  -0.706  1.00  0.00     0.000 C 
BRANCH   9  10
ATOM     10  C   UNL     1      13.040  14.869  -1.318  1.00  0.00     0.006 C 
BRANCH  10  11
ATOM     11  C   UNL     1      13.287  16.029  -0.344  1.00  0.00     0.053 C 
BRANCH  11  12
ATOM     12  C   UNL     1      12.152  17.010  -0.368  1.00  0.00     0.041 C 
ATOM     13  O   UNL     1      11.652  17.381  -1.463  1.00  0.00    -0.550 OA
ATOM     14  O   UNL     1      11.610  17.474   0.825  1.00  0.00    -0.550 OA
ENDBRANCH  11  12
ENDBRANCH  10  11
ENDBRANCH   9  10
ENDBRANCH   8   9
ENDBRANCH   7   8
ENDBRANCH   6   7
ENDBRANCH   5   6
ENDBRANCH   4   5
ENDBRANCH   3   4
ENDBRANCH   2   3
ENDBRANCH   1   2
BRANCH   1  15
ATOM     15  C   UNL     1      10.753   4.766  -2.469  1.00  0.00     0.000 C 
BRANCH  15  16
ATOM     16  C   UNL     1      11.833   3.699  -2.728  1.00  0.00     0.000 C 
BRANCH  16  17
ATOM     17  C   UNL     1      13.229   4.099  -2.206  1.00  0.00     0.000 C 
BRANCH  17  18
ATOM     18  C   UNL     1      14.329   3.119  -2.655  1.00  0.00    -0.000 C 
BRANCH  18  19
ATOM     19  C   UNL     1      15.338   2.817  -1.536  1.00  0.00    -0.000 C 
BRANCH  19  20
ATOM     20  C   UNL     1      15.764   1.342  -1.509  1.00  0.00    -0.000 C 
BRANCH  20  21
ATOM     21  C   UNL     1      16.452   0.946  -2.822  1.00  0.00    -0.000 C 
BRANCH  21  22
ATOM     22  C   UNL     1      17.746   1.746  -3.032  1.00  0.00    -0.000 C 
BRANCH  22  23
ATOM     23  C   UNL     1      18.995   1.009  -2.521  1.00  0.00    -0.000 C 
BRANCH  23  24
ATOM     24  C   UNL     1      20.237   1.914  -2.372  1.00  0.00    -0.000 C 
BRANCH  24  25
ATOM     25  C   UNL     1      21.461   1.143  -1.855  1.00  0.00    -0.003 C 
ATOM     26  C   UNL     1      22.184   0.429  -2.994  1.00  0.00     0.004 C 
ENDBRANCH  24  25
ENDBRANCH  23  24
ENDBRANCH  22  23
ENDBRANCH  21  22
ENDBRANCH  20  21
ENDBRANCH  19  20
ENDBRANCH  18  19
ENDBRANCH  17  18
ENDBRANCH  16  17
ENDBRANCH  15  16
ENDBRANCH   1  15
TORSDOF 22
ENDMDL
