MODEL 1
REMARK VINA RESULT:    -6.326      0.000      0.000
REMARK INTER + INTRA:          -7.006
REMARK INTER:                  -6.881
REMARK INTRA:                  -0.125
REMARK UNBOUND:                -0.125
REMARK SMILES Cc1ccc(C(C)C)cc1O
REMARK SMILES IDX 1 1 2 2 10 3 9 4 5 5 4 6 3 7 11 8 6 10 7 11 8 12
REMARK H PARENT 11 9
REMARK Flexibility Score: inf
ROOT
ATOM      1  C   UNL     1      25.386  37.802  26.970  1.00  0.00     0.048 C 
ATOM      2  C   UNL     1      26.883  37.676  26.968  1.00  0.00    -0.009 A 
ATOM      3  C   UNL     1      27.686  38.779  26.629  1.00  0.00     0.118 A 
ATOM      4  C   UNL     1      29.082  38.655  26.628  1.00  0.00     0.050 A 
ATOM      5  C   UNL     1      29.694  37.435  26.964  1.00  0.00    -0.042 A 
ATOM      6  C   UNL     1      28.883  36.337  27.301  1.00  0.00     0.004 A 
ATOM      7  C   UNL     1      27.491  36.458  27.302  1.00  0.00     0.007 A 
ENDROOT
BRANCH   3   8
ATOM      8  O   UNL     1      27.093  39.997  26.294  1.00  0.00    -0.508 OA
ATOM      9  H   UNL     1      27.152  40.376  25.356  1.00  0.00     0.293 HD
ENDBRANCH   3   8
BRANCH   5  10
ATOM     10  C   UNL     1      31.207  37.318  26.958  1.00  0.00     0.013 C 
ATOM     11  C   UNL     1      31.868  38.696  27.095  1.00  0.00     0.012 C 
ATOM     12  C   UNL     1      31.693  36.363  28.054  1.00  0.00     0.012 C 
ENDBRANCH   5  10
TORSDOF 2
ENDMDL
MODEL 2
REMARK VINA RESULT:    -6.241      1.496      1.821
REMARK INTER + INTRA:          -6.914
REMARK INTER:                  -6.788
REMARK INTRA:                  -0.125
REMARK UNBOUND:                -0.125
REMARK SMILES Cc1ccc(C(C)C)cc1O
REMARK SMILES IDX 1 1 2 2 10 3 9 4 5 5 4 6 3 7 11 8 6 10 7 11 8 12
REMARK H PARENT 11 9
REMARK Flexibility Score: inf
ROOT
ATOM      1  C   UNL     1      25.334  37.656  26.869  1.00  0.00     0.048 C 
ATOM      2  C   UNL     1      26.834  37.733  26.903  1.00  0.00    -0.009 A 
ATOM      3  C   UNL     1      27.605  36.898  26.076  1.00  0.00     0.118 A 
ATOM      4  C   UNL     1      29.004  36.974  26.112  1.00  0.00     0.050 A 
ATOM      5  C   UNL     1      29.651  37.880  26.971  1.00  0.00    -0.042 A 
ATOM      6  C   UNL     1      28.872  38.712  27.794  1.00  0.00     0.004 A 
ATOM      7  C   UNL     1      27.477  38.638  27.760  1.00  0.00     0.007 A 
ENDROOT
BRANCH   3   8
ATOM      8  O   UNL     1      26.977  35.994  25.219  1.00  0.00    -0.508 OA
ATOM      9  H   UNL     1      26.153  36.250  24.688  1.00  0.00     0.293 HD
ENDBRANCH   3   8
BRANCH   5  10
ATOM     10  C   UNL     1      31.167  37.949  26.998  1.00  0.00     0.013 C 
ATOM     11  C   UNL     1      31.649  39.334  27.451  1.00  0.00     0.012 C 
ATOM     12  C   UNL     1      31.756  36.844  27.882  1.00  0.00     0.012 C 
ENDBRANCH   5  10
TORSDOF 2
ENDMDL
MODEL 3
REMARK VINA RESULT:    -6.192      1.609      2.138
REMARK INTER + INTRA:          -6.860
REMARK INTER:                  -6.738
REMARK INTRA:                  -0.122
REMARK UNBOUND:                -0.125
REMARK SMILES Cc1ccc(C(C)C)cc1O
REMARK SMILES IDX 1 1 2 2 10 3 9 4 5 5 4 6 3 7 11 8 6 10 7 11 8 12
REMARK H PARENT 11 9
REMARK Flexibility Score: inf
ROOT
ATOM      1  C   UNL     1      25.352  37.665  27.017  1.00  0.00     0.048 C 
ATOM      2  C   UNL     1      26.843  37.732  26.844  1.00  0.00    -0.009 A 
ATOM      3  C   UNL     1      27.695  37.343  27.893  1.00  0.00     0.118 A 
ATOM      4  C   UNL     1      29.085  37.408  27.726  1.00  0.00     0.050 A 
ATOM      5  C   UNL     1      29.643  37.861  26.517  1.00  0.00    -0.042 A 
ATOM      6  C   UNL     1      28.782  38.248  25.474  1.00  0.00     0.004 A 
ATOM      7  C   UNL     1      27.396  38.184  25.638  1.00  0.00     0.007 A 
ENDROOT
BRANCH   3   8
ATOM      8  O   UNL     1      27.157  36.891  29.098  1.00  0.00    -0.508 OA
ATOM      9  H   UNL     1      26.624  36.031  29.152  1.00  0.00     0.293 HD
ENDBRANCH   3   8
BRANCH   5  10
ATOM     10  C   UNL     1      31.150  37.925  26.354  1.00  0.00     0.013 C 
ATOM     11  C   UNL     1      31.863  37.246  27.531  1.00  0.00     0.012 C 
ATOM     12  C   UNL     1      31.588  37.315  25.018  1.00  0.00     0.012 C 
ENDBRANCH   5  10
TORSDOF 2
ENDMDL
MODEL 4
REMARK VINA RESULT:    -6.179      2.437      3.814
REMARK INTER + INTRA:          -6.846
REMARK INTER:                  -6.719
REMARK INTRA:                  -0.126
REMARK UNBOUND:                -0.125
REMARK SMILES Cc1ccc(C(C)C)cc1O
REMARK SMILES IDX 1 1 2 2 10 3 9 4 5 5 4 6 3 7 11 8 6 10 7 11 8 12
REMARK H PARENT 11 9
REMARK Flexibility Score: inf
ROOT
ATOM      1  C   UNL     1      30.182  39.115  30.886  1.00  0.00     0.048 C 
ATOM      2  C   UNL     1      29.831  38.944  29.435  1.00  0.00    -0.009 A 
ATOM      3  C   UNL     1      28.484  38.878  29.035  1.00  0.00     0.118 A 
ATOM      4  C   UNL     1      28.162  38.719  27.681  1.00  0.00     0.050 A 
ATOM      5  C   UNL     1      29.174  38.623  26.709  1.00  0.00    -0.042 A 
ATOM      6  C   UNL     1      30.518  38.690  27.118  1.00  0.00     0.004 A 
ATOM      7  C   UNL     1      30.842  38.849  28.468  1.00  0.00     0.007 A 
ENDROOT
BRANCH   3   8
ATOM      8  O   UNL     1      27.469  38.971  29.988  1.00  0.00    -0.508 OA
ATOM      9  H   UNL     1      27.143  38.159  30.498  1.00  0.00     0.293 HD
ENDBRANCH   3   8
BRANCH   5  10
ATOM     10  C   UNL     1      28.808  38.450  25.247  1.00  0.00     0.013 C 
ATOM     11  C   UNL     1      27.905  39.593  24.764  1.00  0.00     0.012 C 
ATOM     12  C   UNL     1      30.062  38.332  24.373  1.00  0.00     0.012 C 
ENDBRANCH   5  10
TORSDOF 2
ENDMDL
MODEL 5
REMARK VINA RESULT:    -5.977      2.019      3.567
REMARK INTER + INTRA:          -6.626
REMARK INTER:                  -6.500
REMARK INTRA:                  -0.127
REMARK UNBOUND:                -0.125
REMARK SMILES Cc1ccc(C(C)C)cc1O
REMARK SMILES IDX 1 1 2 2 10 3 9 4 5 5 4 6 3 7 11 8 6 10 7 11 8 12
REMARK H PARENT 11 9
REMARK Flexibility Score: inf
ROOT
ATOM      1  C   UNL     1      30.059  40.372  23.626  1.00  0.00     0.048 C 
ATOM      2  C   UNL     1      29.729  39.188  24.490  1.00  0.00    -0.009 A 
ATOM      3  C   UNL     1      28.389  38.840  24.733  1.00  0.00     0.118 A 
ATOM      4  C   UNL     1      28.087  37.734  25.539  1.00  0.00     0.050 A 
ATOM      5  C   UNL     1      29.113  36.964  26.113  1.00  0.00    -0.042 A 
ATOM      6  C   UNL     1      30.451  37.319  25.865  1.00  0.00     0.004 A 
ATOM      7  C   UNL     1      30.755  38.420  25.061  1.00  0.00     0.007 A 
ENDROOT
BRANCH   3   8
ATOM      8  O   UNL     1      27.360  39.595  24.170  1.00  0.00    -0.508 OA
ATOM      9  H   UNL     1      27.372  39.865  23.193  1.00  0.00     0.293 HD
ENDBRANCH   3   8
BRANCH   5  10
ATOM     10  C   UNL     1      28.769  35.770  26.985  1.00  0.00     0.013 C 
ATOM     11  C   UNL     1      27.779  34.836  26.277  1.00  0.00     0.012 C 
ATOM     12  C   UNL     1      30.032  35.013  27.411  1.00  0.00     0.012 C 
ENDBRANCH   5  10
TORSDOF 2
ENDMDL
MODEL 6
REMARK VINA RESULT:    -5.950      2.284      3.410
REMARK INTER + INTRA:          -6.597
REMARK INTER:                  -6.471
REMARK INTRA:                  -0.125
REMARK UNBOUND:                -0.125
REMARK SMILES Cc1ccc(C(C)C)cc1O
REMARK SMILES IDX 1 1 2 2 10 3 9 4 5 5 4 6 3 7 11 8 6 10 7 11 8 12
REMARK H PARENT 11 9
REMARK Flexibility Score: inf
ROOT
ATOM      1  C   UNL     1      29.355  34.146  26.305  1.00  0.00     0.048 C 
ATOM      2  C   UNL     1      29.513  35.487  26.964  1.00  0.00    -0.009 A 
ATOM      3  C   UNL     1      28.380  36.225  27.349  1.00  0.00     0.118 A 
ATOM      4  C   UNL     1      28.534  37.476  27.962  1.00  0.00     0.050 A 
ATOM      5  C   UNL     1      29.814  38.006  28.199  1.00  0.00    -0.042 A 
ATOM      6  C   UNL     1      30.942  37.261  27.810  1.00  0.00     0.004 A 
ATOM      7  C   UNL     1      30.791  36.015  27.198  1.00  0.00     0.007 A 
ENDROOT
BRANCH   3   8
ATOM      8  O   UNL     1      27.103  35.712  27.121  1.00  0.00    -0.508 OA
ATOM      9  H   UNL     1      26.870  34.751  27.344  1.00  0.00     0.293 HD
ENDBRANCH   3   8
BRANCH   5  10
ATOM     10  C   UNL     1      29.962  39.363  28.864  1.00  0.00     0.013 C 
ATOM     11  C   UNL     1      30.063  39.223  30.388  1.00  0.00     0.012 C 
ATOM     12  C   UNL     1      31.167  40.126  28.300  1.00  0.00     0.012 C 
ENDBRANCH   5  10
TORSDOF 2
ENDMDL
MODEL 7
REMARK VINA RESULT:    -5.859      1.939      3.630
REMARK INTER + INTRA:          -6.498
REMARK INTER:                  -6.372
REMARK INTRA:                  -0.126
REMARK UNBOUND:                -0.125
REMARK SMILES Cc1ccc(C(C)C)cc1O
REMARK SMILES IDX 1 1 2 2 10 3 9 4 5 5 4 6 3 7 11 8 6 10 7 11 8 12
REMARK H PARENT 11 9
REMARK Flexibility Score: inf
ROOT
ATOM      1  C   UNL     1      30.447  39.758  28.963  1.00  0.00     0.048 C 
ATOM      2  C   UNL     1      29.912  38.485  28.369  1.00  0.00    -0.009 A 
ATOM      3  C   UNL     1      28.539  38.193  28.439  1.00  0.00     0.118 A 
ATOM      4  C   UNL     1      28.046  37.004  27.884  1.00  0.00     0.050 A 
ATOM      5  C   UNL     1      28.913  36.094  27.254  1.00  0.00    -0.042 A 
ATOM      6  C   UNL     1      30.285  36.395  27.189  1.00  0.00     0.004 A 
ATOM      7  C   UNL     1      30.779  37.579  27.741  1.00  0.00     0.007 A 
ENDROOT
BRANCH   3   8
ATOM      8  O   UNL     1      27.667  39.087  29.062  1.00  0.00    -0.508 OA
ATOM      9  H   UNL     1      27.187  38.849  29.922  1.00  0.00     0.293 HD
ENDBRANCH   3   8
BRANCH   5  10
ATOM     10  C   UNL     1      28.363  34.811  26.658  1.00  0.00     0.013 C 
ATOM     11  C   UNL     1      27.379  35.109  25.518  1.00  0.00     0.012 C 
ATOM     12  C   UNL     1      29.494  33.892  26.182  1.00  0.00     0.012 C 
ENDBRANCH   5  10
TORSDOF 2
ENDMDL
MODEL 8
REMARK VINA RESULT:    -5.792      2.437      4.239
REMARK INTER + INTRA:          -6.425
REMARK INTER:                  -6.299
REMARK INTRA:                  -0.125
REMARK UNBOUND:                -0.125
REMARK SMILES Cc1ccc(C(C)C)cc1O
REMARK SMILES IDX 1 1 2 2 10 3 9 4 5 5 4 6 3 7 11 8 6 10 7 11 8 12
REMARK H PARENT 11 9
REMARK Flexibility Score: inf
ROOT
ATOM      1  C   UNL     1      30.151  39.131  30.836  1.00  0.00     0.048 C 
ATOM      2  C   UNL     1      29.244  38.778  29.691  1.00  0.00    -0.009 A 
ATOM      3  C   UNL     1      29.584  39.148  28.378  1.00  0.00     0.118 A 
ATOM      4  C   UNL     1      28.734  38.817  27.314  1.00  0.00     0.050 A 
ATOM      5  C   UNL     1      27.537  38.115  27.544  1.00  0.00    -0.042 A 
ATOM      6  C   UNL     1      27.205  37.750  28.861  1.00  0.00     0.004 A 
ATOM      7  C   UNL     1      28.051  38.079  29.923  1.00  0.00     0.007 A 
ENDROOT
BRANCH   3   8
ATOM      8  O   UNL     1      30.768  39.844  28.134  1.00  0.00    -0.508 OA
ATOM      9  H   UNL     1      31.612  39.660  28.665  1.00  0.00     0.293 HD
ENDBRANCH   3   8
BRANCH   5  10
ATOM     10  C   UNL     1      26.628  37.765  26.381  1.00  0.00     0.013 C 
ATOM     11  C   UNL     1      27.076  36.464  25.701  1.00  0.00     0.012 C 
ATOM     12  C   UNL     1      25.164  37.676  26.829  1.00  0.00     0.012 C 
ENDBRANCH   5  10
TORSDOF 2
ENDMDL
MODEL 9
REMARK VINA RESULT:    -5.727      2.255      3.856
REMARK INTER + INTRA:          -6.354
REMARK INTER:                  -6.228
REMARK INTRA:                  -0.126
REMARK UNBOUND:                -0.125
REMARK SMILES Cc1ccc(C(C)C)cc1O
REMARK SMILES IDX 1 1 2 2 10 3 9 4 5 5 4 6 3 7 11 8 6 10 7 11 8 12
REMARK H PARENT 11 9
REMARK Flexibility Score: inf
ROOT
ATOM      1  C   UNL     1      31.667  37.073  24.440  1.00  0.00     0.048 C 
ATOM      2  C   UNL     1      31.023  37.597  25.692  1.00  0.00    -0.009 A 
ATOM      3  C   UNL     1      29.696  38.061  25.665  1.00  0.00     0.118 A 
ATOM      4  C   UNL     1      29.101  38.549  26.837  1.00  0.00     0.050 A 
ATOM      5  C   UNL     1      29.817  38.582  28.046  1.00  0.00    -0.042 A 
ATOM      6  C   UNL     1      31.144  38.116  28.063  1.00  0.00     0.004 A 
ATOM      7  C   UNL     1      31.740  37.629  26.897  1.00  0.00     0.007 A 
ENDROOT
BRANCH   3   8
ATOM      8  O   UNL     1      28.972  38.035  24.473  1.00  0.00    -0.508 OA
ATOM      9  H   UNL     1      28.869  38.862  23.896  1.00  0.00     0.293 HD
ENDBRANCH   3   8
BRANCH   5  10
ATOM     10  C   UNL     1      29.157  39.114  29.305  1.00  0.00     0.013 C 
ATOM     11  C   UNL     1      27.856  38.360  29.607  1.00  0.00     0.012 C 
ATOM     12  C   UNL     1      30.118  39.057  30.499  1.00  0.00     0.012 C 
ENDBRANCH   5  10
TORSDOF 2
ENDMDL
