MODEL 1
REMARK VINA RESULT:    -4.471      0.000      0.000
REMARK INTER + INTRA:          -7.474
REMARK INTER:                  -6.823
REMARK INTRA:                  -0.652
REMARK UNBOUND:                -0.652
REMARK SMILES OC[C@H]1O[C@@H](O[C@@]2(CO)O[C@H](CO)[C@H](O)[C@H]2O)[C@H](O)[C@H](O)[C@H]1O
REMARK SMILES IDX 6 1 5 2 3 3 22 4 4 5 20 6 18 7 2 8 1 9 23 11 21 13 19 15
REMARK SMILES IDX 7 17 16 18 10 19 14 20 11 21 8 22 9 23 17 25 15 27 12 29
REMARK SMILES IDX 13 30
REMARK H PARENT 1 10 23 12 21 14 19 16 9 24 17 26 15 28 13 31
REMARK Flexibility Score: inf
ROOT
ATOM      1  O   UNL     1      17.831  27.589  38.526  1.00  0.00    -0.313 OA
ENDROOT
BRANCH   1   2
ATOM      2  C   UNL     1      19.188  27.311  38.855  1.00  0.00     0.285 C 
ATOM      3  C   UNL     1      20.970  25.852  38.442  1.00  0.00     0.178 C 
ATOM      4  C   UNL     1      20.759  24.934  39.680  1.00  0.00     0.177 C 
ATOM      5  O   UNL     1      19.721  26.326  37.974  1.00  0.00    -0.341 OA
ATOM      6  C   UNL     1      19.474  25.337  40.440  1.00  0.00     0.179 C 
ATOM      7  C   UNL     1      19.235  26.857  40.347  1.00  0.00     0.202 C 
BRANCH   3   8
ATOM      8  C   UNL     1      21.722  25.168  37.292  1.00  0.00     0.191 C 
BRANCH   8   9
ATOM      9  O   UNL     1      21.899  26.055  36.223  1.00  0.00    -0.394 OA
ATOM     10  H   UNL     1      22.717  25.754  35.748  1.00  0.00     0.210 HD
ENDBRANCH   8   9
ENDBRANCH   3   8
BRANCH   4  11
ATOM     11  O   UNL     1      20.663  23.585  39.302  1.00  0.00    -0.387 OA
ATOM     12  H   UNL     1      20.870  23.541  38.333  1.00  0.00     0.211 HD
ENDBRANCH   4  11
BRANCH   6  13
ATOM     13  O   UNL     1      19.578  24.946  41.788  1.00  0.00    -0.387 OA
ATOM     14  H   UNL     1      19.357  23.980  41.838  1.00  0.00     0.211 HD
ENDBRANCH   6  13
BRANCH   7  15
ATOM     15  O   UNL     1      20.262  27.548  41.014  1.00  0.00    -0.385 OA
ATOM     16  H   UNL     1      20.363  27.128  41.908  1.00  0.00     0.211 HD
ENDBRANCH   7  15
ENDBRANCH   1   2
BRANCH   1  17
ATOM     17  C   UNL     1      17.622  28.773  37.744  1.00  0.00     0.224 C 
ATOM     18  C   UNL     1      16.782  29.780  38.581  1.00  0.00     0.208 C 
ATOM     19  O   UNL     1      16.866  28.464  36.588  1.00  0.00    -0.337 OA
ATOM     20  C   UNL     1      15.428  29.801  37.884  1.00  0.00     0.180 C 
ATOM     21  C   UNL     1      15.516  28.603  36.948  1.00  0.00     0.179 C 
BRANCH  17  22
ATOM     22  C   UNL     1      18.951  29.441  37.306  1.00  0.00     0.225 C 
BRANCH  22  23
ATOM     23  O   UNL     1      18.719  30.713  36.758  1.00  0.00    -0.391 OA
ATOM     24  H   UNL     1      18.137  31.199  37.394  1.00  0.00     0.210 HD
ENDBRANCH  22  23
ENDBRANCH  17  22
BRANCH  18  25
ATOM     25  O   UNL     1      16.642  29.344  39.911  1.00  0.00    -0.385 OA
ATOM     26  H   UNL     1      17.476  29.599  40.386  1.00  0.00     0.211 HD
ENDBRANCH  18  25
BRANCH  20  27
ATOM     27  O   UNL     1      15.230  31.012  37.190  1.00  0.00    -0.387 OA
ATOM     28  H   UNL     1      14.265  31.244  37.240  1.00  0.00     0.211 HD
ENDBRANCH  20  27
BRANCH  21  29
ATOM     29  C   UNL     1      14.640  28.722  35.694  1.00  0.00     0.191 C 
BRANCH  29  30
ATOM     30  O   UNL     1      14.035  27.487  35.414  1.00  0.00    -0.394 OA
ATOM     31  H   UNL     1      14.109  27.350  34.435  1.00  0.00     0.210 HD
ENDBRANCH  29  30
ENDBRANCH  21  29
ENDBRANCH   1  17
TORSDOF 13
ENDMDL
MODEL 2
REMARK VINA RESULT:    -4.357     20.609     23.149
REMARK INTER + INTRA:          -7.301
REMARK INTER:                  -6.562
REMARK INTRA:                  -0.739
REMARK UNBOUND:                -0.652
REMARK SMILES OC[C@H]1O[C@@H](O[C@@]2(CO)O[C@H](CO)[C@H](O)[C@H]2O)[C@H](O)[C@H](O)[C@H]1O
REMARK SMILES IDX 6 1 5 2 3 3 22 4 4 5 20 6 18 7 2 8 1 9 23 11 21 13 19 15
REMARK SMILES IDX 7 17 16 18 10 19 14 20 11 21 8 22 9 23 17 25 15 27 12 29
REMARK SMILES IDX 13 30
REMARK H PARENT 1 10 23 12 21 14 19 16 9 24 17 26 15 28 13 31
REMARK Flexibility Score: inf
ROOT
ATOM      1  O   UNL     1       6.259  15.131  24.646  1.00  0.00    -0.313 OA
ENDROOT
BRANCH   1   2
ATOM      2  C   UNL     1       6.721  13.797  24.830  1.00  0.00     0.285 C 
ATOM      3  C   UNL     1       6.397  11.842  26.075  1.00  0.00     0.178 C 
ATOM      4  C   UNL     1       7.519  12.091  27.123  1.00  0.00     0.177 C 
ATOM      5  O   UNL     1       5.828  13.074  25.674  1.00  0.00    -0.341 OA
ATOM      6  C   UNL     1       8.155  13.485  26.912  1.00  0.00     0.179 C 
ATOM      7  C   UNL     1       8.163  13.866  25.419  1.00  0.00     0.202 C 
BRANCH   3   8
ATOM      8  C   UNL     1       5.289  10.904  26.574  1.00  0.00     0.191 C 
BRANCH   8   9
ATOM      9  O   UNL     1       4.267  11.635  27.193  1.00  0.00    -0.394 OA
ATOM     10  H   UNL     1       4.551  11.760  28.136  1.00  0.00     0.210 HD
ENDBRANCH   8   9
ENDBRANCH   3   8
BRANCH   4  11
ATOM     11  O   UNL     1       7.019  12.009  28.432  1.00  0.00    -0.387 OA
ATOM     12  H   UNL     1       7.778  12.192  29.044  1.00  0.00     0.211 HD
ENDBRANCH   4  11
BRANCH   6  13
ATOM     13  O   UNL     1       9.467  13.489  27.420  1.00  0.00    -0.387 OA
ATOM     14  H   UNL     1       9.909  12.655  27.115  1.00  0.00     0.211 HD
ENDBRANCH   6  13
BRANCH   7  15
ATOM     15  O   UNL     1       9.003  12.993  24.704  1.00  0.00    -0.385 OA
ATOM     16  H   UNL     1       9.730  13.543  24.312  1.00  0.00     0.211 HD
ENDBRANCH   7  15
ENDBRANCH   1   2
BRANCH   1  17
ATOM     17  C   UNL     1       5.696  15.411  23.357  1.00  0.00     0.224 C 
ATOM     18  C   UNL     1       4.319  16.106  23.556  1.00  0.00     0.208 C 
ATOM     19  O   UNL     1       5.453  14.202  22.662  1.00  0.00    -0.337 OA
ATOM     20  C   UNL     1       3.308  15.060  23.109  1.00  0.00     0.180 C 
ATOM     21  C   UNL     1       4.155  13.797  23.012  1.00  0.00     0.179 C 
BRANCH  17  22
ATOM     22  C   UNL     1       6.613  16.309  22.488  1.00  0.00     0.225 C 
BRANCH  22  23
ATOM     23  O   UNL     1       6.422  17.667  22.791  1.00  0.00    -0.391 OA
ATOM     24  H   UNL     1       6.504  17.757  23.774  1.00  0.00     0.210 HD
ENDBRANCH  22  23
ENDBRANCH  17  22
BRANCH  18  25
ATOM     25  O   UNL     1       4.110  16.445  24.905  1.00  0.00    -0.385 OA
ATOM     26  H   UNL     1       3.230  16.066  25.164  1.00  0.00     0.211 HD
ENDBRANCH  18  25
BRANCH  20  27
ATOM     27  O   UNL     1       2.722  15.409  21.876  1.00  0.00    -0.387 OA
ATOM     28  H   UNL     1       3.447  15.676  21.251  1.00  0.00     0.211 HD
ENDBRANCH  20  27
BRANCH  21  29
ATOM     29  C   UNL     1       3.629  12.764  22.007  1.00  0.00     0.191 C 
BRANCH  29  30
ATOM     30  O   UNL     1       2.317  12.397  22.340  1.00  0.00    -0.394 OA
ATOM     31  H   UNL     1       2.024  11.741  21.657  1.00  0.00     0.210 HD
ENDBRANCH  29  30
ENDBRANCH  21  29
ENDBRANCH   1  17
TORSDOF 13
ENDMDL
MODEL 3
REMARK VINA RESULT:    -4.230     20.710     22.980
REMARK INTER + INTRA:          -7.107
REMARK INTER:                  -6.685
REMARK INTRA:                  -0.422
REMARK UNBOUND:                -0.652
REMARK SMILES OC[C@H]1O[C@@H](O[C@@]2(CO)O[C@H](CO)[C@H](O)[C@H]2O)[C@H](O)[C@H](O)[C@H]1O
REMARK SMILES IDX 6 1 5 2 3 3 22 4 4 5 20 6 18 7 2 8 1 9 23 11 21 13 19 15
REMARK SMILES IDX 7 17 16 18 10 19 14 20 11 21 8 22 9 23 17 25 15 27 12 29
REMARK SMILES IDX 13 30
REMARK H PARENT 1 10 23 12 21 14 19 16 9 24 17 26 15 28 13 31
REMARK Flexibility Score: inf
ROOT
ATOM      1  O   UNL     1       6.231  15.590  24.177  1.00  0.00    -0.313 OA
ENDROOT
BRANCH   1   2
ATOM      2  C   UNL     1       6.754  14.290  24.430  1.00  0.00     0.285 C 
ATOM      3  C   UNL     1       7.944  13.003  25.980  1.00  0.00     0.178 C 
ATOM      4  C   UNL     1       9.343  13.144  25.316  1.00  0.00     0.177 C 
ATOM      5  O   UNL     1       7.193  14.186  25.783  1.00  0.00    -0.341 OA
ATOM      6  C   UNL     1       9.275  14.118  24.117  1.00  0.00     0.179 C 
ATOM      7  C   UNL     1       7.907  14.030  23.413  1.00  0.00     0.202 C 
BRANCH   3   8
ATOM      8  C   UNL     1       8.006  12.681  27.480  1.00  0.00     0.191 C 
BRANCH   8   9
ATOM      9  O   UNL     1       8.444  13.796  28.205  1.00  0.00    -0.394 OA
ATOM     10  H   UNL     1       8.192  14.591  27.666  1.00  0.00     0.210 HD
ENDBRANCH   8   9
ENDBRANCH   3   8
BRANCH   4  11
ATOM     11  O   UNL     1      10.296  13.614  26.234  1.00  0.00    -0.387 OA
ATOM     12  H   UNL     1       9.978  13.358  27.138  1.00  0.00     0.211 HD
ENDBRANCH   4  11
BRANCH   6  13
ATOM     13  O   UNL     1      10.307  13.821  23.206  1.00  0.00    -0.387 OA
ATOM     14  H   UNL     1      10.611  14.676  22.807  1.00  0.00     0.211 HD
ENDBRANCH   6  13
BRANCH   7  15
ATOM     15  O   UNL     1       7.743  12.759  22.835  1.00  0.00    -0.385 OA
ATOM     16  H   UNL     1       8.570  12.563  22.322  1.00  0.00     0.211 HD
ENDBRANCH   7  15
ENDBRANCH   1   2
BRANCH   1  17
ATOM     17  C   UNL     1       5.378  15.694  23.029  1.00  0.00     0.224 C 
ATOM     18  C   UNL     1       3.957  16.115  23.501  1.00  0.00     0.208 C 
ATOM     19  O   UNL     1       5.249  14.429  22.406  1.00  0.00    -0.337 OA
ATOM     20  C   UNL     1       3.108  14.871  23.277  1.00  0.00     0.180 C 
ATOM     21  C   UNL     1       4.155  13.795  23.018  1.00  0.00     0.179 C 
BRANCH  17  22
ATOM     22  C   UNL     1       5.904  16.711  21.984  1.00  0.00     0.225 C 
BRANCH  22  23
ATOM     23  O   UNL     1       6.505  17.814  22.613  1.00  0.00    -0.391 OA
ATOM     24  H   UNL     1       7.418  17.533  22.874  1.00  0.00     0.210 HD
ENDBRANCH  22  23
ENDBRANCH  17  22
BRANCH  18  25
ATOM     25  O   UNL     1       3.958  16.471  24.862  1.00  0.00    -0.385 OA
ATOM     26  H   UNL     1       3.107  16.953  25.033  1.00  0.00     0.211 HD
ENDBRANCH  18  25
BRANCH  20  27
ATOM     27  O   UNL     1       2.230  15.041  22.188  1.00  0.00    -0.387 OA
ATOM     28  H   UNL     1       2.571  15.787  21.627  1.00  0.00     0.211 HD
ENDBRANCH  20  27
BRANCH  21  29
ATOM     29  C   UNL     1       3.658  12.633  22.148  1.00  0.00     0.191 C 
BRANCH  29  30
ATOM     30  O   UNL     1       2.431  12.161  22.637  1.00  0.00    -0.394 OA
ATOM     31  H   UNL     1       2.518  12.112  23.623  1.00  0.00     0.210 HD
ENDBRANCH  29  30
ENDBRANCH  21  29
ENDBRANCH   1  17
TORSDOF 13
ENDMDL
MODEL 4
REMARK VINA RESULT:    -4.197      1.557      6.437
REMARK INTER + INTRA:          -7.056
REMARK INTER:                  -6.274
REMARK INTRA:                  -0.782
REMARK UNBOUND:                -0.652
REMARK SMILES OC[C@H]1O[C@@H](O[C@@]2(CO)O[C@H](CO)[C@H](O)[C@H]2O)[C@H](O)[C@H](O)[C@H]1O
REMARK SMILES IDX 6 1 5 2 3 3 22 4 4 5 20 6 18 7 2 8 1 9 23 11 21 13 19 15
REMARK SMILES IDX 7 17 16 18 10 19 14 20 11 21 8 22 9 23 17 25 15 27 12 29
REMARK SMILES IDX 13 30
REMARK H PARENT 1 10 23 12 21 14 19 16 9 24 17 26 15 28 13 31
REMARK Flexibility Score: inf
ROOT
ATOM      1  O   UNL     1      18.399  26.974  38.672  1.00  0.00    -0.313 OA
ENDROOT
BRANCH   1   2
ATOM      2  C   UNL     1      18.176  28.287  38.168  1.00  0.00     0.285 C 
ATOM      3  C   UNL     1      16.812  30.177  38.364  1.00  0.00     0.178 C 
ATOM      4  C   UNL     1      15.857  29.850  37.180  1.00  0.00     0.177 C 
ATOM      5  O   UNL     1      17.237  28.980  38.987  1.00  0.00    -0.341 OA
ATOM      6  C   UNL     1      16.183  28.458  36.592  1.00  0.00     0.179 C 
ATOM      7  C   UNL     1      17.692  28.159  36.692  1.00  0.00     0.202 C 
BRANCH   3   8
ATOM      8  C   UNL     1      16.190  31.108  39.414  1.00  0.00     0.191 C 
BRANCH   8   9
ATOM      9  O   UNL     1      15.464  30.370  40.358  1.00  0.00    -0.394 OA
ATOM     10  H   UNL     1      15.603  29.415  40.126  1.00  0.00     0.210 HD
ENDBRANCH   8   9
ENDBRANCH   3   8
BRANCH   4  11
ATOM     11  O   UNL     1      14.514  29.871  37.590  1.00  0.00    -0.387 OA
ATOM     12  H   UNL     1      14.053  29.136  37.109  1.00  0.00     0.211 HD
ENDBRANCH   4  11
BRANCH   6  13
ATOM     13  O   UNL     1      15.767  28.402  35.249  1.00  0.00    -0.387 OA
ATOM     14  H   UNL     1      16.506  28.756  34.690  1.00  0.00     0.211 HD
ENDBRANCH   6  13
BRANCH   7  15
ATOM     15  O   UNL     1      18.415  29.053  35.882  1.00  0.00    -0.385 OA
ATOM     16  H   UNL     1      19.007  28.508  35.302  1.00  0.00     0.211 HD
ENDBRANCH   7  15
ENDBRANCH   1   2
BRANCH   1  17
ATOM     17  C   UNL     1      19.744  26.697  39.086  1.00  0.00     0.224 C 
ATOM     18  C   UNL     1      19.700  25.919  40.432  1.00  0.00     0.208 C 
ATOM     19  O   UNL     1      20.434  27.908  39.330  1.00  0.00    -0.337 OA
ATOM     20  C   UNL     1      20.225  26.917  41.454  1.00  0.00     0.180 C 
ATOM     21  C   UNL     1      20.208  28.229  40.678  1.00  0.00     0.179 C 
BRANCH  17  22
ATOM     22  C   UNL     1      20.535  25.877  38.034  1.00  0.00     0.225 C 
BRANCH  22  23
ATOM     23  O   UNL     1      20.639  24.530  38.420  1.00  0.00    -0.391 OA
ATOM     24  H   UNL     1      21.605  24.320  38.473  1.00  0.00     0.210 HD
ENDBRANCH  22  23
ENDBRANCH  17  22
BRANCH  18  25
ATOM     25  O   UNL     1      18.387  25.532  40.753  1.00  0.00    -0.385 OA
ATOM     26  H   UNL     1      18.078  24.932  40.025  1.00  0.00     0.211 HD
ENDBRANCH  18  25
BRANCH  20  27
ATOM     27  O   UNL     1      21.518  26.568  41.892  1.00  0.00    -0.387 OA
ATOM     28  H   UNL     1      22.108  27.361  41.784  1.00  0.00     0.211 HD
ENDBRANCH  20  27
BRANCH  21  29
ATOM     29  C   UNL     1      21.240  29.257  41.162  1.00  0.00     0.191 C 
BRANCH  29  30
ATOM     30  O   UNL     1      22.081  29.626  40.102  1.00  0.00    -0.394 OA
ATOM     31  H   UNL     1      21.643  29.312  39.270  1.00  0.00     0.210 HD
ENDBRANCH  29  30
ENDBRANCH  21  29
ENDBRANCH   1  17
TORSDOF 13
ENDMDL
MODEL 5
REMARK VINA RESULT:    -4.052      1.829      6.437
REMARK INTER + INTRA:          -6.836
REMARK INTER:                  -5.769
REMARK INTRA:                  -1.067
REMARK UNBOUND:                -0.652
REMARK SMILES OC[C@H]1O[C@@H](O[C@@]2(CO)O[C@H](CO)[C@H](O)[C@H]2O)[C@H](O)[C@H](O)[C@H]1O
REMARK SMILES IDX 6 1 5 2 3 3 22 4 4 5 20 6 18 7 2 8 1 9 23 11 21 13 19 15
REMARK SMILES IDX 7 17 16 18 10 19 14 20 11 21 8 22 9 23 17 25 15 27 12 29
REMARK SMILES IDX 13 30
REMARK H PARENT 1 10 23 12 21 14 19 16 9 24 17 26 15 28 13 31
REMARK Flexibility Score: inf
ROOT
ATOM      1  O   UNL     1      20.342  26.673  37.204  1.00  0.00    -0.313 OA
ENDROOT
BRANCH   1   2
ATOM      2  C   UNL     1      19.696  27.911  36.923  1.00  0.00     0.285 C 
ATOM      3  C   UNL     1      17.627  29.003  36.924  1.00  0.00     0.178 C 
ATOM      4  C   UNL     1      17.297  28.794  35.418  1.00  0.00     0.177 C 
ATOM      5  O   UNL     1      18.359  27.896  37.416  1.00  0.00    -0.341 OA
ATOM      6  C   UNL     1      18.370  27.905  34.748  1.00  0.00     0.179 C 
ATOM      7  C   UNL     1      19.755  28.142  35.382  1.00  0.00     0.202 C 
BRANCH   3   8
ATOM      8  C   UNL     1      16.386  29.225  37.799  1.00  0.00     0.191 C 
BRANCH   8   9
ATOM      9  O   UNL     1      15.589  30.250  37.272  1.00  0.00    -0.394 OA
ATOM     10  H   UNL     1      16.159  31.063  37.260  1.00  0.00     0.210 HD
ENDBRANCH   8   9
ENDBRANCH   3   8
BRANCH   4  11
ATOM     11  O   UNL     1      16.038  28.196  35.252  1.00  0.00    -0.387 OA
ATOM     12  H   UNL     1      15.368  28.927  35.251  1.00  0.00     0.211 HD
ENDBRANCH   4  11
BRANCH   6  13
ATOM     13  O   UNL     1      18.417  28.177  33.368  1.00  0.00    -0.387 OA
ATOM     14  H   UNL     1      18.166  27.345  32.890  1.00  0.00     0.211 HD
ENDBRANCH   6  13
BRANCH   7  15
ATOM     15  O   UNL     1      20.184  29.456  35.122  1.00  0.00    -0.385 OA
ATOM     16  H   UNL     1      19.626  30.061  35.677  1.00  0.00     0.211 HD
ENDBRANCH   7  15
ENDBRANCH   1   2
BRANCH   1  17
ATOM     17  C   UNL     1      21.057  26.625  38.447  1.00  0.00     0.224 C 
ATOM     18  C   UNL     1      21.739  25.233  38.575  1.00  0.00     0.208 C 
ATOM     19  O   UNL     1      20.153  26.744  39.530  1.00  0.00    -0.337 OA
ATOM     20  C   UNL     1      20.959  24.539  39.683  1.00  0.00     0.180 C 
ATOM     21  C   UNL     1      19.742  25.440  39.849  1.00  0.00     0.179 C 
BRANCH  17  22
ATOM     22  C   UNL     1      22.125  27.743  38.565  1.00  0.00     0.225 C 
BRANCH  22  23
ATOM     23  O   UNL     1      21.880  28.557  39.683  1.00  0.00    -0.391 OA
ATOM     24  H   UNL     1      22.763  28.808  40.054  1.00  0.00     0.210 HD
ENDBRANCH  22  23
ENDBRANCH  17  22
BRANCH  18  25
ATOM     25  O   UNL     1      21.641  24.506  37.375  1.00  0.00    -0.385 OA
ATOM     26  H   UNL     1      21.201  23.644  37.597  1.00  0.00     0.211 HD
ENDBRANCH  18  25
BRANCH  20  27
ATOM     27  O   UNL     1      21.723  24.444  40.863  1.00  0.00    -0.387 OA
ATOM     28  H   UNL     1      21.184  24.813  41.612  1.00  0.00     0.211 HD
ENDBRANCH  20  27
BRANCH  21  29
ATOM     29  C   UNL     1      19.122  25.404  41.253  1.00  0.00     0.191 C 
BRANCH  29  30
ATOM     30  O   UNL     1      19.852  26.232  42.119  1.00  0.00    -0.394 OA
ATOM     31  H   UNL     1      20.209  26.975  41.568  1.00  0.00     0.210 HD
ENDBRANCH  29  30
ENDBRANCH  21  29
ENDBRANCH   1  17
TORSDOF 13
ENDMDL
MODEL 6
REMARK VINA RESULT:    -3.972     20.014     23.576
REMARK INTER + INTRA:          -6.714
REMARK INTER:                  -5.922
REMARK INTRA:                  -0.792
REMARK UNBOUND:                -0.652
REMARK SMILES OC[C@H]1O[C@@H](O[C@@]2(CO)O[C@H](CO)[C@H](O)[C@H]2O)[C@H](O)[C@H](O)[C@H]1O
REMARK SMILES IDX 6 1 5 2 3 3 22 4 4 5 20 6 18 7 2 8 1 9 23 11 21 13 19 15
REMARK SMILES IDX 7 17 16 18 10 19 14 20 11 21 8 22 9 23 17 25 15 27 12 29
REMARK SMILES IDX 13 30
REMARK H PARENT 1 10 23 12 21 14 19 16 9 24 17 26 15 28 13 31
REMARK Flexibility Score: inf
ROOT
ATOM      1  O   UNL     1       5.919  13.499  25.211  1.00  0.00    -0.313 OA
ENDROOT
BRANCH   1   2
ATOM      2  C   UNL     1       5.989  13.754  23.811  1.00  0.00     0.285 C 
ATOM      3  C   UNL     1       6.363  15.421  22.213  1.00  0.00     0.178 C 
ATOM      4  C   UNL     1       4.871  15.756  21.929  1.00  0.00     0.177 C 
ATOM      5  O   UNL     1       6.526  15.052  23.569  1.00  0.00    -0.341 OA
ATOM      6  C   UNL     1       3.948  14.966  22.886  1.00  0.00     0.179 C 
ATOM      7  C   UNL     1       4.554  13.590  23.222  1.00  0.00     0.202 C 
BRANCH   3   8
ATOM      8  C   UNL     1       7.324  16.569  21.875  1.00  0.00     0.191 C 
BRANCH   8   9
ATOM      9  O   UNL     1       7.039  17.696  22.655  1.00  0.00    -0.394 OA
ATOM     10  H   UNL     1       6.662  17.353  23.507  1.00  0.00     0.210 HD
ENDBRANCH   8   9
ENDBRANCH   3   8
BRANCH   4  11
ATOM     11  O   UNL     1       4.621  17.129  22.080  1.00  0.00    -0.387 OA
ATOM     12  H   UNL     1       3.853  17.217  22.703  1.00  0.00     0.211 HD
ENDBRANCH   4  11
BRANCH   6  13
ATOM     13  O   UNL     1       2.680  14.806  22.298  1.00  0.00    -0.387 OA
ATOM     14  H   UNL     1       2.031  14.627  23.026  1.00  0.00     0.211 HD
ENDBRANCH   6  13
BRANCH   7  15
ATOM     15  O   UNL     1       4.612  12.793  22.065  1.00  0.00    -0.385 OA
ATOM     16  H   UNL     1       3.766  12.276  22.023  1.00  0.00     0.211 HD
ENDBRANCH   7  15
ENDBRANCH   1   2
BRANCH   1  17
ATOM     17  C   UNL     1       6.792  12.467  25.688  1.00  0.00     0.224 C 
ATOM     18  C   UNL     1       6.020  11.603  26.726  1.00  0.00     0.208 C 
ATOM     19  O   UNL     1       7.895  13.040  26.366  1.00  0.00    -0.337 OA
ATOM     20  C   UNL     1       6.676  11.948  28.056  1.00  0.00     0.180 C 
ATOM     21  C   UNL     1       7.509  13.175  27.709  1.00  0.00     0.179 C 
BRANCH  17  22
ATOM     22  C   UNL     1       7.324  11.561  24.548  1.00  0.00     0.225 C 
BRANCH  22  23
ATOM     23  O   UNL     1       8.550  10.974  24.902  1.00  0.00    -0.391 OA
ATOM     24  H   UNL     1       8.754  10.295  24.210  1.00  0.00     0.210 HD
ENDBRANCH  22  23
ENDBRANCH  17  22
BRANCH  18  25
ATOM     25  O   UNL     1       4.654  11.938  26.752  1.00  0.00    -0.385 OA
ATOM     26  H   UNL     1       4.571  12.766  27.293  1.00  0.00     0.211 HD
ENDBRANCH  18  25
BRANCH  20  27
ATOM     27  O   UNL     1       7.464  10.879  28.529  1.00  0.00    -0.387 OA
ATOM     28  H   UNL     1       6.909  10.055  28.521  1.00  0.00     0.211 HD
ENDBRANCH  20  27
BRANCH  21  29
ATOM     29  C   UNL     1       8.743  13.368  28.601  1.00  0.00     0.191 C 
BRANCH  29  30
ATOM     30  O   UNL     1       9.854  13.704  27.814  1.00  0.00    -0.394 OA
ATOM     31  H   UNL     1       9.724  13.263  26.936  1.00  0.00     0.210 HD
ENDBRANCH  29  30
ENDBRANCH  21  29
ENDBRANCH   1  17
TORSDOF 13
ENDMDL
MODEL 7
REMARK VINA RESULT:    -3.884     20.152     23.636
REMARK INTER + INTRA:          -6.580
REMARK INTER:                  -5.892
REMARK INTRA:                  -0.688
REMARK UNBOUND:                -0.652
REMARK SMILES OC[C@H]1O[C@@H](O[C@@]2(CO)O[C@H](CO)[C@H](O)[C@H]2O)[C@H](O)[C@H](O)[C@H]1O
REMARK SMILES IDX 6 1 5 2 3 3 22 4 4 5 20 6 18 7 2 8 1 9 23 11 21 13 19 15
REMARK SMILES IDX 7 17 16 18 10 19 14 20 11 21 8 22 9 23 17 25 15 27 12 29
REMARK SMILES IDX 13 30
REMARK H PARENT 1 10 23 12 21 14 19 16 9 24 17 26 15 28 13 31
REMARK Flexibility Score: inf
ROOT
ATOM      1  O   UNL     1       6.924  13.160  23.672  1.00  0.00    -0.313 OA
ENDROOT
BRANCH   1   2
ATOM      2  C   UNL     1       5.916  13.922  23.015  1.00  0.00     0.285 C 
ATOM      3  C   UNL     1       4.969  16.055  22.851  1.00  0.00     0.178 C 
ATOM      4  C   UNL     1       3.778  15.814  23.822  1.00  0.00     0.177 C 
ATOM      5  O   UNL     1       6.096  15.312  23.274  1.00  0.00    -0.341 OA
ATOM      6  C   UNL     1       3.889  14.417  24.475  1.00  0.00     0.179 C 
ATOM      7  C   UNL     1       4.529  13.405  23.505  1.00  0.00     0.202 C 
BRANCH   3   8
ATOM      8  C   UNL     1       5.355  17.534  22.708  1.00  0.00     0.191 C 
BRANCH   8   9
ATOM      9  O   UNL     1       6.746  17.676  22.643  1.00  0.00    -0.394 OA
ATOM     10  H   UNL     1       7.099  16.794  22.354  1.00  0.00     0.210 HD
ENDBRANCH   8   9
ENDBRANCH   3   8
BRANCH   4  11
ATOM     11  O   UNL     1       3.740  16.790  24.831  1.00  0.00    -0.387 OA
ATOM     12  H   UNL     1       3.844  17.670  24.386  1.00  0.00     0.211 HD
ENDBRANCH   4  11
BRANCH   6  13
ATOM     13  O   UNL     1       2.611  13.973  24.864  1.00  0.00    -0.387 OA
ATOM     14  H   UNL     1       2.483  14.221  25.815  1.00  0.00     0.211 HD
ENDBRANCH   6  13
BRANCH   7  15
ATOM     15  O   UNL     1       3.687  13.202  22.397  1.00  0.00    -0.385 OA
ATOM     16  H   UNL     1       4.270  12.983  21.624  1.00  0.00     0.211 HD
ENDBRANCH   7  15
ENDBRANCH   1   2
BRANCH   1  17
ATOM     17  C   UNL     1       8.256  13.351  23.175  1.00  0.00     0.224 C 
ATOM     18  C   UNL     1       8.893  11.957  22.912  1.00  0.00     0.208 C 
ATOM     19  O   UNL     1       9.051  13.991  24.156  1.00  0.00    -0.337 OA
ATOM     20  C   UNL     1       9.956  11.825  23.994  1.00  0.00     0.180 C 
ATOM     21  C   UNL     1       9.613  12.971  24.939  1.00  0.00     0.179 C 
BRANCH  17  22
ATOM     22  C   UNL     1       8.292  14.195  21.875  1.00  0.00     0.225 C 
BRANCH  22  23
ATOM     23  O   UNL     1       8.756  15.496  22.132  1.00  0.00    -0.391 OA
ATOM     24  H   UNL     1       8.918  15.922  21.253  1.00  0.00     0.210 HD
ENDBRANCH  22  23
ENDBRANCH  17  22
BRANCH  18  25
ATOM     25  O   UNL     1       7.940  10.930  23.033  1.00  0.00    -0.385 OA
ATOM     26  H   UNL     1       7.274  11.070  22.310  1.00  0.00     0.211 HD
ENDBRANCH  18  25
BRANCH  20  27
ATOM     27  O   UNL     1      11.253  11.943  23.455  1.00  0.00    -0.387 OA
ATOM     28  H   UNL     1      11.587  11.031  23.246  1.00  0.00     0.211 HD
ENDBRANCH  20  27
BRANCH  21  29
ATOM     29  C   UNL     1      10.811  13.507  25.734  1.00  0.00     0.191 C 
BRANCH  29  30
ATOM     30  O   UNL     1      10.404  13.871  27.026  1.00  0.00    -0.394 OA
ATOM     31  H   UNL     1      11.185  14.303  27.458  1.00  0.00     0.210 HD
ENDBRANCH  29  30
ENDBRANCH  21  29
ENDBRANCH   1  17
TORSDOF 13
ENDMDL
MODEL 8
REMARK VINA RESULT:    -3.873     21.136     23.467
REMARK INTER + INTRA:          -6.563
REMARK INTER:                  -5.799
REMARK INTRA:                  -0.764
REMARK UNBOUND:                -0.652
REMARK SMILES OC[C@H]1O[C@@H](O[C@@]2(CO)O[C@H](CO)[C@H](O)[C@H]2O)[C@H](O)[C@H](O)[C@H]1O
REMARK SMILES IDX 6 1 5 2 3 3 22 4 4 5 20 6 18 7 2 8 1 9 23 11 21 13 19 15
REMARK SMILES IDX 7 17 16 18 10 19 14 20 11 21 8 22 9 23 17 25 15 27 12 29
REMARK SMILES IDX 13 30
REMARK H PARENT 1 10 23 12 21 14 19 16 9 24 17 26 15 28 13 31
REMARK Flexibility Score: inf
ROOT
ATOM      1  O   UNL     1       7.039  13.381  25.029  1.00  0.00    -0.313 OA
ENDROOT
BRANCH   1   2
ATOM      2  C   UNL     1       6.276  13.898  23.944  1.00  0.00     0.285 C 
ATOM      3  C   UNL     1       5.338  15.850  23.056  1.00  0.00     0.178 C 
ATOM      4  C   UNL     1       3.902  15.648  23.620  1.00  0.00     0.177 C 
ATOM      5  O   UNL     1       6.291  15.324  23.960  1.00  0.00    -0.341 OA
ATOM      6  C   UNL     1       3.854  14.408  24.543  1.00  0.00     0.179 C 
ATOM      7  C   UNL     1       4.831  13.321  24.055  1.00  0.00     0.202 C 
BRANCH   3   8
ATOM      8  C   UNL     1       5.677  17.315  22.750  1.00  0.00     0.191 C 
BRANCH   8   9
ATOM      9  O   UNL     1       7.064  17.498  22.693  1.00  0.00    -0.394 OA
ATOM     10  H   UNL     1       7.207  18.386  22.272  1.00  0.00     0.210 HD
ENDBRANCH   8   9
ENDBRANCH   3   8
BRANCH   4  11
ATOM     11  O   UNL     1       3.478  16.775  24.344  1.00  0.00    -0.387 OA
ATOM     12  H   UNL     1       3.162  17.442  23.682  1.00  0.00     0.211 HD
ENDBRANCH   4  11
BRANCH   6  13
ATOM     13  O   UNL     1       2.543  13.897  24.581  1.00  0.00    -0.387 OA
ATOM     14  H   UNL     1       2.289  13.791  25.534  1.00  0.00     0.211 HD
ENDBRANCH   6  13
BRANCH   7  15
ATOM     15  O   UNL     1       4.424  12.834  22.801  1.00  0.00    -0.385 OA
ATOM     16  H   UNL     1       3.439  12.945  22.751  1.00  0.00     0.211 HD
ENDBRANCH   7  15
ENDBRANCH   1   2
BRANCH   1  17
ATOM     17  C   UNL     1       8.096  12.485  24.661  1.00  0.00     0.224 C 
ATOM     18  C   UNL     1       9.370  12.859  25.471  1.00  0.00     0.208 C 
ATOM     19  O   UNL     1       8.414  12.648  23.291  1.00  0.00    -0.337 OA
ATOM     20  C   UNL     1      10.312  13.447  24.430  1.00  0.00     0.180 C 
ATOM     21  C   UNL     1       9.397  13.649  23.228  1.00  0.00     0.179 C 
BRANCH  17  22
ATOM     22  C   UNL     1       7.734  10.999  24.915  1.00  0.00     0.225 C 
BRANCH  22  23
ATOM     23  O   UNL     1       6.841  10.875  25.991  1.00  0.00    -0.391 OA
ATOM     24  H   UNL     1       7.267  10.271  26.651  1.00  0.00     0.210 HD
ENDBRANCH  22  23
ENDBRANCH  17  22
BRANCH  18  25
ATOM     25  O   UNL     1       9.080  13.813  26.464  1.00  0.00    -0.385 OA
ATOM     26  H   UNL     1       8.986  13.317  27.319  1.00  0.00     0.211 HD
ENDBRANCH  18  25
BRANCH  20  27
ATOM     27  O   UNL     1      11.379  12.569  24.152  1.00  0.00    -0.387 OA
ATOM     28  H   UNL     1      12.131  12.791  24.761  1.00  0.00     0.211 HD
ENDBRANCH  20  27
BRANCH  21  29
ATOM     29  C   UNL     1      10.120  13.602  21.875  1.00  0.00     0.191 C 
BRANCH  29  30
ATOM     30  O   UNL     1      11.194  14.504  21.875  1.00  0.00    -0.394 OA
ATOM     31  H   UNL     1      12.011  13.972  21.699  1.00  0.00     0.210 HD
ENDBRANCH  29  30
ENDBRANCH  21  29
ENDBRANCH   1  17
TORSDOF 13
ENDMDL
MODEL 9
REMARK VINA RESULT:    -3.778      1.534      3.302
REMARK INTER + INTRA:          -6.417
REMARK INTER:                  -5.861
REMARK INTRA:                  -0.555
REMARK UNBOUND:                -0.652
REMARK SMILES OC[C@H]1O[C@@H](O[C@@]2(CO)O[C@H](CO)[C@H](O)[C@H]2O)[C@H](O)[C@H](O)[C@H]1O
REMARK SMILES IDX 6 1 5 2 3 3 22 4 4 5 20 6 18 7 2 8 1 9 23 11 21 13 19 15
REMARK SMILES IDX 7 17 16 18 10 19 14 20 11 21 8 22 9 23 17 25 15 27 12 29
REMARK SMILES IDX 13 30
REMARK H PARENT 1 10 23 12 21 14 19 16 9 24 17 26 15 28 13 31
REMARK Flexibility Score: inf
ROOT
ATOM      1  O   UNL     1      18.138  27.613  38.628  1.00  0.00    -0.313 OA
ENDROOT
BRANCH   1   2
ATOM      2  C   UNL     1      19.408  27.292  39.186  1.00  0.00     0.285 C 
ATOM      3  C   UNL     1      21.197  25.789  39.064  1.00  0.00     0.178 C 
ATOM      4  C   UNL     1      20.749  24.859  40.228  1.00  0.00     0.177 C 
ATOM      5  O   UNL     1      20.063  26.305  38.393  1.00  0.00    -0.341 OA
ATOM      6  C   UNL     1      19.361  25.288  40.758  1.00  0.00     0.179 C 
ATOM      7  C   UNL     1      19.180  26.815  40.653  1.00  0.00     0.202 C 
BRANCH   3   8
ATOM      8  C   UNL     1      22.123  25.101  38.051  1.00  0.00     0.191 C 
BRANCH   8   9
ATOM      9  O   UNL     1      21.410  24.170  37.286  1.00  0.00    -0.394 OA
ATOM     10  H   UNL     1      22.010  23.386  37.178  1.00  0.00     0.210 HD
ENDBRANCH   8   9
ENDBRANCH   3   8
BRANCH   4  11
ATOM     11  O   UNL     1      20.687  23.519  39.812  1.00  0.00    -0.387 OA
ATOM     12  H   UNL     1      20.248  23.010  40.542  1.00  0.00     0.211 HD
ENDBRANCH   4  11
BRANCH   6  13
ATOM     13  O   UNL     1      19.216  24.874  42.095  1.00  0.00    -0.387 OA
ATOM     14  H   UNL     1      18.256  24.675  42.246  1.00  0.00     0.211 HD
ENDBRANCH   6  13
BRANCH   7  15
ATOM     15  O   UNL     1      20.090  27.467  41.504  1.00  0.00    -0.385 OA
ATOM     16  H   UNL     1      19.611  27.660  42.351  1.00  0.00     0.211 HD
ENDBRANCH   7  15
ENDBRANCH   1   2
BRANCH   1  17
ATOM     17  C   UNL     1      18.011  28.950  38.125  1.00  0.00     0.224 C 
ATOM     18  C   UNL     1      18.145  28.913  36.575  1.00  0.00     0.208 C 
ATOM     19  O   UNL     1      19.070  29.753  38.612  1.00  0.00    -0.337 OA
ATOM     20  C   UNL     1      19.489  29.575  36.304  1.00  0.00     0.180 C 
ATOM     21  C   UNL     1      20.121  29.628  37.689  1.00  0.00     0.179 C 
BRANCH  17  22
ATOM     22  C   UNL     1      16.665  29.610  38.516  1.00  0.00     0.225 C 
BRANCH  22  23
ATOM     23  O   UNL     1      15.778  29.631  37.428  1.00  0.00    -0.391 OA
ATOM     24  H   UNL     1      14.881  29.410  37.783  1.00  0.00     0.210 HD
ENDBRANCH  22  23
ENDBRANCH  17  22
BRANCH  18  25
ATOM     25  O   UNL     1      18.144  27.590  36.096  1.00  0.00    -0.385 OA
ATOM     26  H   UNL     1      18.478  27.623  35.162  1.00  0.00     0.211 HD
ENDBRANCH  18  25
BRANCH  20  27
ATOM     27  O   UNL     1      19.323  30.856  35.739  1.00  0.00    -0.387 OA
ATOM     28  H   UNL     1      18.463  31.230  36.066  1.00  0.00     0.211 HD
ENDBRANCH  20  27
BRANCH  21  29
ATOM     29  C   UNL     1      21.131  30.768  37.874  1.00  0.00     0.191 C 
BRANCH  29  30
ATOM     30  O   UNL     1      22.017  30.803  36.787  1.00  0.00    -0.394 OA
ATOM     31  H   UNL     1      22.932  30.825  37.167  1.00  0.00     0.210 HD
ENDBRANCH  29  30
ENDBRANCH  21  29
ENDBRANCH   1  17
TORSDOF 13
ENDMDL
