MODEL 1
REMARK VINA RESULT:    -5.647      0.000      0.000
REMARK INTER + INTRA:          -6.290
REMARK INTER:                  -5.977
REMARK INTRA:                  -0.313
REMARK UNBOUND:                -0.313
REMARK SMILES CC1=CC[C@H]2[C@@H]3[C@@H](C(C)C)CC[C@@]2(C)[C@H]13
REMARK SMILES IDX 1 1 2 2 3 3 4 4 5 5 6 6 15 7 13 8 12 9 11 10 7 11 14 12 8 13
REMARK SMILES IDX 9 14 10 15
REMARK H PARENT
REMARK Flexibility Score: inf
ROOT
ATOM      1  C   UNL     1      -4.456   5.517  12.407  1.00  0.00     0.039 C 
ATOM      2  C   UNL     1      -2.990   5.361  12.684  1.00  0.00    -0.073 C 
ATOM      3  C   UNL     1      -2.244   6.401  13.137  1.00  0.00    -0.027 C 
ATOM      4  C   UNL     1      -0.747   6.187  13.385  1.00  0.00     0.031 C 
ATOM      5  C   UNL     1      -0.351   4.704  13.079  1.00  0.00     0.003 C 
ATOM      6  C   UNL     1      -1.404   3.794  13.753  1.00  0.00     0.004 C 
ATOM      7  C   UNL     1      -2.273   4.022  12.489  1.00  0.00     0.024 C 
ATOM      8  C   UNL     1      -0.940   4.226  11.729  1.00  0.00    -0.022 C 
ATOM      9  C   UNL     1      -0.305   2.850  11.357  1.00  0.00     0.008 C 
ATOM     10  C   UNL     1      -0.606   1.751  12.411  1.00  0.00     0.005 C 
ATOM     11  C   UNL     1      -0.856   2.338  13.835  1.00  0.00    -0.005 C 
ATOM     12  C   UNL     1      -0.909   5.193  10.522  1.00  0.00     0.012 C 
ENDROOT
BRANCH  11  13
ATOM     13  C   UNL     1      -1.722   1.430  14.761  1.00  0.00    -0.014 C 
ATOM     14  C   UNL     1      -1.997   0.064  14.116  1.00  0.00     0.007 C 
ATOM     15  C   UNL     1      -3.038   2.077  15.226  1.00  0.00     0.007 C 
ENDBRANCH  11  13
TORSDOF 1
ENDMDL
MODEL 2
REMARK VINA RESULT:    -5.553      1.184      2.798
REMARK INTER + INTRA:          -6.191
REMARK INTER:                  -5.914
REMARK INTRA:                  -0.276
REMARK UNBOUND:                -0.313
REMARK SMILES CC1=CC[C@H]2[C@@H]3[C@@H](C(C)C)CC[C@@]2(C)[C@H]13
REMARK SMILES IDX 1 1 2 2 3 3 4 4 5 5 6 6 15 7 13 8 12 9 11 10 7 11 14 12 8 13
REMARK SMILES IDX 9 14 10 15
REMARK H PARENT
REMARK Flexibility Score: inf
ROOT
ATOM      1  C   UNL     1      -0.520   4.945  10.407  1.00  0.00     0.039 C 
ATOM      2  C   UNL     1      -1.450   4.653  11.546  1.00  0.00    -0.073 C 
ATOM      3  C   UNL     1      -2.751   5.042  11.512  1.00  0.00    -0.027 C 
ATOM      4  C   UNL     1      -3.649   4.731  12.714  1.00  0.00     0.031 C 
ATOM      5  C   UNL     1      -2.848   3.945  13.803  1.00  0.00     0.003 C 
ATOM      6  C   UNL     1      -2.068   2.819  13.085  1.00  0.00     0.004 C 
ATOM      7  C   UNL     1      -0.984   3.887  12.788  1.00  0.00     0.024 C 
ATOM      8  C   UNL     1      -1.470   4.596  14.076  1.00  0.00    -0.022 C 
ATOM      9  C   UNL     1      -0.835   3.934  15.338  1.00  0.00     0.008 C 
ATOM     10  C   UNL     1      -0.602   2.410  15.157  1.00  0.00     0.005 C 
ATOM     11  C   UNL     1      -1.589   1.770  14.132  1.00  0.00    -0.005 C 
ATOM     12  C   UNL     1      -1.381   6.138  14.158  1.00  0.00     0.012 C 
ENDROOT
BRANCH  11  13
ATOM     13  C   UNL     1      -1.062   0.464  13.463  1.00  0.00    -0.014 C 
ATOM     14  C   UNL     1      -1.255   0.491  11.939  1.00  0.00     0.007 C 
ATOM     15  C   UNL     1      -1.650  -0.829  14.053  1.00  0.00     0.007 C 
ENDBRANCH  11  13
TORSDOF 1
ENDMDL
MODEL 3
REMARK VINA RESULT:    -5.231      1.603      4.454
REMARK INTER + INTRA:          -5.850
REMARK INTER:                  -5.548
REMARK INTRA:                  -0.303
REMARK UNBOUND:                -0.313
REMARK SMILES CC1=CC[C@H]2[C@@H]3[C@@H](C(C)C)CC[C@@]2(C)[C@H]13
REMARK SMILES IDX 1 1 2 2 3 3 4 4 5 5 6 6 15 7 13 8 12 9 11 10 7 11 14 12 8 13
REMARK SMILES IDX 9 14 10 15
REMARK H PARENT
REMARK Flexibility Score: inf
ROOT
ATOM      1  C   UNL     1      -2.932   4.534  10.652  1.00  0.00     0.039 C 
ATOM      2  C   UNL     1      -1.884   3.876  11.499  1.00  0.00    -0.073 C 
ATOM      3  C   UNL     1      -1.373   2.661  11.171  1.00  0.00    -0.027 C 
ATOM      4  C   UNL     1      -0.317   2.031  12.085  1.00  0.00     0.031 C 
ATOM      5  C   UNL     1       0.012   2.987  13.278  1.00  0.00     0.003 C 
ATOM      6  C   UNL     1       0.215   4.405  12.694  1.00  0.00     0.004 C 
ATOM      7  C   UNL     1      -1.328   4.550  12.757  1.00  0.00     0.024 C 
ATOM      8  C   UNL     1      -1.276   3.543  13.933  1.00  0.00    -0.022 C 
ATOM      9  C   UNL     1      -0.898   4.271  15.260  1.00  0.00     0.008 C 
ATOM     10  C   UNL     1       0.061   5.469  15.030  1.00  0.00     0.005 C 
ATOM     11  C   UNL     1       0.933   5.302  13.746  1.00  0.00    -0.005 C 
ATOM     12  C   UNL     1      -2.471   2.586  14.149  1.00  0.00     0.012 C 
ENDROOT
BRANCH  11  13
ATOM     13  C   UNL     1       1.438   6.644  13.134  1.00  0.00    -0.014 C 
ATOM     14  C   UNL     1       1.145   7.834  14.059  1.00  0.00     0.007 C 
ATOM     15  C   UNL     1       0.914   6.927  11.716  1.00  0.00     0.007 C 
ENDBRANCH  11  13
TORSDOF 1
ENDMDL
MODEL 4
REMARK VINA RESULT:    -5.177      0.900      4.288
REMARK INTER + INTRA:          -5.793
REMARK INTER:                  -5.573
REMARK INTRA:                  -0.220
REMARK UNBOUND:                -0.313
REMARK SMILES CC1=CC[C@H]2[C@@H]3[C@@H](C(C)C)CC[C@@]2(C)[C@H]13
REMARK SMILES IDX 1 1 2 2 3 3 4 4 5 5 6 6 15 7 13 8 12 9 11 10 7 11 14 12 8 13
REMARK SMILES IDX 9 14 10 15
REMARK H PARENT
REMARK Flexibility Score: inf
ROOT
ATOM      1  C   UNL     1      -2.101   1.390  14.836  1.00  0.00     0.039 C 
ATOM      2  C   UNL     1      -1.560   2.304  13.777  1.00  0.00    -0.073 C 
ATOM      3  C   UNL     1      -0.660   1.866  12.860  1.00  0.00    -0.027 C 
ATOM      4  C   UNL     1      -0.129   2.852  11.814  1.00  0.00     0.031 C 
ATOM      5  C   UNL     1      -0.797   4.254  11.999  1.00  0.00     0.003 C 
ATOM      6  C   UNL     1      -2.317   4.026  12.172  1.00  0.00     0.004 C 
ATOM      7  C   UNL     1      -2.011   3.764  13.670  1.00  0.00     0.024 C 
ATOM      8  C   UNL     1      -0.789   4.697  13.482  1.00  0.00    -0.022 C 
ATOM      9  C   UNL     1      -1.224   6.192  13.569  1.00  0.00     0.008 C 
ATOM     10  C   UNL     1      -2.656   6.429  13.021  1.00  0.00     0.005 C 
ATOM     11  C   UNL     1      -3.073   5.370  11.953  1.00  0.00    -0.005 C 
ATOM     12  C   UNL     1       0.481   4.440  14.326  1.00  0.00     0.012 C 
ENDROOT
BRANCH  11  13
ATOM     13  C   UNL     1      -4.612   5.168  11.814  1.00  0.00    -0.014 C 
ATOM     14  C   UNL     1      -5.042   5.084  10.342  1.00  0.00     0.007 C 
ATOM     15  C   UNL     1      -5.455   6.219  12.557  1.00  0.00     0.007 C 
ENDBRANCH  11  13
TORSDOF 1
ENDMDL
MODEL 5
REMARK VINA RESULT:    -5.056      1.486      4.144
REMARK INTER + INTRA:          -5.665
REMARK INTER:                  -5.242
REMARK INTRA:                  -0.423
REMARK UNBOUND:                -0.313
REMARK SMILES CC1=CC[C@H]2[C@@H]3[C@@H](C(C)C)CC[C@@]2(C)[C@H]13
REMARK SMILES IDX 1 1 2 2 3 3 4 4 5 5 6 6 15 7 13 8 12 9 11 10 7 11 14 12 8 13
REMARK SMILES IDX 9 14 10 15
REMARK H PARENT
REMARK Flexibility Score: inf
ROOT
ATOM      1  C   UNL     1       0.628   5.730  14.873  1.00  0.00     0.039 C 
ATOM      2  C   UNL     1      -0.438   4.739  14.513  1.00  0.00    -0.073 C 
ATOM      3  C   UNL     1      -1.003   3.939  15.454  1.00  0.00    -0.027 C 
ATOM      4  C   UNL     1      -2.075   2.932  15.023  1.00  0.00     0.031 C 
ATOM      5  C   UNL     1      -2.352   3.056  13.488  1.00  0.00     0.003 C 
ATOM      6  C   UNL     1      -2.502   4.560  13.162  1.00  0.00     0.004 C 
ATOM      7  C   UNL     1      -0.954   4.599  13.078  1.00  0.00     0.024 C 
ATOM      8  C   UNL     1      -1.036   3.106  12.675  1.00  0.00    -0.022 C 
ATOM      9  C   UNL     1      -1.371   2.966  11.157  1.00  0.00     0.008 C 
ATOM     10  C   UNL     1      -2.281   4.111  10.640  1.00  0.00     0.005 C 
ATOM     11  C   UNL     1      -3.171   4.725  11.765  1.00  0.00    -0.005 C 
ATOM     12  C   UNL     1       0.120   2.160  13.076  1.00  0.00     0.012 C 
ENDROOT
BRANCH  11  13
ATOM     13  C   UNL     1      -3.626   6.192  11.497  1.00  0.00    -0.014 C 
ATOM     14  C   UNL     1      -2.768   6.861  10.413  1.00  0.00     0.007 C 
ATOM     15  C   UNL     1      -3.683   7.075  12.755  1.00  0.00     0.007 C 
ENDBRANCH  11  13
TORSDOF 1
ENDMDL
MODEL 6
REMARK VINA RESULT:    -5.051      1.446      4.927
REMARK INTER + INTRA:          -5.659
REMARK INTER:                  -5.428
REMARK INTRA:                  -0.231
REMARK UNBOUND:                -0.313
REMARK SMILES CC1=CC[C@H]2[C@@H]3[C@@H](C(C)C)CC[C@@]2(C)[C@H]13
REMARK SMILES IDX 1 1 2 2 3 3 4 4 5 5 6 6 15 7 13 8 12 9 11 10 7 11 14 12 8 13
REMARK SMILES IDX 9 14 10 15
REMARK H PARENT
REMARK Flexibility Score: inf
ROOT
ATOM      1  C   UNL     1      -1.024   1.099  11.165  1.00  0.00     0.039 C 
ATOM      2  C   UNL     1      -0.848   2.396  11.897  1.00  0.00    -0.073 C 
ATOM      3  C   UNL     1       0.136   2.559  12.818  1.00  0.00    -0.027 C 
ATOM      4  C   UNL     1       0.255   3.901  13.547  1.00  0.00     0.031 C 
ATOM      5  C   UNL     1      -0.833   4.900  13.029  1.00  0.00     0.003 C 
ATOM      6  C   UNL     1      -0.826   4.834  11.483  1.00  0.00     0.004 C 
ATOM      7  C   UNL     1      -1.755   3.600  11.626  1.00  0.00     0.024 C 
ATOM      8  C   UNL     1      -2.229   4.233  12.957  1.00  0.00    -0.022 C 
ATOM      9  C   UNL     1      -3.303   5.332  12.690  1.00  0.00     0.008 C 
ATOM     10  C   UNL     1      -3.074   6.075  11.347  1.00  0.00     0.005 C 
ATOM     11  C   UNL     1      -1.576   6.072  10.908  1.00  0.00    -0.005 C 
ATOM     12  C   UNL     1      -2.666   3.302  14.112  1.00  0.00     0.012 C 
ENDROOT
BRANCH  11  13
ATOM     13  C   UNL     1      -1.356   6.236   9.373  1.00  0.00    -0.014 C 
ATOM     14  C   UNL     1       0.128   6.439   9.033  1.00  0.00     0.007 C 
ATOM     15  C   UNL     1      -2.208   7.344   8.729  1.00  0.00     0.007 C 
ENDBRANCH  11  13
TORSDOF 1
ENDMDL
MODEL 7
REMARK VINA RESULT:    -4.746      2.043      4.780
REMARK INTER + INTRA:          -5.336
REMARK INTER:                  -5.123
REMARK INTRA:                  -0.214
REMARK UNBOUND:                -0.313
REMARK SMILES CC1=CC[C@H]2[C@@H]3[C@@H](C(C)C)CC[C@@]2(C)[C@H]13
REMARK SMILES IDX 1 1 2 2 3 3 4 4 5 5 6 6 15 7 13 8 12 9 11 10 7 11 14 12 8 13
REMARK SMILES IDX 9 14 10 15
REMARK H PARENT
REMARK Flexibility Score: inf
ROOT
ATOM      1  C   UNL     1      -0.264   1.956  11.627  1.00  0.00     0.039 C 
ATOM      2  C   UNL     1      -0.538   2.632  12.937  1.00  0.00    -0.073 C 
ATOM      3  C   UNL     1      -0.942   1.926  14.024  1.00  0.00    -0.027 C 
ATOM      4  C   UNL     1      -1.224   2.675  15.331  1.00  0.00     0.031 C 
ATOM      5  C   UNL     1      -0.940   4.203  15.155  1.00  0.00     0.003 C 
ATOM      6  C   UNL     1       0.425   4.343  14.441  1.00  0.00     0.004 C 
ATOM      7  C   UNL     1      -0.355   4.143  13.115  1.00  0.00     0.024 C 
ATOM      8  C   UNL     1      -1.572   4.753  13.853  1.00  0.00    -0.022 C 
ATOM      9  C   UNL     1      -1.483   6.310  13.863  1.00  0.00     0.008 C 
ATOM     10  C   UNL     1      -0.019   6.822  13.921  1.00  0.00     0.005 C 
ATOM     11  C   UNL     1       0.947   5.802  14.601  1.00  0.00    -0.005 C 
ATOM     12  C   UNL     1      -2.993   4.283  13.463  1.00  0.00     0.012 C 
ENDROOT
BRANCH  11  13
ATOM     13  C   UNL     1       2.439   5.947  14.173  1.00  0.00    -0.014 C 
ATOM     14  C   UNL     1       3.394   5.612  15.329  1.00  0.00     0.007 C 
ATOM     15  C   UNL     1       2.792   7.317  13.568  1.00  0.00     0.007 C 
ENDBRANCH  11  13
TORSDOF 1
ENDMDL
MODEL 8
REMARK VINA RESULT:    -4.699      2.299      3.848
REMARK INTER + INTRA:          -5.287
REMARK INTER:                  -4.861
REMARK INTRA:                  -0.427
REMARK UNBOUND:                -0.313
REMARK SMILES CC1=CC[C@H]2[C@@H]3[C@@H](C(C)C)CC[C@@]2(C)[C@H]13
REMARK SMILES IDX 1 1 2 2 3 3 4 4 5 5 6 6 15 7 13 8 12 9 11 10 7 11 14 12 8 13
REMARK SMILES IDX 9 14 10 15
REMARK H PARENT
REMARK Flexibility Score: inf
ROOT
ATOM      1  C   UNL     1      -1.366   2.657  10.756  1.00  0.00     0.039 C 
ATOM      2  C   UNL     1      -1.603   4.120  10.986  1.00  0.00    -0.073 C 
ATOM      3  C   UNL     1      -2.809   4.688  10.729  1.00  0.00    -0.027 C 
ATOM      4  C   UNL     1      -2.986   6.191  10.966  1.00  0.00     0.031 C 
ATOM      5  C   UNL     1      -1.664   6.813  11.527  1.00  0.00     0.003 C 
ATOM      6  C   UNL     1      -1.159   5.887  12.658  1.00  0.00     0.004 C 
ATOM      7  C   UNL     1      -0.505   5.034  11.539  1.00  0.00     0.024 C 
ATOM      8  C   UNL     1      -0.429   6.346  10.719  1.00  0.00    -0.022 C 
ATOM      9  C   UNL     1       0.810   7.191  11.152  1.00  0.00     0.008 C 
ATOM     10  C   UNL     1       1.148   7.023  12.657  1.00  0.00     0.005 C 
ATOM     11  C   UNL     1      -0.100   6.643  13.514  1.00  0.00    -0.005 C 
ATOM     12  C   UNL     1      -0.535   6.270   9.178  1.00  0.00     0.012 C 
ENDROOT
BRANCH  11  13
ATOM     13  C   UNL     1       0.234   5.894  14.840  1.00  0.00    -0.014 C 
ATOM     14  C   UNL     1       1.629   5.253  14.790  1.00  0.00     0.007 C 
ATOM     15  C   UNL     1      -0.818   4.853  15.258  1.00  0.00     0.007 C 
ENDBRANCH  11  13
TORSDOF 1
ENDMDL
MODEL 9
REMARK VINA RESULT:    -4.669      1.410      2.548
REMARK INTER + INTRA:          -5.256
REMARK INTER:                  -5.020
REMARK INTRA:                  -0.235
REMARK UNBOUND:                -0.313
REMARK SMILES CC1=CC[C@H]2[C@@H]3[C@@H](C(C)C)CC[C@@]2(C)[C@H]13
REMARK SMILES IDX 1 1 2 2 3 3 4 4 5 5 6 6 15 7 13 8 12 9 11 10 7 11 14 12 8 13
REMARK SMILES IDX 9 14 10 15
REMARK H PARENT
REMARK Flexibility Score: inf
ROOT
ATOM      1  C   UNL     1      -5.694   4.784  10.221  1.00  0.00     0.039 C 
ATOM      2  C   UNL     1      -4.507   5.275  10.996  1.00  0.00    -0.073 C 
ATOM      3  C   UNL     1      -4.627   6.264  11.918  1.00  0.00    -0.027 C 
ATOM      4  C   UNL     1      -3.375   6.736  12.666  1.00  0.00     0.031 C 
ATOM      5  C   UNL     1      -2.127   5.908  12.213  1.00  0.00     0.003 C 
ATOM      6  C   UNL     1      -2.534   4.416  12.214  1.00  0.00     0.004 C 
ATOM      7  C   UNL     1      -3.113   4.671  10.798  1.00  0.00     0.024 C 
ATOM      8  C   UNL     1      -2.051   5.790  10.671  1.00  0.00    -0.022 C 
ATOM      9  C   UNL     1      -0.666   5.190  10.275  1.00  0.00     0.008 C 
ATOM     10  C   UNL     1      -0.444   3.770  10.861  1.00  0.00     0.005 C 
ATOM     11  C   UNL     1      -1.254   3.529  12.174  1.00  0.00    -0.005 C 
ATOM     12  C   UNL     1      -2.378   7.037   9.816  1.00  0.00     0.012 C 
ENDROOT
BRANCH  11  13
ATOM     13  C   UNL     1      -1.563   2.030  12.472  1.00  0.00    -0.014 C 
ATOM     14  C   UNL     1      -1.028   1.605  13.847  1.00  0.00     0.007 C 
ATOM     15  C   UNL     1      -1.075   1.057  11.384  1.00  0.00     0.007 C 
ENDBRANCH  11  13
TORSDOF 1
ENDMDL
