MODEL 1
REMARK VINA RESULT:     3.058      0.000      0.000
REMARK INTER + INTRA:           3.442
REMARK INTER:                   4.130
REMARK INTRA:                  -0.688
REMARK UNBOUND:                -0.688
REMARK SMILES CC[C@H](CC[C@@H](C)[C@@H]1CC[C@H]2[C@H]3CC(=O)C4=CC(=O)CC[C@]4(C)[C@H]3CC[C@]21C)C(C)C
REMARK SMILES IDX 4 1 3 2 2 3 1 4 29 5 30 6 31 7 5 8 6 9 7 10 8 11 9 12 27 13
REMARK SMILES IDX 10 14 11 15 26 16 28 17 12 18 25 19 24 20 13 21 22 22 14 23
REMARK SMILES IDX 16 24 21 25 23 26 15 27 17 28 20 29 18 30 19 31
REMARK H PARENT
REMARK Flexibility Score: inf
ROOT
ATOM      1  C   UNL     1      -2.963  19.107  56.112  1.00  0.00     0.004 C 
ENDROOT
BRANCH   1   2
ATOM      2  C   UNL     1      -2.674  20.625  55.879  1.00  0.00    -0.009 C 
BRANCH   2   3
ATOM      3  C   UNL     1      -1.282  20.805  55.208  1.00  0.00     0.000 C 
ATOM      4  C   UNL     1      -0.332  21.772  55.926  1.00  0.00     0.004 C 
ENDBRANCH   2   3
BRANCH   2   5
ATOM      5  C   UNL     1      -3.849  21.360  55.144  1.00  0.00    -0.014 C 
ATOM      6  C   UNL     1      -3.397  22.686  54.494  1.00  0.00     0.007 C 
ATOM      7  C   UNL     1      -4.998  21.684  56.125  1.00  0.00     0.007 C 
ENDBRANCH   2   5
ENDBRANCH   1   2
BRANCH   1   8
ATOM      8  C   UNL     1      -4.440  18.746  55.815  1.00  0.00     0.004 C 
BRANCH   8   9
ATOM      9  C   UNL     1      -4.653  17.214  55.635  1.00  0.00    -0.011 C 
ATOM     10  C   UNL     1      -6.047  16.801  56.125  1.00  0.00     0.008 C 
BRANCH   9  11
ATOM     11  C   UNL     1      -4.324  16.604  54.225  1.00  0.00    -0.002 C 
ATOM     12  C   UNL     1      -5.174  15.387  53.883  1.00  0.00     0.005 C 
ATOM     13  C   UNL     1      -2.865  16.244  53.788  1.00  0.00    -0.026 C 
ATOM     14  C   UNL     1      -4.593  14.875  52.576  1.00  0.00     0.005 C 
ATOM     15  C   UNL     1      -3.102  15.253  52.594  1.00  0.00    -0.001 C 
ATOM     16  C   UNL     1      -2.065  17.524  53.390  1.00  0.00     0.007 C 
ATOM     17  C   UNL     1      -2.065  15.506  54.890  1.00  0.00     0.012 C 
ATOM     18  C   UNL     1      -2.538  15.713  51.219  1.00  0.00     0.004 C 
ATOM     19  C   UNL     1      -0.927  17.328  52.360  1.00  0.00     0.005 C 
ATOM     20  C   UNL     1      -1.053  16.100  51.405  1.00  0.00     0.003 C 
ATOM     21  C   UNL     1      -3.337  16.831  50.490  1.00  0.00     0.085 C 
ATOM     22  C   UNL     1      -0.318  16.274  50.014  1.00  0.00    -0.000 C 
ATOM     23  C   UNL     1      -2.520  17.537  49.442  1.00  0.00     0.159 C 
ATOM     24  C   UNL     1      -1.231  16.966  49.002  1.00  0.00     0.005 C 
ATOM     25  C   UNL     1       0.062  14.877  49.436  1.00  0.00     0.020 C 
ATOM     26  C   UNL     1       0.990  17.107  50.185  1.00  0.00     0.017 C 
ATOM     27  O   UNL     1      -2.984  18.566  48.878  1.00  0.00    -0.295 OA
ATOM     28  C   UNL     1      -0.939  16.929  47.691  1.00  0.00     0.055 C 
ATOM     29  C   UNL     1       0.703  14.956  48.036  1.00  0.00     0.081 C 
ATOM     30  C   UNL     1       0.094  16.025  47.169  1.00  0.00     0.156 C 
ATOM     31  O   UNL     1       0.484  16.145  45.978  1.00  0.00    -0.295 OA
ENDBRANCH   9  11
ENDBRANCH   8   9
ENDBRANCH   1   8
TORSDOF 6
ENDMDL
MODEL 2
REMARK VINA RESULT:     3.608      3.071      8.470
REMARK INTER + INTRA:           4.186
REMARK INTER:                   2.410
REMARK INTRA:                   1.776
REMARK UNBOUND:                -0.688
REMARK SMILES CC[C@H](CC[C@@H](C)[C@@H]1CC[C@H]2[C@H]3CC(=O)C4=CC(=O)CC[C@]4(C)[C@H]3CC[C@]21C)C(C)C
REMARK SMILES IDX 4 1 3 2 2 3 1 4 29 5 30 6 31 7 5 8 6 9 7 10 8 11 9 12 27 13
REMARK SMILES IDX 10 14 11 15 26 16 28 17 12 18 25 19 24 20 13 21 22 22 14 23
REMARK SMILES IDX 16 24 21 25 23 26 15 27 17 28 20 29 18 30 19 31
REMARK H PARENT
REMARK Flexibility Score: inf
ROOT
ATOM      1  C   UNL     1       3.214  15.753  46.586  1.00  0.00     0.004 C 
ENDROOT
BRANCH   1   2
ATOM      2  C   UNL     1       4.238  16.888  46.909  1.00  0.00    -0.009 C 
BRANCH   2   3
ATOM      3  C   UNL     1       5.265  16.393  47.967  1.00  0.00     0.000 C 
ATOM      4  C   UNL     1       5.543  17.373  49.114  1.00  0.00     0.004 C 
ENDBRANCH   2   3
BRANCH   2   5
ATOM      5  C   UNL     1       4.882  17.507  45.619  1.00  0.00    -0.014 C 
ATOM      6  C   UNL     1       5.399  18.943  45.853  1.00  0.00     0.007 C 
ATOM      7  C   UNL     1       3.862  17.557  44.461  1.00  0.00     0.007 C 
ENDBRANCH   2   5
ENDBRANCH   1   2
BRANCH   1   8
ATOM      8  C   UNL     1       1.805  16.068  47.147  1.00  0.00     0.004 C 
BRANCH   8   9
ATOM      9  C   UNL     1       1.654  15.660  48.643  1.00  0.00    -0.011 C 
ATOM     10  C   UNL     1       3.011  15.716  49.357  1.00  0.00     0.008 C 
BRANCH   9  11
ATOM     11  C   UNL     1       0.527  16.375  49.471  1.00  0.00    -0.002 C 
ATOM     12  C   UNL     1       0.364  17.848  49.119  1.00  0.00     0.005 C 
ATOM     13  C   UNL     1       0.457  16.298  51.032  1.00  0.00    -0.026 C 
ATOM     14  C   UNL     1      -0.646  18.369  50.126  1.00  0.00     0.005 C 
ATOM     15  C   UNL     1      -0.467  17.514  51.393  1.00  0.00    -0.001 C 
ATOM     16  C   UNL     1      -0.109  14.921  51.504  1.00  0.00     0.007 C 
ATOM     17  C   UNL     1       1.833  16.504  51.713  1.00  0.00     0.012 C 
ATOM     18  C   UNL     1      -1.794  17.156  52.122  1.00  0.00     0.004 C 
ATOM     19  C   UNL     1      -0.841  14.910  52.866  1.00  0.00     0.005 C 
ATOM     20  C   UNL     1      -1.456  16.264  53.339  1.00  0.00     0.003 C 
ATOM     21  C   UNL     1      -2.912  16.529  51.241  1.00  0.00     0.085 C 
ATOM     22  C   UNL     1      -2.696  16.116  54.312  1.00  0.00    -0.000 C 
ATOM     23  C   UNL     1      -3.947  15.798  52.053  1.00  0.00     0.159 C 
ATOM     24  C   UNL     1      -3.994  15.974  53.519  1.00  0.00     0.005 C 
ATOM     25  C   UNL     1      -2.822  17.385  55.209  1.00  0.00     0.020 C 
ATOM     26  C   UNL     1      -2.518  14.875  55.241  1.00  0.00     0.017 C 
ATOM     27  O   UNL     1      -4.826  15.109  51.466  1.00  0.00    -0.295 OA
ATOM     28  C   UNL     1      -5.180  16.154  54.122  1.00  0.00     0.055 C 
ATOM     29  C   UNL     1      -4.062  17.357  56.125  1.00  0.00     0.081 C 
ATOM     30  C   UNL     1      -5.266  16.737  55.468  1.00  0.00     0.156 C 
ATOM     31  O   UNL     1      -6.362  16.717  56.088  1.00  0.00    -0.295 OA
ENDBRANCH   9  11
ENDBRANCH   8   9
ENDBRANCH   1   8
TORSDOF 6
ENDMDL
