MODEL 1
REMARK VINA RESULT:    -5.898      0.000      0.000
REMARK INTER + INTRA:          -8.057
REMARK INTER:                  -7.449
REMARK INTRA:                  -0.608
REMARK UNBOUND:                -0.608
REMARK SMILES O=C(C=Cc1ccc(O)cc1)c1ccc(O)cc1O
REMARK SMILES IDX 4 1 3 2 5 3 6 4 7 5 8 6 11 7 10 8 9 9 2 11 1 12 12 13 18 14
REMARK SMILES IDX 13 15 17 16 14 17 15 18 19 19 16 21
REMARK H PARENT 9 10 19 20 16 22
REMARK Flexibility Score: inf
ROOT
ATOM      1  C   UNL     1       5.652 -62.459  -8.251  1.00  0.00     0.012 C 
ATOM      2  C   UNL     1       6.945 -62.246  -8.537  1.00  0.00     0.053 C 
ENDROOT
BRANCH   1   3
ATOM      3  C   UNL     1       4.741 -61.409  -7.735  1.00  0.00    -0.025 A 
ATOM      4  C   UNL     1       3.975 -60.586  -8.585  1.00  0.00     0.012 A 
ATOM      5  C   UNL     1       3.119 -59.617  -8.050  1.00  0.00     0.047 A 
ATOM      6  C   UNL     1       3.007 -59.463  -6.665  1.00  0.00     0.115 A 
ATOM      7  C   UNL     1       4.609 -61.256  -6.344  1.00  0.00     0.012 A 
ATOM      8  C   UNL     1       3.753 -60.287  -5.812  1.00  0.00     0.047 A 
BRANCH   6   9
ATOM      9  O   UNL     1       2.153 -58.493  -6.148  1.00  0.00    -0.508 OA
ATOM     10  H   UNL     1       2.247 -57.515  -6.400  1.00  0.00     0.293 HD
ENDBRANCH   6   9
ENDBRANCH   1   3
BRANCH   2  11
ATOM     11  C   UNL     1       7.829 -63.324  -9.035  1.00  0.00     0.189 C 
ATOM     12  O   UNL     1       8.598 -63.926  -8.237  1.00  0.00    -0.289 OA
BRANCH  11  13
ATOM     13  C   UNL     1       7.865 -63.678 -10.473  1.00  0.00     0.064 A 
ATOM     14  C   UNL     1       8.251 -64.965 -10.914  1.00  0.00     0.130 A 
ATOM     15  C   UNL     1       7.532 -62.701 -11.427  1.00  0.00     0.020 A 
ATOM     16  C   UNL     1       8.257 -65.261 -12.285  1.00  0.00     0.093 A 
ATOM     17  C   UNL     1       7.547 -63.003 -12.791  1.00  0.00     0.047 A 
ATOM     18  C   UNL     1       7.905 -64.282 -13.224  1.00  0.00     0.119 A 
BRANCH  14  19
ATOM     19  O   UNL     1       8.653 -65.938  -9.999  1.00  0.00    -0.507 OA
ATOM     20  H   UNL     1       8.868 -66.884 -10.288  1.00  0.00     0.293 HD
ENDBRANCH  14  19
BRANCH  18  21
ATOM     21  O   UNL     1       7.911 -64.571 -14.587  1.00  0.00    -0.508 OA
ATOM     22  H   UNL     1       7.079 -64.895 -15.064  1.00  0.00     0.293 HD
ENDBRANCH  18  21
ENDBRANCH  11  13
ENDBRANCH   2  11
TORSDOF 6
ENDMDL
MODEL 2
REMARK VINA RESULT:    -5.869      1.969      7.732
REMARK INTER + INTRA:          -8.021
REMARK INTER:                  -7.452
REMARK INTRA:                  -0.569
REMARK UNBOUND:                -0.608
REMARK SMILES O=C(C=Cc1ccc(O)cc1)c1ccc(O)cc1O
REMARK SMILES IDX 4 1 3 2 5 3 6 4 7 5 8 6 11 7 10 8 9 9 2 11 1 12 12 13 18 14
REMARK SMILES IDX 13 15 17 16 14 17 15 18 19 19 16 21
REMARK H PARENT 9 10 19 20 16 22
REMARK Flexibility Score: inf
ROOT
ATOM      1  C   UNL     1       7.310 -62.450 -10.686  1.00  0.00     0.012 C 
ATOM      2  C   UNL     1       6.682 -61.976  -9.600  1.00  0.00     0.053 C 
ENDROOT
BRANCH   1   3
ATOM      3  C   UNL     1       7.980 -63.772 -10.736  1.00  0.00    -0.025 A 
ATOM      4  C   UNL     1       8.656 -64.322  -9.627  1.00  0.00     0.012 A 
ATOM      5  C   UNL     1       9.262 -65.579  -9.720  1.00  0.00     0.047 A 
ATOM      6  C   UNL     1       9.194 -66.308 -10.910  1.00  0.00     0.115 A 
ATOM      7  C   UNL     1       7.904 -64.521 -11.923  1.00  0.00     0.012 A 
ATOM      8  C   UNL     1       8.512 -65.777 -12.012  1.00  0.00     0.047 A 
BRANCH   6   9
ATOM      9  O   UNL     1       9.804 -67.558 -10.986  1.00  0.00    -0.508 OA
ATOM     10  H   UNL     1       9.877 -68.059 -11.865  1.00  0.00     0.293 HD
ENDBRANCH   6   9
ENDBRANCH   1   3
BRANCH   2  11
ATOM     11  C   UNL     1       6.038 -60.644  -9.582  1.00  0.00     0.189 C 
ATOM     12  O   UNL     1       6.348 -59.783 -10.451  1.00  0.00    -0.289 OA
BRANCH  11  13
ATOM     13  C   UNL     1       5.065 -60.279  -8.526  1.00  0.00     0.064 A 
ATOM     14  C   UNL     1       3.701 -60.050  -8.816  1.00  0.00     0.130 A 
ATOM     15  C   UNL     1       5.516 -60.132  -7.203  1.00  0.00     0.020 A 
ATOM     16  C   UNL     1       2.813 -59.721  -7.781  1.00  0.00     0.093 A 
ATOM     17  C   UNL     1       4.625 -59.798  -6.180  1.00  0.00     0.047 A 
ATOM     18  C   UNL     1       3.273 -59.596  -6.464  1.00  0.00     0.119 A 
BRANCH  14  19
ATOM     19  O   UNL     1       3.233 -60.120 -10.128  1.00  0.00    -0.507 OA
ATOM     20  H   UNL     1       2.362 -60.584 -10.358  1.00  0.00     0.293 HD
ENDBRANCH  14  19
BRANCH  18  21
ATOM     21  O   UNL     1       2.395 -59.267  -5.433  1.00  0.00    -0.508 OA
ATOM     22  H   UNL     1       1.484 -59.702  -5.354  1.00  0.00     0.293 HD
ENDBRANCH  18  21
ENDBRANCH  11  13
ENDBRANCH   2  11
TORSDOF 6
ENDMDL
MODEL 3
REMARK VINA RESULT:    -5.626      1.715      7.401
REMARK INTER + INTRA:          -7.714
REMARK INTER:                  -7.070
REMARK INTRA:                  -0.644
REMARK UNBOUND:                -0.608
REMARK SMILES O=C(C=Cc1ccc(O)cc1)c1ccc(O)cc1O
REMARK SMILES IDX 4 1 3 2 5 3 6 4 7 5 8 6 11 7 10 8 9 9 2 11 1 12 12 13 18 14
REMARK SMILES IDX 13 15 17 16 14 17 15 18 19 19 16 21
REMARK H PARENT 9 10 19 20 16 22
REMARK Flexibility Score: inf
ROOT
ATOM      1  C   UNL     1       7.242 -62.298  -8.961  1.00  0.00     0.012 C 
ATOM      2  C   UNL     1       6.034 -62.404  -8.389  1.00  0.00     0.053 C 
ENDROOT
BRANCH   1   3
ATOM      3  C   UNL     1       7.823 -63.332  -9.853  1.00  0.00    -0.025 A 
ATOM      4  C   UNL     1       8.614 -64.393  -9.368  1.00  0.00     0.012 A 
ATOM      5  C   UNL     1       9.129 -65.351 -10.248  1.00  0.00     0.047 A 
ATOM      6  C   UNL     1       8.855 -65.271 -11.616  1.00  0.00     0.115 A 
ATOM      7  C   UNL     1       7.539 -63.270 -11.228  1.00  0.00     0.012 A 
ATOM      8  C   UNL     1       8.056 -64.229 -12.104  1.00  0.00     0.047 A 
BRANCH   6   9
ATOM      9  O   UNL     1       9.376 -66.232 -12.479  1.00  0.00    -0.508 OA
ATOM     10  H   UNL     1       9.441 -66.067 -13.477  1.00  0.00     0.293 HD
ENDBRANCH   6   9
ENDBRANCH   1   3
BRANCH   2  11
ATOM     11  C   UNL     1       5.494 -61.360  -7.491  1.00  0.00     0.189 C 
ATOM     12  O   UNL     1       5.967 -61.224  -6.328  1.00  0.00    -0.289 OA
BRANCH  11  13
ATOM     13  C   UNL     1       4.367 -60.496  -7.913  1.00  0.00     0.064 A 
ATOM     14  C   UNL     1       3.377 -60.063  -7.001  1.00  0.00     0.130 A 
ATOM     15  C   UNL     1       4.264 -60.118  -9.263  1.00  0.00     0.020 A 
ATOM     16  C   UNL     1       2.335 -59.234  -7.443  1.00  0.00     0.093 A 
ATOM     17  C   UNL     1       3.219 -59.298  -9.695  1.00  0.00     0.047 A 
ATOM     18  C   UNL     1       2.256 -58.850  -8.788  1.00  0.00     0.119 A 
BRANCH  14  19
ATOM     19  O   UNL     1       3.410 -60.475  -5.669  1.00  0.00    -0.507 OA
ATOM     20  H   UNL     1       2.791 -61.196  -5.319  1.00  0.00     0.293 HD
ENDBRANCH  14  19
BRANCH  18  21
ATOM     21  O   UNL     1       1.221 -58.029  -9.232  1.00  0.00    -0.508 OA
ATOM     22  H   UNL     1       0.518 -58.365  -9.878  1.00  0.00     0.293 HD
ENDBRANCH  18  21
ENDBRANCH  11  13
ENDBRANCH   2  11
TORSDOF 6
ENDMDL
MODEL 4
REMARK VINA RESULT:    -5.582     11.835     14.123
REMARK INTER + INTRA:          -7.658
REMARK INTER:                  -7.077
REMARK INTRA:                  -0.581
REMARK UNBOUND:                -0.608
REMARK SMILES O=C(C=Cc1ccc(O)cc1)c1ccc(O)cc1O
REMARK SMILES IDX 4 1 3 2 5 3 6 4 7 5 8 6 11 7 10 8 9 9 2 11 1 12 12 13 18 14
REMARK SMILES IDX 13 15 17 16 14 17 15 18 19 19 16 21
REMARK H PARENT 9 10 19 20 16 22
REMARK Flexibility Score: inf
ROOT
ATOM      1  C   UNL     1      -1.969 -50.861 -10.797  1.00  0.00     0.012 C 
ATOM      2  C   UNL     1      -2.541 -50.390 -11.914  1.00  0.00     0.053 C 
ENDROOT
BRANCH   1   3
ATOM      3  C   UNL     1      -1.889 -50.096  -9.528  1.00  0.00    -0.025 A 
ATOM      4  C   UNL     1      -2.174 -48.718  -9.455  1.00  0.00     0.012 A 
ATOM      5  C   UNL     1      -2.098 -48.043  -8.233  1.00  0.00     0.047 A 
ATOM      6  C   UNL     1      -1.747 -48.731  -7.068  1.00  0.00     0.115 A 
ATOM      7  C   UNL     1      -1.553 -50.782  -8.348  1.00  0.00     0.012 A 
ATOM      8  C   UNL     1      -1.477 -50.104  -7.128  1.00  0.00     0.047 A 
BRANCH   6   9
ATOM      9  O   UNL     1      -1.673 -48.044  -5.859  1.00  0.00    -0.508 OA
ATOM     10  H   UNL     1      -2.321 -47.297  -5.634  1.00  0.00     0.293 HD
ENDBRANCH   6   9
ENDBRANCH   1   3
BRANCH   2  11
ATOM     11  C   UNL     1      -2.588 -51.176 -13.167  1.00  0.00     0.189 C 
ATOM     12  O   UNL     1      -2.829 -50.599 -14.263  1.00  0.00    -0.289 OA
BRANCH  11  13
ATOM     13  C   UNL     1      -2.405 -52.646 -13.153  1.00  0.00     0.064 A 
ATOM     14  C   UNL     1      -1.126 -53.239 -13.261  1.00  0.00     0.130 A 
ATOM     15  C   UNL     1      -3.536 -53.475 -13.058  1.00  0.00     0.020 A 
ATOM     16  C   UNL     1      -0.999 -54.636 -13.229  1.00  0.00     0.093 A 
ATOM     17  C   UNL     1      -3.400 -54.865 -13.034  1.00  0.00     0.047 A 
ATOM     18  C   UNL     1      -2.134 -55.449 -13.115  1.00  0.00     0.119 A 
BRANCH  14  19
ATOM     19  O   UNL     1       0.011 -52.448 -13.426  1.00  0.00    -0.507 OA
ATOM     20  H   UNL     1       0.943 -52.820 -13.284  1.00  0.00     0.293 HD
ENDBRANCH  14  19
BRANCH  18  21
ATOM     21  O   UNL     1      -2.013 -56.837 -13.085  1.00  0.00    -0.508 OA
ATOM     22  H   UNL     1      -2.050 -57.353 -12.215  1.00  0.00     0.293 HD
ENDBRANCH  18  21
ENDBRANCH  11  13
ENDBRANCH   2  11
TORSDOF 6
ENDMDL
MODEL 5
REMARK VINA RESULT:    -5.579      1.950      7.699
REMARK INTER + INTRA:          -7.655
REMARK INTER:                  -7.258
REMARK INTRA:                  -0.396
REMARK UNBOUND:                -0.608
REMARK SMILES O=C(C=Cc1ccc(O)cc1)c1ccc(O)cc1O
REMARK SMILES IDX 4 1 3 2 5 3 6 4 7 5 8 6 11 7 10 8 9 9 2 11 1 12 12 13 18 14
REMARK SMILES IDX 13 15 17 16 14 17 15 18 19 19 16 21
REMARK H PARENT 9 10 19 20 16 22
REMARK Flexibility Score: inf
ROOT
ATOM      1  C   UNL     1       6.882 -61.567  -9.578  1.00  0.00     0.012 C 
ATOM      2  C   UNL     1       5.788 -61.529  -8.804  1.00  0.00     0.053 C 
ENDROOT
BRANCH   1   3
ATOM      3  C   UNL     1       7.630 -62.811  -9.885  1.00  0.00    -0.025 A 
ATOM      4  C   UNL     1       8.177 -63.633  -8.879  1.00  0.00     0.012 A 
ATOM      5  C   UNL     1       8.863 -64.804  -9.217  1.00  0.00     0.047 A 
ATOM      6  C   UNL     1       9.002 -65.178 -10.557  1.00  0.00     0.115 A 
ATOM      7  C   UNL     1       7.762 -63.204 -11.228  1.00  0.00     0.012 A 
ATOM      8  C   UNL     1       8.448 -64.375 -11.562  1.00  0.00     0.047 A 
BRANCH   6   9
ATOM      9  O   UNL     1       9.689 -66.346 -10.878  1.00  0.00    -0.508 OA
ATOM     10  H   UNL     1       9.209 -67.155 -11.256  1.00  0.00     0.293 HD
ENDBRANCH   6   9
ENDBRANCH   1   3
BRANCH   2  11
ATOM     11  C   UNL     1       5.078 -60.265  -8.507  1.00  0.00     0.189 C 
ATOM     12  O   UNL     1       5.632 -59.159  -8.754  1.00  0.00    -0.289 OA
BRANCH  11  13
ATOM     13  C   UNL     1       3.739 -60.272  -7.872  1.00  0.00     0.064 A 
ATOM     14  C   UNL     1       2.570 -60.588  -8.601  1.00  0.00     0.130 A 
ATOM     15  C   UNL     1       3.625 -59.929  -6.513  1.00  0.00     0.020 A 
ATOM     16  C   UNL     1       1.325 -60.596  -7.954  1.00  0.00     0.093 A 
ATOM     17  C   UNL     1       2.380 -59.933  -5.880  1.00  0.00     0.047 A 
ATOM     18  C   UNL     1       1.229 -60.270  -6.596  1.00  0.00     0.119 A 
BRANCH  14  19
ATOM     19  O   UNL     1       2.638 -60.867  -9.966  1.00  0.00    -0.507 OA
ATOM     20  H   UNL     1       2.453 -61.794 -10.330  1.00  0.00     0.293 HD
ENDBRANCH  14  19
BRANCH  18  21
ATOM     21  O   UNL     1      -0.006 -60.275  -5.950  1.00  0.00    -0.508 OA
ATOM     22  H   UNL     1      -0.528 -61.131  -5.810  1.00  0.00     0.293 HD
ENDBRANCH  18  21
ENDBRANCH  11  13
ENDBRANCH   2  11
TORSDOF 6
ENDMDL
MODEL 6
REMARK VINA RESULT:    -5.506      1.762      7.346
REMARK INTER + INTRA:          -7.562
REMARK INTER:                  -6.931
REMARK INTRA:                  -0.632
REMARK UNBOUND:                -0.608
REMARK SMILES O=C(C=Cc1ccc(O)cc1)c1ccc(O)cc1O
REMARK SMILES IDX 4 1 3 2 5 3 6 4 7 5 8 6 11 7 10 8 9 9 2 11 1 12 12 13 18 14
REMARK SMILES IDX 13 15 17 16 14 17 15 18 19 19 16 21
REMARK H PARENT 9 10 19 20 16 22
REMARK Flexibility Score: inf
ROOT
ATOM      1  C   UNL     1       6.495 -61.277  -8.713  1.00  0.00     0.012 C 
ATOM      2  C   UNL     1       5.546 -61.469  -7.785  1.00  0.00     0.053 C 
ENDROOT
BRANCH   1   3
ATOM      3  C   UNL     1       7.279 -62.376  -9.327  1.00  0.00    -0.025 A 
ATOM      4  C   UNL     1       7.489 -62.471 -10.718  1.00  0.00     0.012 A 
ATOM      5  C   UNL     1       8.247 -63.519 -11.249  1.00  0.00     0.047 A 
ATOM      6  C   UNL     1       8.813 -64.478 -10.405  1.00  0.00     0.115 A 
ATOM      7  C   UNL     1       7.866 -63.336  -8.485  1.00  0.00     0.012 A 
ATOM      8  C   UNL     1       8.623 -64.383  -9.020  1.00  0.00     0.047 A 
BRANCH   6   9
ATOM      9  O   UNL     1       9.564 -65.517 -10.949  1.00  0.00    -0.508 OA
ATOM     10  H   UNL     1       9.128 -66.265 -11.477  1.00  0.00     0.293 HD
ENDBRANCH   6   9
ENDBRANCH   1   3
BRANCH   2  11
ATOM     11  C   UNL     1       4.796 -60.346  -7.182  1.00  0.00     0.189 C 
ATOM     12  O   UNL     1       5.228 -59.789  -6.135  1.00  0.00    -0.289 OA
BRANCH  11  13
ATOM     13  C   UNL     1       3.509 -59.890  -7.758  1.00  0.00     0.064 A 
ATOM     14  C   UNL     1       2.281 -60.079  -7.083  1.00  0.00     0.130 A 
ATOM     15  C   UNL     1       3.505 -59.275  -9.022  1.00  0.00     0.020 A 
ATOM     16  C   UNL     1       1.088 -59.618  -7.660  1.00  0.00     0.093 A 
ATOM     17  C   UNL     1       2.311 -58.825  -9.591  1.00  0.00     0.047 A 
ATOM     18  C   UNL     1       1.102 -58.991  -8.912  1.00  0.00     0.119 A 
BRANCH  14  19
ATOM     19  O   UNL     1       2.240 -60.746  -5.858  1.00  0.00    -0.507 OA
ATOM     20  H   UNL     1       3.075 -60.890  -5.302  1.00  0.00     0.293 HD
ENDBRANCH  14  19
BRANCH  18  21
ATOM     21  O   UNL     1      -0.080 -58.533  -9.490  1.00  0.00    -0.508 OA
ATOM     22  H   UNL     1      -0.242 -58.598 -10.488  1.00  0.00     0.293 HD
ENDBRANCH  18  21
ENDBRANCH  11  13
ENDBRANCH   2  11
TORSDOF 6
ENDMDL
MODEL 7
REMARK VINA RESULT:    -5.447      2.371      3.256
REMARK INTER + INTRA:          -7.488
REMARK INTER:                  -6.849
REMARK INTRA:                  -0.639
REMARK UNBOUND:                -0.608
REMARK SMILES O=C(C=Cc1ccc(O)cc1)c1ccc(O)cc1O
REMARK SMILES IDX 4 1 3 2 5 3 6 4 7 5 8 6 11 7 10 8 9 9 2 11 1 12 12 13 18 14
REMARK SMILES IDX 13 15 17 16 14 17 15 18 19 19 16 21
REMARK H PARENT 9 10 19 20 16 22
REMARK Flexibility Score: inf
ROOT
ATOM      1  C   UNL     1       5.838 -62.188  -6.855  1.00  0.00     0.012 C 
ATOM      2  C   UNL     1       5.688 -62.202  -8.188  1.00  0.00     0.053 C 
ENDROOT
BRANCH   1   3
ATOM      3  C   UNL     1       4.726 -62.418  -5.901  1.00  0.00    -0.025 A 
ATOM      4  C   UNL     1       3.733 -61.451  -5.648  1.00  0.00     0.012 A 
ATOM      5  C   UNL     1       2.696 -61.719  -4.748  1.00  0.00     0.047 A 
ATOM      6  C   UNL     1       2.629 -62.955  -4.099  1.00  0.00     0.115 A 
ATOM      7  C   UNL     1       4.640 -63.664  -5.255  1.00  0.00     0.012 A 
ATOM      8  C   UNL     1       3.603 -63.929  -4.356  1.00  0.00     0.047 A 
BRANCH   6   9
ATOM      9  O   UNL     1       1.591 -63.207  -3.205  1.00  0.00    -0.508 OA
ATOM     10  H   UNL     1       1.738 -63.179  -2.202  1.00  0.00     0.293 HD
ENDBRANCH   6   9
ENDBRANCH   1   3
BRANCH   2  11
ATOM     11  C   UNL     1       6.819 -61.952  -9.110  1.00  0.00     0.189 C 
ATOM     12  O   UNL     1       7.097 -60.771  -9.457  1.00  0.00    -0.289 OA
BRANCH  11  13
ATOM     13  C   UNL     1       7.605 -63.072  -9.677  1.00  0.00     0.064 A 
ATOM     14  C   UNL     1       7.742 -63.256 -11.072  1.00  0.00     0.130 A 
ATOM     15  C   UNL     1       8.210 -63.993  -8.805  1.00  0.00     0.020 A 
ATOM     16  C   UNL     1       8.508 -64.323 -11.564  1.00  0.00     0.093 A 
ATOM     17  C   UNL     1       8.966 -65.057  -9.305  1.00  0.00     0.047 A 
ATOM     18  C   UNL     1       9.121 -65.222 -10.683  1.00  0.00     0.119 A 
BRANCH  14  19
ATOM     19  O   UNL     1       7.098 -62.400 -11.967  1.00  0.00    -0.507 OA
ATOM     20  H   UNL     1       6.089 -62.313 -11.988  1.00  0.00     0.293 HD
ENDBRANCH  14  19
BRANCH  18  21
ATOM     21  O   UNL     1       9.881 -66.285 -11.167  1.00  0.00    -0.508 OA
ATOM     22  H   UNL     1      10.391 -66.217 -12.039  1.00  0.00     0.293 HD
ENDBRANCH  18  21
ENDBRANCH  11  13
ENDBRANCH   2  11
TORSDOF 6
ENDMDL
MODEL 8
REMARK VINA RESULT:    -5.408     10.613     13.046
REMARK INTER + INTRA:          -7.438
REMARK INTER:                  -6.826
REMARK INTRA:                  -0.612
REMARK UNBOUND:                -0.608
REMARK SMILES O=C(C=Cc1ccc(O)cc1)c1ccc(O)cc1O
REMARK SMILES IDX 4 1 3 2 5 3 6 4 7 5 8 6 11 7 10 8 9 9 2 11 1 12 12 13 18 14
REMARK SMILES IDX 13 15 17 16 14 17 15 18 19 19 16 21
REMARK H PARENT 9 10 19 20 16 22
REMARK Flexibility Score: inf
ROOT
ATOM      1  C   UNL     1      -1.191 -64.154   2.405  1.00  0.00     0.012 C 
ATOM      2  C   UNL     1      -0.167 -64.198   1.541  1.00  0.00     0.053 C 
ENDROOT
BRANCH   1   3
ATOM      3  C   UNL     1      -1.754 -62.894   2.949  1.00  0.00    -0.025 A 
ATOM      4  C   UNL     1      -1.186 -61.632   2.678  1.00  0.00     0.012 A 
ATOM      5  C   UNL     1      -1.760 -60.470   3.204  1.00  0.00     0.047 A 
ATOM      6  C   UNL     1      -2.910 -60.548   3.995  1.00  0.00     0.115 A 
ATOM      7  C   UNL     1      -2.919 -62.959   3.733  1.00  0.00     0.012 A 
ATOM      8  C   UNL     1      -3.490 -61.796   4.257  1.00  0.00     0.047 A 
BRANCH   6   9
ATOM      9  O   UNL     1      -3.469 -59.382   4.513  1.00  0.00    -0.508 OA
ATOM     10  H   UNL     1      -3.012 -58.483   4.406  1.00  0.00     0.293 HD
ENDBRANCH   6   9
ENDBRANCH   1   3
BRANCH   2  11
ATOM     11  C   UNL     1       0.378 -65.476   1.032  1.00  0.00     0.189 C 
ATOM     12  O   UNL     1       1.252 -66.097   1.697  1.00  0.00    -0.289 OA
BRANCH  11  13
ATOM     13  C   UNL     1      -0.047 -66.021  -0.279  1.00  0.00     0.064 A 
ATOM     14  C   UNL     1      -0.896 -67.146  -0.379  1.00  0.00     0.130 A 
ATOM     15  C   UNL     1       0.428 -65.417  -1.457  1.00  0.00     0.020 A 
ATOM     16  C   UNL     1      -1.285 -67.618  -1.641  1.00  0.00     0.093 A 
ATOM     17  C   UNL     1       0.041 -65.899  -2.710  1.00  0.00     0.047 A 
ATOM     18  C   UNL     1      -0.819 -66.996  -2.806  1.00  0.00     0.119 A 
BRANCH  14  19
ATOM     19  O   UNL     1      -1.331 -67.811   0.768  1.00  0.00    -0.507 OA
ATOM     20  H   UNL     1      -0.685 -68.297   1.378  1.00  0.00     0.293 HD
ENDBRANCH  14  19
BRANCH  18  21
ATOM     21  O   UNL     1      -1.200 -67.462  -4.063  1.00  0.00    -0.508 OA
ATOM     22  H   UNL     1      -0.712 -68.225  -4.515  1.00  0.00     0.293 HD
ENDBRANCH  18  21
ENDBRANCH  11  13
ENDBRANCH   2  11
TORSDOF 6
ENDMDL
MODEL 9
REMARK VINA RESULT:    -5.355      1.871      7.747
REMARK INTER + INTRA:          -7.371
REMARK INTER:                  -6.742
REMARK INTRA:                  -0.629
REMARK UNBOUND:                -0.608
REMARK SMILES O=C(C=Cc1ccc(O)cc1)c1ccc(O)cc1O
REMARK SMILES IDX 4 1 3 2 5 3 6 4 7 5 8 6 11 7 10 8 9 9 2 11 1 12 12 13 18 14
REMARK SMILES IDX 13 15 17 16 14 17 15 18 19 19 16 21
REMARK H PARENT 9 10 19 20 16 22
REMARK Flexibility Score: inf
ROOT
ATOM      1  C   UNL     1       6.890 -61.837  -9.485  1.00  0.00     0.012 C 
ATOM      2  C   UNL     1       6.144 -61.871  -8.372  1.00  0.00     0.053 C 
ENDROOT
BRANCH   1   3
ATOM      3  C   UNL     1       7.601 -63.017 -10.034  1.00  0.00    -0.025 A 
ATOM      4  C   UNL     1       7.612 -63.323 -11.411  1.00  0.00     0.012 A 
ATOM      5  C   UNL     1       8.308 -64.441 -11.882  1.00  0.00     0.047 A 
ATOM      6  C   UNL     1       9.011 -65.260 -10.994  1.00  0.00     0.115 A 
ATOM      7  C   UNL     1       8.324 -63.838  -9.152  1.00  0.00     0.012 A 
ATOM      8  C   UNL     1       9.019 -64.955  -9.626  1.00  0.00     0.047 A 
BRANCH   6   9
ATOM      9  O   UNL     1       9.698 -66.370 -11.478  1.00  0.00    -0.508 OA
ATOM     10  H   UNL     1      10.698 -66.343 -11.644  1.00  0.00     0.293 HD
ENDBRANCH   6   9
ENDBRANCH   1   3
BRANCH   2  11
ATOM     11  C   UNL     1       5.462 -60.669  -7.844  1.00  0.00     0.189 C 
ATOM     12  O   UNL     1       5.950 -59.525  -8.055  1.00  0.00    -0.289 OA
BRANCH  11  13
ATOM     13  C   UNL     1       4.233 -60.785  -7.024  1.00  0.00     0.064 A 
ATOM     14  C   UNL     1       4.058 -60.041  -5.835  1.00  0.00     0.130 A 
ATOM     15  C   UNL     1       3.225 -61.678  -7.426  1.00  0.00     0.020 A 
ATOM     16  C   UNL     1       2.871 -60.172  -5.098  1.00  0.00     0.093 A 
ATOM     17  C   UNL     1       2.050 -61.807  -6.681  1.00  0.00     0.047 A 
ATOM     18  C   UNL     1       1.867 -61.053  -5.520  1.00  0.00     0.119 A 
BRANCH  14  19
ATOM     19  O   UNL     1       5.066 -59.196  -5.371  1.00  0.00    -0.507 OA
ATOM     20  H   UNL     1       4.888 -58.494  -4.663  1.00  0.00     0.293 HD
ENDBRANCH  14  19
BRANCH  18  21
ATOM     21  O   UNL     1       0.688 -61.188  -4.790  1.00  0.00    -0.508 OA
ATOM     22  H   UNL     1       0.096 -60.392  -4.587  1.00  0.00     0.293 HD
ENDBRANCH  18  21
ENDBRANCH  11  13
ENDBRANCH   2  11
TORSDOF 6
ENDMDL
