MODEL 1
REMARK VINA RESULT:    -3.546      0.000      0.000
REMARK INTER + INTRA:          -4.347
REMARK INTER:                  -4.271
REMARK INTRA:                  -0.076
REMARK UNBOUND:                -0.076
REMARK SMILES CCCCCO
REMARK SMILES IDX 4 1 3 2 2 3 1 4 5 5 6 6
REMARK H PARENT 6 7
REMARK Flexibility Score: inf
ROOT
ATOM      1  C   UNL     1     177.265 169.412 213.704  1.00  0.00     0.028 C 
ENDROOT
BRANCH   1   2
ATOM      2  C   UNL     1     178.038 169.559 212.386  1.00  0.00     0.002 C 
BRANCH   2   3
ATOM      3  C   UNL     1     178.576 168.203 211.912  1.00  0.00    -0.003 C 
ATOM      4  C   UNL     1     177.742 167.055 212.473  1.00  0.00     0.004 C 
ENDBRANCH   2   3
ENDBRANCH   1   2
BRANCH   1   5
ATOM      5  C   UNL     1     178.054 169.960 214.896  1.00  0.00     0.156 C 
BRANCH   5   6
ATOM      6  O   UNL     1     179.142 170.729 214.460  1.00  0.00    -0.396 OA
ATOM      7  H   UNL     1     179.078 170.788 213.472  1.00  0.00     0.210 HD
ENDBRANCH   5   6
ENDBRANCH   1   5
TORSDOF 4
ENDMDL
MODEL 2
REMARK VINA RESULT:    -3.492     12.477     13.266
REMARK INTER + INTRA:          -4.283
REMARK INTER:                  -4.202
REMARK INTRA:                  -0.081
REMARK UNBOUND:                -0.076
REMARK SMILES CCCCCO
REMARK SMILES IDX 4 1 3 2 2 3 1 4 5 5 6 6
REMARK H PARENT 6 7
REMARK Flexibility Score: inf
ROOT
ATOM      1  C   UNL     1     165.983 174.298 214.277  1.00  0.00     0.028 C 
ENDROOT
BRANCH   1   2
ATOM      2  C   UNL     1     165.177 173.772 213.080  1.00  0.00     0.002 C 
BRANCH   2   3
ATOM      3  C   UNL     1     165.172 174.790 211.933  1.00  0.00    -0.003 C 
ATOM      4  C   UNL     1     165.609 176.169 212.420  1.00  0.00     0.004 C 
ENDBRANCH   2   3
ENDBRANCH   1   2
BRANCH   1   5
ATOM      5  C   UNL     1     167.089 173.326 214.695  1.00  0.00     0.156 C 
BRANCH   5   6
ATOM      6  O   UNL     1     167.700 172.754 213.570  1.00  0.00    -0.396 OA
ATOM      7  H   UNL     1     168.316 173.437 213.196  1.00  0.00     0.210 HD
ENDBRANCH   5   6
ENDBRANCH   1   5
TORSDOF 4
ENDMDL
MODEL 3
REMARK VINA RESULT:    -3.365      8.840      9.332
REMARK INTER + INTRA:          -4.129
REMARK INTER:                  -4.087
REMARK INTRA:                  -0.043
REMARK UNBOUND:                -0.076
REMARK SMILES CCCCCO
REMARK SMILES IDX 4 1 3 2 2 3 1 4 5 5 6 6
REMARK H PARENT 6 7
REMARK Flexibility Score: inf
ROOT
ATOM      1  C   UNL     1     169.340 166.231 214.656  1.00  0.00     0.028 C 
ENDROOT
BRANCH   1   2
ATOM      2  C   UNL     1     169.760 165.179 213.620  1.00  0.00     0.002 C 
BRANCH   2   3
ATOM      3  C   UNL     1     169.361 165.614 212.205  1.00  0.00    -0.003 C 
ATOM      4  C   UNL     1     167.890 165.314 211.931  1.00  0.00     0.004 C 
ENDBRANCH   2   3
ENDBRANCH   1   2
BRANCH   1   5
ATOM      5  C   UNL     1     170.166 167.515 214.536  1.00  0.00     0.156 C 
BRANCH   5   6
ATOM      6  O   UNL     1     169.425 168.624 214.972  1.00  0.00    -0.396 OA
ATOM      7  H   UNL     1     168.998 169.020 214.168  1.00  0.00     0.210 HD
ENDBRANCH   5   6
ENDBRANCH   1   5
TORSDOF 4
ENDMDL
MODEL 4
REMARK VINA RESULT:    -3.352     13.054     13.818
REMARK INTER + INTRA:          -4.115
REMARK INTER:                  -4.064
REMARK INTRA:                  -0.051
REMARK UNBOUND:                -0.076
REMARK SMILES CCCCCO
REMARK SMILES IDX 4 1 3 2 2 3 1 4 5 5 6 6
REMARK H PARENT 6 7
REMARK Flexibility Score: inf
ROOT
ATOM      1  C   UNL     1     164.825 174.844 212.120  1.00  0.00     0.028 C 
ENDROOT
BRANCH   1   2
ATOM      2  C   UNL     1     165.179 173.706 213.088  1.00  0.00     0.002 C 
BRANCH   2   3
ATOM      3  C   UNL     1     165.945 174.240 214.304  1.00  0.00    -0.003 C 
ATOM      4  C   UNL     1     167.090 173.307 214.686  1.00  0.00     0.004 C 
ENDBRANCH   2   3
ENDBRANCH   1   2
BRANCH   1   5
ATOM      5  C   UNL     1     165.982 175.833 211.948  1.00  0.00     0.156 C 
BRANCH   5   6
ATOM      6  O   UNL     1     165.621 177.106 212.413  1.00  0.00    -0.396 OA
ATOM      7  H   UNL     1     164.668 177.243 212.170  1.00  0.00     0.210 HD
ENDBRANCH   5   6
ENDBRANCH   1   5
TORSDOF 4
ENDMDL
MODEL 5
REMARK VINA RESULT:    -3.352      9.114      9.837
REMARK INTER + INTRA:          -4.115
REMARK INTER:                  -4.049
REMARK INTRA:                  -0.066
REMARK UNBOUND:                -0.076
REMARK SMILES CCCCCO
REMARK SMILES IDX 4 1 3 2 2 3 1 4 5 5 6 6
REMARK H PARENT 6 7
REMARK Flexibility Score: inf
ROOT
ATOM      1  C   UNL     1     172.573 177.813 214.336  1.00  0.00     0.028 C 
ENDROOT
BRANCH   1   2
ATOM      2  C   UNL     1     173.609 178.676 213.602  1.00  0.00     0.002 C 
BRANCH   2   3
ATOM      3  C   UNL     1     174.178 177.934 212.386  1.00  0.00    -0.003 C 
ATOM      4  C   UNL     1     175.619 178.353 212.111  1.00  0.00     0.004 C 
ENDBRANCH   2   3
ENDBRANCH   1   2
BRANCH   1   5
ATOM      5  C   UNL     1     173.102 176.406 214.626  1.00  0.00     0.156 C 
BRANCH   5   6
ATOM      6  O   UNL     1     172.176 175.434 214.221  1.00  0.00    -0.396 OA
ATOM      7  H   UNL     1     171.300 175.687 214.613  1.00  0.00     0.210 HD
ENDBRANCH   5   6
ENDBRANCH   1   5
TORSDOF 4
ENDMDL
MODEL 6
REMARK VINA RESULT:    -3.247      9.093      9.756
REMARK INTER + INTRA:          -3.988
REMARK INTER:                  -3.949
REMARK INTRA:                  -0.039
REMARK UNBOUND:                -0.076
REMARK SMILES CCCCCO
REMARK SMILES IDX 4 1 3 2 2 3 1 4 5 5 6 6
REMARK H PARENT 6 7
REMARK Flexibility Score: inf
ROOT
ATOM      1  C   UNL     1     174.719 177.978 212.544  1.00  0.00     0.028 C 
ENDROOT
BRANCH   1   2
ATOM      2  C   UNL     1     174.997 177.521 213.983  1.00  0.00     0.002 C 
BRANCH   2   3
ATOM      3  C   UNL     1     173.713 177.539 214.821  1.00  0.00    -0.003 C 
ATOM      4  C   UNL     1     172.542 178.102 214.021  1.00  0.00     0.004 C 
ENDBRANCH   2   3
ENDBRANCH   1   2
BRANCH   1   5
ATOM      5  C   UNL     1     176.002 178.382 211.813  1.00  0.00     0.156 C 
BRANCH   5   6
ATOM      6  O   UNL     1     177.132 177.897 212.486  1.00  0.00    -0.396 OA
ATOM      7  H   UNL     1     177.110 176.907 212.413  1.00  0.00     0.210 HD
ENDBRANCH   5   6
ENDBRANCH   1   5
TORSDOF 4
ENDMDL
MODEL 7
REMARK VINA RESULT:    -3.227      7.852      8.477
REMARK INTER + INTRA:          -3.964
REMARK INTER:                  -3.951
REMARK INTRA:                  -0.013
REMARK UNBOUND:                -0.076
REMARK SMILES CCCCCO
REMARK SMILES IDX 4 1 3 2 2 3 1 4 5 5 6 6
REMARK H PARENT 6 7
REMARK Flexibility Score: inf
ROOT
ATOM      1  C   UNL     1     172.371 170.927 209.168  1.00  0.00     0.028 C 
ENDROOT
BRANCH   1   2
ATOM      2  C   UNL     1     171.112 170.898 208.289  1.00  0.00     0.002 C 
BRANCH   2   3
ATOM      3  C   UNL     1     170.769 172.302 207.777  1.00  0.00    -0.003 C 
ATOM      4  C   UNL     1     169.867 173.041 208.761  1.00  0.00     0.004 C 
ENDBRANCH   2   3
ENDBRANCH   1   2
BRANCH   1   5
ATOM      5  C   UNL     1     173.642 170.654 208.360  1.00  0.00     0.156 C 
BRANCH   5   6
ATOM      6  O   UNL     1     174.640 170.101 209.175  1.00  0.00    -0.396 OA
ATOM      7  H   UNL     1     175.325 170.806 209.313  1.00  0.00     0.210 HD
ENDBRANCH   5   6
ENDBRANCH   1   5
TORSDOF 4
ENDMDL
MODEL 8
REMARK VINA RESULT:    -3.143      8.931      9.334
REMARK INTER + INTRA:          -3.862
REMARK INTER:                  -3.821
REMARK INTRA:                  -0.041
REMARK UNBOUND:                -0.076
REMARK SMILES CCCCCO
REMARK SMILES IDX 4 1 3 2 2 3 1 4 5 5 6 6
REMARK H PARENT 6 7
REMARK Flexibility Score: inf
ROOT
ATOM      1  C   UNL     1     170.714 172.566 209.453  1.00  0.00     0.028 C 
ENDROOT
BRANCH   1   2
ATOM      2  C   UNL     1     170.975 171.068 209.239  1.00  0.00     0.002 C 
BRANCH   2   3
ATOM      3  C   UNL     1     172.443 170.814 208.876  1.00  0.00    -0.003 C 
ATOM      4  C   UNL     1     172.726 171.201 207.426  1.00  0.00     0.004 C 
ENDBRANCH   2   3
ENDBRANCH   1   2
BRANCH   1   5
ATOM      5  C   UNL     1     169.643 173.104 208.500  1.00  0.00     0.156 C 
BRANCH   5   6
ATOM      6  O   UNL     1     168.696 173.868 209.197  1.00  0.00    -0.396 OA
ATOM      7  H   UNL     1     168.870 174.819 208.973  1.00  0.00     0.210 HD
ENDBRANCH   5   6
ENDBRANCH   1   5
TORSDOF 4
ENDMDL
MODEL 9
REMARK VINA RESULT:    -3.130      8.820      9.225
REMARK INTER + INTRA:          -3.846
REMARK INTER:                  -3.837
REMARK INTRA:                  -0.010
REMARK UNBOUND:                -0.076
REMARK SMILES CCCCCO
REMARK SMILES IDX 4 1 3 2 2 3 1 4 5 5 6 6
REMARK H PARENT 6 7
REMARK Flexibility Score: inf
ROOT
ATOM      1  C   UNL     1     170.753 172.319 207.859  1.00  0.00     0.028 C 
ENDROOT
BRANCH   1   2
ATOM      2  C   UNL     1     172.190 172.308 208.401  1.00  0.00     0.002 C 
BRANCH   2   3
ATOM      3  C   UNL     1     172.546 170.933 208.979  1.00  0.00    -0.003 C 
ATOM      4  C   UNL     1     173.934 170.488 208.524  1.00  0.00     0.004 C 
ENDBRANCH   2   3
ENDBRANCH   1   2
BRANCH   1   5
ATOM      5  C   UNL     1     169.796 173.075 208.784  1.00  0.00     0.156 C 
BRANCH   5   6
ATOM      6  O   UNL     1     168.637 173.458 208.094  1.00  0.00    -0.396 OA
ATOM      7  H   UNL     1     168.828 173.353 207.126  1.00  0.00     0.210 HD
ENDBRANCH   5   6
ENDBRANCH   1   5
TORSDOF 4
ENDMDL
