MODEL 1
REMARK VINA RESULT:    -7.123      0.000      0.000
REMARK INTER + INTRA:          -8.807
REMARK INTER:                  -8.581
REMARK INTRA:                  -0.226
REMARK UNBOUND:                -0.226
REMARK SMILES O=c1c(O)c(-c2ccc(O)c(O)c2)oc2cc(O)cc(O)c12
REMARK SMILES IDX 5 1 3 2 2 3 1 4 22 5 20 6 19 7 17 8 16 9 15 10 14 11 6 12
REMARK SMILES IDX 7 13 8 14 9 15 13 16 11 17 10 18 12 20 4 22 21 24 18 26
REMARK H PARENT 10 19 12 21 4 23 21 25 18 27
REMARK Flexibility Score: inf
ROOT
ATOM      1  C   UNL     1      31.338 -91.796  37.748  1.00  0.00     0.180 A 
ATOM      2  C   UNL     1      30.112 -92.410  37.438  1.00  0.00     0.208 A 
ATOM      3  C   UNL     1      29.975 -93.794  37.629  1.00  0.00     0.238 A 
ATOM      4  O   UNL     1      28.892 -94.345  37.299  1.00  0.00    -0.285 OA
ATOM      5  C   UNL     1      31.060 -94.545  38.142  1.00  0.00     0.111 A 
ATOM      6  C   UNL     1      31.019 -95.945  38.414  1.00  0.00     0.134 A 
ATOM      7  C   UNL     1      32.191 -96.609  38.797  1.00  0.00     0.093 A 
ATOM      8  C   UNL     1      33.386 -95.911  38.981  1.00  0.00     0.123 A 
ATOM      9  C   UNL     1      33.422 -94.533  38.777  1.00  0.00     0.094 A 
ATOM     10  C   UNL     1      32.278 -93.849  38.359  1.00  0.00     0.146 A 
ATOM     11  O   UNL     1      32.357 -92.539  38.165  1.00  0.00    -0.452 OA
ENDROOT
BRANCH   1  12
ATOM     12  C   UNL     1      31.551 -90.339  37.596  1.00  0.00     0.025 A 
ATOM     13  C   UNL     1      32.476 -89.871  36.651  1.00  0.00     0.016 A 
ATOM     14  C   UNL     1      32.708 -88.500  36.506  1.00  0.00     0.051 A 
ATOM     15  C   UNL     1      32.030 -87.579  37.315  1.00  0.00     0.157 A 
ATOM     16  C   UNL     1      30.887 -89.412  38.421  1.00  0.00     0.062 A 
ATOM     17  C   UNL     1      31.119 -88.039  38.280  1.00  0.00     0.158 A 
BRANCH  15  18
ATOM     18  O   UNL     1      32.261 -86.212  37.167  1.00  0.00    -0.504 OA
ATOM     19  H   UNL     1      33.128 -85.860  36.775  1.00  0.00     0.293 HD
ENDBRANCH  15  18
BRANCH  17  20
ATOM     20  O   UNL     1      30.439 -87.149  39.111  1.00  0.00    -0.504 OA
ATOM     21  H   UNL     1      29.754 -87.461  39.789  1.00  0.00     0.293 HD
ENDBRANCH  17  20
ENDBRANCH   1  12
BRANCH   2  22
ATOM     22  O   UNL     1      29.061 -91.653  36.912  1.00  0.00    -0.502 OA
ATOM     23  H   UNL     1      28.667 -91.833  35.996  1.00  0.00     0.293 HD
ENDBRANCH   2  22
BRANCH   6  24
ATOM     24  O   UNL     1      29.857 -96.719  38.349  1.00  0.00    -0.507 OA
ATOM     25  H   UNL     1      29.085 -96.652  38.995  1.00  0.00     0.293 HD
ENDBRANCH   6  24
BRANCH   8  26
ATOM     26  O   UNL     1      34.545 -96.575  39.377  1.00  0.00    -0.508 OA
ATOM     27  H   UNL     1      35.465 -96.246  39.106  1.00  0.00     0.293 HD
ENDBRANCH   8  26
TORSDOF 6
ENDMDL
MODEL 2
REMARK VINA RESULT:    -6.550      1.232      3.015
REMARK INTER + INTRA:          -8.116
REMARK INTER:                  -7.967
REMARK INTRA:                  -0.149
REMARK UNBOUND:                -0.226
REMARK SMILES O=c1c(O)c(-c2ccc(O)c(O)c2)oc2cc(O)cc(O)c12
REMARK SMILES IDX 5 1 3 2 2 3 1 4 22 5 20 6 19 7 17 8 16 9 15 10 14 11 6 12
REMARK SMILES IDX 7 13 8 14 9 15 13 16 11 17 10 18 12 20 4 22 21 24 18 26
REMARK H PARENT 10 19 12 21 4 23 21 25 18 27
REMARK Flexibility Score: inf
ROOT
ATOM      1  C   UNL     1      31.374 -91.974  37.702  1.00  0.00     0.180 A 
ATOM      2  C   UNL     1      32.413 -92.842  38.080  1.00  0.00     0.208 A 
ATOM      3  C   UNL     1      32.140 -94.212  38.217  1.00  0.00     0.238 A 
ATOM      4  O   UNL     1      33.062 -94.975  38.608  1.00  0.00    -0.285 OA
ATOM      5  C   UNL     1      30.837 -94.701  37.960  1.00  0.00     0.111 A 
ATOM      6  C   UNL     1      30.458 -96.075  38.028  1.00  0.00     0.134 A 
ATOM      7  C   UNL     1      29.111 -96.428  37.880  1.00  0.00     0.093 A 
ATOM      8  C   UNL     1      28.140 -95.464  37.601  1.00  0.00     0.123 A 
ATOM      9  C   UNL     1      28.510 -94.126  37.473  1.00  0.00     0.094 A 
ATOM     10  C   UNL     1      29.840 -93.739  37.651  1.00  0.00     0.146 A 
ATOM     11  O   UNL     1      30.147 -92.453  37.531  1.00  0.00    -0.452 OA
ENDROOT
BRANCH   1  12
ATOM     12  C   UNL     1      31.590 -90.522  37.513  1.00  0.00     0.025 A 
ATOM     13  C   UNL     1      32.469 -90.078  36.513  1.00  0.00     0.016 A 
ATOM     14  C   UNL     1      32.704 -88.712  36.332  1.00  0.00     0.051 A 
ATOM     15  C   UNL     1      32.075 -87.771  37.158  1.00  0.00     0.157 A 
ATOM     16  C   UNL     1      30.977 -89.575  38.354  1.00  0.00     0.062 A 
ATOM     17  C   UNL     1      31.211 -88.206  38.177  1.00  0.00     0.158 A 
BRANCH  15  18
ATOM     18  O   UNL     1      32.309 -86.409  36.973  1.00  0.00    -0.504 OA
ATOM     19  H   UNL     1      31.608 -85.802  36.563  1.00  0.00     0.293 HD
ENDBRANCH  15  18
BRANCH  17  20
ATOM     20  O   UNL     1      30.582 -87.296  39.025  1.00  0.00    -0.504 OA
ATOM     21  H   UNL     1      29.783 -87.552  39.593  1.00  0.00     0.293 HD
ENDBRANCH  17  20
ENDBRANCH   1  12
BRANCH   2  22
ATOM     22  O   UNL     1      33.687 -92.336  38.351  1.00  0.00    -0.502 OA
ATOM     23  H   UNL     1      34.065 -92.287  39.290  1.00  0.00     0.293 HD
ENDBRANCH   2  22
BRANCH   6  24
ATOM     24  O   UNL     1      31.362 -97.125  38.210  1.00  0.00    -0.507 OA
ATOM     25  H   UNL     1      31.248 -97.872  38.878  1.00  0.00     0.293 HD
ENDBRANCH   6  24
BRANCH   8  26
ATOM     26  O   UNL     1      26.805 -95.825  37.441  1.00  0.00    -0.508 OA
ATOM     27  H   UNL     1      26.525 -96.794  37.338  1.00  0.00     0.293 HD
ENDBRANCH   8  26
TORSDOF 6
ENDMDL
MODEL 3
REMARK VINA RESULT:    -5.668      9.433     10.923
REMARK INTER + INTRA:          -7.053
REMARK INTER:                  -6.754
REMARK INTRA:                  -0.299
REMARK UNBOUND:                -0.226
REMARK SMILES O=c1c(O)c(-c2ccc(O)c(O)c2)oc2cc(O)cc(O)c12
REMARK SMILES IDX 5 1 3 2 2 3 1 4 22 5 20 6 19 7 17 8 16 9 15 10 14 11 6 12
REMARK SMILES IDX 7 13 8 14 9 15 13 16 11 17 10 18 12 20 4 22 21 24 18 26
REMARK H PARENT 10 19 12 21 4 23 21 25 18 27
REMARK Flexibility Score: inf
ROOT
ATOM      1  C   UNL     1      36.624 -94.849  30.027  1.00  0.00     0.180 A 
ATOM      2  C   UNL     1      37.706 -95.154  29.184  1.00  0.00     0.208 A 
ATOM      3  C   UNL     1      39.004 -95.163  29.718  1.00  0.00     0.238 A 
ATOM      4  O   UNL     1      39.974 -95.385  28.946  1.00  0.00    -0.285 OA
ATOM      5  C   UNL     1      39.204 -94.882  31.091  1.00  0.00     0.111 A 
ATOM      6  C   UNL     1      40.471 -94.903  31.747  1.00  0.00     0.134 A 
ATOM      7  C   UNL     1      40.566 -94.481  33.079  1.00  0.00     0.093 A 
ATOM      8  C   UNL     1      39.430 -94.103  33.797  1.00  0.00     0.123 A 
ATOM      9  C   UNL     1      38.179 -94.136  33.183  1.00  0.00     0.094 A 
ATOM     10  C   UNL     1      38.058 -94.517  31.845  1.00  0.00     0.146 A 
ATOM     11  O   UNL     1      36.850 -94.525  31.296  1.00  0.00    -0.452 OA
ENDROOT
BRANCH   1  12
ATOM     12  C   UNL     1      35.225 -94.843  29.543  1.00  0.00     0.025 A 
ATOM     13  C   UNL     1      34.729 -93.713  28.877  1.00  0.00     0.016 A 
ATOM     14  C   UNL     1      33.405 -93.678  28.430  1.00  0.00     0.051 A 
ATOM     15  C   UNL     1      32.553 -94.766  28.658  1.00  0.00     0.157 A 
ATOM     16  C   UNL     1      34.361 -95.926  29.788  1.00  0.00     0.062 A 
ATOM     17  C   UNL     1      33.034 -95.894  29.345  1.00  0.00     0.158 A 
BRANCH  15  18
ATOM     18  O   UNL     1      31.233 -94.730  28.209  1.00  0.00    -0.504 OA
ATOM     19  H   UNL     1      30.645 -95.556  28.227  1.00  0.00     0.293 HD
ENDBRANCH  15  18
BRANCH  17  20
ATOM     20  O   UNL     1      32.207 -96.988  29.600  1.00  0.00    -0.504 OA
ATOM     21  H   UNL     1      31.197 -96.912  29.597  1.00  0.00     0.293 HD
ENDBRANCH  17  20
ENDBRANCH   1  12
BRANCH   2  22
ATOM     22  O   UNL     1      37.490 -95.407  27.827  1.00  0.00    -0.502 OA
ATOM     23  H   UNL     1      38.240 -95.653  27.193  1.00  0.00     0.293 HD
ENDBRANCH   2  22
BRANCH   6  24
ATOM     24  O   UNL     1      41.652 -95.351  31.149  1.00  0.00    -0.507 OA
ATOM     25  H   UNL     1      41.698 -96.036  30.410  1.00  0.00     0.293 HD
ENDBRANCH   6  24
BRANCH   8  26
ATOM     26  O   UNL     1      39.530 -93.699  35.127  1.00  0.00    -0.508 OA
ATOM     27  H   UNL     1      39.214 -92.784  35.429  1.00  0.00     0.293 HD
ENDBRANCH   8  26
TORSDOF 6
ENDMDL
MODEL 4
REMARK VINA RESULT:    -5.525      9.218     10.976
REMARK INTER + INTRA:          -6.881
REMARK INTER:                  -6.647
REMARK INTRA:                  -0.234
REMARK UNBOUND:                -0.226
REMARK SMILES O=c1c(O)c(-c2ccc(O)c(O)c2)oc2cc(O)cc(O)c12
REMARK SMILES IDX 5 1 3 2 2 3 1 4 22 5 20 6 19 7 17 8 16 9 15 10 14 11 6 12
REMARK SMILES IDX 7 13 8 14 9 15 13 16 11 17 10 18 12 20 4 22 21 24 18 26
REMARK H PARENT 10 19 12 21 4 23 21 25 18 27
REMARK Flexibility Score: inf
ROOT
ATOM      1  C   UNL     1      37.844 -94.993  31.255  1.00  0.00     0.180 A 
ATOM      2  C   UNL     1      38.393 -95.861  30.296  1.00  0.00     0.208 A 
ATOM      3  C   UNL     1      37.721 -96.045  29.078  1.00  0.00     0.238 A 
ATOM      4  O   UNL     1      38.190 -96.865  28.246  1.00  0.00    -0.285 OA
ATOM      5  C   UNL     1      36.515 -95.347  28.826  1.00  0.00     0.111 A 
ATOM      6  C   UNL     1      35.771 -95.426  27.611  1.00  0.00     0.134 A 
ATOM      7  C   UNL     1      34.525 -94.794  27.522  1.00  0.00     0.093 A 
ATOM      8  C   UNL     1      34.027 -94.031  28.581  1.00  0.00     0.123 A 
ATOM      9  C   UNL     1      34.773 -93.898  29.750  1.00  0.00     0.094 A 
ATOM     10  C   UNL     1      36.003 -94.548  29.882  1.00  0.00     0.146 A 
ATOM     11  O   UNL     1      36.677 -94.403  31.016  1.00  0.00    -0.452 OA
ENDROOT
BRANCH   1  12
ATOM     12  C   UNL     1      38.507 -94.729  32.552  1.00  0.00     0.025 A 
ATOM     13  C   UNL     1      39.687 -93.971  32.583  1.00  0.00     0.016 A 
ATOM     14  C   UNL     1      40.342 -93.729  33.794  1.00  0.00     0.051 A 
ATOM     15  C   UNL     1      39.834 -94.253  34.989  1.00  0.00     0.157 A 
ATOM     16  C   UNL     1      38.011 -95.272  33.752  1.00  0.00     0.062 A 
ATOM     17  C   UNL     1      38.665 -95.033  34.966  1.00  0.00     0.158 A 
BRANCH  15  18
ATOM     18  O   UNL     1      40.487 -94.008  36.196  1.00  0.00    -0.504 OA
ATOM     19  H   UNL     1      41.325 -94.514  36.459  1.00  0.00     0.293 HD
ENDBRANCH  15  18
BRANCH  17  20
ATOM     20  O   UNL     1      38.142 -95.582  36.137  1.00  0.00    -0.504 OA
ATOM     21  H   UNL     1      38.060 -96.582  36.272  1.00  0.00     0.293 HD
ENDBRANCH  17  20
ENDBRANCH   1  12
BRANCH   2  22
ATOM     22  O   UNL     1      39.573 -96.557  30.574  1.00  0.00    -0.502 OA
ATOM     23  H   UNL     1      40.490 -96.146  30.450  1.00  0.00     0.293 HD
ENDBRANCH   2  22
BRANCH   6  24
ATOM     24  O   UNL     1      36.220 -96.085  26.463  1.00  0.00    -0.507 OA
ATOM     25  H   UNL     1      35.767 -96.044  25.563  1.00  0.00     0.293 HD
ENDBRANCH   6  24
BRANCH   8  26
ATOM     26  O   UNL     1      32.793 -93.393  28.479  1.00  0.00    -0.508 OA
ATOM     27  H   UNL     1      32.711 -92.384  28.537  1.00  0.00     0.293 HD
ENDBRANCH   8  26
TORSDOF 6
ENDMDL
MODEL 5
REMARK VINA RESULT:    -5.405      8.866     10.980
REMARK INTER + INTRA:          -6.737
REMARK INTER:                  -6.408
REMARK INTRA:                  -0.329
REMARK UNBOUND:                -0.226
REMARK SMILES O=c1c(O)c(-c2ccc(O)c(O)c2)oc2cc(O)cc(O)c12
REMARK SMILES IDX 5 1 3 2 2 3 1 4 22 5 20 6 19 7 17 8 16 9 15 10 14 11 6 12
REMARK SMILES IDX 7 13 8 14 9 15 13 16 11 17 10 18 12 20 4 22 21 24 18 26
REMARK H PARENT 10 19 12 21 4 23 21 25 18 27
REMARK Flexibility Score: inf
ROOT
ATOM      1  C   UNL     1      40.263 -95.236  35.963  1.00  0.00     0.180 A 
ATOM      2  C   UNL     1      41.470 -95.270  35.244  1.00  0.00     0.208 A 
ATOM      3  C   UNL     1      41.440 -95.087  33.853  1.00  0.00     0.238 A 
ATOM      4  O   UNL     1      42.518 -95.171  33.209  1.00  0.00    -0.285 OA
ATOM      5  C   UNL     1      40.205 -94.856  33.199  1.00  0.00     0.111 A 
ATOM      6  C   UNL     1      40.062 -94.617  31.800  1.00  0.00     0.134 A 
ATOM      7  C   UNL     1      38.780 -94.532  31.242  1.00  0.00     0.093 A 
ATOM      8  C   UNL     1      37.640 -94.610  32.043  1.00  0.00     0.123 A 
ATOM      9  C   UNL     1      37.771 -94.784  33.419  1.00  0.00     0.094 A 
ATOM     10  C   UNL     1      39.035 -94.909  34.000  1.00  0.00     0.146 A 
ATOM     11  O   UNL     1      39.115 -95.084  35.313  1.00  0.00    -0.452 OA
ENDROOT
BRANCH   1  12
ATOM     12  C   UNL     1      40.217 -95.397  37.434  1.00  0.00     0.025 A 
ATOM     13  C   UNL     1      40.059 -96.678  37.985  1.00  0.00     0.016 A 
ATOM     14  C   UNL     1      39.991 -96.850  39.370  1.00  0.00     0.051 A 
ATOM     15  C   UNL     1      40.064 -95.742  40.225  1.00  0.00     0.157 A 
ATOM     16  C   UNL     1      40.269 -94.285  38.294  1.00  0.00     0.062 A 
ATOM     17  C   UNL     1      40.200 -94.453  39.682  1.00  0.00     0.158 A 
BRANCH  15  18
ATOM     18  O   UNL     1      40.000 -95.916  41.606  1.00  0.00    -0.504 OA
ATOM     19  H   UNL     1      40.048 -96.837  42.027  1.00  0.00     0.293 HD
ENDBRANCH  15  18
BRANCH  17  20
ATOM     20  O   UNL     1      40.261 -93.328  40.505  1.00  0.00    -0.504 OA
ATOM     21  H   UNL     1      39.430 -92.829  40.797  1.00  0.00     0.293 HD
ENDBRANCH  17  20
ENDBRANCH   1  12
BRANCH   2  22
ATOM     22  O   UNL     1      42.675 -95.521  35.907  1.00  0.00    -0.502 OA
ATOM     23  H   UNL     1      43.528 -95.018  35.693  1.00  0.00     0.293 HD
ENDBRANCH   2  22
BRANCH   6  24
ATOM     24  O   UNL     1      41.137 -94.431  30.926  1.00  0.00    -0.507 OA
ATOM     25  H   UNL     1      41.218 -93.670  30.269  1.00  0.00     0.293 HD
ENDBRANCH   6  24
BRANCH   8  26
ATOM     26  O   UNL     1      36.368 -94.509  31.482  1.00  0.00    -0.508 OA
ATOM     27  H   UNL     1      35.985 -95.245  30.899  1.00  0.00     0.293 HD
ENDBRANCH   8  26
TORSDOF 6
ENDMDL
MODEL 6
REMARK VINA RESULT:    -5.341      9.016     10.410
REMARK INTER + INTRA:          -6.659
REMARK INTER:                  -6.360
REMARK INTRA:                  -0.299
REMARK UNBOUND:                -0.226
REMARK SMILES O=c1c(O)c(-c2ccc(O)c(O)c2)oc2cc(O)cc(O)c12
REMARK SMILES IDX 5 1 3 2 2 3 1 4 22 5 20 6 19 7 17 8 16 9 15 10 14 11 6 12
REMARK SMILES IDX 7 13 8 14 9 15 13 16 11 17 10 18 12 20 4 22 21 24 18 26
REMARK H PARENT 10 19 12 21 4 23 21 25 18 27
REMARK Flexibility Score: inf
ROOT
ATOM      1  C   UNL     1      35.966 -95.192  30.265  1.00  0.00     0.180 A 
ATOM      2  C   UNL     1      35.799 -94.784  28.931  1.00  0.00     0.208 A 
ATOM      3  C   UNL     1      34.510 -94.776  28.376  1.00  0.00     0.238 A 
ATOM      4  O   UNL     1      34.374 -94.461  27.165  1.00  0.00    -0.285 OA
ATOM      5  C   UNL     1      33.400 -95.160  29.168  1.00  0.00     0.111 A 
ATOM      6  C   UNL     1      32.045 -95.151  28.721  1.00  0.00     0.134 A 
ATOM      7  C   UNL     1      31.043 -95.675  29.547  1.00  0.00     0.093 A 
ATOM      8  C   UNL     1      31.338 -96.148  30.827  1.00  0.00     0.123 A 
ATOM      9  C   UNL     1      32.650 -96.105  31.295  1.00  0.00     0.094 A 
ATOM     10  C   UNL     1      33.677 -95.622  30.481  1.00  0.00     0.146 A 
ATOM     11  O   UNL     1      34.914 -95.609  30.961  1.00  0.00    -0.452 OA
ENDROOT
BRANCH   1  12
ATOM     12  C   UNL     1      37.290 -95.203  30.926  1.00  0.00     0.025 A 
ATOM     13  C   UNL     1      38.152 -96.293  30.727  1.00  0.00     0.016 A 
ATOM     14  C   UNL     1      39.398 -96.335  31.359  1.00  0.00     0.051 A 
ATOM     15  C   UNL     1      39.794 -95.296  32.211  1.00  0.00     0.157 A 
ATOM     16  C   UNL     1      37.683 -94.172  31.799  1.00  0.00     0.062 A 
ATOM     17  C   UNL     1      38.929 -94.212  32.435  1.00  0.00     0.158 A 
BRANCH  15  18
ATOM     18  O   UNL     1      41.039 -95.338  32.837  1.00  0.00    -0.504 OA
ATOM     19  H   UNL     1      41.351 -94.592  33.448  1.00  0.00     0.293 HD
ENDBRANCH  15  18
BRANCH  17  20
ATOM     20  O   UNL     1      39.288 -93.169  33.289  1.00  0.00    -0.504 OA
ATOM     21  H   UNL     1      39.793 -93.329  34.152  1.00  0.00     0.293 HD
ENDBRANCH  17  20
ENDBRANCH   1  12
BRANCH   2  22
ATOM     22  O   UNL     1      36.911 -94.430  28.160  1.00  0.00    -0.502 OA
ATOM     23  H   UNL     1      36.952 -93.569  27.628  1.00  0.00     0.293 HD
ENDBRANCH   2  22
BRANCH   6  24
ATOM     24  O   UNL     1      31.630 -94.617  27.498  1.00  0.00    -0.507 OA
ATOM     25  H   UNL     1      32.107 -94.753  26.620  1.00  0.00     0.293 HD
ENDBRANCH   6  24
BRANCH   8  26
ATOM     26  O   UNL     1      30.334 -96.654  31.649  1.00  0.00    -0.508 OA
ATOM     27  H   UNL     1      30.386 -96.581  32.659  1.00  0.00     0.293 HD
ENDBRANCH   8  26
TORSDOF 6
ENDMDL
MODEL 7
REMARK VINA RESULT:    -5.288      7.849     10.544
REMARK INTER + INTRA:          -6.596
REMARK INTER:                  -6.343
REMARK INTRA:                  -0.253
REMARK UNBOUND:                -0.226
REMARK SMILES O=c1c(O)c(-c2ccc(O)c(O)c2)oc2cc(O)cc(O)c12
REMARK SMILES IDX 5 1 3 2 2 3 1 4 22 5 20 6 19 7 17 8 16 9 15 10 14 11 6 12
REMARK SMILES IDX 7 13 8 14 9 15 13 16 11 17 10 18 12 20 4 22 21 24 18 26
REMARK H PARENT 10 19 12 21 4 23 21 25 18 27
REMARK Flexibility Score: inf
ROOT
ATOM      1  C   UNL     1      40.193 -94.889  35.503  1.00  0.00     0.180 A 
ATOM      2  C   UNL     1      41.212 -94.511  36.394  1.00  0.00     0.208 A 
ATOM      3  C   UNL     1      40.990 -94.635  37.775  1.00  0.00     0.238 A 
ATOM      4  O   UNL     1      41.887 -94.245  38.568  1.00  0.00    -0.285 OA
ATOM      5  C   UNL     1      39.759 -95.149  38.248  1.00  0.00     0.111 A 
ATOM      6  C   UNL     1      39.441 -95.355  39.623  1.00  0.00     0.134 A 
ATOM      7  C   UNL     1      38.145 -95.747  39.982  1.00  0.00     0.093 A 
ATOM      8  C   UNL     1      37.176 -96.002  39.010  1.00  0.00     0.123 A 
ATOM      9  C   UNL     1      37.494 -95.862  37.661  1.00  0.00     0.094 A 
ATOM     10  C   UNL     1      38.767 -95.437  37.274  1.00  0.00     0.146 A 
ATOM     11  O   UNL     1      39.025 -95.306  35.979  1.00  0.00    -0.452 OA
ENDROOT
BRANCH   1  12
ATOM     12  C   UNL     1      40.362 -94.811  34.034  1.00  0.00     0.025 A 
ATOM     13  C   UNL     1      39.621 -93.870  33.303  1.00  0.00     0.016 A 
ATOM     14  C   UNL     1      39.748 -93.793  31.914  1.00  0.00     0.051 A 
ATOM     15  C   UNL     1      40.606 -94.667  31.233  1.00  0.00     0.157 A 
ATOM     16  C   UNL     1      41.207 -95.700  33.346  1.00  0.00     0.062 A 
ATOM     17  C   UNL     1      41.335 -95.628  31.954  1.00  0.00     0.158 A 
BRANCH  15  18
ATOM     18  O   UNL     1      40.734 -94.587  29.847  1.00  0.00    -0.504 OA
ATOM     19  H   UNL     1      41.319 -95.234  29.330  1.00  0.00     0.293 HD
ENDBRANCH  15  18
BRANCH  17  20
ATOM     20  O   UNL     1      42.187 -96.522  31.305  1.00  0.00    -0.504 OA
ATOM     21  H   UNL     1      42.895 -97.049  31.802  1.00  0.00     0.293 HD
ENDBRANCH  17  20
ENDBRANCH   1  12
BRANCH   2  22
ATOM     22  O   UNL     1      42.412 -93.985  35.907  1.00  0.00    -0.502 OA
ATOM     23  H   UNL     1      43.093 -94.550  35.415  1.00  0.00     0.293 HD
ENDBRANCH   2  22
BRANCH   6  24
ATOM     24  O   UNL     1      40.363 -95.218  40.666  1.00  0.00    -0.507 OA
ATOM     25  H   UNL     1      41.125 -95.852  40.847  1.00  0.00     0.293 HD
ENDBRANCH   6  24
BRANCH   8  26
ATOM     26  O   UNL     1      35.893 -96.406  39.374  1.00  0.00    -0.508 OA
ATOM     27  H   UNL     1      35.110 -95.762  39.358  1.00  0.00     0.293 HD
ENDBRANCH   8  26
TORSDOF 6
ENDMDL
MODEL 8
REMARK VINA RESULT:    -5.287      9.439     10.689
REMARK INTER + INTRA:          -6.595
REMARK INTER:                  -6.347
REMARK INTRA:                  -0.248
REMARK UNBOUND:                -0.226
REMARK SMILES O=c1c(O)c(-c2ccc(O)c(O)c2)oc2cc(O)cc(O)c12
REMARK SMILES IDX 5 1 3 2 2 3 1 4 22 5 20 6 19 7 17 8 16 9 15 10 14 11 6 12
REMARK SMILES IDX 7 13 8 14 9 15 13 16 11 17 10 18 12 20 4 22 21 24 18 26
REMARK H PARENT 10 19 12 21 4 23 21 25 18 27
REMARK Flexibility Score: inf
ROOT
ATOM      1  C   UNL     1      30.899 -95.532  28.445  1.00  0.00     0.180 A 
ATOM      2  C   UNL     1      30.028 -95.563  27.343  1.00  0.00     0.208 A 
ATOM      3  C   UNL     1      28.673 -95.864  27.553  1.00  0.00     0.238 A 
ATOM      4  O   UNL     1      27.909 -95.943  26.556  1.00  0.00    -0.285 OA
ATOM      5  C   UNL     1      28.202 -96.113  28.865  1.00  0.00     0.111 A 
ATOM      6  C   UNL     1      26.843 -96.388  29.200  1.00  0.00     0.134 A 
ATOM      7  C   UNL     1      26.514 -96.748  30.512  1.00  0.00     0.093 A 
ATOM      8  C   UNL     1      27.485 -96.780  31.515  1.00  0.00     0.123 A 
ATOM      9  C   UNL     1      28.805 -96.455  31.211  1.00  0.00     0.094 A 
ATOM     10  C   UNL     1      29.171 -96.127  29.903  1.00  0.00     0.146 A 
ATOM     11  O   UNL     1      30.441 -95.835  29.654  1.00  0.00    -0.452 OA
ENDROOT
BRANCH   1  12
ATOM     12  C   UNL     1      32.335 -95.199  28.305  1.00  0.00     0.025 A 
ATOM     13  C   UNL     1      33.218 -96.154  27.778  1.00  0.00     0.016 A 
ATOM     14  C   UNL     1      34.580 -95.869  27.658  1.00  0.00     0.051 A 
ATOM     15  C   UNL     1      35.084 -94.631  28.077  1.00  0.00     0.157 A 
ATOM     16  C   UNL     1      32.847 -93.964  28.745  1.00  0.00     0.062 A 
ATOM     17  C   UNL     1      34.212 -93.676  28.627  1.00  0.00     0.158 A 
BRANCH  15  18
ATOM     18  O   UNL     1      36.443 -94.347  27.953  1.00  0.00    -0.504 OA
ATOM     19  H   UNL     1      37.005 -94.086  28.755  1.00  0.00     0.293 HD
ENDBRANCH  15  18
BRANCH  17  20
ATOM     20  O   UNL     1      34.683 -92.439  29.068  1.00  0.00    -0.504 OA
ATOM     21  H   UNL     1      34.683 -91.620  28.472  1.00  0.00     0.293 HD
ENDBRANCH  17  20
ENDBRANCH   1  12
BRANCH   2  22
ATOM     22  O   UNL     1      30.518 -95.335  26.053  1.00  0.00    -0.502 OA
ATOM     23  H   UNL     1      31.388 -94.848  25.880  1.00  0.00     0.293 HD
ENDBRANCH   2  22
BRANCH   6  24
ATOM     24  O   UNL     1      25.782 -96.294  28.294  1.00  0.00    -0.507 OA
ATOM     25  H   UNL     1      25.886 -96.219  27.293  1.00  0.00     0.293 HD
ENDBRANCH   6  24
BRANCH   8  26
ATOM     26  O   UNL     1      27.147 -97.125  32.822  1.00  0.00    -0.508 OA
ATOM     27  H   UNL     1      26.640 -96.487  33.425  1.00  0.00     0.293 HD
ENDBRANCH   8  26
TORSDOF 6
ENDMDL
MODEL 9
REMARK VINA RESULT:    -5.005     10.786     12.354
REMARK INTER + INTRA:          -6.255
REMARK INTER:                  -5.964
REMARK INTRA:                  -0.291
REMARK UNBOUND:                -0.226
REMARK SMILES O=c1c(O)c(-c2ccc(O)c(O)c2)oc2cc(O)cc(O)c12
REMARK SMILES IDX 5 1 3 2 2 3 1 4 22 5 20 6 19 7 17 8 16 9 15 10 14 11 6 12
REMARK SMILES IDX 7 13 8 14 9 15 13 16 11 17 10 18 12 20 4 22 21 24 18 26
REMARK H PARENT 10 19 12 21 4 23 21 25 18 27
REMARK Flexibility Score: inf
ROOT
ATOM      1  C   UNL     1      40.826 -94.719  31.480  1.00  0.00     0.180 A 
ATOM      2  C   UNL     1      39.541 -94.601  32.036  1.00  0.00     0.208 A 
ATOM      3  C   UNL     1      39.398 -94.612  33.432  1.00  0.00     0.238 A 
ATOM      4  O   UNL     1      38.239 -94.559  33.921  1.00  0.00    -0.285 OA
ATOM      5  C   UNL     1      40.543 -94.727  34.257  1.00  0.00     0.111 A 
ATOM      6  C   UNL     1      40.520 -94.709  35.683  1.00  0.00     0.134 A 
ATOM      7  C   UNL     1      41.698 -94.961  36.396  1.00  0.00     0.093 A 
ATOM      8  C   UNL     1      42.911 -95.165  35.734  1.00  0.00     0.123 A 
ATOM      9  C   UNL     1      42.955 -95.124  34.342  1.00  0.00     0.094 A 
ATOM     10  C   UNL     1      41.790 -94.912  33.603  1.00  0.00     0.146 A 
ATOM     11  O   UNL     1      41.874 -94.891  32.278  1.00  0.00    -0.452 OA
ENDROOT
BRANCH   1  12
ATOM     12  C   UNL     1      41.059 -94.691  30.018  1.00  0.00     0.025 A 
ATOM     13  C   UNL     1      41.372 -95.881  29.345  1.00  0.00     0.016 A 
ATOM     14  C   UNL     1      41.616 -95.874  27.969  1.00  0.00     0.051 A 
ATOM     15  C   UNL     1      41.568 -94.673  27.249  1.00  0.00     0.157 A 
ATOM     16  C   UNL     1      41.032 -93.483  29.296  1.00  0.00     0.062 A 
ATOM     17  C   UNL     1      41.278 -93.472  27.918  1.00  0.00     0.158 A 
BRANCH  15  18
ATOM     18  O   UNL     1      41.809 -94.668  25.876  1.00  0.00    -0.504 OA
ATOM     19  H   UNL     1      42.537 -95.240  25.464  1.00  0.00     0.293 HD
ENDBRANCH  15  18
BRANCH  17  20
ATOM     20  O   UNL     1      41.237 -92.258  27.233  1.00  0.00    -0.504 OA
ATOM     21  H   UNL     1      41.890 -92.035  26.492  1.00  0.00     0.293 HD
ENDBRANCH  17  20
ENDBRANCH   1  12
BRANCH   2  22
ATOM     22  O   UNL     1      38.421 -94.511  31.203  1.00  0.00    -0.502 OA
ATOM     23  H   UNL     1      37.495 -94.784  31.506  1.00  0.00     0.293 HD
ENDBRANCH   2  22
BRANCH   6  24
ATOM     24  O   UNL     1      39.380 -94.424  36.441  1.00  0.00    -0.507 OA
ATOM     25  H   UNL     1      39.018 -95.011  37.177  1.00  0.00     0.293 HD
ENDBRANCH   6  24
BRANCH   8  26
ATOM     26  O   UNL     1      44.082 -95.400  36.451  1.00  0.00    -0.508 OA
ATOM     27  H   UNL     1      44.324 -94.850  37.268  1.00  0.00     0.293 HD
ENDBRANCH   8  26
TORSDOF 6
ENDMDL
