MODEL 1
REMARK VINA RESULT:    -3.763      0.000      0.000
REMARK INTER + INTRA:          -5.087
REMARK INTER:                  -4.862
REMARK INTRA:                  -0.225
REMARK UNBOUND:                -0.225
REMARK SMILES CCCCCCC(=O)[O-]
REMARK SMILES IDX 5 1 6 2 7 3 8 4 9 5 4 6 3 7 2 8 1 9
REMARK H PARENT
REMARK Flexibility Score: inf
ROOT
ATOM      1  C   UNL     1       8.694  -4.357  -3.884  1.00  0.00     0.006 C 
ENDROOT
BRANCH   1   2
ATOM      2  C   UNL     1       7.502  -4.076  -4.803  1.00  0.00     0.053 C 
BRANCH   2   3
ATOM      3  C   UNL     1       7.967  -3.823  -6.201  1.00  0.00     0.041 C 
ATOM      4  O   UNL     1       7.339  -3.022  -6.944  1.00  0.00    -0.550 OA
ATOM      5  O   UNL     1       9.123  -4.434  -6.671  1.00  0.00    -0.550 OA
ENDBRANCH   2   3
ENDBRANCH   1   2
BRANCH   1   6
ATOM      6  C   UNL     1       8.535  -5.706  -3.172  1.00  0.00     0.000 C 
BRANCH   6   7
ATOM      7  C   UNL     1       8.287  -6.835  -4.178  1.00  0.00    -0.000 C 
BRANCH   7   8
ATOM      8  C   UNL     1       8.138  -8.185  -3.466  1.00  0.00    -0.003 C 
ATOM      9  C   UNL     1       8.001  -8.000  -1.957  1.00  0.00     0.004 C 
ENDBRANCH   7   8
ENDBRANCH   6   7
ENDBRANCH   1   6
TORSDOF 5
ENDMDL
MODEL 2
REMARK VINA RESULT:    -3.724     20.239     21.406
REMARK INTER + INTRA:          -5.038
REMARK INTER:                  -4.794
REMARK INTRA:                  -0.244
REMARK UNBOUND:                -0.225
REMARK SMILES CCCCCCC(=O)[O-]
REMARK SMILES IDX 5 1 6 2 7 3 8 4 9 5 4 6 3 7 2 8 1 9
REMARK H PARENT
REMARK Flexibility Score: inf
ROOT
ATOM      1  C   UNL     1      -8.560   8.468  -7.983  1.00  0.00     0.006 C 
ENDROOT
BRANCH   1   2
ATOM      2  C   UNL     1      -8.532   7.044  -7.418  1.00  0.00     0.053 C 
BRANCH   2   3
ATOM      3  C   UNL     1      -9.754   6.292  -7.834  1.00  0.00     0.041 C 
ATOM      4  O   UNL     1      -9.667   5.349  -8.665  1.00  0.00    -0.550 OA
ATOM      5  O   UNL     1     -10.986   6.597  -7.268  1.00  0.00    -0.550 OA
ENDBRANCH   2   3
ENDBRANCH   1   2
BRANCH   1   6
ATOM      6  C   UNL     1      -7.795   8.549  -9.309  1.00  0.00     0.000 C 
BRANCH   6   7
ATOM      7  C   UNL     1      -6.580   7.615  -9.304  1.00  0.00    -0.000 C 
BRANCH   7   8
ATOM      8  C   UNL     1      -6.481   6.831 -10.618  1.00  0.00    -0.003 C 
ATOM      9  C   UNL     1      -5.228   7.220 -11.399  1.00  0.00     0.004 C 
ENDBRANCH   7   8
ENDBRANCH   6   7
ENDBRANCH   1   6
TORSDOF 5
ENDMDL
MODEL 3
REMARK VINA RESULT:    -3.607      6.602      8.514
REMARK INTER + INTRA:          -4.886
REMARK INTER:                  -4.740
REMARK INTRA:                  -0.146
REMARK UNBOUND:                -0.225
REMARK SMILES CCCCCCC(=O)[O-]
REMARK SMILES IDX 5 1 6 2 7 3 8 4 9 5 4 6 3 7 2 8 1 9
REMARK H PARENT
REMARK Flexibility Score: inf
ROOT
ATOM      1  C   UNL     1       7.165  -9.633   1.302  1.00  0.00     0.006 C 
ENDROOT
BRANCH   1   2
ATOM      2  C   UNL     1       6.804 -10.525   2.494  1.00  0.00     0.053 C 
BRANCH   2   3
ATOM      3  C   UNL     1       5.333 -10.787   2.525  1.00  0.00     0.041 C 
ATOM      4  O   UNL     1       4.658 -10.747   1.463  1.00  0.00    -0.550 OA
ATOM      5  O   UNL     1       4.712 -11.124   3.722  1.00  0.00    -0.550 OA
ENDBRANCH   2   3
ENDBRANCH   1   2
BRANCH   1   6
ATOM      6  C   UNL     1       8.546  -9.993   0.742  1.00  0.00     0.000 C 
BRANCH   6   7
ATOM      7  C   UNL     1       8.997  -8.975  -0.312  1.00  0.00    -0.000 C 
BRANCH   7   8
ATOM      8  C   UNL     1       7.954  -8.839  -1.427  1.00  0.00    -0.003 C 
ATOM      9  C   UNL     1       8.317  -7.709  -2.386  1.00  0.00     0.004 C 
ENDBRANCH   7   8
ENDBRANCH   6   7
ENDBRANCH   1   6
TORSDOF 5
ENDMDL
MODEL 4
REMARK VINA RESULT:    -3.592      3.081      4.967
REMARK INTER + INTRA:          -4.867
REMARK INTER:                  -4.692
REMARK INTRA:                  -0.175
REMARK UNBOUND:                -0.225
REMARK SMILES CCCCCCC(=O)[O-]
REMARK SMILES IDX 5 1 6 2 7 3 8 4 9 5 4 6 3 7 2 8 1 9
REMARK H PARENT
REMARK Flexibility Score: inf
ROOT
ATOM      1  C   UNL     1       8.374  -6.607  -3.426  1.00  0.00     0.006 C 
ENDROOT
BRANCH   1   2
ATOM      2  C   UNL     1       8.210  -7.674  -2.339  1.00  0.00     0.053 C 
BRANCH   2   3
ATOM      3  C   UNL     1       7.723  -8.956  -2.933  1.00  0.00     0.041 C 
ATOM      4  O   UNL     1       7.611  -9.986  -2.216  1.00  0.00    -0.550 OA
ATOM      5  O   UNL     1       7.345  -9.004  -4.269  1.00  0.00    -0.550 OA
ENDBRANCH   2   3
ENDBRANCH   1   2
BRANCH   1   6
ATOM      6  C   UNL     1       9.051  -5.350  -2.866  1.00  0.00     0.000 C 
BRANCH   6   7
ATOM      7  C   UNL     1       8.841  -4.150  -3.797  1.00  0.00    -0.000 C 
BRANCH   7   8
ATOM      8  C   UNL     1       7.567  -4.317  -4.633  1.00  0.00    -0.003 C 
ATOM      9  C   UNL     1       7.766  -3.790  -6.052  1.00  0.00     0.004 C 
ENDBRANCH   7   8
ENDBRANCH   6   7
ENDBRANCH   1   6
TORSDOF 5
ENDMDL
MODEL 5
REMARK VINA RESULT:    -3.573      4.015      5.669
REMARK INTER + INTRA:          -4.843
REMARK INTER:                  -4.652
REMARK INTRA:                  -0.191
REMARK UNBOUND:                -0.225
REMARK SMILES CCCCCCC(=O)[O-]
REMARK SMILES IDX 5 1 6 2 7 3 8 4 9 5 4 6 3 7 2 8 1 9
REMARK H PARENT
REMARK Flexibility Score: inf
ROOT
ATOM      1  C   UNL     1       8.101  -8.204  -3.513  1.00  0.00     0.006 C 
ENDROOT
BRANCH   1   2
ATOM      2  C   UNL     1       8.012  -8.042  -1.993  1.00  0.00     0.053 C 
BRANCH   2   3
ATOM      3  C   UNL     1       7.736  -9.359  -1.341  1.00  0.00     0.041 C 
ATOM      4  O   UNL     1       8.219 -10.418  -1.822  1.00  0.00    -0.550 OA
ATOM      5  O   UNL     1       6.985  -9.414  -0.173  1.00  0.00    -0.550 OA
ENDBRANCH   2   3
ENDBRANCH   1   2
BRANCH   1   6
ATOM      6  C   UNL     1       8.338  -6.852  -4.198  1.00  0.00     0.000 C 
BRANCH   6   7
ATOM      7  C   UNL     1       8.513  -5.733  -3.165  1.00  0.00    -0.000 C 
BRANCH   7   8
ATOM      8  C   UNL     1       8.539  -4.358  -3.842  1.00  0.00    -0.003 C 
ATOM      9  C   UNL     1       7.254  -4.104  -4.624  1.00  0.00     0.004 C 
ENDBRANCH   7   8
ENDBRANCH   6   7
ENDBRANCH   1   6
TORSDOF 5
ENDMDL
MODEL 6
REMARK VINA RESULT:    -3.510      1.132      1.332
REMARK INTER + INTRA:          -4.761
REMARK INTER:                  -4.585
REMARK INTRA:                  -0.176
REMARK UNBOUND:                -0.225
REMARK SMILES CCCCCCC(=O)[O-]
REMARK SMILES IDX 5 1 6 2 7 3 8 4 9 5 4 6 3 7 2 8 1 9
REMARK H PARENT
REMARK Flexibility Score: inf
ROOT
ATOM      1  C   UNL     1       8.980  -4.849  -3.396  1.00  0.00     0.006 C 
ENDROOT
BRANCH   1   2
ATOM      2  C   UNL     1       8.890  -4.870  -4.924  1.00  0.00     0.053 C 
BRANCH   2   3
ATOM      3  C   UNL     1       7.619  -4.228  -5.382  1.00  0.00     0.041 C 
ATOM      4  O   UNL     1       6.602  -4.233  -4.640  1.00  0.00    -0.550 OA
ATOM      5  O   UNL     1       7.571  -3.580  -6.610  1.00  0.00    -0.550 OA
ENDBRANCH   2   3
ENDBRANCH   1   2
BRANCH   1   6
ATOM      6  C   UNL     1       8.929  -6.270  -2.822  1.00  0.00     0.000 C 
BRANCH   6   7
ATOM      7  C   UNL     1       8.429  -7.271  -3.869  1.00  0.00    -0.000 C 
BRANCH   7   8
ATOM      8  C   UNL     1       7.951  -8.569  -3.207  1.00  0.00    -0.003 C 
ATOM      9  C   UNL     1       7.795  -8.393  -1.699  1.00  0.00     0.004 C 
ENDBRANCH   7   8
ENDBRANCH   6   7
ENDBRANCH   1   6
TORSDOF 5
ENDMDL
MODEL 7
REMARK VINA RESULT:    -3.436      6.610      8.607
REMARK INTER + INTRA:          -4.665
REMARK INTER:                  -4.547
REMARK INTRA:                  -0.118
REMARK UNBOUND:                -0.225
REMARK SMILES CCCCCCC(=O)[O-]
REMARK SMILES IDX 5 1 6 2 7 3 8 4 9 5 4 6 3 7 2 8 1 9
REMARK H PARENT
REMARK Flexibility Score: inf
ROOT
ATOM      1  C   UNL     1       6.807  -9.963   2.022  1.00  0.00     0.006 C 
ENDROOT
BRANCH   1   2
ATOM      2  C   UNL     1       8.145 -10.360   1.390  1.00  0.00     0.053 C 
BRANCH   2   3
ATOM      3  C   UNL     1       8.408  -9.544   0.165  1.00  0.00     0.041 C 
ATOM      4  O   UNL     1       9.086  -8.485   0.241  1.00  0.00    -0.550 OA
ATOM      5  O   UNL     1       7.946  -9.977  -1.072  1.00  0.00    -0.550 OA
ENDBRANCH   2   3
ENDBRANCH   1   2
BRANCH   1   6
ATOM      6  C   UNL     1       6.534 -10.780   3.290  1.00  0.00     0.000 C 
BRANCH   6   7
ATOM      7  C   UNL     1       5.559 -10.047   4.219  1.00  0.00    -0.000 C 
BRANCH   7   8
ATOM      8  C   UNL     1       4.105 -10.310   3.810  1.00  0.00    -0.003 C 
ATOM      9  C   UNL     1       3.186  -9.189   4.289  1.00  0.00     0.004 C 
ENDBRANCH   7   8
ENDBRANCH   6   7
ENDBRANCH   1   6
TORSDOF 5
ENDMDL
MODEL 8
REMARK VINA RESULT:    -3.320      7.659      9.571
REMARK INTER + INTRA:          -4.515
REMARK INTER:                  -4.401
REMARK INTRA:                  -0.114
REMARK UNBOUND:                -0.225
REMARK SMILES CCCCCCC(=O)[O-]
REMARK SMILES IDX 5 1 6 2 7 3 8 4 9 5 4 6 3 7 2 8 1 9
REMARK H PARENT
REMARK Flexibility Score: inf
ROOT
ATOM      1  C   UNL     1       6.634 -10.499   3.198  1.00  0.00     0.006 C 
ENDROOT
BRANCH   1   2
ATOM      2  C   UNL     1       5.174 -10.677   2.773  1.00  0.00     0.053 C 
BRANCH   2   3
ATOM      3  C   UNL     1       4.254 -10.194   3.848  1.00  0.00     0.041 C 
ATOM      4  O   UNL     1       4.396  -9.041   4.335  1.00  0.00    -0.550 OA
ATOM      5  O   UNL     1       3.206 -10.998   4.280  1.00  0.00    -0.550 OA
ENDBRANCH   2   3
ENDBRANCH   1   2
BRANCH   1   6
ATOM      6  C   UNL     1       7.575 -10.597   1.990  1.00  0.00     0.000 C 
BRANCH   6   7
ATOM      7  C   UNL     1       7.219  -9.550   0.928  1.00  0.00    -0.000 C 
BRANCH   7   8
ATOM      8  C   UNL     1       8.422  -9.251   0.026  1.00  0.00    -0.003 C 
ATOM      9  C   UNL     1       7.972  -8.746  -1.342  1.00  0.00     0.004 C 
ENDBRANCH   7   8
ENDBRANCH   6   7
ENDBRANCH   1   6
TORSDOF 5
ENDMDL
MODEL 9
REMARK VINA RESULT:    -3.250      1.943      3.108
REMARK INTER + INTRA:          -4.424
REMARK INTER:                  -4.080
REMARK INTRA:                  -0.345
REMARK UNBOUND:                -0.225
REMARK SMILES CCCCCCC(=O)[O-]
REMARK SMILES IDX 5 1 6 2 7 3 8 4 9 5 4 6 3 7 2 8 1 9
REMARK H PARENT
REMARK Flexibility Score: inf
ROOT
ATOM      1  C   UNL     1       7.841  -4.222  -6.793  1.00  0.00     0.006 C 
ENDROOT
BRANCH   1   2
ATOM      2  C   UNL     1       9.072  -5.104  -7.016  1.00  0.00     0.053 C 
BRANCH   2   3
ATOM      3  C   UNL     1       8.672  -6.428  -7.585  1.00  0.00     0.041 C 
ATOM      4  O   UNL     1       9.010  -7.495  -7.007  1.00  0.00    -0.550 OA
ATOM      5  O   UNL     1       7.883  -6.484  -8.727  1.00  0.00    -0.550 OA
ENDBRANCH   2   3
ENDBRANCH   1   2
BRANCH   1   6
ATOM      6  C   UNL     1       7.683  -3.861  -5.311  1.00  0.00     0.000 C 
BRANCH   6   7
ATOM      7  C   UNL     1       8.816  -4.463  -4.472  1.00  0.00    -0.000 C 
BRANCH   7   8
ATOM      8  C   UNL     1       8.260  -5.310  -3.322  1.00  0.00    -0.003 C 
ATOM      9  C   UNL     1       8.373  -6.800  -3.630  1.00  0.00     0.004 C 
ENDBRANCH   7   8
ENDBRANCH   6   7
ENDBRANCH   1   6
TORSDOF 5
ENDMDL
