MODEL 1
REMARK VINA RESULT:    -6.384      0.000      0.000
REMARK INTER + INTRA:         -11.198
REMARK INTER:                  -9.556
REMARK INTRA:                  -1.642
REMARK UNBOUND:                -1.642
REMARK SMILES O=c1c(O[C@@H]2O[C@H](CO)[C@@H](O)[C@H](O)[C@H]2O)c(-c2cc(O)c(O)c(O)c2)oc2cc(O)cc(O)c12
REMARK SMILES IDX 4 1 3 2 16 3 26 4 2 5 27 6 1 7 34 8 28 9 32 10 29 11 31 12
REMARK SMILES IDX 17 13 18 14 19 15 25 16 21 17 23 18 20 19 22 21 24 23 33 25
REMARK SMILES IDX 30 27 5 29 14 30 6 31 12 32 7 33 10 34 15 35 13 37 8 39 9 40
REMARK SMILES IDX 11 42
REMARK H PARENT 20 20 22 22 24 24 33 26 30 28 15 36 13 38 9 41 11 43
REMARK Flexibility Score: inf
ROOT
ATOM      1  O   UNL     1      55.069   6.217  81.232  1.00  0.00    -0.454 OA
ENDROOT
BRANCH   1   2
ATOM      2  C   UNL     1      54.251   5.545  80.302  1.00  0.00     0.214 A 
ATOM      3  C   UNL     1      54.650   5.517  78.950  1.00  0.00     0.181 A 
ATOM      4  O   UNL     1      53.935   4.846  78.054  1.00  0.00    -0.452 OA
ATOM      5  C   UNL     1      53.058   4.877  80.659  1.00  0.00     0.239 A 
ATOM      6  C   UNL     1      52.818   4.198  78.349  1.00  0.00     0.146 A 
ATOM      7  O   UNL     1      52.647   4.908  81.849  1.00  0.00    -0.285 OA
ATOM      8  C   UNL     1      52.322   4.187  79.673  1.00  0.00     0.111 A 
ATOM      9  C   UNL     1      52.133   3.526  77.332  1.00  0.00     0.094 A 
ATOM     10  C   UNL     1      51.121   3.488  79.951  1.00  0.00     0.134 A 
ATOM     11  C   UNL     1      50.950   2.839  77.611  1.00  0.00     0.123 A 
ATOM     12  C   UNL     1      50.447   2.821  78.917  1.00  0.00     0.093 A 
BRANCH   3  13
ATOM     13  C   UNL     1      55.885   6.186  78.490  1.00  0.00     0.029 A 
ATOM     14  C   UNL     1      57.150   5.645  78.768  1.00  0.00     0.062 A 
ATOM     15  C   UNL     1      58.311   6.294  78.339  1.00  0.00     0.162 A 
ATOM     16  C   UNL     1      55.797   7.408  77.808  1.00  0.00     0.062 A 
ATOM     17  C   UNL     1      58.219   7.506  77.635  1.00  0.00     0.200 A 
ATOM     18  C   UNL     1      56.956   8.066  77.373  1.00  0.00     0.162 A 
BRANCH  15  19
ATOM     19  O   UNL     1      59.549   5.719  78.626  1.00  0.00    -0.504 OA
ATOM     20  H   UNL     1      60.311   5.720  77.959  1.00  0.00     0.293 HD
ENDBRANCH  15  19
BRANCH  17  21
ATOM     21  O   UNL     1      59.384   8.146  77.207  1.00  0.00    -0.502 OA
ATOM     22  H   UNL     1      59.374   9.084  76.825  1.00  0.00     0.293 HD
ENDBRANCH  17  21
BRANCH  18  23
ATOM     23  O   UNL     1      56.857   9.273  76.682  1.00  0.00    -0.504 OA
ATOM     24  H   UNL     1      57.205  10.140  77.075  1.00  0.00     0.293 HD
ENDBRANCH  18  23
ENDBRANCH   3  13
BRANCH  10  25
ATOM     25  O   UNL     1      50.594   3.450  81.243  1.00  0.00    -0.507 OA
ATOM     26  H   UNL     1      50.976   2.840  81.957  1.00  0.00     0.293 HD
ENDBRANCH  10  25
BRANCH  11  27
ATOM     27  O   UNL     1      50.282   2.177  76.584  1.00  0.00    -0.508 OA
ATOM     28  H   UNL     1      50.719   2.020  75.683  1.00  0.00     0.293 HD
ENDBRANCH  11  27
ENDBRANCH   1   2
BRANCH   1  29
ATOM     29  C   UNL     1      55.055   7.621  81.507  1.00  0.00     0.339 C 
ATOM     30  C   UNL     1      54.426   7.891  82.883  1.00  0.00     0.214 C 
ATOM     31  O   UNL     1      56.342   8.208  81.376  1.00  0.00    -0.332 OA
ATOM     32  C   UNL     1      55.357   7.424  84.016  1.00  0.00     0.180 C 
ATOM     33  C   UNL     1      57.282   7.798  82.362  1.00  0.00     0.179 C 
ATOM     34  C   UNL     1      56.776   7.985  83.816  1.00  0.00     0.177 C 
BRANCH  30  35
ATOM     35  O   UNL     1      54.164   9.267  83.005  1.00  0.00    -0.384 OA
ATOM     36  H   UNL     1      54.825   9.629  83.650  1.00  0.00     0.211 HD
ENDBRANCH  30  35
BRANCH  32  37
ATOM     37  O   UNL     1      55.400   6.022  84.074  1.00  0.00    -0.387 OA
ATOM     38  H   UNL     1      55.185   5.687  83.165  1.00  0.00     0.211 HD
ENDBRANCH  32  37
BRANCH  33  39
ATOM     39  C   UNL     1      57.869   6.404  82.071  1.00  0.00     0.191 C 
BRANCH  39  40
ATOM     40  O   UNL     1      58.380   5.846  83.251  1.00  0.00    -0.394 OA
ATOM     41  H   UNL     1      59.169   5.306  82.983  1.00  0.00     0.210 HD
ENDBRANCH  39  40
ENDBRANCH  33  39
BRANCH  34  42
ATOM     42  O   UNL     1      56.789   9.357  84.124  1.00  0.00    -0.387 OA
ATOM     43  H   UNL     1      57.194   9.447  85.027  1.00  0.00     0.211 HD
ENDBRANCH  34  42
ENDBRANCH   1  29
TORSDOF 13
ENDMDL
MODEL 2
REMARK VINA RESULT:    -6.283      2.625      4.803
REMARK INTER + INTRA:         -11.047
REMARK INTER:                  -9.374
REMARK INTRA:                  -1.672
REMARK UNBOUND:                -1.642
REMARK SMILES O=c1c(O[C@@H]2O[C@H](CO)[C@@H](O)[C@H](O)[C@H]2O)c(-c2cc(O)c(O)c(O)c2)oc2cc(O)cc(O)c12
REMARK SMILES IDX 4 1 3 2 16 3 26 4 2 5 27 6 1 7 34 8 28 9 32 10 29 11 31 12
REMARK SMILES IDX 17 13 18 14 19 15 25 16 21 17 23 18 20 19 22 21 24 23 33 25
REMARK SMILES IDX 30 27 5 29 14 30 6 31 12 32 7 33 10 34 15 35 13 37 8 39 9 40
REMARK SMILES IDX 11 42
REMARK H PARENT 20 20 22 22 24 24 33 26 30 28 15 36 13 38 9 41 11 43
REMARK Flexibility Score: inf
ROOT
ATOM      1  O   UNL     1      56.120   6.076  80.334  1.00  0.00    -0.454 OA
ENDROOT
BRANCH   1   2
ATOM      2  C   UNL     1      55.080   5.348  80.947  1.00  0.00     0.214 A 
ATOM      3  C   UNL     1      53.751   5.619  80.563  1.00  0.00     0.181 A 
ATOM      4  O   UNL     1      52.748   4.915  81.076  1.00  0.00    -0.452 OA
ATOM      5  C   UNL     1      55.304   4.344  81.915  1.00  0.00     0.239 A 
ATOM      6  C   UNL     1      52.916   3.958  81.977  1.00  0.00     0.146 A 
ATOM      7  O   UNL     1      56.472   4.096  82.313  1.00  0.00    -0.285 OA
ATOM      8  C   UNL     1      54.208   3.628  82.445  1.00  0.00     0.111 A 
ATOM      9  C   UNL     1      51.794   3.278  82.463  1.00  0.00     0.094 A 
ATOM     10  C   UNL     1      54.349   2.603  83.413  1.00  0.00     0.134 A 
ATOM     11  C   UNL     1      51.938   2.269  83.416  1.00  0.00     0.123 A 
ATOM     12  C   UNL     1      53.211   1.934  83.889  1.00  0.00     0.093 A 
BRANCH   3  13
ATOM     13  C   UNL     1      53.427   6.650  79.554  1.00  0.00     0.029 A 
ATOM     14  C   UNL     1      53.648   6.423  78.188  1.00  0.00     0.062 A 
ATOM     15  C   UNL     1      53.350   7.411  77.245  1.00  0.00     0.162 A 
ATOM     16  C   UNL     1      52.939   7.897  79.973  1.00  0.00     0.062 A 
ATOM     17  C   UNL     1      52.839   8.651  77.664  1.00  0.00     0.200 A 
ATOM     18  C   UNL     1      52.638   8.894  79.034  1.00  0.00     0.162 A 
BRANCH  15  19
ATOM     19  O   UNL     1      53.574   7.143  75.895  1.00  0.00    -0.504 OA
ATOM     20  H   UNL     1      53.084   6.404  75.403  1.00  0.00     0.293 HD
ENDBRANCH  15  19
BRANCH  17  21
ATOM     21  O   UNL     1      52.541   9.631  76.716  1.00  0.00    -0.502 OA
ATOM     22  H   UNL     1      52.924   9.608  75.779  1.00  0.00     0.293 HD
ENDBRANCH  17  21
BRANCH  18  23
ATOM     23  O   UNL     1      52.139  10.125  79.459  1.00  0.00    -0.504 OA
ATOM     24  H   UNL     1      52.688  10.974  79.388  1.00  0.00     0.293 HD
ENDBRANCH  18  23
ENDBRANCH   3  13
BRANCH  10  25
ATOM     25  O   UNL     1      55.605   2.244  83.903  1.00  0.00    -0.507 OA
ATOM     26  H   UNL     1      56.248   2.933  84.277  1.00  0.00     0.293 HD
ENDBRANCH  10  25
BRANCH  11  27
ATOM     27  O   UNL     1      50.808   1.605  83.888  1.00  0.00    -0.508 OA
ATOM     28  H   UNL     1      50.884   0.796  84.494  1.00  0.00     0.293 HD
ENDBRANCH  11  27
ENDBRANCH   1   2
BRANCH   1  29
ATOM     29  C   UNL     1      56.973   5.607  79.286  1.00  0.00     0.339 C 
ATOM     30  C   UNL     1      56.968   6.593  78.108  1.00  0.00     0.214 C 
ATOM     31  O   UNL     1      58.287   5.322  79.747  1.00  0.00    -0.332 OA
ATOM     32  C   UNL     1      57.710   7.891  78.473  1.00  0.00     0.180 C 
ATOM     33  C   UNL     1      59.034   6.465  80.146  1.00  0.00     0.179 C 
ATOM     34  C   UNL     1      59.096   7.574  79.063  1.00  0.00     0.177 C 
BRANCH  30  35
ATOM     35  O   UNL     1      57.572   5.983  76.996  1.00  0.00    -0.384 OA
ATOM     36  H   UNL     1      57.291   5.031  77.002  1.00  0.00     0.211 HD
ENDBRANCH  30  35
BRANCH  32  37
ATOM     37  O   UNL     1      56.963   8.649  79.388  1.00  0.00    -0.387 OA
ATOM     38  H   UNL     1      56.219   9.066  78.880  1.00  0.00     0.211 HD
ENDBRANCH  32  37
BRANCH  33  39
ATOM     39  C   UNL     1      58.633   6.971  81.545  1.00  0.00     0.191 C 
BRANCH  39  40
ATOM     40  O   UNL     1      58.544   5.892  82.435  1.00  0.00    -0.394 OA
ATOM     41  H   UNL     1      59.473   5.574  82.579  1.00  0.00     0.210 HD
ENDBRANCH  39  40
ENDBRANCH  33  39
BRANCH  34  42
ATOM     42  O   UNL     1      59.960   7.152  78.037  1.00  0.00    -0.387 OA
ATOM     43  H   UNL     1      60.842   6.968  78.457  1.00  0.00     0.211 HD
ENDBRANCH  34  42
ENDBRANCH   1  29
TORSDOF 13
ENDMDL
MODEL 3
REMARK VINA RESULT:    -6.261      2.238      6.655
REMARK INTER + INTRA:         -11.014
REMARK INTER:                  -9.877
REMARK INTRA:                  -1.137
REMARK UNBOUND:                -1.642
REMARK SMILES O=c1c(O[C@@H]2O[C@H](CO)[C@@H](O)[C@H](O)[C@H]2O)c(-c2cc(O)c(O)c(O)c2)oc2cc(O)cc(O)c12
REMARK SMILES IDX 4 1 3 2 16 3 26 4 2 5 27 6 1 7 34 8 28 9 32 10 29 11 31 12
REMARK SMILES IDX 17 13 18 14 19 15 25 16 21 17 23 18 20 19 22 21 24 23 33 25
REMARK SMILES IDX 30 27 5 29 14 30 6 31 12 32 7 33 10 34 15 35 13 37 8 39 9 40
REMARK SMILES IDX 11 42
REMARK H PARENT 20 20 22 22 24 24 33 26 30 28 15 36 13 38 9 41 11 43
REMARK Flexibility Score: inf
ROOT
ATOM      1  O   UNL     1      54.717   4.917  81.317  1.00  0.00    -0.454 OA
ENDROOT
BRANCH   1   2
ATOM      2  C   UNL     1      55.457   5.617  80.343  1.00  0.00     0.214 A 
ATOM      3  C   UNL     1      55.194   5.359  78.982  1.00  0.00     0.181 A 
ATOM      4  O   UNL     1      55.831   6.038  78.036  1.00  0.00    -0.452 OA
ATOM      5  C   UNL     1      56.438   6.582  80.662  1.00  0.00     0.239 A 
ATOM      6  C   UNL     1      56.749   6.959  78.292  1.00  0.00     0.146 A 
ATOM      7  O   UNL     1      56.729   6.817  81.864  1.00  0.00    -0.285 OA
ATOM      8  C   UNL     1      57.100   7.273  79.625  1.00  0.00     0.111 A 
ATOM      9  C   UNL     1      57.369   7.616  77.224  1.00  0.00     0.094 A 
ATOM     10  C   UNL     1      58.091   8.259  79.860  1.00  0.00     0.134 A 
ATOM     11  C   UNL     1      58.343   8.586  77.462  1.00  0.00     0.123 A 
ATOM     12  C   UNL     1      58.703   8.905  78.776  1.00  0.00     0.093 A 
BRANCH   3  13
ATOM     13  C   UNL     1      54.182   4.368  78.561  1.00  0.00     0.029 A 
ATOM     14  C   UNL     1      52.813   4.677  78.575  1.00  0.00     0.062 A 
ATOM     15  C   UNL     1      51.864   3.727  78.186  1.00  0.00     0.162 A 
ATOM     16  C   UNL     1      54.590   3.079  78.187  1.00  0.00     0.062 A 
ATOM     17  C   UNL     1      52.277   2.444  77.790  1.00  0.00     0.200 A 
ATOM     18  C   UNL     1      53.645   2.119  77.796  1.00  0.00     0.162 A 
BRANCH  15  19
ATOM     19  O   UNL     1      50.515   4.076  78.205  1.00  0.00    -0.504 OA
ATOM     20  H   UNL     1      49.876   3.720  78.906  1.00  0.00     0.293 HD
ENDBRANCH  15  19
BRANCH  17  21
ATOM     21  O   UNL     1      51.324   1.502  77.400  1.00  0.00    -0.502 OA
ATOM     22  H   UNL     1      50.340   1.730  77.324  1.00  0.00     0.293 HD
ENDBRANCH  17  21
BRANCH  18  23
ATOM     23  O   UNL     1      54.063   0.845  77.412  1.00  0.00    -0.504 OA
ATOM     24  H   UNL     1      54.890   0.415  77.809  1.00  0.00     0.293 HD
ENDBRANCH  18  23
ENDBRANCH   3  13
BRANCH  10  25
ATOM     25  O   UNL     1      58.470   8.601  81.159  1.00  0.00    -0.507 OA
ATOM     26  H   UNL     1      59.121   9.356  81.343  1.00  0.00     0.293 HD
ENDBRANCH  10  25
BRANCH  11  27
ATOM     27  O   UNL     1      58.950   9.228  76.384  1.00  0.00    -0.508 OA
ATOM     28  H   UNL     1      58.468   9.947  75.857  1.00  0.00     0.293 HD
ENDBRANCH  11  27
ENDBRANCH   1   2
BRANCH   1  29
ATOM     29  C   UNL     1      54.951   3.574  81.751  1.00  0.00     0.339 C 
ATOM     30  C   UNL     1      55.285   3.545  83.250  1.00  0.00     0.214 C 
ATOM     31  O   UNL     1      53.875   2.706  81.419  1.00  0.00    -0.332 OA
ATOM     32  C   UNL     1      54.042   3.868  84.098  1.00  0.00     0.180 C 
ATOM     33  C   UNL     1      52.670   2.961  82.129  1.00  0.00     0.179 C 
ATOM     34  C   UNL     1      52.851   2.992  83.669  1.00  0.00     0.177 C 
BRANCH  30  35
ATOM     35  O   UNL     1      55.785   2.275  83.584  1.00  0.00    -0.384 OA
ATOM     36  H   UNL     1      56.166   1.888  82.753  1.00  0.00     0.211 HD
ENDBRANCH  30  35
BRANCH  32  37
ATOM     37  O   UNL     1      53.703   5.226  83.982  1.00  0.00    -0.387 OA
ATOM     38  H   UNL     1      54.489   5.749  84.289  1.00  0.00     0.211 HD
ENDBRANCH  32  37
BRANCH  33  39
ATOM     39  C   UNL     1      51.895   4.165  81.560  1.00  0.00     0.191 C 
BRANCH  39  40
ATOM     40  O   UNL     1      50.552   3.817  81.359  1.00  0.00    -0.394 OA
ATOM     41  H   UNL     1      50.535   3.236  80.554  1.00  0.00     0.210 HD
ENDBRANCH  39  40
ENDBRANCH  33  39
BRANCH  34  42
ATOM     42  O   UNL     1      53.046   1.676  84.125  1.00  0.00    -0.387 OA
ATOM     43  H   UNL     1      53.992   1.607  84.420  1.00  0.00     0.211 HD
ENDBRANCH  34  42
ENDBRANCH   1  29
TORSDOF 13
ENDMDL
MODEL 4
REMARK VINA RESULT:    -6.240      1.538      2.775
REMARK INTER + INTRA:         -10.983
REMARK INTER:                 -10.642
REMARK INTRA:                  -0.341
REMARK UNBOUND:                -1.642
REMARK SMILES O=c1c(O[C@@H]2O[C@H](CO)[C@@H](O)[C@H](O)[C@H]2O)c(-c2cc(O)c(O)c(O)c2)oc2cc(O)cc(O)c12
REMARK SMILES IDX 4 1 3 2 16 3 26 4 2 5 27 6 1 7 34 8 28 9 32 10 29 11 31 12
REMARK SMILES IDX 17 13 18 14 19 15 25 16 21 17 23 18 20 19 22 21 24 23 33 25
REMARK SMILES IDX 30 27 5 29 14 30 6 31 12 32 7 33 10 34 15 35 13 37 8 39 9 40
REMARK SMILES IDX 11 42
REMARK H PARENT 20 20 22 22 24 24 33 26 30 28 15 36 13 38 9 41 11 43
REMARK Flexibility Score: inf
ROOT
ATOM      1  O   UNL     1      55.789   5.614  81.217  1.00  0.00    -0.454 OA
ENDROOT
BRANCH   1   2
ATOM      2  C   UNL     1      54.815   5.134  80.318  1.00  0.00     0.214 A 
ATOM      3  C   UNL     1      54.943   5.457  78.952  1.00  0.00     0.181 A 
ATOM      4  O   UNL     1      54.077   4.977  78.066  1.00  0.00    -0.452 OA
ATOM      5  C   UNL     1      53.726   4.326  80.715  1.00  0.00     0.239 A 
ATOM      6  C   UNL     1      53.050   4.206  78.395  1.00  0.00     0.146 A 
ATOM      7  O   UNL     1      53.556   4.044  81.930  1.00  0.00    -0.285 OA
ATOM      8  C   UNL     1      52.823   3.847  79.743  1.00  0.00     0.111 A 
ATOM      9  C   UNL     1      52.190   3.756  77.388  1.00  0.00     0.094 A 
ATOM     10  C   UNL     1      51.710   3.027  80.057  1.00  0.00     0.134 A 
ATOM     11  C   UNL     1      51.096   2.948  77.703  1.00  0.00     0.123 A 
ATOM     12  C   UNL     1      50.858   2.586  79.034  1.00  0.00     0.093 A 
BRANCH   3  13
ATOM     13  C   UNL     1      56.053   6.293  78.450  1.00  0.00     0.029 A 
ATOM     14  C   UNL     1      55.807   7.497  77.774  1.00  0.00     0.062 A 
ATOM     15  C   UNL     1      56.866   8.273  77.293  1.00  0.00     0.162 A 
ATOM     16  C   UNL     1      57.376   5.853  78.608  1.00  0.00     0.062 A 
ATOM     17  C   UNL     1      58.191   7.842  77.473  1.00  0.00     0.200 A 
ATOM     18  C   UNL     1      58.444   6.625  78.130  1.00  0.00     0.162 A 
BRANCH  15  19
ATOM     19  O   UNL     1      56.580   9.468  76.634  1.00  0.00    -0.504 OA
ATOM     20  H   UNL     1      57.192   9.852  75.924  1.00  0.00     0.293 HD
ENDBRANCH  15  19
BRANCH  17  21
ATOM     21  O   UNL     1      59.242   8.624  76.993  1.00  0.00    -0.502 OA
ATOM     22  H   UNL     1      59.862   9.132  77.611  1.00  0.00     0.293 HD
ENDBRANCH  17  21
BRANCH  18  23
ATOM     23  O   UNL     1      59.756   6.186  78.305  1.00  0.00    -0.504 OA
ATOM     24  H   UNL     1      60.250   5.684  77.577  1.00  0.00     0.293 HD
ENDBRANCH  18  23
ENDBRANCH   3  13
BRANCH  10  25
ATOM     25  O   UNL     1      51.447   2.647  81.374  1.00  0.00    -0.507 OA
ATOM     26  H   UNL     1      52.192   2.503  82.047  1.00  0.00     0.293 HD
ENDBRANCH  10  25
BRANCH  11  27
ATOM     27  O   UNL     1      50.250   2.511  76.686  1.00  0.00    -0.508 OA
ATOM     28  H   UNL     1      49.535   3.113  76.297  1.00  0.00     0.293 HD
ENDBRANCH  11  27
ENDBRANCH   1   2
BRANCH   1  29
ATOM     29  C   UNL     1      56.059   5.096  82.523  1.00  0.00     0.339 C 
ATOM     30  C   UNL     1      56.901   3.815  82.428  1.00  0.00     0.214 C 
ATOM     31  O   UNL     1      56.648   6.068  83.377  1.00  0.00    -0.332 OA
ATOM     32  C   UNL     1      58.339   4.132  81.983  1.00  0.00     0.180 C 
ATOM     33  C   UNL     1      57.968   6.452  83.013  1.00  0.00     0.179 C 
ATOM     34  C   UNL     1      58.939   5.253  82.849  1.00  0.00     0.177 C 
BRANCH  30  35
ATOM     35  O   UNL     1      56.909   3.177  83.681  1.00  0.00    -0.384 OA
ATOM     36  H   UNL     1      56.002   3.290  84.067  1.00  0.00     0.211 HD
ENDBRANCH  30  35
BRANCH  32  37
ATOM     37  O   UNL     1      58.368   4.505  80.630  1.00  0.00    -0.387 OA
ATOM     38  H   UNL     1      57.495   4.239  80.237  1.00  0.00     0.211 HD
ENDBRANCH  32  37
BRANCH  33  39
ATOM     39  C   UNL     1      57.989   7.447  81.838  1.00  0.00     0.191 C 
BRANCH  39  40
ATOM     40  O   UNL     1      59.246   7.427  81.218  1.00  0.00    -0.394 OA
ATOM     41  H   UNL     1      59.127   7.873  80.339  1.00  0.00     0.210 HD
ENDBRANCH  39  40
ENDBRANCH  33  39
BRANCH  34  42
ATOM     42  O   UNL     1      59.251   4.749  84.125  1.00  0.00    -0.387 OA
ATOM     43  H   UNL     1      60.128   4.291  84.049  1.00  0.00     0.211 HD
ENDBRANCH  34  42
ENDBRANCH   1  29
TORSDOF 13
ENDMDL
MODEL 5
REMARK VINA RESULT:    -6.214      0.875      2.098
REMARK INTER + INTRA:         -10.944
REMARK INTER:                  -9.437
REMARK INTRA:                  -1.507
REMARK UNBOUND:                -1.642
REMARK SMILES O=c1c(O[C@@H]2O[C@H](CO)[C@@H](O)[C@H](O)[C@H]2O)c(-c2cc(O)c(O)c(O)c2)oc2cc(O)cc(O)c12
REMARK SMILES IDX 4 1 3 2 16 3 26 4 2 5 27 6 1 7 34 8 28 9 32 10 29 11 31 12
REMARK SMILES IDX 17 13 18 14 19 15 25 16 21 17 23 18 20 19 22 21 24 23 33 25
REMARK SMILES IDX 30 27 5 29 14 30 6 31 12 32 7 33 10 34 15 35 13 37 8 39 9 40
REMARK SMILES IDX 11 42
REMARK H PARENT 20 20 22 22 24 24 33 26 30 28 15 36 13 38 9 41 11 43
REMARK Flexibility Score: inf
ROOT
ATOM      1  O   UNL     1      55.341   6.243  81.158  1.00  0.00    -0.454 OA
ENDROOT
BRANCH   1   2
ATOM      2  C   UNL     1      54.468   5.592  80.263  1.00  0.00     0.214 A 
ATOM      3  C   UNL     1      54.752   5.650  78.883  1.00  0.00     0.181 A 
ATOM      4  O   UNL     1      53.985   5.003  78.014  1.00  0.00    -0.452 OA
ATOM      5  C   UNL     1      53.332   4.864  80.681  1.00  0.00     0.239 A 
ATOM      6  C   UNL     1      52.918   4.300  78.365  1.00  0.00     0.146 A 
ATOM      7  O   UNL     1      53.022   4.817  81.901  1.00  0.00    -0.285 OA
ATOM      8  C   UNL     1      52.537   4.201  79.722  1.00  0.00     0.111 A 
ATOM      9  C   UNL     1      52.170   3.658  77.372  1.00  0.00     0.094 A 
ATOM     10  C   UNL     1      51.386   3.446  80.060  1.00  0.00     0.134 A 
ATOM     11  C   UNL     1      51.038   2.916  77.710  1.00  0.00     0.123 A 
ATOM     12  C   UNL     1      50.648   2.811  79.049  1.00  0.00     0.093 A 
BRANCH   3  13
ATOM     13  C   UNL     1      55.922   6.386  78.360  1.00  0.00     0.029 A 
ATOM     14  C   UNL     1      57.221   5.871  78.489  1.00  0.00     0.062 A 
ATOM     15  C   UNL     1      58.321   6.582  78.002  1.00  0.00     0.162 A 
ATOM     16  C   UNL     1      55.740   7.645  77.771  1.00  0.00     0.062 A 
ATOM     17  C   UNL     1      58.133   7.833  77.390  1.00  0.00     0.200 A 
ATOM     18  C   UNL     1      56.837   8.366  77.279  1.00  0.00     0.162 A 
BRANCH  15  19
ATOM     19  O   UNL     1      59.594   6.031  78.140  1.00  0.00    -0.504 OA
ATOM     20  H   UNL     1      59.886   5.211  77.620  1.00  0.00     0.293 HD
ENDBRANCH  15  19
BRANCH  17  21
ATOM     21  O   UNL     1      59.237   8.535  76.904  1.00  0.00    -0.502 OA
ATOM     22  H   UNL     1      59.937   8.100  76.317  1.00  0.00     0.293 HD
ENDBRANCH  17  21
BRANCH  18  23
ATOM     23  O   UNL     1      56.643   9.611  76.681  1.00  0.00    -0.504 OA
ATOM     24  H   UNL     1      55.957  10.268  77.032  1.00  0.00     0.293 HD
ENDBRANCH  18  23
ENDBRANCH   3  13
BRANCH  10  25
ATOM     25  O   UNL     1      50.971   3.321  81.386  1.00  0.00    -0.507 OA
ATOM     26  H   UNL     1      51.268   2.544  81.966  1.00  0.00     0.293 HD
ENDBRANCH  10  25
BRANCH  11  27
ATOM     27  O   UNL     1      50.306   2.285  76.706  1.00  0.00    -0.508 OA
ATOM     28  H   UNL     1      49.686   1.510  76.910  1.00  0.00     0.293 HD
ENDBRANCH  11  27
ENDBRANCH   1   2
BRANCH   1  29
ATOM     29  C   UNL     1      56.311   5.612  82.000  1.00  0.00     0.339 C 
ATOM     30  C   UNL     1      57.732   5.954  81.529  1.00  0.00     0.214 C 
ATOM     31  O   UNL     1      56.109   5.913  83.374  1.00  0.00    -0.332 OA
ATOM     32  C   UNL     1      58.070   7.427  81.820  1.00  0.00     0.180 C 
ATOM     33  C   UNL     1      56.359   7.268  83.725  1.00  0.00     0.179 C 
ATOM     34  C   UNL     1      57.758   7.774  83.287  1.00  0.00     0.177 C 
BRANCH  30  35
ATOM     35  O   UNL     1      58.647   5.107  82.179  1.00  0.00    -0.384 OA
ATOM     36  H   UNL     1      59.513   5.590  82.211  1.00  0.00     0.211 HD
ENDBRANCH  30  35
BRANCH  32  37
ATOM     37  O   UNL     1      57.353   8.278  80.964  1.00  0.00    -0.387 OA
ATOM     38  H   UNL     1      57.757   9.181  81.046  1.00  0.00     0.211 HD
ENDBRANCH  32  37
BRANCH  33  39
ATOM     39  C   UNL     1      55.199   8.202  83.333  1.00  0.00     0.191 C 
BRANCH  39  40
ATOM     40  O   UNL     1      53.984   7.504  83.389  1.00  0.00    -0.394 OA
ATOM     41  H   UNL     1      54.079   6.734  82.769  1.00  0.00     0.210 HD
ENDBRANCH  39  40
ENDBRANCH  33  39
BRANCH  34  42
ATOM     42  O   UNL     1      58.728   7.196  84.125  1.00  0.00    -0.387 OA
ATOM     43  H   UNL     1      59.540   7.766  84.066  1.00  0.00     0.211 HD
ENDBRANCH  34  42
ENDBRANCH   1  29
TORSDOF 13
ENDMDL
MODEL 6
REMARK VINA RESULT:    -6.087      2.300      6.492
REMARK INTER + INTRA:         -10.753
REMARK INTER:                  -9.957
REMARK INTRA:                  -0.797
REMARK UNBOUND:                -1.642
REMARK SMILES O=c1c(O[C@@H]2O[C@H](CO)[C@@H](O)[C@H](O)[C@H]2O)c(-c2cc(O)c(O)c(O)c2)oc2cc(O)cc(O)c12
REMARK SMILES IDX 4 1 3 2 16 3 26 4 2 5 27 6 1 7 34 8 28 9 32 10 29 11 31 12
REMARK SMILES IDX 17 13 18 14 19 15 25 16 21 17 23 18 20 19 22 21 24 23 33 25
REMARK SMILES IDX 30 27 5 29 14 30 6 31 12 32 7 33 10 34 15 35 13 37 8 39 9 40
REMARK SMILES IDX 11 42
REMARK H PARENT 20 20 22 22 24 24 33 26 30 28 15 36 13 38 9 41 11 43
REMARK Flexibility Score: inf
ROOT
ATOM      1  O   UNL     1      54.936   4.663  81.488  1.00  0.00    -0.454 OA
ENDROOT
BRANCH   1   2
ATOM      2  C   UNL     1      55.647   5.460  80.568  1.00  0.00     0.214 A 
ATOM      3  C   UNL     1      55.353   5.332  79.196  1.00  0.00     0.181 A 
ATOM      4  O   UNL     1      55.962   6.105  78.304  1.00  0.00    -0.452 OA
ATOM      5  C   UNL     1      56.629   6.400  80.956  1.00  0.00     0.239 A 
ATOM      6  C   UNL     1      56.880   7.006  78.626  1.00  0.00     0.146 A 
ATOM      7  O   UNL     1      56.948   6.520  82.168  1.00  0.00    -0.285 OA
ATOM      8  C   UNL     1      57.261   7.193  79.975  1.00  0.00     0.111 A 
ATOM      9  C   UNL     1      57.468   7.769  77.613  1.00  0.00     0.094 A 
ATOM     10  C   UNL     1      58.250   8.161  80.281  1.00  0.00     0.134 A 
ATOM     11  C   UNL     1      58.442   8.721  77.920  1.00  0.00     0.123 A 
ATOM     12  C   UNL     1      58.831   8.915  79.250  1.00  0.00     0.093 A 
BRANCH   3  13
ATOM     13  C   UNL     1      54.338   4.377  78.704  1.00  0.00     0.029 A 
ATOM     14  C   UNL     1      52.979   4.723  78.655  1.00  0.00     0.062 A 
ATOM     15  C   UNL     1      52.027   3.807  78.200  1.00  0.00     0.162 A 
ATOM     16  C   UNL     1      54.730   3.084  78.328  1.00  0.00     0.062 A 
ATOM     17  C   UNL     1      52.425   2.520  77.801  1.00  0.00     0.200 A 
ATOM     18  C   UNL     1      53.782   2.158  77.870  1.00  0.00     0.162 A 
BRANCH  15  19
ATOM     19  O   UNL     1      50.688   4.193  78.157  1.00  0.00    -0.504 OA
ATOM     20  H   UNL     1      49.931   3.528  78.273  1.00  0.00     0.293 HD
ENDBRANCH  15  19
BRANCH  17  21
ATOM     21  O   UNL     1      51.468   1.612  77.346  1.00  0.00    -0.502 OA
ATOM     22  H   UNL     1      50.491   1.860  77.253  1.00  0.00     0.293 HD
ENDBRANCH  17  21
BRANCH  18  23
ATOM     23  O   UNL     1      54.184   0.880  77.484  1.00  0.00    -0.504 OA
ATOM     24  H   UNL     1      54.521   0.689  76.547  1.00  0.00     0.293 HD
ENDBRANCH  18  23
ENDBRANCH   3  13
BRANCH  10  25
ATOM     25  O   UNL     1      58.658   8.380  81.597  1.00  0.00    -0.507 OA
ATOM     26  H   UNL     1      59.543   8.030  81.947  1.00  0.00     0.293 HD
ENDBRANCH  10  25
BRANCH  11  27
ATOM     27  O   UNL     1      59.017   9.469  76.895  1.00  0.00    -0.508 OA
ATOM     28  H   UNL     1      59.824  10.059  77.060  1.00  0.00     0.293 HD
ENDBRANCH  11  27
ENDBRANCH   1   2
BRANCH   1  29
ATOM     29  C   UNL     1      53.649   4.957  82.039  1.00  0.00     0.339 C 
ATOM     30  C   UNL     1      52.592   3.996  81.473  1.00  0.00     0.214 C 
ATOM     31  O   UNL     1      53.661   4.971  83.460  1.00  0.00    -0.332 OA
ATOM     32  C   UNL     1      52.784   2.575  82.030  1.00  0.00     0.180 C 
ATOM     33  C   UNL     1      53.876   3.700  84.061  1.00  0.00     0.179 C 
ATOM     34  C   UNL     1      52.894   2.606  83.565  1.00  0.00     0.177 C 
BRANCH  30  35
ATOM     35  O   UNL     1      51.312   4.478  81.799  1.00  0.00    -0.384 OA
ATOM     36  H   UNL     1      50.798   3.708  82.156  1.00  0.00     0.211 HD
ENDBRANCH  30  35
BRANCH  32  37
ATOM     37  O   UNL     1      53.929   1.978  81.480  1.00  0.00    -0.387 OA
ATOM     38  H   UNL     1      54.671   2.126  82.123  1.00  0.00     0.211 HD
ENDBRANCH  32  37
BRANCH  33  39
ATOM     39  C   UNL     1      55.357   3.278  84.035  1.00  0.00     0.191 C 
BRANCH  39  40
ATOM     40  O   UNL     1      55.457   1.882  84.102  1.00  0.00    -0.394 OA
ATOM     41  H   UNL     1      56.323   1.646  83.676  1.00  0.00     0.210 HD
ENDBRANCH  39  40
ENDBRANCH  33  39
BRANCH  34  42
ATOM     42  O   UNL     1      51.628   2.851  84.125  1.00  0.00    -0.387 OA
ATOM     43  H   UNL     1      50.991   2.949  83.369  1.00  0.00     0.211 HD
ENDBRANCH  34  42
ENDBRANCH   1  29
TORSDOF 13
ENDMDL
MODEL 7
REMARK VINA RESULT:    -6.062      2.667      4.700
REMARK INTER + INTRA:         -10.716
REMARK INTER:                  -9.126
REMARK INTRA:                  -1.590
REMARK UNBOUND:                -1.642
REMARK SMILES O=c1c(O[C@@H]2O[C@H](CO)[C@@H](O)[C@H](O)[C@H]2O)c(-c2cc(O)c(O)c(O)c2)oc2cc(O)cc(O)c12
REMARK SMILES IDX 4 1 3 2 16 3 26 4 2 5 27 6 1 7 34 8 28 9 32 10 29 11 31 12
REMARK SMILES IDX 17 13 18 14 19 15 25 16 21 17 23 18 20 19 22 21 24 23 33 25
REMARK SMILES IDX 30 27 5 29 14 30 6 31 12 32 7 33 10 34 15 35 13 37 8 39 9 40
REMARK SMILES IDX 11 42
REMARK H PARENT 20 20 22 22 24 24 33 26 30 28 15 36 13 38 9 41 11 43
REMARK Flexibility Score: inf
ROOT
ATOM      1  O   UNL     1      55.888   5.994  79.705  1.00  0.00    -0.454 OA
ENDROOT
BRANCH   1   2
ATOM      2  C   UNL     1      54.858   5.369  80.436  1.00  0.00     0.214 A 
ATOM      3  C   UNL     1      53.524   5.746  80.178  1.00  0.00     0.181 A 
ATOM      4  O   UNL     1      52.523   5.141  80.805  1.00  0.00    -0.452 OA
ATOM      5  C   UNL     1      55.092   4.366  81.403  1.00  0.00     0.239 A 
ATOM      6  C   UNL     1      52.699   4.188  81.710  1.00  0.00     0.146 A 
ATOM      7  O   UNL     1      56.270   4.026  81.690  1.00  0.00    -0.285 OA
ATOM      8  C   UNL     1      54.000   3.757  82.056  1.00  0.00     0.111 A 
ATOM      9  C   UNL     1      51.579   3.615  82.321  1.00  0.00     0.094 A 
ATOM     10  C   UNL     1      54.150   2.740  83.032  1.00  0.00     0.134 A 
ATOM     11  C   UNL     1      51.732   2.614  83.281  1.00  0.00     0.123 A 
ATOM     12  C   UNL     1      53.014   2.180  83.635  1.00  0.00     0.093 A 
BRANCH   3  13
ATOM     13  C   UNL     1      53.189   6.784  79.180  1.00  0.00     0.029 A 
ATOM     14  C   UNL     1      53.545   6.636  77.831  1.00  0.00     0.062 A 
ATOM     15  C   UNL     1      53.234   7.630  76.899  1.00  0.00     0.162 A 
ATOM     16  C   UNL     1      52.548   7.960  79.595  1.00  0.00     0.062 A 
ATOM     17  C   UNL     1      52.571   8.798  77.313  1.00  0.00     0.200 A 
ATOM     18  C   UNL     1      52.232   8.963  78.667  1.00  0.00     0.162 A 
BRANCH  15  19
ATOM     19  O   UNL     1      53.596   7.441  75.566  1.00  0.00    -0.504 OA
ATOM     20  H   UNL     1      54.029   8.174  75.016  1.00  0.00     0.293 HD
ENDBRANCH  15  19
BRANCH  17  21
ATOM     21  O   UNL     1      52.261   9.784  76.376  1.00  0.00    -0.502 OA
ATOM     22  H   UNL     1      51.625   9.616  75.607  1.00  0.00     0.293 HD
ENDBRANCH  17  21
BRANCH  18  23
ATOM     23  O   UNL     1      51.581  10.123  79.088  1.00  0.00    -0.504 OA
ATOM     24  H   UNL     1      51.009  10.138  79.924  1.00  0.00     0.293 HD
ENDBRANCH  18  23
ENDBRANCH   3  13
BRANCH  10  25
ATOM     25  O   UNL     1      55.415   2.283  83.405  1.00  0.00    -0.507 OA
ATOM     26  H   UNL     1      55.590   1.891  84.324  1.00  0.00     0.293 HD
ENDBRANCH  10  25
BRANCH  11  27
ATOM     27  O   UNL     1      50.603   2.058  83.879  1.00  0.00    -0.508 OA
ATOM     28  H   UNL     1      50.405   2.193  84.863  1.00  0.00     0.293 HD
ENDBRANCH  11  27
ENDBRANCH   1   2
BRANCH   1  29
ATOM     29  C   UNL     1      56.503   7.248  80.018  1.00  0.00     0.339 C 
ATOM     30  C   UNL     1      57.617   7.053  81.058  1.00  0.00     0.214 C 
ATOM     31  O   UNL     1      56.961   7.928  78.857  1.00  0.00    -0.332 OA
ATOM     32  C   UNL     1      58.826   6.328  80.443  1.00  0.00     0.180 C 
ATOM     33  C   UNL     1      58.055   7.302  78.198  1.00  0.00     0.179 C 
ATOM     34  C   UNL     1      59.258   7.012  79.133  1.00  0.00     0.177 C 
BRANCH  30  35
ATOM     35  O   UNL     1      58.004   8.310  81.555  1.00  0.00    -0.384 OA
ATOM     36  H   UNL     1      58.649   8.142  82.291  1.00  0.00     0.211 HD
ENDBRANCH  30  35
BRANCH  32  37
ATOM     37  O   UNL     1      58.524   4.979  80.201  1.00  0.00    -0.387 OA
ATOM     38  H   UNL     1      58.011   4.943  79.352  1.00  0.00     0.211 HD
ENDBRANCH  32  37
BRANCH  33  39
ATOM     39  C   UNL     1      57.616   6.099  77.342  1.00  0.00     0.191 C 
BRANCH  39  40
ATOM     40  O   UNL     1      56.446   6.415  76.638  1.00  0.00    -0.394 OA
ATOM     41  H   UNL     1      55.908   5.581  76.606  1.00  0.00     0.210 HD
ENDBRANCH  39  40
ENDBRANCH  33  39
BRANCH  34  42
ATOM     42  O   UNL     1      59.903   8.226  79.425  1.00  0.00    -0.387 OA
ATOM     43  H   UNL     1      60.517   8.053  80.186  1.00  0.00     0.211 HD
ENDBRANCH  34  42
ENDBRANCH   1  29
TORSDOF 13
ENDMDL
MODEL 8
REMARK VINA RESULT:    -5.999      2.780      5.149
REMARK INTER + INTRA:         -10.623
REMARK INTER:                  -9.751
REMARK INTRA:                  -0.871
REMARK UNBOUND:                -1.642
REMARK SMILES O=c1c(O[C@@H]2O[C@H](CO)[C@@H](O)[C@H](O)[C@H]2O)c(-c2cc(O)c(O)c(O)c2)oc2cc(O)cc(O)c12
REMARK SMILES IDX 4 1 3 2 16 3 26 4 2 5 27 6 1 7 34 8 28 9 32 10 29 11 31 12
REMARK SMILES IDX 17 13 18 14 19 15 25 16 21 17 23 18 20 19 22 21 24 23 33 25
REMARK SMILES IDX 30 27 5 29 14 30 6 31 12 32 7 33 10 34 15 35 13 37 8 39 9 40
REMARK SMILES IDX 11 42
REMARK H PARENT 20 20 22 22 24 24 33 26 30 28 15 36 13 38 9 41 11 43
REMARK Flexibility Score: inf
ROOT
ATOM      1  O   UNL     1      55.910   6.202  79.866  1.00  0.00    -0.454 OA
ENDROOT
BRANCH   1   2
ATOM      2  C   UNL     1      54.876   5.527  80.547  1.00  0.00     0.214 A 
ATOM      3  C   UNL     1      53.540   5.843  80.228  1.00  0.00     0.181 A 
ATOM      4  O   UNL     1      52.540   5.189  80.807  1.00  0.00    -0.452 OA
ATOM      5  C   UNL     1      55.113   4.532  81.522  1.00  0.00     0.239 A 
ATOM      6  C   UNL     1      52.718   4.242  81.717  1.00  0.00     0.146 A 
ATOM      7  O   UNL     1      56.291   4.246  81.863  1.00  0.00    -0.285 OA
ATOM      8  C   UNL     1      54.021   3.870  82.122  1.00  0.00     0.111 A 
ATOM      9  C   UNL     1      51.599   3.616  82.274  1.00  0.00     0.094 A 
ATOM     10  C   UNL     1      54.173   2.858  83.103  1.00  0.00     0.134 A 
ATOM     11  C   UNL     1      51.754   2.619  83.239  1.00  0.00     0.123 A 
ATOM     12  C   UNL     1      53.037   2.243  83.651  1.00  0.00     0.093 A 
BRANCH   3  13
ATOM     13  C   UNL     1      53.203   6.868  79.217  1.00  0.00     0.029 A 
ATOM     14  C   UNL     1      52.493   8.026  79.567  1.00  0.00     0.062 A 
ATOM     15  C   UNL     1      52.170   8.982  78.600  1.00  0.00     0.162 A 
ATOM     16  C   UNL     1      53.554   6.658  77.876  1.00  0.00     0.062 A 
ATOM     17  C   UNL     1      52.543   8.781  77.261  1.00  0.00     0.200 A 
ATOM     18  C   UNL     1      53.234   7.611  76.899  1.00  0.00     0.162 A 
BRANCH  15  19
ATOM     19  O   UNL     1      51.472  10.125  78.990  1.00  0.00    -0.504 OA
ATOM     20  H   UNL     1      50.490  10.098  79.239  1.00  0.00     0.293 HD
ENDBRANCH  15  19
BRANCH  17  21
ATOM     21  O   UNL     1      52.218   9.742  76.302  1.00  0.00    -0.502 OA
ATOM     22  H   UNL     1      52.692  10.635  76.253  1.00  0.00     0.293 HD
ENDBRANCH  17  21
BRANCH  18  23
ATOM     23  O   UNL     1      53.600   7.399  75.570  1.00  0.00    -0.504 OA
ATOM     24  H   UNL     1      53.264   7.998  74.825  1.00  0.00     0.293 HD
ENDBRANCH  18  23
ENDBRANCH   3  13
BRANCH  10  25
ATOM     25  O   UNL     1      55.439   2.459  83.533  1.00  0.00    -0.507 OA
ATOM     26  H   UNL     1      55.576   1.609  84.068  1.00  0.00     0.293 HD
ENDBRANCH  10  25
BRANCH  11  27
ATOM     27  O   UNL     1      50.626   2.008  83.783  1.00  0.00    -0.508 OA
ATOM     28  H   UNL     1      49.738   2.007  83.295  1.00  0.00     0.293 HD
ENDBRANCH  11  27
ENDBRANCH   1   2
BRANCH   1  29
ATOM     29  C   UNL     1      57.312   6.068  80.115  1.00  0.00     0.339 C 
ATOM     30  C   UNL     1      57.982   5.268  78.988  1.00  0.00     0.214 C 
ATOM     31  O   UNL     1      57.942   7.323  80.336  1.00  0.00    -0.332 OA
ATOM     32  C   UNL     1      58.037   6.088  77.687  1.00  0.00     0.180 C 
ATOM     33  C   UNL     1      58.000   8.165  79.192  1.00  0.00     0.179 C 
ATOM     34  C   UNL     1      58.632   7.483  77.951  1.00  0.00     0.177 C 
BRANCH  30  35
ATOM     35  O   UNL     1      59.280   4.907  79.391  1.00  0.00    -0.384 OA
ATOM     36  H   UNL     1      59.702   4.446  78.620  1.00  0.00     0.211 HD
ENDBRANCH  30  35
BRANCH  32  37
ATOM     37  O   UNL     1      56.756   6.212  77.126  1.00  0.00    -0.387 OA
ATOM     38  H   UNL     1      56.423   5.292  76.956  1.00  0.00     0.211 HD
ENDBRANCH  32  37
BRANCH  33  39
ATOM     39  C   UNL     1      56.659   8.869  78.911  1.00  0.00     0.191 C 
BRANCH  39  40
ATOM     40  O   UNL     1      56.492   9.046  77.531  1.00  0.00    -0.394 OA
ATOM     41  H   UNL     1      56.857   8.228  77.101  1.00  0.00     0.210 HD
ENDBRANCH  39  40
ENDBRANCH  33  39
BRANCH  34  42
ATOM     42  O   UNL     1      60.019   7.373  78.155  1.00  0.00    -0.387 OA
ATOM     43  H   UNL     1      60.381   6.834  77.405  1.00  0.00     0.211 HD
ENDBRANCH  34  42
ENDBRANCH   1  29
TORSDOF 13
ENDMDL
MODEL 9
REMARK VINA RESULT:    -5.822      2.527      7.008
REMARK INTER + INTRA:         -10.357
REMARK INTER:                  -8.673
REMARK INTRA:                  -1.684
REMARK UNBOUND:                -1.642
REMARK SMILES O=c1c(O[C@@H]2O[C@H](CO)[C@@H](O)[C@H](O)[C@H]2O)c(-c2cc(O)c(O)c(O)c2)oc2cc(O)cc(O)c12
REMARK SMILES IDX 4 1 3 2 16 3 26 4 2 5 27 6 1 7 34 8 28 9 32 10 29 11 31 12
REMARK SMILES IDX 17 13 18 14 19 15 25 16 21 17 23 18 20 19 22 21 24 23 33 25
REMARK SMILES IDX 30 27 5 29 14 30 6 31 12 32 7 33 10 34 15 35 13 37 8 39 9 40
REMARK SMILES IDX 11 42
REMARK H PARENT 20 20 22 22 24 24 33 26 30 28 15 36 13 38 9 41 11 43
REMARK Flexibility Score: inf
ROOT
ATOM      1  O   UNL     1      54.639   5.548  79.626  1.00  0.00    -0.454 OA
ENDROOT
BRANCH   1   2
ATOM      2  C   UNL     1      55.682   6.439  79.950  1.00  0.00     0.214 A 
ATOM      3  C   UNL     1      55.693   7.713  79.345  1.00  0.00     0.181 A 
ATOM      4  O   UNL     1      56.628   8.600  79.667  1.00  0.00    -0.452 OA
ATOM      5  C   UNL     1      56.709   6.127  80.868  1.00  0.00     0.239 A 
ATOM      6  C   UNL     1      57.601   8.351  80.532  1.00  0.00     0.146 A 
ATOM      7  O   UNL     1      56.757   4.988  81.403  1.00  0.00    -0.285 OA
ATOM      8  C   UNL     1      57.690   7.095  81.173  1.00  0.00     0.111 A 
ATOM      9  C   UNL     1      58.542   9.350  80.800  1.00  0.00     0.094 A 
ATOM     10  C   UNL     1      58.749   6.863  82.087  1.00  0.00     0.134 A 
ATOM     11  C   UNL     1      59.583   9.117  81.701  1.00  0.00     0.123 A 
ATOM     12  C   UNL     1      59.684   7.877  82.341  1.00  0.00     0.093 A 
BRANCH   3  13
ATOM     13  C   UNL     1      54.655   8.123  78.377  1.00  0.00     0.029 A 
ATOM     14  C   UNL     1      54.765   7.803  77.015  1.00  0.00     0.062 A 
ATOM     15  C   UNL     1      53.784   8.207  76.106  1.00  0.00     0.162 A 
ATOM     16  C   UNL     1      53.564   8.887  78.815  1.00  0.00     0.062 A 
ATOM     17  C   UNL     1      52.679   8.953  76.552  1.00  0.00     0.200 A 
ATOM     18  C   UNL     1      52.574   9.297  77.911  1.00  0.00     0.162 A 
BRANCH  15  19
ATOM     19  O   UNL     1      53.925   7.862  74.763  1.00  0.00    -0.504 OA
ATOM     20  H   UNL     1      54.691   7.286  74.432  1.00  0.00     0.293 HD
ENDBRANCH  15  19
BRANCH  17  21
ATOM     21  O   UNL     1      51.701   9.351  75.638  1.00  0.00    -0.502 OA
ATOM     22  H   UNL     1      51.594  10.315  75.349  1.00  0.00     0.293 HD
ENDBRANCH  17  21
BRANCH  18  23
ATOM     23  O   UNL     1      51.485  10.045  78.359  1.00  0.00    -0.504 OA
ATOM     24  H   UNL     1      51.224  10.919  77.919  1.00  0.00     0.293 HD
ENDBRANCH  18  23
ENDBRANCH   3  13
BRANCH  10  25
ATOM     25  O   UNL     1      58.877   5.638  82.743  1.00  0.00    -0.507 OA
ATOM     26  H   UNL     1      58.078   5.035  82.907  1.00  0.00     0.293 HD
ENDBRANCH  10  25
BRANCH  11  27
ATOM     27  O   UNL     1      60.511  10.125  81.953  1.00  0.00    -0.508 OA
ATOM     28  H   UNL     1      60.223  11.085  82.096  1.00  0.00     0.293 HD
ENDBRANCH  11  27
ENDBRANCH   1   2
BRANCH   1  29
ATOM     29  C   UNL     1      54.659   4.570  78.582  1.00  0.00     0.339 C 
ATOM     30  C   UNL     1      54.685   3.153  79.176  1.00  0.00     0.214 C 
ATOM     31  O   UNL     1      53.595   4.748  77.656  1.00  0.00    -0.332 OA
ATOM     32  C   UNL     1      53.334   2.801  79.823  1.00  0.00     0.180 C 
ATOM     33  C   UNL     1      52.301   4.483  78.184  1.00  0.00     0.179 C 
ATOM     34  C   UNL     1      52.177   3.088  78.850  1.00  0.00     0.177 C 
BRANCH  30  35
ATOM     35  O   UNL     1      54.991   2.235  78.158  1.00  0.00    -0.384 OA
ATOM     36  H   UNL     1      54.374   2.425  77.404  1.00  0.00     0.211 HD
ENDBRANCH  30  35
BRANCH  32  37
ATOM     37  O   UNL     1      53.150   3.526  81.012  1.00  0.00    -0.387 OA
ATOM     38  H   UNL     1      53.554   2.991  81.744  1.00  0.00     0.211 HD
ENDBRANCH  32  37
BRANCH  33  39
ATOM     39  C   UNL     1      51.768   5.644  79.046  1.00  0.00     0.191 C 
BRANCH  39  40
ATOM     40  O   UNL     1      51.005   5.138  80.108  1.00  0.00    -0.394 OA
ATOM     41  H   UNL     1      50.268   4.617  79.695  1.00  0.00     0.210 HD
ENDBRANCH  39  40
ENDBRANCH  33  39
BRANCH  34  42
ATOM     42  O   UNL     1      52.156   2.109  77.840  1.00  0.00    -0.387 OA
ATOM     43  H   UNL     1      51.589   2.461  77.106  1.00  0.00     0.211 HD
ENDBRANCH  34  42
ENDBRANCH   1  29
TORSDOF 13
ENDMDL
