MODEL 1
REMARK VINA RESULT:    -2.564      0.000      0.000
REMARK INTER + INTRA:          -2.622
REMARK INTER:                  -3.613
REMARK INTRA:                   0.991
REMARK UNBOUND:                 0.991
REMARK SMILES CC1=CCC(=C(C)C)C(=O)CC(C)=CCC1
REMARK SMILES IDX 12 1 14 2 13 3 15 4 16 5 2 6 1 7 3 8 11 10 9 11 10 12 5 13
REMARK SMILES IDX 6 14 7 15 8 16 4 17
REMARK H PARENT
REMARK Flexibility Score: 60.00
ROOT
ATOM      1  C   UNL     1      25.636  38.550  20.871  1.00  0.00    -0.070 C 
ATOM      2  C   UNL     1      25.210  39.789  21.205  1.00  0.00    -0.027 C 
ATOM      3  C   UNL     1      24.642  37.607  20.241  1.00  0.00     0.039 C 
ENDROOT
BRANCH   2   4
ATOM      4  C   UNL     1      26.074  40.903  21.754  1.00  0.00     0.032 C 
BRANCH   4   5
ATOM      5  C   UNL     1      25.984  42.235  20.981  1.00  0.00     0.034 C 
BRANCH   5   6
ATOM      6  C   UNL     1      27.304  42.652  20.356  1.00  0.00    -0.077 C 
ATOM      7  C   UNL     1      28.011  43.847  20.943  1.00  0.00     0.039 C 
ATOM      8  C   UNL     1      27.919  41.980  19.352  1.00  0.00    -0.023 CG0
ATOM      9  G   UNL     1      27.393  40.774  18.601  1.00  0.00     0.000 G0
ENDBRANCH   5   6
ENDBRANCH   4   5
ENDBRANCH   2   4
BRANCH   1  10
ATOM     10  C   UNL     1      27.076  38.100  21.015  1.00  0.00     0.111 C 
BRANCH  10  11
ATOM     11  C   UNL     1      28.030  39.093  20.405  1.00  0.00     0.163 C 
ATOM     12  O   UNL     1      28.915  39.600  21.148  1.00  0.00    -0.294 OA
BRANCH  11  13
ATOM     13  C   UNL     1      28.003  39.443  18.955  1.00  0.00    -0.002 C 
ATOM     14  C   UNL     1      28.447  38.558  18.013  1.00  0.00    -0.069 C 
ATOM     15  C   UNL     1      29.125  37.264  18.410  1.00  0.00     0.039 C 
ATOM     16  C   UNL     1      28.289  38.818  16.531  1.00  0.00     0.039 C 
BRANCH  13  17
ATOM     17  C   UNL     1      27.377  40.776  18.572  1.00  0.00     0.066 CG0
ATOM     18  G   UNL     1      27.959  41.933  19.358  1.00  0.00     0.000 G0
ENDBRANCH  13  17
ENDBRANCH  11  13
ENDBRANCH  10  11
ENDBRANCH   1  10
TORSDOF 0
ENDMDL
MODEL 2
REMARK VINA RESULT:    -2.392      1.876      3.823
REMARK INTER + INTRA:          -2.380
REMARK INTER:                  -3.036
REMARK INTRA:                   0.656
REMARK UNBOUND:                 0.991
REMARK SMILES CC1=CCC(=C(C)C)C(=O)CC(C)=CCC1
REMARK SMILES IDX 12 1 14 2 13 3 15 4 16 5 2 6 1 7 3 8 11 10 9 11 10 12 5 13
REMARK SMILES IDX 6 14 7 15 8 16 4 17
REMARK H PARENT
REMARK Flexibility Score: 60.00
ROOT
ATOM      1  C   UNL     1      28.589  38.992  18.889  1.00  0.00    -0.070 C 
ATOM      2  C   UNL     1      29.086  40.028  19.602  1.00  0.00    -0.027 C 
ATOM      3  C   UNL     1      29.000  38.868  17.443  1.00  0.00     0.039 C 
ENDROOT
BRANCH   2   4
ATOM      4  C   UNL     1      28.871  40.268  21.080  1.00  0.00     0.032 C 
BRANCH   4   5
ATOM      5  C   UNL     1      28.191  41.610  21.426  1.00  0.00     0.034 C 
BRANCH   5   6
ATOM      6  C   UNL     1      26.906  41.844  20.653  1.00  0.00    -0.077 C 
ATOM      7  C   UNL     1      26.805  43.099  19.823  1.00  0.00     0.039 C 
ATOM      8  C   UNL     1      25.872  40.968  20.606  1.00  0.00    -0.023 CG0
ATOM      9  G   UNL     1      25.744  39.663  21.365  1.00  0.00     0.000 G0
ENDBRANCH   5   6
ENDBRANCH   4   5
ENDBRANCH   2   4
BRANCH   1  10
ATOM     10  C   UNL     1      27.721  37.908  19.495  1.00  0.00     0.111 C 
BRANCH  10  11
ATOM     11  C   UNL     1      26.255  38.208  19.319  1.00  0.00     0.163 C 
ATOM     12  O   UNL     1      25.774  38.154  18.154  1.00  0.00    -0.294 OA
BRANCH  11  13
ATOM     13  C   UNL     1      25.353  38.500  20.471  1.00  0.00    -0.002 C 
ATOM     14  C   UNL     1      24.277  37.700  20.737  1.00  0.00    -0.069 C 
ATOM     15  C   UNL     1      23.871  36.592  19.790  1.00  0.00     0.039 C 
ATOM     16  C   UNL     1      23.437  37.876  21.983  1.00  0.00     0.039 C 
BRANCH  13  17
ATOM     17  C   UNL     1      25.737  39.659  21.379  1.00  0.00     0.066 CG0
ATOM     18  G   UNL     1      25.862  40.966  20.624  1.00  0.00     0.000 G0
ENDBRANCH  13  17
ENDBRANCH  11  13
ENDBRANCH  10  11
ENDBRANCH   1  10
TORSDOF 0
ENDMDL
MODEL 3
REMARK VINA RESULT:    -1.853      1.875      4.443
REMARK INTER + INTRA:          -1.620
REMARK INTER:                  -2.812
REMARK INTRA:                   1.192
REMARK UNBOUND:                 0.991
REMARK SMILES CC1=CCC(=C(C)C)C(=O)CC(C)=CCC1
REMARK SMILES IDX 12 1 14 2 13 3 15 4 16 5 2 6 1 7 3 8 11 10 9 11 10 12 5 13
REMARK SMILES IDX 6 14 7 15 8 16 4 17
REMARK H PARENT
REMARK Flexibility Score: 60.00
ROOT
ATOM      1  C   UNL     1      27.632  37.549  19.407  1.00  0.00    -0.070 C 
ATOM      2  C   UNL     1      27.174  36.599  20.252  1.00  0.00    -0.027 C 
ATOM      3  C   UNL     1      29.114  37.597  19.135  1.00  0.00     0.039 C 
ENDROOT
BRANCH   2   4
ATOM      4  C   UNL     1      25.720  36.329  20.575  1.00  0.00     0.032 C 
BRANCH   4   5
ATOM      5  C   UNL     1      25.150  37.163  21.741  1.00  0.00     0.034 C 
BRANCH   5   6
ATOM      6  C   UNL     1      24.324  38.350  21.277  1.00  0.00    -0.077 C 
ATOM      7  C   UNL     1      22.843  38.142  21.081  1.00  0.00     0.039 C 
ATOM      8  C   UNL     1      24.819  39.599  21.093  1.00  0.00    -0.023 CG0
ATOM      9  G   UNL     1      26.265  40.036  21.211  1.00  0.00     0.000 G0
ENDBRANCH   5   6
ENDBRANCH   4   5
ENDBRANCH   2   4
BRANCH   1  10
ATOM     10  C   UNL     1      26.723  38.501  18.656  1.00  0.00     0.111 C 
BRANCH  10  11
ATOM     11  C   UNL     1      27.171  39.930  18.803  1.00  0.00     0.163 C 
ATOM     12  O   UNL     1      27.843  40.442  17.866  1.00  0.00    -0.294 OA
BRANCH  11  13
ATOM     13  C   UNL     1      26.798  40.770  19.980  1.00  0.00    -0.002 C 
ATOM     14  C   UNL     1      26.845  42.134  19.908  1.00  0.00    -0.069 C 
ATOM     15  C   UNL     1      27.422  42.837  18.698  1.00  0.00     0.039 C 
ATOM     16  C   UNL     1      26.325  43.013  21.024  1.00  0.00     0.039 C 
BRANCH  13  17
ATOM     17  C   UNL     1      26.279  40.048  21.213  1.00  0.00     0.066 CG0
ATOM     18  G   UNL     1      24.834  39.617  21.063  1.00  0.00     0.000 G0
ENDBRANCH  13  17
ENDBRANCH  11  13
ENDBRANCH  10  11
ENDBRANCH   1  10
TORSDOF 0
ENDMDL
MODEL 4
REMARK VINA RESULT:    -1.687      1.725      3.909
REMARK INTER + INTRA:          -1.387
REMARK INTER:                  -1.994
REMARK INTRA:                   0.607
REMARK UNBOUND:                 0.991
REMARK SMILES CC1=CCC(=C(C)C)C(=O)CC(C)=CCC1
REMARK SMILES IDX 12 1 14 2 13 3 15 4 16 5 2 6 1 7 3 8 11 10 9 11 10 12 5 13
REMARK SMILES IDX 6 14 7 15 8 16 4 17
REMARK H PARENT
REMARK Flexibility Score: 60.00
ROOT
ATOM      1  C   UNL     1      26.880  41.664  20.113  1.00  0.00    -0.070 C 
ATOM      2  C   UNL     1      25.827  41.328  20.892  1.00  0.00    -0.027 C 
ATOM      3  C   UNL     1      27.512  43.016  20.324  1.00  0.00     0.039 C 
ENDROOT
BRANCH   2   4
ATOM      4  C   UNL     1      25.124  39.988  20.899  1.00  0.00     0.032 C 
BRANCH   4   5
ATOM      5  C   UNL     1      25.853  38.877  21.684  1.00  0.00     0.034 C 
BRANCH   5   6
ATOM      6  C   UNL     1      25.710  37.506  21.048  1.00  0.00    -0.077 C 
ATOM      7  C   UNL     1      24.333  36.892  21.004  1.00  0.00     0.039 C 
ATOM      8  C   UNL     1      26.725  36.828  20.457  1.00  0.00    -0.023 CG0
ATOM      9  G   UNL     1      28.183  37.236  20.396  1.00  0.00     0.000 G0
ENDBRANCH   5   6
ENDBRANCH   4   5
ENDBRANCH   2   4
BRANCH   1  10
ATOM     10  C   UNL     1      27.507  40.715  19.112  1.00  0.00     0.111 C 
BRANCH  10  11
ATOM     11  C   UNL     1      28.408  39.713  19.785  1.00  0.00     0.163 C 
ATOM     12  O   UNL     1      29.078  40.093  20.784  1.00  0.00    -0.294 OA
BRANCH  11  13
ATOM     13  C   UNL     1      28.484  38.287  19.353  1.00  0.00    -0.002 C 
ATOM     14  C   UNL     1      28.885  37.960  18.087  1.00  0.00    -0.069 C 
ATOM     15  C   UNL     1      29.112  39.025  17.036  1.00  0.00     0.039 C 
ATOM     16  C   UNL     1      29.124  36.526  17.668  1.00  0.00     0.039 C 
BRANCH  13  17
ATOM     17  C   UNL     1      28.192  37.225  20.402  1.00  0.00     0.066 CG0
ATOM     18  G   UNL     1      26.727  36.841  20.440  1.00  0.00     0.000 G0
ENDBRANCH  13  17
ENDBRANCH  11  13
ENDBRANCH  10  11
ENDBRANCH   1  10
TORSDOF 0
ENDMDL
MODEL 5
REMARK VINA RESULT:    -1.587      1.800      4.882
REMARK INTER + INTRA:          -1.245
REMARK INTER:                  -2.864
REMARK INTRA:                   1.618
REMARK UNBOUND:                 0.991
REMARK SMILES CC1=CCC(=C(C)C)C(=O)CC(C)=CCC1
REMARK SMILES IDX 12 1 14 2 13 3 15 4 16 5 2 6 1 7 3 8 11 10 9 11 10 12 5 13
REMARK SMILES IDX 6 14 7 15 8 16 4 17
REMARK H PARENT
REMARK Flexibility Score: 60.00
ROOT
ATOM      1  C   UNL     1      28.376  38.852  17.954  1.00  0.00    -0.070 C 
ATOM      2  C   UNL     1      28.857  37.633  18.285  1.00  0.00    -0.027 C 
ATOM      3  C   UNL     1      29.113  39.641  16.901  1.00  0.00     0.039 C 
ENDROOT
BRANCH   2   4
ATOM      4  C   UNL     1      28.209  36.656  19.242  1.00  0.00     0.032 C 
BRANCH   4   5
ATOM      5  C   UNL     1      28.317  37.041  20.732  1.00  0.00     0.034 C 
BRANCH   5   6
ATOM      6  C   UNL     1      27.037  37.641  21.287  1.00  0.00    -0.077 C 
ATOM      7  C   UNL     1      25.889  36.705  21.572  1.00  0.00     0.039 C 
ATOM      8  C   UNL     1      26.882  38.950  21.605  1.00  0.00    -0.023 CG0
ATOM      9  G   UNL     1      27.883  40.067  21.390  1.00  0.00     0.000 G0
ENDBRANCH   5   6
ENDBRANCH   4   5
ENDBRANCH   2   4
BRANCH   1  10
ATOM     10  C   UNL     1      27.089  39.418  18.520  1.00  0.00     0.111 C 
BRANCH  10  11
ATOM     11  C   UNL     1      27.272  40.830  19.012  1.00  0.00     0.163 C 
ATOM     12  O   UNL     1      27.292  41.758  18.158  1.00  0.00    -0.294 OA
BRANCH  11  13
ATOM     13  C   UNL     1      27.367  41.167  20.462  1.00  0.00    -0.002 C 
ATOM     14  C   UNL     1      26.924  42.373  20.930  1.00  0.00    -0.069 C 
ATOM     15  C   UNL     1      26.474  43.464  19.984  1.00  0.00     0.039 C 
ATOM     16  C   UNL     1      26.861  42.683  22.410  1.00  0.00     0.039 C 
BRANCH  13  17
ATOM     17  C   UNL     1      27.882  40.083  21.397  1.00  0.00     0.066 CG0
ATOM     18  G   UNL     1      26.875  38.968  21.597  1.00  0.00     0.000 G0
ENDBRANCH  13  17
ENDBRANCH  11  13
ENDBRANCH  10  11
ENDBRANCH   1  10
TORSDOF 0
ENDMDL
MODEL 6
REMARK VINA RESULT:    -1.480      2.036      3.869
REMARK INTER + INTRA:          -1.095
REMARK INTER:                  -3.160
REMARK INTRA:                   2.065
REMARK UNBOUND:                 0.991
REMARK SMILES CC1=CCC(=C(C)C)C(=O)CC(C)=CCC1
REMARK SMILES IDX 12 1 14 2 13 3 15 4 16 5 2 6 1 7 3 8 11 10 9 11 10 12 5 13
REMARK SMILES IDX 6 14 7 15 8 16 4 17
REMARK H PARENT
REMARK Flexibility Score: 60.00
ROOT
ATOM      1  C   UNL     1      28.607  38.923  17.709  1.00  0.00    -0.070 C 
ATOM      2  C   UNL     1      27.782  39.983  17.560  1.00  0.00    -0.027 C 
ATOM      3  C   UNL     1      29.104  38.233  16.463  1.00  0.00     0.039 C 
ENDROOT
BRANCH   2   4
ATOM      4  C   UNL     1      27.258  40.860  18.676  1.00  0.00     0.032 C 
BRANCH   4   5
ATOM      5  C   UNL     1      28.088  40.820  19.976  1.00  0.00     0.034 C 
BRANCH   5   6
ATOM      6  C   UNL     1      27.260  40.482  21.203  1.00  0.00    -0.077 C 
ATOM      7  C   UNL     1      27.280  41.456  22.354  1.00  0.00     0.039 C 
ATOM      8  C   UNL     1      26.452  39.397  21.303  1.00  0.00    -0.023 CG0
ATOM      9  G   UNL     1      26.287  38.283  20.291  1.00  0.00     0.000 G0
ENDBRANCH   5   6
ENDBRANCH   4   5
ENDBRANCH   2   4
BRANCH   1  10
ATOM     10  C   UNL     1      29.125  38.457  19.055  1.00  0.00     0.111 C 
BRANCH  10  11
ATOM     11  C   UNL     1      28.462  37.178  19.492  1.00  0.00     0.163 C 
ATOM     12  O   UNL     1      28.942  36.088  19.078  1.00  0.00    -0.294 OA
BRANCH  11  13
ATOM     13  C   UNL     1      27.308  37.156  20.440  1.00  0.00    -0.002 C 
ATOM     14  C   UNL     1      27.244  36.229  21.442  1.00  0.00    -0.069 C 
ATOM     15  C   UNL     1      28.248  35.100  21.532  1.00  0.00     0.039 C 
ATOM     16  C   UNL     1      26.174  36.278  22.510  1.00  0.00     0.039 C 
BRANCH  13  17
ATOM     17  C   UNL     1      26.271  38.260  20.298  1.00  0.00     0.066 CG0
ATOM     18  G   UNL     1      26.471  39.371  21.309  1.00  0.00     0.000 G0
ENDBRANCH  13  17
ENDBRANCH  11  13
ENDBRANCH  10  11
ENDBRANCH   1  10
TORSDOF 0
ENDMDL
MODEL 7
REMARK VINA RESULT:    -1.450      1.856      4.027
REMARK INTER + INTRA:          -1.053
REMARK INTER:                  -3.811
REMARK INTRA:                   2.758
REMARK UNBOUND:                 0.991
REMARK SMILES CC1=CCC(=C(C)C)C(=O)CC(C)=CCC1
REMARK SMILES IDX 12 1 14 2 13 3 15 4 16 5 2 6 1 7 3 8 11 10 9 11 10 12 5 13
REMARK SMILES IDX 6 14 7 15 8 16 4 17
REMARK H PARENT
REMARK Flexibility Score: 60.00
ROOT
ATOM      1  C   UNL     1      28.641  37.020  19.463  1.00  0.00    -0.070 C 
ATOM      2  C   UNL     1      28.701  37.861  18.406  1.00  0.00    -0.027 C 
ATOM      3  C   UNL     1      29.056  35.586  19.249  1.00  0.00     0.039 C 
ENDROOT
BRANCH   2   4
ATOM      4  C   UNL     1      28.421  39.348  18.442  1.00  0.00     0.032 C 
BRANCH   4   5
ATOM      5  C   UNL     1      28.579  40.004  19.829  1.00  0.00     0.034 C 
BRANCH   5   6
ATOM      6  C   UNL     1      27.294  40.630  20.342  1.00  0.00    -0.077 C 
ATOM      7  C   UNL     1      27.372  42.024  20.913  1.00  0.00     0.039 C 
ATOM      8  C   UNL     1      26.074  40.046  20.259  1.00  0.00    -0.023 CG0
ATOM      9  G   UNL     1      25.758  38.656  19.746  1.00  0.00     0.000 G0
ENDBRANCH   5   6
ENDBRANCH   4   5
ENDBRANCH   2   4
BRANCH   1  10
ATOM     10  C   UNL     1      28.270  37.470  20.862  1.00  0.00     0.111 C 
BRANCH  10  11
ATOM     11  C   UNL     1      26.918  36.949  21.271  1.00  0.00     0.163 C 
ATOM     12  O   UNL     1      26.874  35.956  22.047  1.00  0.00    -0.294 OA
BRANCH  11  13
ATOM     13  C   UNL     1      25.645  37.601  20.845  1.00  0.00    -0.002 C 
ATOM     14  C   UNL     1      24.471  37.332  21.491  1.00  0.00    -0.069 C 
ATOM     15  C   UNL     1      24.387  36.254  22.551  1.00  0.00     0.039 C 
ATOM     16  C   UNL     1      23.197  38.090  21.188  1.00  0.00     0.039 C 
BRANCH  13  17
ATOM     17  C   UNL     1      25.731  38.637  19.735  1.00  0.00     0.066 CG0
ATOM     18  G   UNL     1      26.076  40.016  20.259  1.00  0.00     0.000 G0
ENDBRANCH  13  17
ENDBRANCH  11  13
ENDBRANCH  10  11
ENDBRANCH   1  10
TORSDOF 0
ENDMDL
MODEL 8
REMARK VINA RESULT:    -1.193      1.184      1.834
REMARK INTER + INTRA:          -0.690
REMARK INTER:                  -1.694
REMARK INTRA:                   1.005
REMARK UNBOUND:                 0.991
REMARK SMILES CC1=CCC(=C(C)C)C(=O)CC(C)=CCC1
REMARK SMILES IDX 12 1 14 2 13 3 15 4 16 5 2 6 1 7 3 8 11 10 9 11 10 12 5 13
REMARK SMILES IDX 6 14 7 15 8 16 4 17
REMARK H PARENT
REMARK Flexibility Score: 60.00
ROOT
ATOM      1  C   UNL     1      26.349  40.842  21.629  1.00  0.00    -0.070 C 
ATOM      2  C   UNL     1      26.025  42.153  21.678  1.00  0.00    -0.027 C 
ATOM      3  C   UNL     1      25.308  39.876  21.122  1.00  0.00     0.039 C 
ENDROOT
BRANCH   2   4
ATOM      4  C   UNL     1      26.958  43.281  22.063  1.00  0.00     0.032 C 
BRANCH   4   5
ATOM      5  C   UNL     1      27.912  43.743  20.941  1.00  0.00     0.034 C 
BRANCH   5   6
ATOM      6  C   UNL     1      27.467  43.298  19.559  1.00  0.00    -0.077 C 
ATOM      7  C   UNL     1      26.417  44.125  18.860  1.00  0.00     0.039 C 
ATOM      8  C   UNL     1      27.999  42.248  18.887  1.00  0.00    -0.023 CG0
ATOM      9  G   UNL     1      29.042  41.273  19.392  1.00  0.00     0.000 G0
ENDBRANCH   5   6
ENDBRANCH   4   5
ENDBRANCH   2   4
BRANCH   1  10
ATOM     10  C   UNL     1      27.729  40.314  21.967  1.00  0.00     0.111 C 
BRANCH  10  11
ATOM     11  C   UNL     1      28.244  39.384  20.900  1.00  0.00     0.163 C 
ATOM     12  O   UNL     1      28.361  38.161  21.184  1.00  0.00    -0.294 OA
BRANCH  11  13
ATOM     13  C   UNL     1      28.557  39.848  19.516  1.00  0.00    -0.002 C 
ATOM     14  C   UNL     1      28.296  39.051  18.436  1.00  0.00    -0.069 C 
ATOM     15  C   UNL     1      27.833  37.621  18.610  1.00  0.00     0.039 C 
ATOM     16  C   UNL     1      28.454  39.550  17.017  1.00  0.00     0.039 C 
BRANCH  13  17
ATOM     17  C   UNL     1      29.082  41.267  19.359  1.00  0.00     0.066 CG0
ATOM     18  G   UNL     1      28.010  42.229  18.889  1.00  0.00     0.000 G0
ENDBRANCH  13  17
ENDBRANCH  11  13
ENDBRANCH  10  11
ENDBRANCH   1  10
TORSDOF 0
ENDMDL
MODEL 9
REMARK VINA RESULT:    -1.148      1.508      3.885
REMARK INTER + INTRA:          -0.627
REMARK INTER:                  -3.074
REMARK INTRA:                   2.447
REMARK UNBOUND:                 0.991
REMARK SMILES CC1=CCC(=C(C)C)C(=O)CC(C)=CCC1
REMARK SMILES IDX 12 1 14 2 13 3 15 4 16 5 2 6 1 7 3 8 11 10 9 11 10 12 5 13
REMARK SMILES IDX 6 14 7 15 8 16 4 17
REMARK H PARENT
REMARK Flexibility Score: 60.00
ROOT
ATOM      1  C   UNL     1      26.459  37.726  21.254  1.00  0.00    -0.070 C 
ATOM      2  C   UNL     1      25.767  37.620  20.097  1.00  0.00    -0.027 C 
ATOM      3  C   UNL     1      26.501  36.525  22.164  1.00  0.00     0.039 C 
ENDROOT
BRANCH   2   4
ATOM      4  C   UNL     1      25.686  38.674  19.015  1.00  0.00     0.032 C 
BRANCH   4   5
ATOM      5  C   UNL     1      26.732  38.528  17.890  1.00  0.00     0.034 C 
BRANCH   5   6
ATOM      6  C   UNL     1      28.157  38.749  18.368  1.00  0.00    -0.077 C 
ATOM      7  C   UNL     1      29.124  37.598  18.243  1.00  0.00     0.039 C 
ATOM      8  C   UNL     1      28.632  39.929  18.835  1.00  0.00    -0.023 CG0
ATOM      9  G   UNL     1      27.846  41.205  19.063  1.00  0.00     0.000 G0
ENDBRANCH   5   6
ENDBRANCH   4   5
ENDBRANCH   2   4
BRANCH   1  10
ATOM     10  C   UNL     1      27.263  38.954  21.630  1.00  0.00     0.111 C 
BRANCH  10  11
ATOM     11  C   UNL     1      26.617  40.217  21.124  1.00  0.00     0.163 C 
ATOM     12  O   UNL     1      25.369  40.340  21.255  1.00  0.00    -0.294 OA
BRANCH  11  13
ATOM     13  C   UNL     1      27.406  41.340  20.536  1.00  0.00    -0.002 C 
ATOM     14  C   UNL     1      27.783  42.406  21.303  1.00  0.00    -0.069 C 
ATOM     15  C   UNL     1      27.285  42.565  22.724  1.00  0.00     0.039 C 
ATOM     16  C   UNL     1      28.712  43.480  20.781  1.00  0.00     0.039 C 
BRANCH  13  17
ATOM     17  C   UNL     1      27.846  41.197  19.087  1.00  0.00     0.066 CG0
ATOM     18  G   UNL     1      28.630  39.923  18.846  1.00  0.00     0.000 G0
ENDBRANCH  13  17
ENDBRANCH  11  13
ENDBRANCH  10  11
ENDBRANCH   1  10
TORSDOF 0
ENDMDL
