MODEL 1
REMARK VINA RESULT:    -5.453      0.000      0.000
REMARK INTER + INTRA:         -12.527
REMARK INTER:                 -10.235
REMARK INTRA:                  -2.292
REMARK UNBOUND:                -2.292
REMARK SMILES O=C([O-])CCCCCCCCCCCCCCC(=O)[O-]
REMARK SMILES IDX 10 1 9 2 8 3 7 4 6 5 5 6 4 7 2 8 1 9 3 10 11 11 12 12 13 13
REMARK SMILES IDX 14 14 15 15 16 16 17 17 18 18 19 19 20 20
REMARK H PARENT
REMARK Flexibility Score: inf
ROOT
ATOM      1  C   UNL     1      12.670   7.387 -13.983  1.00  0.00     0.000 C 
ENDROOT
BRANCH   1   2
ATOM      2  C   UNL     1      12.499   5.881 -14.239  1.00  0.00     0.000 C 
BRANCH   2   3
ATOM      3  C   UNL     1      11.996   5.125 -12.997  1.00  0.00     0.000 C 
BRANCH   3   4
ATOM      4  C   UNL     1      10.463   5.025 -12.949  1.00  0.00     0.000 C 
BRANCH   4   5
ATOM      5  C   UNL     1       9.876   5.598 -11.647  1.00  0.00     0.000 C 
BRANCH   5   6
ATOM      6  C   UNL     1      10.780   6.666 -11.012  1.00  0.00     0.006 C 
BRANCH   6   7
ATOM      7  C   UNL     1      11.244   6.282  -9.601  1.00  0.00     0.053 C 
BRANCH   7   8
ATOM      8  C   UNL     1      12.738   6.285  -9.525  1.00  0.00     0.041 C 
ATOM      9  O   UNL     1      13.333   5.552  -8.692  1.00  0.00    -0.550 OA
ATOM     10  O   UNL     1      13.478   7.060 -10.410  1.00  0.00    -0.550 OA
ENDBRANCH   7   8
ENDBRANCH   6   7
ENDBRANCH   5   6
ENDBRANCH   4   5
ENDBRANCH   3   4
ENDBRANCH   2   3
ENDBRANCH   1   2
BRANCH   1  11
ATOM     11  C   UNL     1      13.210   8.137 -15.213  1.00  0.00     0.000 C 
BRANCH  11  12
ATOM     12  C   UNL     1      12.483   7.740 -16.508  1.00  0.00     0.000 C 
BRANCH  12  13
ATOM     13  C   UNL     1      11.710   8.914 -17.133  1.00  0.00     0.000 C 
BRANCH  13  14
ATOM     14  C   UNL     1      10.186   8.785 -16.951  1.00  0.00     0.000 C 
BRANCH  14  15
ATOM     15  C   UNL     1       9.697   7.385 -16.531  1.00  0.00     0.000 C 
BRANCH  15  16
ATOM     16  C   UNL     1       8.902   7.337 -15.209  1.00  0.00     0.006 C 
BRANCH  16  17
ATOM     17  C   UNL     1       9.283   8.432 -14.201  1.00  0.00     0.053 C 
BRANCH  17  18
ATOM     18  C   UNL     1       8.083   8.990 -13.501  1.00  0.00     0.041 C 
ATOM     19  O   UNL     1       7.460   9.968 -13.993  1.00  0.00    -0.550 OA
ATOM     20  O   UNL     1       7.635   8.412 -12.320  1.00  0.00    -0.550 OA
ENDBRANCH  17  18
ENDBRANCH  16  17
ENDBRANCH  15  16
ENDBRANCH  14  15
ENDBRANCH  13  14
ENDBRANCH  12  13
ENDBRANCH  11  12
ENDBRANCH   1  11
TORSDOF 15
ENDMDL
MODEL 2
REMARK VINA RESULT:    -5.414      2.298      5.722
REMARK INTER + INTRA:         -12.454
REMARK INTER:                 -10.104
REMARK INTRA:                  -2.350
REMARK UNBOUND:                -2.292
REMARK SMILES O=C([O-])CCCCCCCCCCCCCCC(=O)[O-]
REMARK SMILES IDX 10 1 9 2 8 3 7 4 6 5 5 6 4 7 2 8 1 9 3 10 11 11 12 12 13 13
REMARK SMILES IDX 14 14 15 15 16 16 17 17 18 18 19 19 20 20
REMARK H PARENT
REMARK Flexibility Score: inf
ROOT
ATOM      1  C   UNL     1      10.397   6.484 -11.641  1.00  0.00     0.000 C 
ENDROOT
BRANCH   1   2
ATOM      2  C   UNL     1      10.363   5.312 -12.635  1.00  0.00     0.000 C 
BRANCH   2   3
ATOM      3  C   UNL     1      11.720   5.083 -13.323  1.00  0.00     0.000 C 
BRANCH   3   4
ATOM      4  C   UNL     1      11.576   4.423 -14.704  1.00  0.00     0.000 C 
BRANCH   4   5
ATOM      5  C   UNL     1      12.190   5.274 -15.829  1.00  0.00     0.000 C 
BRANCH   5   6
ATOM      6  C   UNL     1      12.365   6.747 -15.427  1.00  0.00     0.006 C 
BRANCH   6   7
ATOM      7  C   UNL     1      11.424   7.683 -16.196  1.00  0.00     0.053 C 
BRANCH   7   8
ATOM      8  C   UNL     1      10.134   7.846 -15.457  1.00  0.00     0.041 C 
ATOM      9  O   UNL     1       9.948   8.850 -14.721  1.00  0.00    -0.550 OA
ATOM     10  O   UNL     1       9.115   6.916 -15.622  1.00  0.00    -0.550 OA
ENDBRANCH   7   8
ENDBRANCH   6   7
ENDBRANCH   5   6
ENDBRANCH   4   5
ENDBRANCH   3   4
ENDBRANCH   2   3
ENDBRANCH   1   2
BRANCH   1  11
ATOM     11  C   UNL     1      10.465   6.014 -10.177  1.00  0.00     0.000 C 
BRANCH  11  12
ATOM     12  C   UNL     1      11.717   6.534  -9.452  1.00  0.00     0.000 C 
BRANCH  12  13
ATOM     13  C   UNL     1      13.021   6.028 -10.090  1.00  0.00     0.000 C 
BRANCH  13  14
ATOM     14  C   UNL     1      13.998   7.168 -10.430  1.00  0.00     0.000 C 
BRANCH  14  15
ATOM     15  C   UNL     1      14.484   7.193 -11.893  1.00  0.00     0.000 C 
BRANCH  15  16
ATOM     16  C   UNL     1      14.167   8.490 -12.667  1.00  0.00     0.006 C 
BRANCH  16  17
ATOM     17  C   UNL     1      12.699   8.934 -12.584  1.00  0.00     0.053 C 
BRANCH  17  18
ATOM     18  C   UNL     1      12.565  10.327 -12.050  1.00  0.00     0.041 C 
ATOM     19  O   UNL     1      13.575  10.935 -11.606  1.00  0.00    -0.550 OA
ATOM     20  O   UNL     1      11.331  10.963 -12.067  1.00  0.00    -0.550 OA
ENDBRANCH  17  18
ENDBRANCH  16  17
ENDBRANCH  15  16
ENDBRANCH  14  15
ENDBRANCH  13  14
ENDBRANCH  12  13
ENDBRANCH  11  12
ENDBRANCH   1  11
TORSDOF 15
ENDMDL
MODEL 3
REMARK VINA RESULT:    -5.404      1.566      5.084
REMARK INTER + INTRA:         -12.436
REMARK INTER:                 -10.254
REMARK INTRA:                  -2.181
REMARK UNBOUND:                -2.292
REMARK SMILES O=C([O-])CCCCCCCCCCCCCCC(=O)[O-]
REMARK SMILES IDX 10 1 9 2 8 3 7 4 6 5 5 6 4 7 2 8 1 9 3 10 11 11 12 12 13 13
REMARK SMILES IDX 14 14 15 15 16 16 17 17 18 18 19 19 20 20
REMARK H PARENT
REMARK Flexibility Score: inf
ROOT
ATOM      1  C   UNL     1      11.818   8.666 -17.017  1.00  0.00     0.000 C 
ENDROOT
BRANCH   1   2
ATOM      2  C   UNL     1      10.411   9.017 -17.528  1.00  0.00     0.000 C 
BRANCH   2   3
ATOM      3  C   UNL     1       9.347   8.007 -17.064  1.00  0.00     0.000 C 
BRANCH   3   4
ATOM      4  C   UNL     1       8.144   8.688 -16.391  1.00  0.00     0.000 C 
BRANCH   4   5
ATOM      5  C   UNL     1       7.641   7.914 -15.160  1.00  0.00     0.000 C 
BRANCH   5   6
ATOM      6  C   UNL     1       8.612   8.001 -13.972  1.00  0.00     0.006 C 
BRANCH   6   7
ATOM      7  C   UNL     1       8.151   9.006 -12.908  1.00  0.00     0.053 C 
BRANCH   7   8
ATOM      8  C   UNL     1       9.089  10.170 -12.850  1.00  0.00     0.041 C 
ATOM      9  O   UNL     1      10.327   9.982 -12.723  1.00  0.00    -0.550 OA
ATOM     10  O   UNL     1       8.601  11.464 -12.989  1.00  0.00    -0.550 OA
ENDBRANCH   7   8
ENDBRANCH   6   7
ENDBRANCH   5   6
ENDBRANCH   4   5
ENDBRANCH   3   4
ENDBRANCH   2   3
ENDBRANCH   1   2
BRANCH   1  11
ATOM     11  C   UNL     1      11.785   7.799 -15.746  1.00  0.00     0.000 C 
BRANCH  11  12
ATOM     12  C   UNL     1      12.790   6.637 -15.801  1.00  0.00     0.000 C 
BRANCH  12  13
ATOM     13  C   UNL     1      12.105   5.262 -15.749  1.00  0.00     0.000 C 
BRANCH  13  14
ATOM     14  C   UNL     1      10.809   5.274 -14.918  1.00  0.00     0.000 C 
BRANCH  14  15
ATOM     15  C   UNL     1      10.884   4.505 -13.584  1.00  0.00     0.000 C 
BRANCH  15  16
ATOM     16  C   UNL     1      10.591   5.346 -12.324  1.00  0.00     0.006 C 
BRANCH  16  17
ATOM     17  C   UNL     1      11.541   6.537 -12.124  1.00  0.00     0.053 C 
BRANCH  17  18
ATOM     18  C   UNL     1      12.876   6.106 -11.599  1.00  0.00     0.041 C 
ATOM     19  O   UNL     1      13.816   5.847 -12.396  1.00  0.00    -0.550 OA
ATOM     20  O   UNL     1      13.089   6.017 -10.230  1.00  0.00    -0.550 OA
ENDBRANCH  17  18
ENDBRANCH  16  17
ENDBRANCH  15  16
ENDBRANCH  14  15
ENDBRANCH  13  14
ENDBRANCH  12  13
ENDBRANCH  11  12
ENDBRANCH   1  11
TORSDOF 15
ENDMDL
MODEL 4
REMARK VINA RESULT:    -5.395      1.905      3.438
REMARK INTER + INTRA:         -12.418
REMARK INTER:                 -10.365
REMARK INTRA:                  -2.054
REMARK UNBOUND:                -2.292
REMARK SMILES O=C([O-])CCCCCCCCCCCCCCC(=O)[O-]
REMARK SMILES IDX 10 1 9 2 8 3 7 4 6 5 5 6 4 7 2 8 1 9 3 10 11 11 12 12 13 13
REMARK SMILES IDX 14 14 15 15 16 16 17 17 18 18 19 19 20 20
REMARK H PARENT
REMARK Flexibility Score: inf
ROOT
ATOM      1  C   UNL     1      10.292   9.924 -13.442  1.00  0.00     0.000 C 
ENDROOT
BRANCH   1   2
ATOM      2  C   UNL     1       8.921   9.459 -12.923  1.00  0.00     0.000 C 
BRANCH   2   3
ATOM      3  C   UNL     1       8.556   8.045 -13.407  1.00  0.00     0.000 C 
BRANCH   3   4
ATOM      4  C   UNL     1       9.510   6.971 -12.859  1.00  0.00     0.000 C 
BRANCH   4   5
ATOM      5  C   UNL     1       9.020   6.369 -11.531  1.00  0.00     0.000 C 
BRANCH   5   6
ATOM      6  C   UNL     1      10.174   5.876 -10.645  1.00  0.00     0.006 C 
BRANCH   6   7
ATOM      7  C   UNL     1      11.549   6.296 -11.181  1.00  0.00     0.053 C 
BRANCH   7   8
ATOM      8  C   UNL     1      12.520   6.459 -10.055  1.00  0.00     0.041 C 
ATOM      9  O   UNL     1      12.280   5.946  -8.931  1.00  0.00    -0.550 OA
ATOM     10  O   UNL     1      13.716   7.135 -10.261  1.00  0.00    -0.550 OA
ENDBRANCH   7   8
ENDBRANCH   6   7
ENDBRANCH   5   6
ENDBRANCH   4   5
ENDBRANCH   3   4
ENDBRANCH   2   3
ENDBRANCH   1   2
BRANCH   1  11
ATOM     11  C   UNL     1      11.363   9.950 -12.338  1.00  0.00     0.000 C 
BRANCH  11  12
ATOM     12  C   UNL     1      12.778   9.702 -12.885  1.00  0.00     0.000 C 
BRANCH  12  13
ATOM     13  C   UNL     1      12.864   8.423 -13.735  1.00  0.00     0.000 C 
BRANCH  13  14
ATOM     14  C   UNL     1      13.716   8.608 -15.003  1.00  0.00     0.000 C 
BRANCH  14  15
ATOM     15  C   UNL     1      13.111   8.007 -16.287  1.00  0.00     0.000 C 
BRANCH  15  16
ATOM     16  C   UNL     1      11.850   8.722 -16.815  1.00  0.00     0.006 C 
BRANCH  16  17
ATOM     17  C   UNL     1      10.542   7.948 -16.590  1.00  0.00     0.053 C 
BRANCH  17  18
ATOM     18  C   UNL     1       9.396   8.558 -17.336  1.00  0.00     0.041 C 
ATOM     19  O   UNL     1       8.332   8.854 -16.731  1.00  0.00    -0.550 OA
ATOM     20  O   UNL     1       9.513   8.827 -18.694  1.00  0.00    -0.550 OA
ENDBRANCH  17  18
ENDBRANCH  16  17
ENDBRANCH  15  16
ENDBRANCH  14  15
ENDBRANCH  13  14
ENDBRANCH  12  13
ENDBRANCH  11  12
ENDBRANCH   1  11
TORSDOF 15
ENDMDL
MODEL 5
REMARK VINA RESULT:    -5.371      2.542      4.464
REMARK INTER + INTRA:         -12.374
REMARK INTER:                 -10.296
REMARK INTRA:                  -2.078
REMARK UNBOUND:                -2.292
REMARK SMILES O=C([O-])CCCCCCCCCCCCCCC(=O)[O-]
REMARK SMILES IDX 10 1 9 2 8 3 7 4 6 5 5 6 4 7 2 8 1 9 3 10 11 11 12 12 13 13
REMARK SMILES IDX 14 14 15 15 16 16 17 17 18 18 19 19 20 20
REMARK H PARENT
REMARK Flexibility Score: inf
ROOT
ATOM      1  C   UNL     1      10.456   6.009 -10.508  1.00  0.00     0.000 C 
ENDROOT
BRANCH   1   2
ATOM      2  C   UNL     1      11.645   6.467  -9.648  1.00  0.00     0.000 C 
BRANCH   2   3
ATOM      3  C   UNL     1      12.993   5.961 -10.188  1.00  0.00     0.000 C 
BRANCH   3   4
ATOM      4  C   UNL     1      13.953   7.108 -10.543  1.00  0.00     0.000 C 
BRANCH   4   5
ATOM      5  C   UNL     1      14.390   7.075 -12.018  1.00  0.00     0.000 C 
BRANCH   5   6
ATOM      6  C   UNL     1      14.047   8.374 -12.764  1.00  0.00     0.006 C 
BRANCH   6   7
ATOM      7  C   UNL     1      14.057   9.601 -11.844  1.00  0.00     0.053 C 
BRANCH   7   8
ATOM      8  C   UNL     1      12.785  10.374 -11.993  1.00  0.00     0.041 C 
ATOM      9  O   UNL     1      11.840   9.914 -12.686  1.00  0.00    -0.550 OA
ATOM     10  O   UNL     1      12.623  11.582 -11.325  1.00  0.00    -0.550 OA
ENDBRANCH   7   8
ENDBRANCH   6   7
ENDBRANCH   5   6
ENDBRANCH   4   5
ENDBRANCH   3   4
ENDBRANCH   2   3
ENDBRANCH   1   2
BRANCH   1  11
ATOM     11  C   UNL     1      10.667   6.295 -12.005  1.00  0.00     0.000 C 
BRANCH  11  12
ATOM     12  C   UNL     1      10.602   5.020 -12.862  1.00  0.00     0.000 C 
BRANCH  12  13
ATOM     13  C   UNL     1      11.937   4.710 -13.560  1.00  0.00     0.000 C 
BRANCH  13  14
ATOM     14  C   UNL     1      11.909   5.029 -15.065  1.00  0.00     0.000 C 
BRANCH  14  15
ATOM     15  C   UNL     1      12.463   6.416 -15.447  1.00  0.00     0.000 C 
BRANCH  15  16
ATOM     16  C   UNL     1      11.430   7.563 -15.430  1.00  0.00     0.006 C 
BRANCH  16  17
ATOM     17  C   UNL     1      10.155   7.277 -16.237  1.00  0.00     0.053 C 
BRANCH  17  18
ATOM     18  C   UNL     1       9.704   8.476 -17.013  1.00  0.00     0.041 C 
ATOM     19  O   UNL     1      10.547   9.311 -17.435  1.00  0.00    -0.550 OA
ATOM     20  O   UNL     1       8.355   8.656 -17.294  1.00  0.00    -0.550 OA
ENDBRANCH  17  18
ENDBRANCH  16  17
ENDBRANCH  15  16
ENDBRANCH  14  15
ENDBRANCH  13  14
ENDBRANCH  12  13
ENDBRANCH  11  12
ENDBRANCH   1  11
TORSDOF 15
ENDMDL
MODEL 6
REMARK VINA RESULT:    -5.364      2.066      4.748
REMARK INTER + INTRA:         -12.361
REMARK INTER:                 -10.136
REMARK INTRA:                  -2.225
REMARK UNBOUND:                -2.292
REMARK SMILES O=C([O-])CCCCCCCCCCCCCCC(=O)[O-]
REMARK SMILES IDX 10 1 9 2 8 3 7 4 6 5 5 6 4 7 2 8 1 9 3 10 11 11 12 12 13 13
REMARK SMILES IDX 14 14 15 15 16 16 17 17 18 18 19 19 20 20
REMARK H PARENT
REMARK Flexibility Score: inf
ROOT
ATOM      1  C   UNL     1      11.025   4.530 -13.940  1.00  0.00     0.000 C 
ENDROOT
BRANCH   1   2
ATOM      2  C   UNL     1      11.918   5.194 -12.879  1.00  0.00     0.000 C 
BRANCH   2   3
ATOM      3  C   UNL     1      11.154   6.223 -12.026  1.00  0.00     0.000 C 
BRANCH   3   4
ATOM      4  C   UNL     1       9.907   5.623 -11.357  1.00  0.00     0.000 C 
BRANCH   4   5
ATOM      5  C   UNL     1       8.611   6.337 -11.778  1.00  0.00     0.000 C 
BRANCH   5   6
ATOM      6  C   UNL     1       8.879   7.641 -12.545  1.00  0.00     0.006 C 
BRANCH   6   7
ATOM      7  C   UNL     1       7.631   8.527 -12.653  1.00  0.00     0.053 C 
BRANCH   7   8
ATOM      8  C   UNL     1       7.875   9.657 -13.603  1.00  0.00     0.041 C 
ATOM      9  O   UNL     1       8.683  10.575 -13.303  1.00  0.00    -0.550 OA
ATOM     10  O   UNL     1       7.248   9.671 -14.842  1.00  0.00    -0.550 OA
ENDBRANCH   7   8
ENDBRANCH   6   7
ENDBRANCH   5   6
ENDBRANCH   4   5
ENDBRANCH   3   4
ENDBRANCH   2   3
ENDBRANCH   1   2
BRANCH   1  11
ATOM     11  C   UNL     1      11.040   5.286 -15.280  1.00  0.00     0.000 C 
BRANCH  11  12
ATOM     12  C   UNL     1       9.684   5.934 -15.604  1.00  0.00     0.000 C 
BRANCH  12  13
ATOM     13  C   UNL     1       9.833   7.261 -16.367  1.00  0.00     0.000 C 
BRANCH  13  14
ATOM     14  C   UNL     1      10.805   8.237 -15.680  1.00  0.00     0.000 C 
BRANCH  14  15
ATOM     15  C   UNL     1      12.196   8.339 -16.336  1.00  0.00     0.000 C 
BRANCH  15  16
ATOM     16  C   UNL     1      13.388   8.282 -15.358  1.00  0.00     0.006 C 
BRANCH  16  17
ATOM     17  C   UNL     1      13.042   8.679 -13.914  1.00  0.00     0.053 C 
BRANCH  17  18
ATOM     18  C   UNL     1      14.004   9.686 -13.365  1.00  0.00     0.041 C 
ATOM     19  O   UNL     1      14.957  10.104 -14.074  1.00  0.00    -0.550 OA
ATOM     20  O   UNL     1      13.832  10.184 -12.080  1.00  0.00    -0.550 OA
ENDBRANCH  17  18
ENDBRANCH  16  17
ENDBRANCH  15  16
ENDBRANCH  14  15
ENDBRANCH  13  14
ENDBRANCH  12  13
ENDBRANCH  11  12
ENDBRANCH   1  11
TORSDOF 15
ENDMDL
MODEL 7
REMARK VINA RESULT:    -5.341      2.478      4.363
REMARK INTER + INTRA:         -12.316
REMARK INTER:                 -10.098
REMARK INTRA:                  -2.218
REMARK UNBOUND:                -2.292
REMARK SMILES O=C([O-])CCCCCCCCCCCCCCC(=O)[O-]
REMARK SMILES IDX 10 1 9 2 8 3 7 4 6 5 5 6 4 7 2 8 1 9 3 10 11 11 12 12 13 13
REMARK SMILES IDX 14 14 15 15 16 16 17 17 18 18 19 19 20 20
REMARK H PARENT
REMARK Flexibility Score: inf
ROOT
ATOM      1  C   UNL     1      11.775   7.293 -10.747  1.00  0.00     0.000 C 
ENDROOT
BRANCH   1   2
ATOM      2  C   UNL     1      11.025   5.992 -10.418  1.00  0.00     0.000 C 
BRANCH   2   3
ATOM      3  C   UNL     1       9.590   5.982 -10.973  1.00  0.00     0.000 C 
BRANCH   3   4
ATOM      4  C   UNL     1       9.482   6.683 -12.337  1.00  0.00     0.000 C 
BRANCH   4   5
ATOM      5  C   UNL     1       8.144   7.422 -12.516  1.00  0.00     0.000 C 
BRANCH   5   6
ATOM      6  C   UNL     1       8.332   8.887 -12.939  1.00  0.00     0.006 C 
BRANCH   6   7
ATOM      7  C   UNL     1       9.794   9.225 -13.258  1.00  0.00     0.053 C 
BRANCH   7   8
ATOM      8  C   UNL     1      10.114  10.619 -12.822  1.00  0.00     0.041 C 
ATOM      9  O   UNL     1      11.246  10.890 -12.341  1.00  0.00    -0.550 OA
ATOM     10  O   UNL     1       9.179  11.633 -12.993  1.00  0.00    -0.550 OA
ENDBRANCH   7   8
ENDBRANCH   6   7
ENDBRANCH   5   6
ENDBRANCH   4   5
ENDBRANCH   3   4
ENDBRANCH   2   3
ENDBRANCH   1   2
BRANCH   1  11
ATOM     11  C   UNL     1      13.276   7.062 -10.994  1.00  0.00     0.000 C 
BRANCH  11  12
ATOM     12  C   UNL     1      13.538   5.992 -12.065  1.00  0.00     0.000 C 
BRANCH  12  13
ATOM     13  C   UNL     1      13.010   6.403 -13.450  1.00  0.00     0.000 C 
BRANCH  13  14
ATOM     14  C   UNL     1      12.285   5.255 -14.175  1.00  0.00     0.000 C 
BRANCH  14  15
ATOM     15  C   UNL     1      11.812   5.584 -15.605  1.00  0.00     0.000 C 
BRANCH  15  16
ATOM     16  C   UNL     1      11.138   6.962 -15.772  1.00  0.00     0.006 C 
BRANCH  16  17
ATOM     17  C   UNL     1       9.682   6.900 -16.257  1.00  0.00     0.053 C 
BRANCH  17  18
ATOM     18  C   UNL     1       9.249   8.184 -16.894  1.00  0.00     0.041 C 
ATOM     19  O   UNL     1       9.930   8.691 -17.824  1.00  0.00    -0.550 OA
ATOM     20  O   UNL     1       8.079   8.807 -16.479  1.00  0.00    -0.550 OA
ENDBRANCH  17  18
ENDBRANCH  16  17
ENDBRANCH  15  16
ENDBRANCH  14  15
ENDBRANCH  13  14
ENDBRANCH  12  13
ENDBRANCH  11  12
ENDBRANCH   1  11
TORSDOF 15
ENDMDL
MODEL 8
REMARK VINA RESULT:    -5.331      2.534      4.016
REMARK INTER + INTRA:         -12.298
REMARK INTER:                 -10.110
REMARK INTRA:                  -2.187
REMARK UNBOUND:                -2.292
REMARK SMILES O=C([O-])CCCCCCCCCCCCCCC(=O)[O-]
REMARK SMILES IDX 10 1 9 2 8 3 7 4 6 5 5 6 4 7 2 8 1 9 3 10 11 11 12 12 13 13
REMARK SMILES IDX 14 14 15 15 16 16 17 17 18 18 19 19 20 20
REMARK H PARENT
REMARK Flexibility Score: inf
ROOT
ATOM      1  C   UNL     1       9.335   8.674 -12.883  1.00  0.00     0.000 C 
ENDROOT
BRANCH   1   2
ATOM      2  C   UNL     1      10.479   7.830 -12.298  1.00  0.00     0.000 C 
BRANCH   2   3
ATOM      3  C   UNL     1      10.047   6.387 -11.985  1.00  0.00     0.000 C 
BRANCH   3   4
ATOM      4  C   UNL     1      10.275   6.010 -10.513  1.00  0.00     0.000 C 
BRANCH   4   5
ATOM      5  C   UNL     1      11.416   6.817  -9.868  1.00  0.00     0.000 C 
BRANCH   5   6
ATOM      6  C   UNL     1      12.748   6.050  -9.857  1.00  0.00     0.006 C 
BRANCH   6   7
ATOM      7  C   UNL     1      13.902   6.865 -10.454  1.00  0.00     0.053 C 
BRANCH   7   8
ATOM      8  C   UNL     1      13.957   6.680 -11.938  1.00  0.00     0.041 C 
ATOM      9  O   UNL     1      14.481   7.562 -12.668  1.00  0.00    -0.550 OA
ATOM     10  O   UNL     1      13.475   5.510 -12.511  1.00  0.00    -0.550 OA
ENDBRANCH   7   8
ENDBRANCH   6   7
ENDBRANCH   5   6
ENDBRANCH   4   5
ENDBRANCH   3   4
ENDBRANCH   2   3
ENDBRANCH   1   2
BRANCH   1  11
ATOM     11  C   UNL     1       8.001   7.908 -12.928  1.00  0.00     0.000 C 
BRANCH  11  12
ATOM     12  C   UNL     1       7.609   7.496 -14.356  1.00  0.00     0.000 C 
BRANCH  12  13
ATOM     13  C   UNL     1       8.289   8.364 -15.428  1.00  0.00     0.000 C 
BRANCH  13  14
ATOM     14  C   UNL     1       9.105   7.534 -16.435  1.00  0.00     0.000 C 
BRANCH  14  15
ATOM     15  C   UNL     1       9.702   6.230 -15.871  1.00  0.00     0.000 C 
BRANCH  15  16
ATOM     16  C   UNL     1      11.242   6.148 -15.897  1.00  0.00     0.006 C 
BRANCH  16  17
ATOM     17  C   UNL     1      11.951   7.390 -15.334  1.00  0.00     0.053 C 
BRANCH  17  18
ATOM     18  C   UNL     1      12.777   8.081 -16.374  1.00  0.00     0.041 C 
ATOM     19  O   UNL     1      14.032   7.974 -16.361  1.00  0.00    -0.550 OA
ATOM     20  O   UNL     1      12.160   8.820 -17.375  1.00  0.00    -0.550 OA
ENDBRANCH  17  18
ENDBRANCH  16  17
ENDBRANCH  15  16
ENDBRANCH  14  15
ENDBRANCH  13  14
ENDBRANCH  12  13
ENDBRANCH  11  12
ENDBRANCH   1  11
TORSDOF 15
ENDMDL
MODEL 9
REMARK VINA RESULT:    -5.328      1.921      4.168
REMARK INTER + INTRA:         -12.293
REMARK INTER:                  -9.844
REMARK INTRA:                  -2.449
REMARK UNBOUND:                -2.292
REMARK SMILES O=C([O-])CCCCCCCCCCCCCCC(=O)[O-]
REMARK SMILES IDX 10 1 9 2 8 3 7 4 6 5 5 6 4 7 2 8 1 9 3 10 11 11 12 12 13 13
REMARK SMILES IDX 14 14 15 15 16 16 17 17 18 18 19 19 20 20
REMARK H PARENT
REMARK Flexibility Score: inf
ROOT
ATOM      1  C   UNL     1      11.952   4.928 -13.948  1.00  0.00     0.000 C 
ENDROOT
BRANCH   1   2
ATOM      2  C   UNL     1      12.091   5.520 -15.360  1.00  0.00     0.000 C 
BRANCH   2   3
ATOM      3  C   UNL     1      11.127   6.694 -15.604  1.00  0.00     0.000 C 
BRANCH   3   4
ATOM      4  C   UNL     1      11.794   8.060 -15.376  1.00  0.00     0.000 C 
BRANCH   4   5
ATOM      5  C   UNL     1      13.255   8.090 -15.859  1.00  0.00     0.000 C 
BRANCH   5   6
ATOM      6  C   UNL     1      14.225   8.584 -14.774  1.00  0.00     0.006 C 
BRANCH   6   7
ATOM      7  C   UNL     1      13.498   9.176 -13.560  1.00  0.00     0.053 C 
BRANCH   7   8
ATOM      8  C   UNL     1      14.356   9.078 -12.339  1.00  0.00     0.041 C 
ATOM      9  O   UNL     1      15.112   8.086 -12.173  1.00  0.00    -0.550 OA
ATOM     10  O   UNL     1      14.360  10.109 -11.407  1.00  0.00    -0.550 OA
ENDBRANCH   7   8
ENDBRANCH   6   7
ENDBRANCH   5   6
ENDBRANCH   4   5
ENDBRANCH   3   4
ENDBRANCH   2   3
ENDBRANCH   1   2
BRANCH   1  11
ATOM     11  C   UNL     1      13.082   5.379 -13.006  1.00  0.00     0.000 C 
BRANCH  11  12
ATOM     12  C   UNL     1      12.559   5.810 -11.626  1.00  0.00     0.000 C 
BRANCH  12  13
ATOM     13  C   UNL     1      11.290   6.673 -11.720  1.00  0.00     0.000 C 
BRANCH  13  14
ATOM     14  C   UNL     1      10.084   6.038 -11.004  1.00  0.00     0.000 C 
BRANCH  14  15
ATOM     15  C   UNL     1       8.750   6.131 -11.770  1.00  0.00     0.000 C 
BRANCH  15  16
ATOM     16  C   UNL     1       8.491   7.479 -12.475  1.00  0.00     0.006 C 
BRANCH  16  17
ATOM     17  C   UNL     1       7.848   7.353 -13.865  1.00  0.00     0.053 C 
BRANCH  17  18
ATOM     18  C   UNL     1       8.098   8.565 -14.708  1.00  0.00     0.041 C 
ATOM     19  O   UNL     1       7.863   8.537 -15.945  1.00  0.00    -0.550 OA
ATOM     20  O   UNL     1       8.566   9.735 -14.123  1.00  0.00    -0.550 OA
ENDBRANCH  17  18
ENDBRANCH  16  17
ENDBRANCH  15  16
ENDBRANCH  14  15
ENDBRANCH  13  14
ENDBRANCH  12  13
ENDBRANCH  11  12
ENDBRANCH   1  11
TORSDOF 15
ENDMDL
