MODEL 1
REMARK VINA RESULT:    -4.410      0.000      0.000
REMARK INTER + INTRA:          -5.468
REMARK INTER:                  -6.215
REMARK INTRA:                   0.747
REMARK UNBOUND:                 0.747
REMARK SMILES CC1=CCC(=C(C)C)C(=O)CC(C)=CCC1
REMARK SMILES IDX 12 1 14 2 13 3 15 4 16 5 2 6 1 7 3 8 11 10 9 11 10 12 5 13
REMARK SMILES IDX 6 14 7 15 8 16 4 17
REMARK H PARENT
REMARK Flexibility Score: 60.00
ROOT
ATOM      1  C   UNL     1       8.879  22.750 -22.720  1.00  0.00    -0.070 C 
ATOM      2  C   UNL     1       8.461  23.758 -21.920  1.00  0.00    -0.027 C 
ATOM      3  C   UNL     1       9.551  21.569 -22.064  1.00  0.00     0.039 C 
ENDROOT
BRANCH   2   4
ATOM      4  C   UNL     1       7.652  24.961 -22.344  1.00  0.00     0.032 C 
BRANCH   4   5
ATOM      5  C   UNL     1       6.249  24.994 -21.707  1.00  0.00     0.034 C 
BRANCH   5   6
ATOM      6  C   UNL     1       5.158  24.635 -22.697  1.00  0.00    -0.077 C 
ATOM      7  C   UNL     1       4.263  25.751 -23.174  1.00  0.00     0.039 C 
ATOM      8  C   UNL     1       4.871  23.364 -23.065  1.00  0.00    -0.023 CG0
ATOM      9  G   UNL     1       5.622  22.130 -22.622  1.00  0.00     0.000 G0
ENDBRANCH   5   6
ENDBRANCH   4   5
ENDBRANCH   2   4
BRANCH   1  10
ATOM     10  C   UNL     1       8.679  22.727 -24.226  1.00  0.00     0.111 C 
BRANCH  10  11
ATOM     11  C   UNL     1       7.236  22.467 -24.580  1.00  0.00     0.163 C 
ATOM     12  O   UNL     1       6.737  23.115 -25.539  1.00  0.00    -0.294 OA
BRANCH  11  13
ATOM     13  C   UNL     1       6.381  21.528 -23.790  1.00  0.00    -0.002 C 
ATOM     14  C   UNL     1       6.357  20.185 -24.048  1.00  0.00    -0.069 C 
ATOM     15  C   UNL     1       5.468  19.249 -23.261  1.00  0.00     0.039 C 
ATOM     16  C   UNL     1       7.231  19.568 -25.116  1.00  0.00     0.039 C 
BRANCH  13  17
ATOM     17  C   UNL     1       5.605  22.118 -22.626  1.00  0.00     0.066 CG0
ATOM     18  G   UNL     1       4.883  23.368 -23.073  1.00  0.00     0.000 G0
ENDBRANCH  13  17
ENDBRANCH  11  13
ENDBRANCH  10  11
ENDBRANCH   1  10
TORSDOF 0
ENDMDL
MODEL 2
REMARK VINA RESULT:    -4.316      7.591      8.821
REMARK INTER + INTRA:          -5.335
REMARK INTER:                  -5.658
REMARK INTRA:                   0.322
REMARK UNBOUND:                 0.747
REMARK SMILES CC1=CCC(=C(C)C)C(=O)CC(C)=CCC1
REMARK SMILES IDX 12 1 14 2 13 3 15 4 16 5 2 6 1 7 3 8 11 10 9 11 10 12 5 13
REMARK SMILES IDX 6 14 7 15 8 16 4 17
REMARK H PARENT
REMARK Flexibility Score: 60.00
ROOT
ATOM      1  C   UNL     1      16.167  17.994 -22.008  1.00  0.00    -0.070 C 
ATOM      2  C   UNL     1      15.830  18.577 -20.835  1.00  0.00    -0.027 C 
ATOM      3  C   UNL     1      17.468  18.409 -22.650  1.00  0.00     0.039 C 
ENDROOT
BRANCH   2   4
ATOM      4  C   UNL     1      14.653  18.217 -19.961  1.00  0.00     0.032 C 
BRANCH   4   5
ATOM      5  C   UNL     1      13.359  18.950 -20.367  1.00  0.00     0.034 C 
BRANCH   5   6
ATOM      6  C   UNL     1      12.185  18.003 -20.524  1.00  0.00    -0.077 C 
ATOM      7  C   UNL     1      11.694  17.298 -19.285  1.00  0.00     0.039 C 
ATOM      8  C   UNL     1      11.651  17.666 -21.723  1.00  0.00    -0.023 CG0
ATOM      9  G   UNL     1      12.075  18.224 -23.061  1.00  0.00     0.000 G0
ENDBRANCH   5   6
ENDBRANCH   4   5
ENDBRANCH   2   4
BRANCH   1  10
ATOM     10  C   UNL     1      15.329  16.926 -22.693  1.00  0.00     0.111 C 
BRANCH  10  11
ATOM     11  C   UNL     1      14.442  17.528 -23.754  1.00  0.00     0.163 C 
ATOM     12  O   UNL     1      14.964  18.329 -24.575  1.00  0.00    -0.294 OA
BRANCH  11  13
ATOM     13  C   UNL     1      12.973  17.255 -23.811  1.00  0.00    -0.002 C 
ATOM     14  C   UNL     1      12.471  16.136 -24.414  1.00  0.00    -0.069 C 
ATOM     15  C   UNL     1      10.981  15.884 -24.489  1.00  0.00     0.039 C 
ATOM     16  C   UNL     1      13.377  15.086 -25.016  1.00  0.00     0.039 C 
BRANCH  13  17
ATOM     17  C   UNL     1      12.063  18.233 -23.089  1.00  0.00     0.066 CG0
ATOM     18  G   UNL     1      11.653  17.659 -21.753  1.00  0.00     0.000 G0
ENDBRANCH  13  17
ENDBRANCH  11  13
ENDBRANCH  10  11
ENDBRANCH   1  10
TORSDOF 0
ENDMDL
MODEL 3
REMARK VINA RESULT:    -4.315     17.597     19.561
REMARK INTER + INTRA:          -5.334
REMARK INTER:                  -6.262
REMARK INTRA:                   0.928
REMARK UNBOUND:                 0.747
REMARK SMILES CC1=CCC(=C(C)C)C(=O)CC(C)=CCC1
REMARK SMILES IDX 12 1 14 2 13 3 15 4 16 5 2 6 1 7 3 8 11 10 9 11 10 12 5 13
REMARK SMILES IDX 6 14 7 15 8 16 4 17
REMARK H PARENT
REMARK Flexibility Score: 60.00
ROOT
ATOM      1  C   UNL     1      21.441   8.633 -28.067  1.00  0.00    -0.070 C 
ATOM      2  C   UNL     1      20.339   7.859 -28.199  1.00  0.00    -0.027 C 
ATOM      3  C   UNL     1      21.872   9.448 -29.261  1.00  0.00     0.039 C 
ENDROOT
BRANCH   2   4
ATOM      4  C   UNL     1      19.659   7.075 -27.103  1.00  0.00     0.032 C 
BRANCH   4   5
ATOM      5  C   UNL     1      18.314   7.693 -26.670  1.00  0.00     0.034 C 
BRANCH   5   6
ATOM      6  C   UNL     1      18.397   8.353 -25.307  1.00  0.00    -0.077 C 
ATOM      7  C   UNL     1      17.918   7.553 -24.122  1.00  0.00     0.039 C 
ATOM      8  C   UNL     1      18.750   9.648 -25.123  1.00  0.00    -0.023 CG0
ATOM      9  G   UNL     1      19.185  10.603 -26.210  1.00  0.00     0.000 G0
ENDBRANCH   5   6
ENDBRANCH   4   5
ENDBRANCH   2   4
BRANCH   1  10
ATOM     10  C   UNL     1      22.242   8.751 -26.780  1.00  0.00     0.111 C 
BRANCH  10  11
ATOM     11  C   UNL     1      21.522   9.606 -25.768  1.00  0.00     0.163 C 
ATOM     12  O   UNL     1      21.579   9.261 -24.557  1.00  0.00    -0.294 OA
BRANCH  11  13
ATOM     13  C   UNL     1      20.702  10.791 -26.168  1.00  0.00    -0.002 C 
ATOM     14  C   UNL     1      21.279  11.967 -26.559  1.00  0.00    -0.069 C 
ATOM     15  C   UNL     1      20.440  13.168 -26.935  1.00  0.00     0.039 C 
ATOM     16  C   UNL     1      22.780  12.120 -26.657  1.00  0.00     0.039 C 
BRANCH  13  17
ATOM     17  C   UNL     1      19.196  10.604 -26.206  1.00  0.00     0.066 CG0
ATOM     18  G   UNL     1      18.769   9.662 -25.105  1.00  0.00     0.000 G0
ENDBRANCH  13  17
ENDBRANCH  11  13
ENDBRANCH  10  11
ENDBRANCH   1  10
TORSDOF 0
ENDMDL
MODEL 4
REMARK VINA RESULT:    -4.257      4.154      6.908
REMARK INTER + INTRA:          -5.252
REMARK INTER:                  -5.874
REMARK INTRA:                   0.622
REMARK UNBOUND:                 0.747
REMARK SMILES CC1=CCC(=C(C)C)C(=O)CC(C)=CCC1
REMARK SMILES IDX 12 1 14 2 13 3 15 4 16 5 2 6 1 7 3 8 11 10 9 11 10 12 5 13
REMARK SMILES IDX 6 14 7 15 8 16 4 17
REMARK H PARENT
REMARK Flexibility Score: 60.00
ROOT
ATOM      1  C   UNL     1      10.587  18.571 -19.450  1.00  0.00    -0.070 C 
ATOM      2  C   UNL     1      11.565  17.784 -19.956  1.00  0.00    -0.027 C 
ATOM      3  C   UNL     1       9.673  17.972 -18.410  1.00  0.00     0.039 C 
ENDROOT
BRANCH   2   4
ATOM      4  C   UNL     1      12.664  18.215 -20.897  1.00  0.00     0.032 C 
BRANCH   4   5
ATOM      5  C   UNL     1      12.702  17.383 -22.194  1.00  0.00     0.034 C 
BRANCH   5   6
ATOM      6  C   UNL     1      11.348  17.314 -22.874  1.00  0.00    -0.077 C 
ATOM      7  C   UNL     1      10.840  15.949 -23.265  1.00  0.00     0.039 C 
ATOM      8  C   UNL     1      10.647  18.408 -23.257  1.00  0.00    -0.023 CG0
ATOM      9  G   UNL     1      11.050  19.842 -23.007  1.00  0.00     0.000 G0
ENDBRANCH   5   6
ENDBRANCH   4   5
ENDBRANCH   2   4
BRANCH   1  10
ATOM     10  C   UNL     1      10.382  20.024 -19.846  1.00  0.00     0.111 C 
BRANCH  10  11
ATOM     11  C   UNL     1       9.445  20.142 -21.021  1.00  0.00     0.163 C 
ATOM     12  O   UNL     1       8.252  19.763 -20.866  1.00  0.00    -0.294 OA
BRANCH  11  13
ATOM     13  C   UNL     1       9.906  20.622 -22.360  1.00  0.00    -0.002 C 
ATOM     14  C   UNL     1       9.386  21.746 -22.940  1.00  0.00    -0.069 C 
ATOM     15  C   UNL     1       9.841  22.207 -24.307  1.00  0.00     0.039 C 
ATOM     16  C   UNL     1       8.350  22.594 -22.238  1.00  0.00     0.039 C 
BRANCH  13  17
ATOM     17  C   UNL     1      11.043  19.857 -23.012  1.00  0.00     0.066 CG0
ATOM     18  G   UNL     1      10.625  18.425 -23.252  1.00  0.00     0.000 G0
ENDBRANCH  13  17
ENDBRANCH  11  13
ENDBRANCH  10  11
ENDBRANCH   1  10
TORSDOF 0
ENDMDL
MODEL 5
REMARK VINA RESULT:    -4.159      5.237      7.436
REMARK INTER + INTRA:          -5.114
REMARK INTER:                  -5.676
REMARK INTRA:                   0.562
REMARK UNBOUND:                 0.747
REMARK SMILES CC1=CCC(=C(C)C)C(=O)CC(C)=CCC1
REMARK SMILES IDX 12 1 14 2 13 3 15 4 16 5 2 6 1 7 3 8 11 10 9 11 10 12 5 13
REMARK SMILES IDX 6 14 7 15 8 16 4 17
REMARK H PARENT
REMARK Flexibility Score: 60.00
ROOT
ATOM      1  C   UNL     1      10.252  18.031 -18.972  1.00  0.00    -0.070 C 
ATOM      2  C   UNL     1       9.072  17.716 -19.557  1.00  0.00    -0.027 C 
ATOM      3  C   UNL     1      10.213  18.918 -17.752  1.00  0.00     0.039 C 
ENDROOT
BRANCH   2   4
ATOM      4  C   UNL     1       8.869  16.745 -20.695  1.00  0.00     0.032 C 
BRANCH   4   5
ATOM      5  C   UNL     1       8.156  17.381 -21.905  1.00  0.00     0.034 C 
BRANCH   5   6
ATOM      6  C   UNL     1       8.871  18.621 -22.408  1.00  0.00    -0.077 C 
ATOM      7  C   UNL     1       8.042  19.866 -22.600  1.00  0.00     0.039 C 
ATOM      8  C   UNL     1      10.165  18.627 -22.809  1.00  0.00    -0.023 CG0
ATOM      9  G   UNL     1      11.109  17.449 -22.751  1.00  0.00     0.000 G0
ENDBRANCH   5   6
ENDBRANCH   4   5
ENDBRANCH   2   4
BRANCH   1  10
ATOM     10  C   UNL     1      11.598  17.516 -19.453  1.00  0.00     0.111 C 
BRANCH  10  11
ATOM     11  C   UNL     1      12.126  18.353 -20.591  1.00  0.00     0.163 C 
ATOM     12  O   UNL     1      12.320  19.580 -20.381  1.00  0.00    -0.294 OA
BRANCH  11  13
ATOM     13  C   UNL     1      12.354  17.784 -21.955  1.00  0.00    -0.002 C 
ATOM     14  C   UNL     1      13.610  17.512 -22.421  1.00  0.00    -0.069 C 
ATOM     15  C   UNL     1      13.831  16.963 -23.813  1.00  0.00     0.039 C 
ATOM     16  C   UNL     1      14.837  17.724 -21.564  1.00  0.00     0.039 C 
BRANCH  13  17
ATOM     17  C   UNL     1      11.122  17.438 -22.771  1.00  0.00     0.066 CG0
ATOM     18  G   UNL     1      10.180  18.618 -22.803  1.00  0.00     0.000 G0
ENDBRANCH  13  17
ENDBRANCH  11  13
ENDBRANCH  10  11
ENDBRANCH   1  10
TORSDOF 0
ENDMDL
MODEL 6
REMARK VINA RESULT:    -4.072      1.818      2.097
REMARK INTER + INTRA:          -4.991
REMARK INTER:                  -5.435
REMARK INTRA:                   0.444
REMARK UNBOUND:                 0.747
REMARK SMILES CC1=CCC(=C(C)C)C(=O)CC(C)=CCC1
REMARK SMILES IDX 12 1 14 2 13 3 15 4 16 5 2 6 1 7 3 8 11 10 9 11 10 12 5 13
REMARK SMILES IDX 6 14 7 15 8 16 4 17
REMARK H PARENT
REMARK Flexibility Score: 60.00
ROOT
ATOM      1  C   UNL     1       8.629  22.078 -22.061  1.00  0.00    -0.070 C 
ATOM      2  C   UNL     1       8.533  23.408 -21.829  1.00  0.00    -0.027 C 
ATOM      3  C   UNL     1       9.944  21.406 -21.748  1.00  0.00     0.039 C 
ENDROOT
BRANCH   2   4
ATOM      4  C   UNL     1       7.283  24.248 -21.941  1.00  0.00     0.032 C 
BRANCH   4   5
ATOM      5  C   UNL     1       7.032  24.759 -23.374  1.00  0.00     0.034 C 
BRANCH   5   6
ATOM      6  C   UNL     1       5.681  24.325 -23.911  1.00  0.00    -0.077 C 
ATOM      7  C   UNL     1       4.456  24.911 -23.255  1.00  0.00     0.039 C 
ATOM      8  C   UNL     1       5.524  23.357 -24.845  1.00  0.00    -0.023 CG0
ATOM      9  G   UNL     1       6.642  22.622 -25.547  1.00  0.00     0.000 G0
ENDBRANCH   5   6
ENDBRANCH   4   5
ENDBRANCH   2   4
BRANCH   1  10
ATOM     10  C   UNL     1       7.485  21.226 -22.583  1.00  0.00     0.111 C 
BRANCH  10  11
ATOM     11  C   UNL     1       7.699  20.852 -24.028  1.00  0.00     0.163 C 
ATOM     12  O   UNL     1       8.787  20.298 -24.339  1.00  0.00    -0.294 OA
BRANCH  11  13
ATOM     13  C   UNL     1       6.699  21.180 -25.090  1.00  0.00    -0.002 C 
ATOM     14  C   UNL     1       5.817  20.248 -25.563  1.00  0.00    -0.069 C 
ATOM     15  C   UNL     1       4.829  20.584 -26.657  1.00  0.00     0.039 C 
ATOM     16  C   UNL     1       5.772  18.844 -25.002  1.00  0.00     0.039 C 
BRANCH  13  17
ATOM     17  C   UNL     1       6.643  22.623 -25.561  1.00  0.00     0.066 CG0
ATOM     18  G   UNL     1       5.523  23.349 -24.854  1.00  0.00     0.000 G0
ENDBRANCH  13  17
ENDBRANCH  11  13
ENDBRANCH  10  11
ENDBRANCH   1  10
TORSDOF 0
ENDMDL
MODEL 7
REMARK VINA RESULT:    -4.068      3.696      4.936
REMARK INTER + INTRA:          -4.987
REMARK INTER:                  -5.446
REMARK INTRA:                   0.460
REMARK UNBOUND:                 0.747
REMARK SMILES CC1=CCC(=C(C)C)C(=O)CC(C)=CCC1
REMARK SMILES IDX 12 1 14 2 13 3 15 4 16 5 2 6 1 7 3 8 11 10 9 11 10 12 5 13
REMARK SMILES IDX 6 14 7 15 8 16 4 17
REMARK H PARENT
REMARK Flexibility Score: 60.00
ROOT
ATOM      1  C   UNL     1      10.267  19.070 -19.700  1.00  0.00    -0.070 C 
ATOM      2  C   UNL     1      10.350  20.413 -19.848  1.00  0.00    -0.027 C 
ATOM      3  C   UNL     1      10.141  18.526 -18.298  1.00  0.00     0.039 C 
ENDROOT
BRANCH   2   4
ATOM      4  C   UNL     1      10.345  21.171 -21.153  1.00  0.00     0.032 C 
BRANCH   4   5
ATOM      5  C   UNL     1       8.926  21.549 -21.621  1.00  0.00     0.034 C 
BRANCH   5   6
ATOM      6  C   UNL     1       8.707  21.253 -23.093  1.00  0.00    -0.077 C 
ATOM      7  C   UNL     1       9.215  22.268 -24.085  1.00  0.00     0.039 C 
ATOM      8  C   UNL     1       7.976  20.205 -23.543  1.00  0.00    -0.023 CG0
ATOM      9  G   UNL     1       7.340  19.141 -22.680  1.00  0.00     0.000 G0
ENDBRANCH   5   6
ENDBRANCH   4   5
ENDBRANCH   2   4
BRANCH   1  10
ATOM     10  C   UNL     1      10.261  18.090 -20.862  1.00  0.00     0.111 C 
BRANCH  10  11
ATOM     11  C   UNL     1       8.856  17.673 -21.214  1.00  0.00     0.163 C 
ATOM     12  O   UNL     1       8.196  17.032 -20.352  1.00  0.00    -0.294 OA
BRANCH  11  13
ATOM     13  C   UNL     1       8.264  17.935 -22.562  1.00  0.00    -0.002 C 
ATOM     14  C   UNL     1       8.475  17.092 -23.618  1.00  0.00    -0.069 C 
ATOM     15  C   UNL     1       7.893  17.382 -24.984  1.00  0.00     0.039 C 
ATOM     16  C   UNL     1       9.279  15.821 -23.469  1.00  0.00     0.039 C 
BRANCH  13  17
ATOM     17  C   UNL     1       7.341  19.134 -22.687  1.00  0.00     0.066 CG0
ATOM     18  G   UNL     1       7.991  20.192 -23.548  1.00  0.00     0.000 G0
ENDBRANCH  13  17
ENDBRANCH  11  13
ENDBRANCH  10  11
ENDBRANCH   1  10
TORSDOF 0
ENDMDL
MODEL 8
REMARK VINA RESULT:    -3.999      4.608      6.495
REMARK INTER + INTRA:          -4.889
REMARK INTER:                  -5.334
REMARK INTRA:                   0.445
REMARK UNBOUND:                 0.747
REMARK SMILES CC1=CCC(=C(C)C)C(=O)CC(C)=CCC1
REMARK SMILES IDX 12 1 14 2 13 3 15 4 16 5 2 6 1 7 3 8 11 10 9 11 10 12 5 13
REMARK SMILES IDX 6 14 7 15 8 16 4 17
REMARK H PARENT
REMARK Flexibility Score: 60.00
ROOT
ATOM      1  C   UNL     1       9.628  21.337 -23.286  1.00  0.00    -0.070 C 
ATOM      2  C   UNL     1       9.574  21.798 -22.015  1.00  0.00    -0.027 C 
ATOM      3  C   UNL     1       9.712  22.355 -24.397  1.00  0.00     0.039 C 
ENDROOT
BRANCH   2   4
ATOM      4  C   UNL     1       9.622  20.964 -20.757  1.00  0.00     0.032 C 
BRANCH   4   5
ATOM      5  C   UNL     1      11.008  20.338 -20.507  1.00  0.00     0.034 C 
BRANCH   5   6
ATOM      6  C   UNL     1      10.919  18.865 -20.153  1.00  0.00    -0.077 C 
ATOM      7  C   UNL     1      10.192  18.502 -18.883  1.00  0.00     0.039 C 
ATOM      8  C   UNL     1      11.561  17.891 -20.842  1.00  0.00    -0.023 CG0
ATOM      9  G   UNL     1      12.388  18.096 -22.090  1.00  0.00     0.000 G0
ENDBRANCH   5   6
ENDBRANCH   4   5
ENDBRANCH   2   4
BRANCH   1  10
ATOM     10  C   UNL     1       9.642  19.862 -23.650  1.00  0.00     0.111 C 
BRANCH  10  11
ATOM     11  C   UNL     1      11.050  19.365 -23.858  1.00  0.00     0.163 C 
ATOM     12  O   UNL     1      11.830  20.073 -24.552  1.00  0.00    -0.294 OA
BRANCH  11  13
ATOM     13  C   UNL     1      11.514  18.046 -23.328  1.00  0.00    -0.002 C 
ATOM     14  C   UNL     1      11.220  16.871 -23.962  1.00  0.00    -0.069 C 
ATOM     15  C   UNL     1      11.670  15.541 -23.402  1.00  0.00     0.039 C 
ATOM     16  C   UNL     1      10.449  16.844 -25.262  1.00  0.00     0.039 C 
BRANCH  13  17
ATOM     17  C   UNL     1      12.405  18.073 -22.099  1.00  0.00     0.066 CG0
ATOM     18  G   UNL     1      11.568  17.895 -20.855  1.00  0.00     0.000 G0
ENDBRANCH  13  17
ENDBRANCH  11  13
ENDBRANCH  10  11
ENDBRANCH   1  10
TORSDOF 0
ENDMDL
MODEL 9
REMARK VINA RESULT:    -3.872      3.650      6.221
REMARK INTER + INTRA:          -4.710
REMARK INTER:                  -5.257
REMARK INTRA:                   0.547
REMARK UNBOUND:                 0.747
REMARK SMILES CC1=CCC(=C(C)C)C(=O)CC(C)=CCC1
REMARK SMILES IDX 12 1 14 2 13 3 15 4 16 5 2 6 1 7 3 8 11 10 9 11 10 12 5 13
REMARK SMILES IDX 6 14 7 15 8 16 4 17
REMARK H PARENT
REMARK Flexibility Score: 60.00
ROOT
ATOM      1  C   UNL     1       8.843  17.127 -22.086  1.00  0.00    -0.070 C 
ATOM      2  C   UNL     1       9.278  17.022 -20.809  1.00  0.00    -0.027 C 
ATOM      3  C   UNL     1       9.112  15.969 -23.016  1.00  0.00     0.039 C 
ENDROOT
BRANCH   2   4
ATOM      4  C   UNL     1       9.001  17.992 -19.687  1.00  0.00     0.032 C 
BRANCH   4   5
ATOM      5  C   UNL     1      10.288  18.569 -19.063  1.00  0.00     0.034 C 
BRANCH   5   6
ATOM      6  C   UNL     1      11.241  19.115 -20.110  1.00  0.00    -0.077 C 
ATOM      7  C   UNL     1      12.647  18.570 -20.115  1.00  0.00     0.039 C 
ATOM      8  C   UNL     1      10.933  20.141 -20.938  1.00  0.00    -0.023 CG0
ATOM      9  G   UNL     1       9.598  20.843 -21.009  1.00  0.00     0.000 G0
ENDBRANCH   5   6
ENDBRANCH   4   5
ENDBRANCH   2   4
BRANCH   1  10
ATOM     10  C   UNL     1       8.074  18.324 -22.621  1.00  0.00     0.111 C 
BRANCH  10  11
ATOM     11  C   UNL     1       9.011  19.420 -23.062  1.00  0.00     0.163 C 
ATOM     12  O   UNL     1       9.844  19.156 -23.970  1.00  0.00    -0.294 OA
BRANCH  11  13
ATOM     13  C   UNL     1       9.021  20.766 -22.411  1.00  0.00    -0.002 C 
ATOM     14  C   UNL     1       8.469  21.862 -23.013  1.00  0.00    -0.069 C 
ATOM     15  C   UNL     1       8.509  23.224 -22.357  1.00  0.00     0.039 C 
ATOM     16  C   UNL     1       7.774  21.765 -24.352  1.00  0.00     0.039 C 
BRANCH  13  17
ATOM     17  C   UNL     1       9.593  20.847 -21.007  1.00  0.00     0.066 CG0
ATOM     18  G   UNL     1      10.927  20.139 -20.956  1.00  0.00     0.000 G0
ENDBRANCH  13  17
ENDBRANCH  11  13
ENDBRANCH  10  11
ENDBRANCH   1  10
TORSDOF 0
ENDMDL
