MODEL 1
REMARK VINA RESULT:    -4.671      0.000      0.000
REMARK INTER + INTRA:          -6.474
REMARK INTER:                  -6.173
REMARK INTRA:                  -0.301
REMARK UNBOUND:                -0.301
REMARK SMILES CCCCC=CC=CCO
REMARK SMILES IDX 5 1 6 2 4 3 3 4 2 5 1 6 7 7 8 8 9 9 10 10
REMARK H PARENT 10 11
REMARK Flexibility Score: inf
ROOT
ATOM      1  C   UNL     1     -42.765  46.402 -20.728  1.00  0.00    -0.027 C 
ATOM      2  C   UNL     1     -43.932  46.622 -20.105  1.00  0.00    -0.005 C 
ENDROOT
BRANCH   1   3
ATOM      3  C   UNL     1     -42.536  45.359 -21.792  1.00  0.00     0.027 C 
BRANCH   3   4
ATOM      4  C   UNL     1     -41.167  44.667 -21.654  1.00  0.00     0.004 C 
BRANCH   4   5
ATOM      5  C   UNL     1     -39.976  45.639 -21.584  1.00  0.00    -0.003 C 
ATOM      6  C   UNL     1     -39.611  46.233 -22.943  1.00  0.00     0.004 C 
ENDBRANCH   4   5
ENDBRANCH   3   4
ENDBRANCH   1   3
BRANCH   2   7
ATOM      7  C   UNL     1     -45.165  45.839 -20.355  1.00  0.00    -0.002 C 
ATOM      8  C   UNL     1     -46.401  46.324 -20.173  1.00  0.00     0.001 C 
BRANCH   8   9
ATOM      9  C   UNL     1     -46.704  47.718 -19.698  1.00  0.00     0.183 C 
BRANCH   9  10
ATOM     10  O   UNL     1     -47.477  48.405 -20.645  1.00  0.00    -0.392 OA
ATOM     11  H   UNL     1     -46.858  48.679 -21.371  1.00  0.00     0.210 HD
ENDBRANCH   9  10
ENDBRANCH   8   9
ENDBRANCH   2   7
TORSDOF 6
ENDMDL
MODEL 2
REMARK VINA RESULT:    -4.622     16.898     17.908
REMARK INTER + INTRA:          -6.409
REMARK INTER:                  -6.015
REMARK INTRA:                  -0.395
REMARK UNBOUND:                -0.301
REMARK SMILES CCCCC=CC=CCO
REMARK SMILES IDX 5 1 6 2 4 3 3 4 2 5 1 6 7 7 8 8 9 9 10 10
REMARK H PARENT 10 11
REMARK Flexibility Score: inf
ROOT
ATOM      1  C   UNL     1     -39.038  57.225  -6.714  1.00  0.00    -0.027 C 
ATOM      2  C   UNL     1     -39.739  57.189  -5.572  1.00  0.00    -0.005 C 
ENDROOT
BRANCH   1   3
ATOM      3  C   UNL     1     -39.391  58.058  -7.920  1.00  0.00     0.027 C 
BRANCH   3   4
ATOM      4  C   UNL     1     -40.359  57.334  -8.874  1.00  0.00     0.004 C 
BRANCH   4   5
ATOM      5  C   UNL     1     -40.070  57.579 -10.366  1.00  0.00    -0.003 C 
ATOM      6  C   UNL     1     -41.136  58.436 -11.047  1.00  0.00     0.004 C 
ENDBRANCH   4   5
ENDBRANCH   3   4
ENDBRANCH   1   3
BRANCH   2   7
ATOM      7  C   UNL     1     -40.992  57.948  -5.344  1.00  0.00    -0.002 C 
ATOM      8  C   UNL     1     -42.212  57.397  -5.404  1.00  0.00     0.001 C 
BRANCH   8   9
ATOM      9  C   UNL     1     -42.476  55.948  -5.704  1.00  0.00     0.183 C 
BRANCH   9  10
ATOM     10  O   UNL     1     -42.777  55.773  -7.063  1.00  0.00    -0.392 OA
ATOM     11  H   UNL     1     -42.132  55.106  -7.413  1.00  0.00     0.210 HD
ENDBRANCH   9  10
ENDBRANCH   8   9
ENDBRANCH   2   7
TORSDOF 6
ENDMDL
MODEL 3
REMARK VINA RESULT:    -4.609     17.900     19.208
REMARK INTER + INTRA:          -6.392
REMARK INTER:                  -5.755
REMARK INTRA:                  -0.637
REMARK UNBOUND:                -0.301
REMARK SMILES CCCCC=CC=CCO
REMARK SMILES IDX 5 1 6 2 4 3 3 4 2 5 1 6 7 7 8 8 9 9 10 10
REMARK H PARENT 10 11
REMARK Flexibility Score: inf
ROOT
ATOM      1  C   UNL     1     -39.755  58.387  -4.707  1.00  0.00    -0.027 C 
ATOM      2  C   UNL     1     -38.908  58.420  -5.746  1.00  0.00    -0.005 C 
ENDROOT
BRANCH   1   3
ATOM      3  C   UNL     1     -40.701  57.254  -4.398  1.00  0.00     0.027 C 
BRANCH   3   4
ATOM      4  C   UNL     1     -42.051  57.398  -5.124  1.00  0.00     0.004 C 
BRANCH   4   5
ATOM      5  C   UNL     1     -42.665  56.062  -5.578  1.00  0.00    -0.003 C 
ATOM      6  C   UNL     1     -42.180  55.621  -6.958  1.00  0.00     0.004 C 
ENDBRANCH   4   5
ENDBRANCH   3   4
ENDBRANCH   1   3
BRANCH   2   7
ATOM      7  C   UNL     1     -38.805  57.349  -6.766  1.00  0.00    -0.002 C 
ATOM      8  C   UNL     1     -39.263  57.473  -8.019  1.00  0.00     0.001 C 
BRANCH   8   9
ATOM      9  C   UNL     1     -39.935  58.705  -8.559  1.00  0.00     0.183 C 
BRANCH   9  10
ATOM     10  O   UNL     1     -38.984  59.615  -9.043  1.00  0.00    -0.392 OA
ATOM     11  H   UNL     1     -38.901  60.330  -8.360  1.00  0.00     0.210 HD
ENDBRANCH   9  10
ENDBRANCH   8   9
ENDBRANCH   2   7
TORSDOF 6
ENDMDL
MODEL 4
REMARK VINA RESULT:    -4.582      1.239      2.115
REMARK INTER + INTRA:          -6.356
REMARK INTER:                  -5.843
REMARK INTRA:                  -0.513
REMARK UNBOUND:                -0.301
REMARK SMILES CCCCC=CC=CCO
REMARK SMILES IDX 5 1 6 2 4 3 3 4 2 5 1 6 7 7 8 8 9 9 10 10
REMARK H PARENT 10 11
REMARK Flexibility Score: inf
ROOT
ATOM      1  C   UNL     1     -42.833  46.311 -20.674  1.00  0.00    -0.027 C 
ATOM      2  C   UNL     1     -44.019  46.695 -20.182  1.00  0.00    -0.005 C 
ENDROOT
BRANCH   1   3
ATOM      3  C   UNL     1     -42.592  45.051 -21.467  1.00  0.00     0.027 C 
BRANCH   3   4
ATOM      4  C   UNL     1     -42.048  45.338 -22.879  1.00  0.00     0.004 C 
BRANCH   4   5
ATOM      5  C   UNL     1     -43.106  45.233 -23.992  1.00  0.00    -0.003 C 
ATOM      6  C   UNL     1     -44.297  44.360 -23.602  1.00  0.00     0.004 C 
ENDBRANCH   4   5
ENDBRANCH   3   4
ENDBRANCH   1   3
BRANCH   2   7
ATOM      7  C   UNL     1     -45.269  45.909 -20.323  1.00  0.00    -0.002 C 
ATOM      8  C   UNL     1     -46.486  46.398 -20.050  1.00  0.00     0.001 C 
BRANCH   8   9
ATOM      9  C   UNL     1     -46.750  47.798 -19.569  1.00  0.00     0.183 C 
BRANCH   9  10
ATOM     10  O   UNL     1     -47.480  48.518 -20.527  1.00  0.00    -0.392 OA
ATOM     11  H   UNL     1     -46.827  48.829 -21.206  1.00  0.00     0.210 HD
ENDBRANCH   9  10
ENDBRANCH   8   9
ENDBRANCH   2   7
TORSDOF 6
ENDMDL
MODEL 5
REMARK VINA RESULT:    -4.516      1.519      2.207
REMARK INTER + INTRA:          -6.270
REMARK INTER:                  -5.766
REMARK INTRA:                  -0.504
REMARK UNBOUND:                -0.301
REMARK SMILES CCCCC=CC=CCO
REMARK SMILES IDX 5 1 6 2 4 3 3 4 2 5 1 6 7 7 8 8 9 9 10 10
REMARK H PARENT 10 11
REMARK Flexibility Score: inf
ROOT
ATOM      1  C   UNL     1     -43.167  45.044 -23.475  1.00  0.00    -0.027 C 
ATOM      2  C   UNL     1     -44.117  45.673 -22.767  1.00  0.00    -0.005 C 
ENDROOT
BRANCH   1   3
ATOM      3  C   UNL     1     -41.785  44.720 -22.969  1.00  0.00     0.027 C 
BRANCH   3   4
ATOM      4  C   UNL     1     -40.689  45.533 -23.682  1.00  0.00     0.004 C 
BRANCH   4   5
ATOM      5  C   UNL     1     -39.664  46.175 -22.729  1.00  0.00    -0.003 C 
ATOM      6  C   UNL     1     -40.186  46.316 -21.300  1.00  0.00     0.004 C 
ENDBRANCH   4   5
ENDBRANCH   3   4
ENDBRANCH   1   3
BRANCH   2   7
ATOM      7  C   UNL     1     -43.927  46.173 -21.385  1.00  0.00    -0.002 C 
ATOM      8  C   UNL     1     -44.795  45.949 -20.390  1.00  0.00     0.001 C 
BRANCH   8   9
ATOM      9  C   UNL     1     -46.070  45.165 -20.536  1.00  0.00     0.183 C 
BRANCH   9  10
ATOM     10  O   UNL     1     -47.184  46.011 -20.430  1.00  0.00    -0.392 OA
ATOM     11  H   UNL     1     -47.940  45.542 -20.869  1.00  0.00     0.210 HD
ENDBRANCH   9  10
ENDBRANCH   8   9
ENDBRANCH   2   7
TORSDOF 6
ENDMDL
MODEL 6
REMARK VINA RESULT:    -4.484      2.248      2.973
REMARK INTER + INTRA:          -6.227
REMARK INTER:                  -5.427
REMARK INTRA:                  -0.800
REMARK UNBOUND:                -0.301
REMARK SMILES CCCCC=CC=CCO
REMARK SMILES IDX 5 1 6 2 4 3 3 4 2 5 1 6 7 7 8 8 9 9 10 10
REMARK H PARENT 10 11
REMARK Flexibility Score: inf
ROOT
ATOM      1  C   UNL     1     -42.550  45.323 -23.689  1.00  0.00    -0.027 C 
ATOM      2  C   UNL     1     -43.616  45.051 -22.922  1.00  0.00    -0.005 C 
ENDROOT
BRANCH   1   3
ATOM      3  C   UNL     1     -41.132  44.923 -23.371  1.00  0.00     0.027 C 
BRANCH   3   4
ATOM      4  C   UNL     1     -40.257  46.124 -22.967  1.00  0.00     0.004 C 
BRANCH   4   5
ATOM      5  C   UNL     1     -39.572  45.969 -21.597  1.00  0.00    -0.003 C 
ATOM      6  C   UNL     1     -39.905  44.645 -20.911  1.00  0.00     0.004 C 
ENDBRANCH   4   5
ENDBRANCH   3   4
ENDBRANCH   1   3
BRANCH   2   7
ATOM      7  C   UNL     1     -43.543  44.342 -21.623  1.00  0.00    -0.002 C 
ATOM      8  C   UNL     1     -43.651  44.956 -20.437  1.00  0.00     0.001 C 
BRANCH   8   9
ATOM      9  C   UNL     1     -43.861  46.435 -20.262  1.00  0.00     0.183 C 
BRANCH   9  10
ATOM     10  O   UNL     1     -42.637  47.084 -20.045  1.00  0.00    -0.392 OA
ATOM     11  H   UNL     1     -42.206  46.627 -19.277  1.00  0.00     0.210 HD
ENDBRANCH   9  10
ENDBRANCH   8   9
ENDBRANCH   2   7
TORSDOF 6
ENDMDL
MODEL 7
REMARK VINA RESULT:    -4.416      2.687      5.812
REMARK INTER + INTRA:          -6.137
REMARK INTER:                  -5.850
REMARK INTRA:                  -0.287
REMARK UNBOUND:                -0.301
REMARK SMILES CCCCC=CC=CCO
REMARK SMILES IDX 5 1 6 2 4 3 3 4 2 5 1 6 7 7 8 8 9 9 10 10
REMARK H PARENT 10 11
REMARK Flexibility Score: inf
ROOT
ATOM      1  C   UNL     1     -43.887  46.589 -20.339  1.00  0.00    -0.027 C 
ATOM      2  C   UNL     1     -42.642  46.317 -20.757  1.00  0.00    -0.005 C 
ENDROOT
BRANCH   1   3
ATOM      3  C   UNL     1     -45.085  45.701 -20.557  1.00  0.00     0.027 C 
BRANCH   3   4
ATOM      4  C   UNL     1     -46.417  46.445 -20.349  1.00  0.00     0.004 C 
BRANCH   4   5
ATOM      5  C   UNL     1     -46.369  47.519 -19.247  1.00  0.00    -0.003 C 
ATOM      6  C   UNL     1     -47.285  48.708 -19.534  1.00  0.00     0.004 C 
ENDBRANCH   4   5
ENDBRANCH   3   4
ENDBRANCH   1   3
BRANCH   2   7
ATOM      7  C   UNL     1     -42.273  45.107 -21.531  1.00  0.00    -0.002 C 
ATOM      8  C   UNL     1     -41.111  44.971 -22.183  1.00  0.00     0.001 C 
BRANCH   8   9
ATOM      9  C   UNL     1     -40.030  46.016 -22.219  1.00  0.00     0.183 C 
BRANCH   9  10
ATOM     10  O   UNL     1     -39.894  46.541 -23.512  1.00  0.00    -0.392 OA
ATOM     11  H   UNL     1     -39.854  45.766 -24.130  1.00  0.00     0.210 HD
ENDBRANCH   9  10
ENDBRANCH   8   9
ENDBRANCH   2   7
TORSDOF 6
ENDMDL
MODEL 8
REMARK VINA RESULT:    -4.359      3.019      5.410
REMARK INTER + INTRA:          -6.062
REMARK INTER:                  -5.522
REMARK INTRA:                  -0.540
REMARK UNBOUND:                -0.301
REMARK SMILES CCCCC=CC=CCO
REMARK SMILES IDX 5 1 6 2 4 3 3 4 2 5 1 6 7 7 8 8 9 9 10 10
REMARK H PARENT 10 11
REMARK Flexibility Score: inf
ROOT
ATOM      1  C   UNL     1     -43.760  46.374 -20.265  1.00  0.00    -0.027 C 
ATOM      2  C   UNL     1     -42.730  46.004 -21.039  1.00  0.00    -0.005 C 
ENDROOT
BRANCH   1   3
ATOM      3  C   UNL     1     -45.209  46.343 -20.679  1.00  0.00     0.027 C 
BRANCH   3   4
ATOM      4  C   UNL     1     -45.978  45.168 -20.048  1.00  0.00     0.004 C 
BRANCH   4   5
ATOM      5  C   UNL     1     -45.637  43.795 -20.655  1.00  0.00    -0.003 C 
ATOM      6  C   UNL     1     -46.107  43.651 -22.102  1.00  0.00     0.004 C 
ENDBRANCH   4   5
ENDBRANCH   3   4
ENDBRANCH   1   3
BRANCH   2   7
ATOM      7  C   UNL     1     -42.872  45.539 -22.440  1.00  0.00    -0.002 C 
ATOM      8  C   UNL     1     -41.832  45.293 -23.248  1.00  0.00     0.001 C 
BRANCH   8   9
ATOM      9  C   UNL     1     -40.390  45.453 -22.848  1.00  0.00     0.183 C 
BRANCH   9  10
ATOM     10  O   UNL     1     -39.784  46.477 -23.591  1.00  0.00    -0.392 OA
ATOM     11  H   UNL     1     -39.549  46.087 -24.472  1.00  0.00     0.210 HD
ENDBRANCH   9  10
ENDBRANCH   8   9
ENDBRANCH   2   7
TORSDOF 6
ENDMDL
