MODEL 1
REMARK VINA RESULT:    -3.820      0.000      0.000
REMARK INTER + INTRA:          -4.781
REMARK INTER:                  -4.489
REMARK INTRA:                  -0.292
REMARK UNBOUND:                -0.292
REMARK SMILES O=c1c(O)c(-c2ccc(O)cc2)oc2cc(O)cc(O)c12
REMARK SMILES IDX 5 1 3 2 2 3 1 4 21 5 19 6 18 7 16 8 15 9 14 10 13 11 6 12
REMARK SMILES IDX 7 13 8 14 9 15 12 16 11 17 10 18 4 20 20 22 17 24
REMARK H PARENT 10 19 4 21 20 23 17 25
REMARK Flexibility Score: inf
ROOT
ATOM      1  C   UNL     1     -94.806  24.806 -36.249  1.00  0.00     0.180 A 
ATOM      2  C   UNL     1     -94.913  23.434 -36.536  1.00  0.00     0.208 A 
ATOM      3  C   UNL     1     -94.736  22.506 -35.498  1.00  0.00     0.238 A 
ATOM      4  O   UNL     1     -94.886  21.282 -35.748  1.00  0.00    -0.285 OA
ATOM      5  C   UNL     1     -94.437  22.960 -34.190  1.00  0.00     0.111 A 
ATOM      6  C   UNL     1     -94.198  22.108 -33.070  1.00  0.00     0.134 A 
ATOM      7  C   UNL     1     -94.041  22.668 -31.796  1.00  0.00     0.093 A 
ATOM      8  C   UNL     1     -94.050  24.049 -31.611  1.00  0.00     0.123 A 
ATOM      9  C   UNL     1     -94.224  24.895 -32.708  1.00  0.00     0.094 A 
ATOM     10  C   UNL     1     -94.419  24.365 -33.986  1.00  0.00     0.146 A 
ATOM     11  O   UNL     1     -94.591  25.203 -35.001  1.00  0.00    -0.452 OA
ENDROOT
BRANCH   1  12
ATOM     12  C   UNL     1     -94.956  25.844 -37.296  1.00  0.00     0.021 A 
ATOM     13  C   UNL     1     -93.875  26.222 -38.113  1.00  0.00     0.016 A 
ATOM     14  C   UNL     1     -94.035  27.221 -39.079  1.00  0.00     0.047 A 
ATOM     15  C   UNL     1     -95.267  27.863 -39.230  1.00  0.00     0.115 A 
ATOM     16  C   UNL     1     -96.186  26.508 -37.441  1.00  0.00     0.016 A 
ATOM     17  C   UNL     1     -96.342  27.506 -38.407  1.00  0.00     0.047 A 
BRANCH  15  18
ATOM     18  O   UNL     1     -95.411  28.856 -40.198  1.00  0.00    -0.508 OA
ATOM     19  H   UNL     1     -94.769  28.931 -40.978  1.00  0.00     0.293 HD
ENDBRANCH  15  18
ENDBRANCH   1  12
BRANCH   2  20
ATOM     20  O   UNL     1     -95.230  23.008 -37.828  1.00  0.00    -0.502 OA
ATOM     21  H   UNL     1     -96.163  22.713 -38.091  1.00  0.00     0.293 HD
ENDBRANCH   2  20
BRANCH   6  22
ATOM     22  O   UNL     1     -94.079  20.718 -33.160  1.00  0.00    -0.507 OA
ATOM     23  H   UNL     1     -94.563  20.060 -32.569  1.00  0.00     0.293 HD
ENDBRANCH   6  22
BRANCH   8  24
ATOM     24  O   UNL     1     -93.875  24.573 -30.332  1.00  0.00    -0.508 OA
ATOM     25  H   UNL     1     -92.982  24.523 -29.857  1.00  0.00     0.293 HD
ENDBRANCH   8  24
TORSDOF 5
ENDMDL
MODEL 2
REMARK VINA RESULT:    -3.786      5.822      7.810
REMARK INTER + INTRA:          -4.742
REMARK INTER:                  -4.490
REMARK INTRA:                  -0.252
REMARK UNBOUND:                -0.292
REMARK SMILES O=c1c(O)c(-c2ccc(O)cc2)oc2cc(O)cc(O)c12
REMARK SMILES IDX 5 1 3 2 2 3 1 4 21 5 19 6 18 7 16 8 15 9 14 10 13 11 6 12
REMARK SMILES IDX 7 13 8 14 9 15 12 16 11 17 10 18 4 20 20 22 17 24
REMARK H PARENT 10 19 4 21 20 23 17 25
REMARK Flexibility Score: inf
ROOT
ATOM      1  C   UNL     1    -100.120  27.251 -38.922  1.00  0.00     0.180 A 
ATOM      2  C   UNL     1    -100.300  25.983 -39.502  1.00  0.00     0.208 A 
ATOM      3  C   UNL     1     -99.180  25.300 -40.004  1.00  0.00     0.238 A 
ATOM      4  O   UNL     1     -99.338  24.143 -40.473  1.00  0.00    -0.285 OA
ATOM      5  C   UNL     1     -97.898  25.899 -39.934  1.00  0.00     0.111 A 
ATOM      6  C   UNL     1     -96.701  25.315 -40.447  1.00  0.00     0.134 A 
ATOM      7  C   UNL     1     -95.470  25.938 -40.205  1.00  0.00     0.093 A 
ATOM      8  C   UNL     1     -95.400  27.154 -39.527  1.00  0.00     0.123 A 
ATOM      9  C   UNL     1     -96.570  27.764 -39.073  1.00  0.00     0.094 A 
ATOM     10  C   UNL     1     -97.810  27.149 -39.267  1.00  0.00     0.146 A 
ATOM     11  O   UNL     1     -98.898  27.757 -38.811  1.00  0.00    -0.452 OA
ENDROOT
BRANCH   1  12
ATOM     12  C   UNL     1    -101.255  28.043 -38.393  1.00  0.00     0.021 A 
ATOM     13  C   UNL     1    -102.138  28.721 -39.252  1.00  0.00     0.016 A 
ATOM     14  C   UNL     1    -103.188  29.482 -38.729  1.00  0.00     0.047 A 
ATOM     15  C   UNL     1    -103.360  29.587 -37.346  1.00  0.00     0.115 A 
ATOM     16  C   UNL     1    -101.422  28.170 -37.004  1.00  0.00     0.016 A 
ATOM     17  C   UNL     1    -102.473  28.931 -36.484  1.00  0.00     0.047 A 
BRANCH  15  18
ATOM     18  O   UNL     1    -104.412  30.348 -36.840  1.00  0.00    -0.508 OA
ATOM     19  H   UNL     1    -105.137  30.717 -37.444  1.00  0.00     0.293 HD
ENDBRANCH  15  18
ENDBRANCH   1  12
BRANCH   2  20
ATOM     20  O   UNL     1    -101.568  25.400 -39.542  1.00  0.00    -0.502 OA
ATOM     21  H   UNL     1    -102.408  25.905 -39.283  1.00  0.00     0.293 HD
ENDBRANCH   2  20
BRANCH   6  22
ATOM     22  O   UNL     1     -96.671  24.149 -41.217  1.00  0.00    -0.507 OA
ATOM     23  H   UNL     1     -97.425  23.827 -41.803  1.00  0.00     0.293 HD
ENDBRANCH   6  22
BRANCH   8  24
ATOM     24  O   UNL     1     -94.160  27.754 -39.319  1.00  0.00    -0.508 OA
ATOM     25  H   UNL     1     -93.477  27.353 -38.686  1.00  0.00     0.293 HD
ENDBRANCH   8  24
TORSDOF 5
ENDMDL
MODEL 3
REMARK VINA RESULT:    -3.730      5.720      7.471
REMARK INTER + INTRA:          -4.676
REMARK INTER:                  -4.382
REMARK INTRA:                  -0.294
REMARK UNBOUND:                -0.292
REMARK SMILES O=c1c(O)c(-c2ccc(O)cc2)oc2cc(O)cc(O)c12
REMARK SMILES IDX 5 1 3 2 2 3 1 4 21 5 19 6 18 7 16 8 15 9 14 10 13 11 6 12
REMARK SMILES IDX 7 13 8 14 9 15 12 16 11 17 10 18 4 20 20 22 17 24
REMARK H PARENT 10 19 4 21 20 23 17 25
REMARK Flexibility Score: inf
ROOT
ATOM      1  C   UNL     1     -96.420  23.762 -40.975  1.00  0.00     0.180 A 
ATOM      2  C   UNL     1     -97.636  23.681 -40.275  1.00  0.00     0.208 A 
ATOM      3  C   UNL     1     -98.062  24.788 -39.524  1.00  0.00     0.238 A 
ATOM      4  O   UNL     1     -99.177  24.731 -38.942  1.00  0.00    -0.285 OA
ATOM      5  C   UNL     1     -97.261  25.955 -39.469  1.00  0.00     0.111 A 
ATOM      6  C   UNL     1     -97.576  27.120 -38.707  1.00  0.00     0.134 A 
ATOM      7  C   UNL     1     -96.777  28.263 -38.831  1.00  0.00     0.093 A 
ATOM      8  C   UNL     1     -95.640  28.262 -39.637  1.00  0.00     0.123 A 
ATOM      9  C   UNL     1     -95.288  27.109 -40.341  1.00  0.00     0.094 A 
ATOM     10  C   UNL     1     -96.086  25.964 -40.266  1.00  0.00     0.146 A 
ATOM     11  O   UNL     1     -95.723  24.891 -40.958  1.00  0.00    -0.452 OA
ENDROOT
BRANCH   1  12
ATOM     12  C   UNL     1     -95.891  22.627 -41.769  1.00  0.00     0.021 A 
ATOM     13  C   UNL     1     -95.137  21.603 -41.170  1.00  0.00     0.016 A 
ATOM     14  C   UNL     1     -94.628  20.555 -41.943  1.00  0.00     0.047 A 
ATOM     15  C   UNL     1     -94.853  20.524 -43.323  1.00  0.00     0.115 A 
ATOM     16  C   UNL     1     -96.097  22.601 -43.158  1.00  0.00     0.016 A 
ATOM     17  C   UNL     1     -95.587  21.552 -43.929  1.00  0.00     0.047 A 
BRANCH  15  18
ATOM     18  O   UNL     1     -94.342  19.473 -44.081  1.00  0.00    -0.508 OA
ATOM     19  H   UNL     1     -94.894  18.647 -44.280  1.00  0.00     0.293 HD
ENDBRANCH  15  18
ENDBRANCH   1  12
BRANCH   2  20
ATOM     20  O   UNL     1     -98.422  22.530 -40.359  1.00  0.00    -0.502 OA
ATOM     21  H   UNL     1     -99.201  22.448 -41.001  1.00  0.00     0.293 HD
ENDBRANCH   2  20
BRANCH   6  22
ATOM     22  O   UNL     1     -98.638  27.195 -37.801  1.00  0.00    -0.507 OA
ATOM     23  H   UNL     1     -98.902  26.461 -37.162  1.00  0.00     0.293 HD
ENDBRANCH   6  22
BRANCH   8  24
ATOM     24  O   UNL     1     -94.859  29.413 -39.725  1.00  0.00    -0.508 OA
ATOM     25  H   UNL     1     -95.274  30.326 -39.873  1.00  0.00     0.293 HD
ENDBRANCH   8  24
TORSDOF 5
ENDMDL
MODEL 4
REMARK VINA RESULT:    -3.654      5.693      9.465
REMARK INTER + INTRA:          -4.587
REMARK INTER:                  -4.295
REMARK INTRA:                  -0.292
REMARK UNBOUND:                -0.292
REMARK SMILES O=c1c(O)c(-c2ccc(O)cc2)oc2cc(O)cc(O)c12
REMARK SMILES IDX 5 1 3 2 2 3 1 4 21 5 19 6 18 7 16 8 15 9 14 10 13 11 6 12
REMARK SMILES IDX 7 13 8 14 9 15 12 16 11 17 10 18 4 20 20 22 17 24
REMARK H PARENT 10 19 4 21 20 23 17 25
REMARK Flexibility Score: inf
ROOT
ATOM      1  C   UNL     1     -99.543  27.572 -39.277  1.00  0.00     0.180 A 
ATOM      2  C   UNL     1    -100.321  27.438 -38.114  1.00  0.00     0.208 A 
ATOM      3  C   UNL     1    -101.715  27.585 -38.208  1.00  0.00     0.238 A 
ATOM      4  O   UNL     1    -102.412  27.410 -37.175  1.00  0.00    -0.285 OA
ATOM      5  C   UNL     1    -102.310  27.881 -39.458  1.00  0.00     0.111 A 
ATOM      6  C   UNL     1    -103.707  28.091 -39.662  1.00  0.00     0.134 A 
ATOM      7  C   UNL     1    -104.200  28.247 -40.964  1.00  0.00     0.093 A 
ATOM      8  C   UNL     1    -103.341  28.266 -42.061  1.00  0.00     0.123 A 
ATOM      9  C   UNL     1    -101.965  28.122 -41.868  1.00  0.00     0.094 A 
ATOM     10  C   UNL     1    -101.448  27.927 -40.585  1.00  0.00     0.146 A 
ATOM     11  O   UNL     1    -100.136  27.784 -40.446  1.00  0.00    -0.452 OA
ENDROOT
BRANCH   1  12
ATOM     12  C   UNL     1     -98.066  27.455 -39.254  1.00  0.00     0.021 A 
ATOM     13  C   UNL     1     -97.249  28.552 -38.925  1.00  0.00     0.016 A 
ATOM     14  C   UNL     1     -95.857  28.423 -38.933  1.00  0.00     0.047 A 
ATOM     15  C   UNL     1     -95.264  27.207 -39.283  1.00  0.00     0.115 A 
ATOM     16  C   UNL     1     -97.463  26.242 -39.624  1.00  0.00     0.016 A 
ATOM     17  C   UNL     1     -96.070  26.116 -39.631  1.00  0.00     0.047 A 
BRANCH  15  18
ATOM     18  O   UNL     1     -93.875  27.094 -39.285  1.00  0.00    -0.508 OA
ATOM     19  H   UNL     1     -93.396  26.474 -39.927  1.00  0.00     0.293 HD
ENDBRANCH  15  18
ENDBRANCH   1  12
BRANCH   2  20
ATOM     20  O   UNL     1     -99.717  27.124 -36.895  1.00  0.00    -0.502 OA
ATOM     21  H   UNL     1    -100.133  27.364 -36.003  1.00  0.00     0.293 HD
ENDBRANCH   2  20
BRANCH   6  22
ATOM     22  O   UNL     1    -104.641  28.180 -38.625  1.00  0.00    -0.507 OA
ATOM     23  H   UNL     1    -105.407  27.540 -38.485  1.00  0.00     0.293 HD
ENDBRANCH   6  22
BRANCH   8  24
ATOM     24  O   UNL     1    -103.864  28.440 -43.341  1.00  0.00    -0.508 OA
ATOM     25  H   UNL     1    -103.310  28.255 -44.169  1.00  0.00     0.293 HD
ENDBRANCH   8  24
TORSDOF 5
ENDMDL
MODEL 5
REMARK VINA RESULT:    -3.621      6.147      9.491
REMARK INTER + INTRA:          -4.548
REMARK INTER:                  -4.269
REMARK INTRA:                  -0.279
REMARK UNBOUND:                -0.292
REMARK SMILES O=c1c(O)c(-c2ccc(O)cc2)oc2cc(O)cc(O)c12
REMARK SMILES IDX 5 1 3 2 2 3 1 4 21 5 19 6 18 7 16 8 15 9 14 10 13 11 6 12
REMARK SMILES IDX 7 13 8 14 9 15 12 16 11 17 10 18 4 20 20 22 17 24
REMARK H PARENT 10 19 4 21 20 23 17 25
REMARK Flexibility Score: inf
ROOT
ATOM      1  C   UNL     1     -98.543  25.532 -28.292  1.00  0.00     0.180 A 
ATOM      2  C   UNL     1     -98.541  26.107 -29.575  1.00  0.00     0.208 A 
ATOM      3  C   UNL     1     -97.537  25.737 -30.484  1.00  0.00     0.238 A 
ATOM      4  O   UNL     1     -97.571  26.213 -31.649  1.00  0.00    -0.285 OA
ATOM      5  C   UNL     1     -96.538  24.812 -30.094  1.00  0.00     0.111 A 
ATOM      6  C   UNL     1     -95.450  24.397 -30.920  1.00  0.00     0.134 A 
ATOM      7  C   UNL     1     -94.597  23.378 -30.478  1.00  0.00     0.093 A 
ATOM      8  C   UNL     1     -94.752  22.806 -29.216  1.00  0.00     0.123 A 
ATOM      9  C   UNL     1     -95.776  23.246 -28.376  1.00  0.00     0.094 A 
ATOM     10  C   UNL     1     -96.666  24.235 -28.803  1.00  0.00     0.146 A 
ATOM     11  O   UNL     1     -97.632  24.618 -27.978  1.00  0.00    -0.452 OA
ENDROOT
BRANCH   1  12
ATOM     12  C   UNL     1     -99.554  25.890 -27.270  1.00  0.00     0.021 A 
ATOM     13  C   UNL     1     -99.287  26.852 -26.280  1.00  0.00     0.016 A 
ATOM     14  C   UNL     1    -100.249  27.156 -25.311  1.00  0.00     0.047 A 
ATOM     15  C   UNL     1    -101.480  26.494 -25.310  1.00  0.00     0.115 A 
ATOM     16  C   UNL     1    -100.786  25.215 -27.251  1.00  0.00     0.016 A 
ATOM     17  C   UNL     1    -101.746  25.521 -26.282  1.00  0.00     0.047 A 
BRANCH  15  18
ATOM     18  O   UNL     1    -102.430  26.809 -24.340  1.00  0.00    -0.508 OA
ATOM     19  H   UNL     1    -102.723  26.130 -23.648  1.00  0.00     0.293 HD
ENDBRANCH  15  18
ENDBRANCH   1  12
BRANCH   2  20
ATOM     20  O   UNL     1     -99.547  27.001 -29.947  1.00  0.00    -0.502 OA
ATOM     21  H   UNL     1     -99.915  27.045 -30.890  1.00  0.00     0.293 HD
ENDBRANCH   2  20
BRANCH   6  22
ATOM     22  O   UNL     1     -95.151  24.968 -32.160  1.00  0.00    -0.507 OA
ATOM     23  H   UNL     1     -94.387  25.604 -32.331  1.00  0.00     0.293 HD
ENDBRANCH   6  22
BRANCH   8  24
ATOM     24  O   UNL     1     -93.875  21.805 -28.802  1.00  0.00    -0.508 OA
ATOM     25  H   UNL     1     -92.913  22.011 -28.560  1.00  0.00     0.293 HD
ENDBRANCH   8  24
TORSDOF 5
ENDMDL
MODEL 6
REMARK VINA RESULT:    -3.595      6.712      9.378
REMARK INTER + INTRA:          -4.518
REMARK INTER:                  -4.301
REMARK INTRA:                  -0.217
REMARK UNBOUND:                -0.292
REMARK SMILES O=c1c(O)c(-c2ccc(O)cc2)oc2cc(O)cc(O)c12
REMARK SMILES IDX 5 1 3 2 2 3 1 4 21 5 19 6 18 7 16 8 15 9 14 10 13 11 6 12
REMARK SMILES IDX 7 13 8 14 9 15 12 16 11 17 10 18 4 20 20 22 17 24
REMARK H PARENT 10 19 4 21 20 23 17 25
REMARK Flexibility Score: inf
ROOT
ATOM      1  C   UNL     1    -102.008  27.424 -41.078  1.00  0.00     0.180 A 
ATOM      2  C   UNL     1    -101.888  26.061 -41.399  1.00  0.00     0.208 A 
ATOM      3  C   UNL     1    -100.720  25.375 -41.029  1.00  0.00     0.238 A 
ATOM      4  O   UNL     1    -100.640  24.143 -41.271  1.00  0.00    -0.285 OA
ATOM      5  C   UNL     1     -99.680  26.063 -40.357  1.00  0.00     0.111 A 
ATOM      6  C   UNL     1     -98.437  25.478 -39.971  1.00  0.00     0.134 A 
ATOM      7  C   UNL     1     -97.536  26.218 -39.196  1.00  0.00     0.093 A 
ATOM      8  C   UNL     1     -97.804  27.542 -38.849  1.00  0.00     0.123 A 
ATOM      9  C   UNL     1     -98.990  28.144 -39.272  1.00  0.00     0.094 A 
ATOM     10  C   UNL     1     -99.925  27.419 -40.015  1.00  0.00     0.146 A 
ATOM     11  O   UNL     1    -101.045  28.026 -40.390  1.00  0.00    -0.452 OA
ENDROOT
BRANCH   1  12
ATOM     12  C   UNL     1    -103.198  28.221 -41.456  1.00  0.00     0.021 A 
ATOM     13  C   UNL     1    -103.450  28.570 -42.795  1.00  0.00     0.016 A 
ATOM     14  C   UNL     1    -104.568  29.343 -43.125  1.00  0.00     0.047 A 
ATOM     15  C   UNL     1    -105.436  29.789 -42.124  1.00  0.00     0.115 A 
ATOM     16  C   UNL     1    -104.064  28.688 -40.454  1.00  0.00     0.016 A 
ATOM     17  C   UNL     1    -105.181  29.461 -40.787  1.00  0.00     0.047 A 
BRANCH  15  18
ATOM     18  O   UNL     1    -106.547  30.557 -42.469  1.00  0.00    -0.508 OA
ATOM     19  H   UNL     1    -107.453  30.134 -42.632  1.00  0.00     0.293 HD
ENDBRANCH  15  18
ENDBRANCH   1  12
BRANCH   2  20
ATOM     20  O   UNL     1    -102.934  25.395 -42.043  1.00  0.00    -0.502 OA
ATOM     21  H   UNL     1    -103.346  24.546 -41.676  1.00  0.00     0.293 HD
ENDBRANCH   2  20
BRANCH   6  22
ATOM     22  O   UNL     1     -98.032  24.193 -40.343  1.00  0.00    -0.507 OA
ATOM     23  H   UNL     1     -97.117  23.959 -40.699  1.00  0.00     0.293 HD
ENDBRANCH   6  22
BRANCH   8  24
ATOM     24  O   UNL     1     -96.877  28.254 -38.090  1.00  0.00    -0.508 OA
ATOM     25  H   UNL     1     -96.610  27.952 -37.160  1.00  0.00     0.293 HD
ENDBRANCH   8  24
TORSDOF 5
ENDMDL
MODEL 7
REMARK VINA RESULT:    -3.527      8.498     11.052
REMARK INTER + INTRA:          -4.437
REMARK INTER:                  -4.173
REMARK INTRA:                  -0.264
REMARK UNBOUND:                -0.292
REMARK SMILES O=c1c(O)c(-c2ccc(O)cc2)oc2cc(O)cc(O)c12
REMARK SMILES IDX 5 1 3 2 2 3 1 4 21 5 19 6 18 7 16 8 15 9 14 10 13 11 6 12
REMARK SMILES IDX 7 13 8 14 9 15 12 16 11 17 10 18 4 20 20 22 17 24
REMARK H PARENT 10 19 4 21 20 23 17 25
REMARK Flexibility Score: inf
ROOT
ATOM      1  C   UNL     1    -100.419  24.427 -28.382  1.00  0.00     0.180 A 
ATOM      2  C   UNL     1    -101.263  24.425 -29.507  1.00  0.00     0.208 A 
ATOM      3  C   UNL     1    -102.585  24.876 -29.366  1.00  0.00     0.238 A 
ATOM      4  O   UNL     1    -103.320  24.924 -30.387  1.00  0.00    -0.285 OA
ATOM      5  C   UNL     1    -103.053  25.306 -28.100  1.00  0.00     0.111 A 
ATOM      6  C   UNL     1    -104.385  25.743 -27.833  1.00  0.00     0.134 A 
ATOM      7  C   UNL     1    -104.700  26.270 -26.574  1.00  0.00     0.093 A 
ATOM      8  C   UNL     1    -103.751  26.313 -25.554  1.00  0.00     0.123 A 
ATOM      9  C   UNL     1    -102.460  25.832 -25.786  1.00  0.00     0.094 A 
ATOM     10  C   UNL     1    -102.106  25.335 -27.043  1.00  0.00     0.146 A 
ATOM     11  O   UNL     1    -100.866  24.897 -27.225  1.00  0.00    -0.452 OA
ENDROOT
BRANCH   1  12
ATOM     12  C   UNL     1     -99.020  23.944 -28.447  1.00  0.00     0.021 A 
ATOM     13  C   UNL     1     -98.719  22.570 -28.450  1.00  0.00     0.016 A 
ATOM     14  C   UNL     1     -97.389  22.138 -28.487  1.00  0.00     0.047 A 
ATOM     15  C   UNL     1     -96.347  23.069 -28.507  1.00  0.00     0.115 A 
ATOM     16  C   UNL     1     -97.967  24.873 -28.446  1.00  0.00     0.016 A 
ATOM     17  C   UNL     1     -96.639  24.439 -28.484  1.00  0.00     0.047 A 
BRANCH  15  18
ATOM     18  O   UNL     1     -95.027  22.624 -28.545  1.00  0.00    -0.508 OA
ATOM     19  H   UNL     1     -94.630  22.217 -29.384  1.00  0.00     0.293 HD
ENDBRANCH  15  18
ENDBRANCH   1  12
BRANCH   2  20
ATOM     20  O   UNL     1    -100.776  24.019 -30.751  1.00  0.00    -0.502 OA
ATOM     21  H   UNL     1    -100.297  23.137 -30.887  1.00  0.00     0.293 HD
ENDBRANCH   2  20
BRANCH   6  22
ATOM     22  O   UNL     1    -105.433  25.658 -28.755  1.00  0.00    -0.507 OA
ATOM     23  H   UNL     1    -105.682  26.383 -29.410  1.00  0.00     0.293 HD
ENDBRANCH   6  22
BRANCH   8  24
ATOM     24  O   UNL     1    -104.103  26.829 -24.309  1.00  0.00    -0.508 OA
ATOM     25  H   UNL     1    -103.610  26.561 -23.465  1.00  0.00     0.293 HD
ENDBRANCH   8  24
TORSDOF 5
ENDMDL
MODEL 8
REMARK VINA RESULT:    -3.526      5.471      9.469
REMARK INTER + INTRA:          -4.436
REMARK INTER:                  -4.150
REMARK INTRA:                  -0.286
REMARK UNBOUND:                -0.292
REMARK SMILES O=c1c(O)c(-c2ccc(O)cc2)oc2cc(O)cc(O)c12
REMARK SMILES IDX 5 1 3 2 2 3 1 4 21 5 19 6 18 7 16 8 15 9 14 10 13 11 6 12
REMARK SMILES IDX 7 13 8 14 9 15 12 16 11 17 10 18 4 20 20 22 17 24
REMARK H PARENT 10 19 4 21 20 23 17 25
REMARK Flexibility Score: inf
ROOT
ATOM      1  C   UNL     1     -99.306  26.542 -39.979  1.00  0.00     0.180 A 
ATOM      2  C   UNL     1     -99.031  25.423 -40.784  1.00  0.00     0.208 A 
ATOM      3  C   UNL     1     -99.833  25.182 -41.911  1.00  0.00     0.238 A 
ATOM      4  O   UNL     1     -99.550  24.211 -42.659  1.00  0.00    -0.285 OA
ATOM      5  C   UNL     1    -100.910  26.053 -42.210  1.00  0.00     0.111 A 
ATOM      6  C   UNL     1    -101.812  25.882 -43.302  1.00  0.00     0.134 A 
ATOM      7  C   UNL     1    -102.759  26.877 -43.578  1.00  0.00     0.093 A 
ATOM      8  C   UNL     1    -102.880  28.002 -42.764  1.00  0.00     0.123 A 
ATOM      9  C   UNL     1    -102.042  28.150 -41.657  1.00  0.00     0.094 A 
ATOM     10  C   UNL     1    -101.063  27.193 -41.377  1.00  0.00     0.146 A 
ATOM     11  O   UNL     1    -100.280  27.376 -40.321  1.00  0.00    -0.452 OA
ENDROOT
BRANCH   1  12
ATOM     12  C   UNL     1     -98.520  26.848 -38.761  1.00  0.00     0.021 A 
ATOM     13  C   UNL     1     -97.334  27.601 -38.824  1.00  0.00     0.016 A 
ATOM     14  C   UNL     1     -96.597  27.857 -37.664  1.00  0.00     0.047 A 
ATOM     15  C   UNL     1     -97.025  27.353 -36.432  1.00  0.00     0.115 A 
ATOM     16  C   UNL     1     -98.934  26.328 -37.523  1.00  0.00     0.016 A 
ATOM     17  C   UNL     1     -98.194  26.585 -36.365  1.00  0.00     0.047 A 
BRANCH  15  18
ATOM     18  O   UNL     1     -96.280  27.617 -35.284  1.00  0.00    -0.508 OA
ATOM     19  H   UNL     1     -96.708  28.015 -34.456  1.00  0.00     0.293 HD
ENDBRANCH  15  18
ENDBRANCH   1  12
BRANCH   2  20
ATOM     20  O   UNL     1     -97.951  24.589 -40.485  1.00  0.00    -0.502 OA
ATOM     21  H   UNL     1     -97.108  24.568 -41.046  1.00  0.00     0.293 HD
ENDBRANCH   2  20
BRANCH   6  22
ATOM     22  O   UNL     1    -101.837  24.751 -44.124  1.00  0.00    -0.507 OA
ATOM     23  H   UNL     1    -101.019  24.262 -44.453  1.00  0.00     0.293 HD
ENDBRANCH   6  22
BRANCH   8  24
ATOM     24  O   UNL     1    -103.844  28.964 -43.059  1.00  0.00    -0.508 OA
ATOM     25  H   UNL     1    -103.638  29.753 -43.660  1.00  0.00     0.293 HD
ENDBRANCH   8  24
TORSDOF 5
ENDMDL
MODEL 9
REMARK VINA RESULT:    -3.465      4.712      6.959
REMARK INTER + INTRA:          -4.365
REMARK INTER:                  -4.069
REMARK INTRA:                  -0.296
REMARK UNBOUND:                -0.292
REMARK SMILES O=c1c(O)c(-c2ccc(O)cc2)oc2cc(O)cc(O)c12
REMARK SMILES IDX 5 1 3 2 2 3 1 4 21 5 19 6 18 7 16 8 15 9 14 10 13 11 6 12
REMARK SMILES IDX 7 13 8 14 9 15 12 16 11 17 10 18 4 20 20 22 17 24
REMARK H PARENT 10 19 4 21 20 23 17 25
REMARK Flexibility Score: inf
ROOT
ATOM      1  C   UNL     1     -98.747  26.784 -39.234  1.00  0.00     0.180 A 
ATOM      2  C   UNL     1     -97.541  27.505 -39.215  1.00  0.00     0.208 A 
ATOM      3  C   UNL     1     -96.327  26.800 -39.194  1.00  0.00     0.238 A 
ATOM      4  O   UNL     1     -95.249  27.449 -39.232  1.00  0.00    -0.285 OA
ATOM      5  C   UNL     1     -96.334  25.383 -39.177  1.00  0.00     0.111 A 
ATOM      6  C   UNL     1     -95.165  24.567 -39.115  1.00  0.00     0.134 A 
ATOM      7  C   UNL     1     -95.286  23.177 -39.235  1.00  0.00     0.093 A 
ATOM      8  C   UNL     1     -96.536  22.570 -39.348  1.00  0.00     0.123 A 
ATOM      9  C   UNL     1     -97.691  23.355 -39.350  1.00  0.00     0.094 A 
ATOM     10  C   UNL     1     -97.600  24.747 -39.268  1.00  0.00     0.146 A 
ATOM     11  O   UNL     1     -98.721  25.458 -39.283  1.00  0.00    -0.452 OA
ENDROOT
BRANCH   1  12
ATOM     12  C   UNL     1    -100.067  27.457 -39.231  1.00  0.00     0.021 A 
ATOM     13  C   UNL     1    -100.685  27.854 -38.031  1.00  0.00     0.016 A 
ATOM     14  C   UNL     1    -101.942  28.466 -38.052  1.00  0.00     0.047 A 
ATOM     15  C   UNL     1    -102.603  28.675 -39.266  1.00  0.00     0.115 A 
ATOM     16  C   UNL     1    -100.746  27.653 -40.445  1.00  0.00     0.016 A 
ATOM     17  C   UNL     1    -102.002  28.265 -40.463  1.00  0.00     0.047 A 
BRANCH  15  18
ATOM     18  O   UNL     1    -103.854  29.288 -39.271  1.00  0.00    -0.508 OA
ATOM     19  H   UNL     1    -104.644  28.874 -39.752  1.00  0.00     0.293 HD
ENDBRANCH  15  18
ENDBRANCH   1  12
BRANCH   2  20
ATOM     20  O   UNL     1     -97.555  28.901 -39.255  1.00  0.00    -0.502 OA
ATOM     21  H   UNL     1     -98.026  29.420 -39.986  1.00  0.00     0.293 HD
ENDBRANCH   2  20
BRANCH   6  22
ATOM     22  O   UNL     1     -93.875  25.066 -38.911  1.00  0.00    -0.507 OA
ATOM     23  H   UNL     1     -93.155  25.103 -39.616  1.00  0.00     0.293 HD
ENDBRANCH   6  22
BRANCH   8  24
ATOM     24  O   UNL     1     -96.621  21.183 -39.450  1.00  0.00    -0.508 OA
ATOM     25  H   UNL     1     -97.347  20.660 -38.975  1.00  0.00     0.293 HD
ENDBRANCH   8  24
TORSDOF 5
ENDMDL
