MODEL 1
REMARK VINA RESULT:    -1.915      0.000      0.000
REMARK INTER + INTRA:          -1.915
REMARK INTER:                  -1.915
REMARK INTRA:                   0.000
REMARK UNBOUND:                 0.000
REMARK SMILES CC(=O)[O-]
REMARK SMILES IDX 1 1 2 2 3 3 4 4
REMARK H PARENT
REMARK Flexibility Score: inf
ROOT
ATOM      1  C   UNL     1      57.508  17.286  50.204  1.00  0.00     0.063 C 
ATOM      2  C   UNL     1      58.388  16.537  49.262  1.00  0.00     0.038 C 
ATOM      3  O   UNL     1      59.567  16.246  49.594  1.00  0.00    -0.550 OA
ATOM      4  O   UNL     1      57.893  16.110  48.036  1.00  0.00    -0.550 OA
ENDROOT
TORSDOF 0
ENDMDL
MODEL 2
REMARK VINA RESULT:    -1.893      1.445      1.790
REMARK INTER + INTRA:          -1.893
REMARK INTER:                  -1.893
REMARK INTRA:                   0.000
REMARK UNBOUND:                 0.000
REMARK SMILES CC(=O)[O-]
REMARK SMILES IDX 1 1 2 2 3 3 4 4
REMARK H PARENT
REMARK Flexibility Score: inf
ROOT
ATOM      1  C   UNL     1      58.255  16.153  48.128  1.00  0.00     0.063 C 
ATOM      2  C   UNL     1      58.424  16.689  49.509  1.00  0.00     0.038 C 
ATOM      3  O   UNL     1      59.561  16.697  50.049  1.00  0.00    -0.550 OA
ATOM      4  O   UNL     1      57.337  17.232  50.183  1.00  0.00    -0.550 OA
ENDROOT
TORSDOF 0
ENDMDL
MODEL 3
REMARK VINA RESULT:    -1.866      0.210      1.633
REMARK INTER + INTRA:          -1.866
REMARK INTER:                  -1.866
REMARK INTRA:                   0.000
REMARK UNBOUND:                 0.000
REMARK SMILES CC(=O)[O-]
REMARK SMILES IDX 1 1 2 2 3 3 4 4
REMARK H PARENT
REMARK Flexibility Score: inf
ROOT
ATOM      1  C   UNL     1      57.399  17.362  50.280  1.00  0.00     0.063 C 
ATOM      2  C   UNL     1      58.319  16.585  49.402  1.00  0.00     0.038 C 
ATOM      3  O   UNL     1      57.953  16.244  48.247  1.00  0.00    -0.550 OA
ATOM      4  O   UNL     1      59.604  16.281  49.835  1.00  0.00    -0.550 OA
ENDROOT
TORSDOF 0
ENDMDL
MODEL 4
REMARK VINA RESULT:    -1.851      1.393      1.682
REMARK INTER + INTRA:          -1.851
REMARK INTER:                  -1.851
REMARK INTRA:                   0.000
REMARK UNBOUND:                 0.000
REMARK SMILES CC(=O)[O-]
REMARK SMILES IDX 1 1 2 2 3 3 4 4
REMARK H PARENT
REMARK Flexibility Score: inf
ROOT
ATOM      1  C   UNL     1      59.440  16.295  50.179  1.00  0.00     0.063 C 
ATOM      2  C   UNL     1      58.172  16.596  49.454  1.00  0.00     0.038 C 
ATOM      3  O   UNL     1      57.287  17.306  49.998  1.00  0.00    -0.550 OA
ATOM      4  O   UNL     1      57.987  16.138  48.156  1.00  0.00    -0.550 OA
ENDROOT
TORSDOF 0
ENDMDL
MODEL 5
REMARK VINA RESULT:    -1.732     10.864     11.098
REMARK INTER + INTRA:          -1.732
REMARK INTER:                  -1.732
REMARK INTRA:                   0.000
REMARK UNBOUND:                 0.000
REMARK SMILES CC(=O)[O-]
REMARK SMILES IDX 1 1 2 2 3 3 4 4
REMARK H PARENT
REMARK Flexibility Score: inf
ROOT
ATOM      1  C   UNL     1      59.074  28.710  49.741  1.00  0.00     0.063 C 
ATOM      2  C   UNL     1      59.886  27.462  49.807  1.00  0.00     0.038 C 
ATOM      3  O   UNL     1      61.143  27.525  49.800  1.00  0.00    -0.550 OA
ATOM      4  O   UNL     1      59.258  26.229  49.931  1.00  0.00    -0.550 OA
ENDROOT
TORSDOF 0
ENDMDL
MODEL 6
REMARK VINA RESULT:    -1.718      2.825      3.049
REMARK INTER + INTRA:          -1.718
REMARK INTER:                  -1.718
REMARK INTRA:                   0.000
REMARK UNBOUND:                 0.000
REMARK SMILES CC(=O)[O-]
REMARK SMILES IDX 1 1 2 2 3 3 4 4
REMARK H PARENT
REMARK Flexibility Score: inf
ROOT
ATOM      1  C   UNL     1      57.764  17.032  50.101  1.00  0.00     0.063 C 
ATOM      2  C   UNL     1      57.157  18.234  50.740  1.00  0.00     0.038 C 
ATOM      3  O   UNL     1      57.880  19.048  51.371  1.00  0.00    -0.550 OA
ATOM      4  O   UNL     1      55.798  18.489  50.596  1.00  0.00    -0.550 OA
ENDROOT
TORSDOF 0
ENDMDL
MODEL 7
REMARK VINA RESULT:    -1.703      3.278      3.777
REMARK INTER + INTRA:          -1.703
REMARK INTER:                  -1.703
REMARK INTRA:                   0.000
REMARK UNBOUND:                 0.000
REMARK SMILES CC(=O)[O-]
REMARK SMILES IDX 1 1 2 2 3 3 4 4
REMARK H PARENT
REMARK Flexibility Score: inf
ROOT
ATOM      1  C   UNL     1      56.611  19.037  52.349  1.00  0.00     0.063 C 
ATOM      2  C   UNL     1      56.162  18.533  51.019  1.00  0.00     0.038 C 
ATOM      3  O   UNL     1      55.135  19.015  50.475  1.00  0.00    -0.550 OA
ATOM      4  O   UNL     1      56.906  17.568  50.353  1.00  0.00    -0.550 OA
ENDROOT
TORSDOF 0
ENDMDL
MODEL 8
REMARK VINA RESULT:    -1.661      9.976     10.216
REMARK INTER + INTRA:          -1.661
REMARK INTER:                  -1.661
REMARK INTRA:                   0.000
REMARK UNBOUND:                 0.000
REMARK SMILES CC(=O)[O-]
REMARK SMILES IDX 1 1 2 2 3 3 4 4
REMARK H PARENT
REMARK Flexibility Score: inf
ROOT
ATOM      1  C   UNL     1      55.164  27.646  50.584  1.00  0.00     0.063 C 
ATOM      2  C   UNL     1      55.422  26.217  50.247  1.00  0.00     0.038 C 
ATOM      3  O   UNL     1      56.458  25.644  50.675  1.00  0.00    -0.550 OA
ATOM      4  O   UNL     1      54.493  25.498  49.506  1.00  0.00    -0.550 OA
ENDROOT
TORSDOF 0
ENDMDL
