MODEL 1
REMARK VINA RESULT:    -4.261      0.000      0.000
REMARK INTER + INTRA:          -5.171
REMARK INTER:                  -4.884
REMARK INTRA:                  -0.286
REMARK UNBOUND:                -0.286
REMARK SMILES COC(=O)c1ccccc1O
REMARK SMILES IDX 5 1 6 2 7 3 8 4 9 5 10 6 3 7 4 8 2 9 1 10 11 11
REMARK H PARENT 11 12
REMARK Flexibility Score: inf
ROOT
ATOM      1  C   UNL     1      49.537 -28.550 -31.597  1.00  0.00     0.101 A 
ATOM      2  C   UNL     1      49.256 -29.203 -30.381  1.00  0.00     0.019 A 
ATOM      3  C   UNL     1      47.946 -29.553 -30.047  1.00  0.00     0.001 A 
ATOM      4  C   UNL     1      46.899 -29.258 -30.921  1.00  0.00     0.004 A 
ATOM      5  C   UNL     1      47.158 -28.593 -32.120  1.00  0.00     0.047 A 
ATOM      6  C   UNL     1      48.463 -28.216 -32.460  1.00  0.00     0.130 A 
ENDROOT
BRANCH   1   7
ATOM      7  C   UNL     1      50.947 -28.273 -31.943  1.00  0.00     0.341 C 
ATOM      8  O   UNL     1      51.296 -27.099 -32.251  1.00  0.00    -0.246 OA
BRANCH   7   9
ATOM      9  O   UNL     1      51.902 -29.292 -31.874  1.00  0.00    -0.465 OA
ATOM     10  C   UNL     1      52.914 -29.330 -30.875  1.00  0.00     0.282 C 
ENDBRANCH   7   9
ENDBRANCH   1   7
BRANCH   6  11
ATOM     11  O   UNL     1      48.645 -27.484 -33.635  1.00  0.00    -0.507 OA
ATOM     12  H   UNL     1      49.543 -27.135 -33.940  1.00  0.00     0.293 HD
ENDBRANCH   6  11
TORSDOF 3
ENDMDL
MODEL 2
REMARK VINA RESULT:    -4.091     13.027     14.273
REMARK INTER + INTRA:          -4.975
REMARK INTER:                  -4.626
REMARK INTRA:                  -0.349
REMARK UNBOUND:                -0.286
REMARK SMILES COC(=O)c1ccccc1O
REMARK SMILES IDX 5 1 6 2 7 3 8 4 9 5 10 6 3 7 4 8 2 9 1 10 11 11
REMARK H PARENT 11 12
REMARK Flexibility Score: inf
ROOT
ATOM      1  C   UNL     1      55.007 -41.352 -31.215  1.00  0.00     0.101 A 
ATOM      2  C   UNL     1      54.955 -42.624 -30.616  1.00  0.00     0.019 A 
ATOM      3  C   UNL     1      55.966 -43.046 -29.750  1.00  0.00     0.001 A 
ATOM      4  C   UNL     1      57.043 -42.205 -29.470  1.00  0.00     0.004 A 
ATOM      5  C   UNL     1      57.120 -40.948 -30.071  1.00  0.00     0.047 A 
ATOM      6  C   UNL     1      56.125 -40.518 -30.959  1.00  0.00     0.130 A 
ENDROOT
BRANCH   1   7
ATOM      7  C   UNL     1      53.873 -40.918 -32.059  1.00  0.00     0.341 C 
ATOM      8  O   UNL     1      52.691 -41.054 -31.636  1.00  0.00    -0.246 OA
BRANCH   7   9
ATOM      9  O   UNL     1      54.110 -40.305 -33.293  1.00  0.00    -0.465 OA
ATOM     10  C   UNL     1      54.762 -40.968 -34.368  1.00  0.00     0.282 C 
ENDBRANCH   7   9
ENDBRANCH   1   7
BRANCH   6  11
ATOM     11  O   UNL     1      56.301 -39.284 -31.588  1.00  0.00    -0.507 OA
ATOM     12  H   UNL     1      56.354 -38.407 -31.088  1.00  0.00     0.293 HD
ENDBRANCH   6  11
TORSDOF 3
ENDMDL
MODEL 3
REMARK VINA RESULT:    -3.885      1.520      3.836
REMARK INTER + INTRA:          -4.739
REMARK INTER:                  -4.436
REMARK INTRA:                  -0.303
REMARK UNBOUND:                -0.286
REMARK SMILES COC(=O)c1ccccc1O
REMARK SMILES IDX 5 1 6 2 7 3 8 4 9 5 10 6 3 7 4 8 2 9 1 10 11 11
REMARK H PARENT 11 12
REMARK Flexibility Score: inf
ROOT
ATOM      1  C   UNL     1      49.111 -28.531 -31.635  1.00  0.00     0.101 A 
ATOM      2  C   UNL     1      49.492 -29.191 -30.452  1.00  0.00     0.019 A 
ATOM      3  C   UNL     1      50.836 -29.471 -30.193  1.00  0.00     0.001 A 
ATOM      4  C   UNL     1      51.817 -29.095 -31.111  1.00  0.00     0.004 A 
ATOM      5  C   UNL     1      51.454 -28.457 -32.298  1.00  0.00     0.047 A 
ATOM      6  C   UNL     1      50.109 -28.189 -32.582  1.00  0.00     0.130 A 
ENDROOT
BRANCH   1   7
ATOM      7  C   UNL     1      47.687 -28.184 -31.826  1.00  0.00     0.341 C 
ATOM      8  O   UNL     1      47.378 -27.081 -32.358  1.00  0.00    -0.246 OA
BRANCH   7   9
ATOM      9  O   UNL     1      46.687 -29.096 -31.475  1.00  0.00    -0.465 OA
ATOM     10  C   UNL     1      45.666 -28.793 -30.532  1.00  0.00     0.282 C 
ENDBRANCH   7   9
ENDBRANCH   1   7
BRANCH   6  11
ATOM     11  O   UNL     1      49.805 -27.621 -33.821  1.00  0.00    -0.507 OA
ATOM     12  H   UNL     1      49.038 -26.979 -33.965  1.00  0.00     0.293 HD
ENDBRANCH   6  11
TORSDOF 3
ENDMDL
MODEL 4
REMARK VINA RESULT:    -3.830      2.044      3.969
REMARK INTER + INTRA:          -4.676
REMARK INTER:                  -4.392
REMARK INTRA:                  -0.284
REMARK UNBOUND:                -0.286
REMARK SMILES COC(=O)c1ccccc1O
REMARK SMILES IDX 5 1 6 2 7 3 8 4 9 5 10 6 3 7 4 8 2 9 1 10 11 11
REMARK H PARENT 11 12
REMARK Flexibility Score: inf
ROOT
ATOM      1  C   UNL     1      48.572 -28.685 -31.209  1.00  0.00     0.101 A 
ATOM      2  C   UNL     1      49.612 -29.286 -30.475  1.00  0.00     0.019 A 
ATOM      3  C   UNL     1      50.942 -29.142 -30.876  1.00  0.00     0.001 A 
ATOM      4  C   UNL     1      51.253 -28.398 -32.014  1.00  0.00     0.004 A 
ATOM      5  C   UNL     1      50.232 -27.812 -32.764  1.00  0.00     0.047 A 
ATOM      6  C   UNL     1      48.892 -27.965 -32.388  1.00  0.00     0.130 A 
ENDROOT
BRANCH   1   7
ATOM      7  C   UNL     1      47.189 -28.796 -30.700  1.00  0.00     0.341 C 
ATOM      8  O   UNL     1      46.432 -27.786 -30.722  1.00  0.00    -0.246 OA
BRANCH   7   9
ATOM      9  O   UNL     1      46.701 -30.027 -30.251  1.00  0.00    -0.465 OA
ATOM     10  C   UNL     1      45.529 -30.145 -29.454  1.00  0.00     0.282 C 
ENDBRANCH   7   9
ENDBRANCH   1   7
BRANCH   6  11
ATOM     11  O   UNL     1      47.914 -27.422 -33.224  1.00  0.00    -0.507 OA
ATOM     12  H   UNL     1      48.121 -26.795 -33.989  1.00  0.00     0.293 HD
ENDBRANCH   6  11
TORSDOF 3
ENDMDL
MODEL 5
REMARK VINA RESULT:    -3.797      1.256      2.394
REMARK INTER + INTRA:          -4.639
REMARK INTER:                  -4.317
REMARK INTRA:                  -0.321
REMARK UNBOUND:                -0.286
REMARK SMILES COC(=O)c1ccccc1O
REMARK SMILES IDX 5 1 6 2 7 3 8 4 9 5 10 6 3 7 4 8 2 9 1 10 11 11
REMARK H PARENT 11 12
REMARK Flexibility Score: inf
ROOT
ATOM      1  C   UNL     1      48.608 -28.383 -31.806  1.00  0.00     0.101 A 
ATOM      2  C   UNL     1      47.316 -28.064 -32.266  1.00  0.00     0.019 A 
ATOM      3  C   UNL     1      46.186 -28.493 -31.568  1.00  0.00     0.001 A 
ATOM      4  C   UNL     1      46.328 -29.245 -30.402  1.00  0.00     0.004 A 
ATOM      5  C   UNL     1      47.601 -29.587 -29.943  1.00  0.00     0.047 A 
ATOM      6  C   UNL     1      48.744 -29.183 -30.643  1.00  0.00     0.130 A 
ENDROOT
BRANCH   1   7
ATOM      7  C   UNL     1      49.774 -27.837 -32.532  1.00  0.00     0.341 C 
ATOM      8  O   UNL     1      49.810 -27.898 -33.793  1.00  0.00    -0.246 OA
BRANCH   7   9
ATOM      9  O   UNL     1      50.806 -27.204 -31.832  1.00  0.00    -0.465 OA
ATOM     10  C   UNL     1      52.177 -27.529 -32.025  1.00  0.00     0.282 C 
ENDBRANCH   7   9
ENDBRANCH   1   7
BRANCH   6  11
ATOM     11  O   UNL     1      49.984 -29.624 -30.176  1.00  0.00    -0.507 OA
ATOM     12  H   UNL     1      50.266 -29.568 -29.208  1.00  0.00     0.293 HD
ENDBRANCH   6  11
TORSDOF 3
ENDMDL
MODEL 6
REMARK VINA RESULT:    -3.706      2.499      2.803
REMARK INTER + INTRA:          -4.535
REMARK INTER:                  -4.232
REMARK INTRA:                  -0.303
REMARK UNBOUND:                -0.286
REMARK SMILES COC(=O)c1ccccc1O
REMARK SMILES IDX 5 1 6 2 7 3 8 4 9 5 10 6 3 7 4 8 2 9 1 10 11 11
REMARK H PARENT 11 12
REMARK Flexibility Score: inf
ROOT
ATOM      1  C   UNL     1      49.435 -26.890 -31.341  1.00  0.00     0.101 A 
ATOM      2  C   UNL     1      50.283 -26.281 -30.397  1.00  0.00     0.019 A 
ATOM      3  C   UNL     1      49.790 -25.323 -29.509  1.00  0.00     0.001 A 
ATOM      4  C   UNL     1      48.444 -24.960 -29.551  1.00  0.00     0.004 A 
ATOM      5  C   UNL     1      47.594 -25.539 -30.494  1.00  0.00     0.047 A 
ATOM      6  C   UNL     1      48.078 -26.486 -31.405  1.00  0.00     0.130 A 
ENDROOT
BRANCH   1   7
ATOM      7  C   UNL     1      49.984 -27.958 -32.204  1.00  0.00     0.341 C 
ATOM      8  O   UNL     1      49.723 -27.959 -33.439  1.00  0.00    -0.246 OA
BRANCH   7   9
ATOM      9  O   UNL     1      50.837 -28.926 -31.667  1.00  0.00    -0.465 OA
ATOM     10  C   UNL     1      52.148 -29.158 -32.168  1.00  0.00     0.282 C 
ENDBRANCH   7   9
ENDBRANCH   1   7
BRANCH   6  11
ATOM     11  O   UNL     1      47.195 -26.968 -32.374  1.00  0.00    -0.507 OA
ATOM     12  H   UNL     1      46.433 -27.599 -32.167  1.00  0.00     0.293 HD
ENDBRANCH   6  11
TORSDOF 3
ENDMDL
MODEL 7
REMARK VINA RESULT:    -3.689      1.238      1.542
REMARK INTER + INTRA:          -4.515
REMARK INTER:                  -4.239
REMARK INTRA:                  -0.276
REMARK UNBOUND:                -0.286
REMARK SMILES COC(=O)c1ccccc1O
REMARK SMILES IDX 5 1 6 2 7 3 8 4 9 5 10 6 3 7 4 8 2 9 1 10 11 11
REMARK H PARENT 11 12
REMARK Flexibility Score: inf
ROOT
ATOM      1  C   UNL     1      50.016 -28.775 -31.132  1.00  0.00     0.101 A 
ATOM      2  C   UNL     1      48.957 -29.248 -30.334  1.00  0.00     0.019 A 
ATOM      3  C   UNL     1      47.635 -29.138 -30.767  1.00  0.00     0.001 A 
ATOM      4  C   UNL     1      47.350 -28.556 -32.003  1.00  0.00     0.004 A 
ATOM      5  C   UNL     1      48.387 -28.064 -32.797  1.00  0.00     0.047 A 
ATOM      6  C   UNL     1      49.717 -28.147 -32.367  1.00  0.00     0.130 A 
ENDROOT
BRANCH   1   7
ATOM      7  C   UNL     1      51.404 -28.987 -30.667  1.00  0.00     0.341 C 
ATOM      8  O   UNL     1      52.284 -28.114 -30.908  1.00  0.00    -0.246 OA
BRANCH   7   9
ATOM      9  O   UNL     1      51.728 -30.119 -29.914  1.00  0.00    -0.465 OA
ATOM     10  C   UNL     1      52.886 -30.189 -29.091  1.00  0.00     0.282 C 
ENDBRANCH   7   9
ENDBRANCH   1   7
BRANCH   6  11
ATOM     11  O   UNL     1      50.699 -27.565 -33.171  1.00  0.00    -0.507 OA
ATOM     12  H   UNL     1      51.576 -28.016 -33.392  1.00  0.00     0.293 HD
ENDBRANCH   6  11
TORSDOF 3
ENDMDL
MODEL 8
REMARK VINA RESULT:    -3.684      2.285      4.498
REMARK INTER + INTRA:          -4.508
REMARK INTER:                  -4.188
REMARK INTRA:                  -0.320
REMARK UNBOUND:                -0.286
REMARK SMILES COC(=O)c1ccccc1O
REMARK SMILES IDX 5 1 6 2 7 3 8 4 9 5 10 6 3 7 4 8 2 9 1 10 11 11
REMARK H PARENT 11 12
REMARK Flexibility Score: inf
ROOT
ATOM      1  C   UNL     1      48.288 -28.690 -31.534  1.00  0.00     0.101 A 
ATOM      2  C   UNL     1      48.611 -28.140 -32.789  1.00  0.00     0.019 A 
ATOM      3  C   UNL     1      49.941 -27.909 -33.145  1.00  0.00     0.001 A 
ATOM      4  C   UNL     1      50.968 -28.225 -32.254  1.00  0.00     0.004 A 
ATOM      5  C   UNL     1      50.664 -28.752 -30.998  1.00  0.00     0.047 A 
ATOM      6  C   UNL     1      49.334 -28.970 -30.618  1.00  0.00     0.130 A 
ENDROOT
BRANCH   1   7
ATOM      7  C   UNL     1      46.872 -28.992 -31.236  1.00  0.00     0.341 C 
ATOM      8  O   UNL     1      45.959 -28.315 -31.785  1.00  0.00    -0.246 OA
BRANCH   7   9
ATOM      9  O   UNL     1      46.543 -30.061 -30.397  1.00  0.00    -0.465 OA
ATOM     10  C   UNL     1      45.478 -30.000 -29.456  1.00  0.00     0.282 C 
ENDBRANCH   7   9
ENDBRANCH   1   7
BRANCH   6  11
ATOM     11  O   UNL     1      49.092 -29.425 -29.320  1.00  0.00    -0.507 OA
ATOM     12  H   UNL     1      49.584 -29.077 -28.509  1.00  0.00     0.293 HD
ENDBRANCH   6  11
TORSDOF 3
ENDMDL
MODEL 9
REMARK VINA RESULT:    -3.652     12.579     13.586
REMARK INTER + INTRA:          -4.472
REMARK INTER:                  -4.143
REMARK INTRA:                  -0.329
REMARK UNBOUND:                -0.286
REMARK SMILES COC(=O)c1ccccc1O
REMARK SMILES IDX 5 1 6 2 7 3 8 4 9 5 10 6 3 7 4 8 2 9 1 10 11 11
REMARK H PARENT 11 12
REMARK Flexibility Score: inf
ROOT
ATOM      1  C   UNL     1      52.416 -42.051 -30.434  1.00  0.00     0.101 A 
ATOM      2  C   UNL     1      51.837 -43.328 -30.311  1.00  0.00     0.019 A 
ATOM      3  C   UNL     1      50.467 -43.469 -30.083  1.00  0.00     0.001 A 
ATOM      4  C   UNL     1      49.656 -42.339 -29.975  1.00  0.00     0.004 A 
ATOM      5  C   UNL     1      50.217 -41.066 -30.075  1.00  0.00     0.047 A 
ATOM      6  C   UNL     1      51.593 -40.906 -30.282  1.00  0.00     0.130 A 
ENDROOT
BRANCH   1   7
ATOM      7  C   UNL     1      53.856 -41.953 -30.757  1.00  0.00     0.341 C 
ATOM      8  O   UNL     1      54.641 -42.876 -30.400  1.00  0.00    -0.246 OA
BRANCH   7   9
ATOM      9  O   UNL     1      54.337 -40.874 -31.505  1.00  0.00    -0.465 OA
ATOM     10  C   UNL     1      54.189 -40.792 -32.918  1.00  0.00     0.282 C 
ENDBRANCH   7   9
ENDBRANCH   1   7
BRANCH   6  11
ATOM     11  O   UNL     1      52.105 -39.607 -30.293  1.00  0.00    -0.507 OA
ATOM     12  H   UNL     1      53.014 -39.364 -29.926  1.00  0.00     0.293 HD
ENDBRANCH   6  11
TORSDOF 3
ENDMDL
