MODEL 1
REMARK VINA RESULT:    -3.168      0.000      0.000
REMARK INTER + INTRA:          -3.365
REMARK INTER:                  -3.353
REMARK INTRA:                  -0.012
REMARK UNBOUND:                -0.012
REMARK SMILES O=Cc1ccco1
REMARK SMILES IDX 5 1 6 2 7 3 3 4 4 5 2 6 1 7
REMARK H PARENT
REMARK Flexibility Score: inf
ROOT
ATOM      1  C   UNL     1       8.169 -25.699  51.822  1.00  0.00     0.043 A 
ATOM      2  C   UNL     1       8.463 -26.757  52.660  1.00  0.00     0.196 A 
ATOM      3  O   UNL     1       8.795 -26.302  53.847  1.00  0.00    -0.462 OA
ATOM      4  C   UNL     1       8.731 -24.991  53.822  1.00  0.00     0.166 A 
ATOM      5  C   UNL     1       8.341 -24.556  52.572  1.00  0.00     0.054 A 
ENDROOT
BRANCH   4   6
ATOM      6  C   UNL     1       9.033 -24.129  54.966  1.00  0.00     0.298 C 
ATOM      7  O   UNL     1       8.260 -24.099  55.959  1.00  0.00    -0.294 OA
ENDBRANCH   4   6
TORSDOF 1
ENDMDL
MODEL 2
REMARK VINA RESULT:    -3.122      1.998      2.943
REMARK INTER + INTRA:          -3.316
REMARK INTER:                  -3.306
REMARK INTRA:                  -0.011
REMARK UNBOUND:                -0.012
REMARK SMILES O=Cc1ccco1
REMARK SMILES IDX 5 1 6 2 7 3 3 4 4 5 2 6 1 7
REMARK H PARENT
REMARK Flexibility Score: inf
ROOT
ATOM      1  C   UNL     1       8.205 -25.987  52.809  1.00  0.00     0.043 A 
ATOM      2  C   UNL     1       8.464 -25.110  53.845  1.00  0.00     0.196 A 
ATOM      3  O   UNL     1       9.424 -25.590  54.601  1.00  0.00    -0.462 OA
ATOM      4  C   UNL     1       9.806 -26.745  54.106  1.00  0.00     0.166 A 
ATOM      5  C   UNL     1       9.073 -27.045  52.976  1.00  0.00     0.054 A 
ENDROOT
BRANCH   4   6
ATOM      6  C   UNL     1      10.860 -27.582  54.682  1.00  0.00     0.298 C 
ATOM      7  O   UNL     1      10.585 -28.722  55.140  1.00  0.00    -0.294 OA
ENDBRANCH   4   6
TORSDOF 1
ENDMDL
MODEL 3
REMARK VINA RESULT:    -3.065      2.031      2.810
REMARK INTER + INTRA:          -3.256
REMARK INTER:                  -3.242
REMARK INTRA:                  -0.014
REMARK UNBOUND:                -0.012
REMARK SMILES O=Cc1ccco1
REMARK SMILES IDX 5 1 6 2 7 3 3 4 4 5 2 6 1 7
REMARK H PARENT
REMARK Flexibility Score: inf
ROOT
ATOM      1  C   UNL     1       8.242 -25.213  53.633  1.00  0.00     0.043 A 
ATOM      2  C   UNL     1       8.096 -26.381  52.911  1.00  0.00     0.196 A 
ATOM      3  O   UNL     1       9.047 -27.225  53.238  1.00  0.00    -0.462 OA
ATOM      4  C   UNL     1       9.811 -26.660  54.144  1.00  0.00     0.166 A 
ATOM      5  C   UNL     1       9.351 -25.392  54.432  1.00  0.00     0.054 A 
ENDROOT
BRANCH   4   6
ATOM      6  C   UNL     1      10.981 -27.299  54.751  1.00  0.00     0.298 C 
ATOM      7  O   UNL     1      10.916 -28.491  55.149  1.00  0.00    -0.294 OA
ENDBRANCH   4   6
TORSDOF 1
ENDMDL
MODEL 4
REMARK VINA RESULT:    -3.034      1.650      3.576
REMARK INTER + INTRA:          -3.224
REMARK INTER:                  -3.212
REMARK INTRA:                  -0.011
REMARK UNBOUND:                -0.012
REMARK SMILES O=Cc1ccco1
REMARK SMILES IDX 5 1 6 2 7 3 3 4 4 5 2 6 1 7
REMARK H PARENT
REMARK Flexibility Score: inf
ROOT
ATOM      1  C   UNL     1       8.274 -24.893  52.658  1.00  0.00     0.043 A 
ATOM      2  C   UNL     1       8.684 -25.555  53.799  1.00  0.00     0.196 A 
ATOM      3  O   UNL     1       8.904 -26.820  53.523  1.00  0.00    -0.462 OA
ATOM      4  C   UNL     1       8.655 -27.016  52.248  1.00  0.00     0.166 A 
ATOM      5  C   UNL     1       8.255 -25.837  51.654  1.00  0.00     0.054 A 
ENDROOT
BRANCH   4   6
ATOM      6  C   UNL     1       8.788 -28.308  51.572  1.00  0.00     0.298 C 
ATOM      7  O   UNL     1       9.913 -28.694  51.160  1.00  0.00    -0.294 OA
ENDBRANCH   4   6
TORSDOF 1
ENDMDL
MODEL 5
REMARK VINA RESULT:    -3.018      1.545      3.340
REMARK INTER + INTRA:          -3.207
REMARK INTER:                  -3.191
REMARK INTRA:                  -0.016
REMARK UNBOUND:                -0.012
REMARK SMILES O=Cc1ccco1
REMARK SMILES IDX 5 1 6 2 7 3 3 4 4 5 2 6 1 7
REMARK H PARENT
REMARK Flexibility Score: inf
ROOT
ATOM      1  C   UNL     1       8.904 -23.380  55.157  1.00  0.00     0.043 A 
ATOM      2  C   UNL     1       8.226 -22.874  54.065  1.00  0.00     0.196 A 
ATOM      3  O   UNL     1       7.925 -23.850  53.240  1.00  0.00    -0.462 OA
ATOM      4  C   UNL     1       8.377 -24.975  53.743  1.00  0.00     0.166 A 
ATOM      5  C   UNL     1       9.002 -24.739  54.951  1.00  0.00     0.054 A 
ENDROOT
BRANCH   4   6
ATOM      6  C   UNL     1       8.230 -26.283  53.103  1.00  0.00     0.298 C 
ATOM      7  O   UNL     1       7.904 -26.361  51.890  1.00  0.00    -0.294 OA
ENDBRANCH   4   6
TORSDOF 1
ENDMDL
MODEL 6
REMARK VINA RESULT:    -3.017      1.428      2.011
REMARK INTER + INTRA:          -3.205
REMARK INTER:                  -3.189
REMARK INTRA:                  -0.016
REMARK UNBOUND:                -0.012
REMARK SMILES O=Cc1ccco1
REMARK SMILES IDX 5 1 6 2 7 3 3 4 4 5 2 6 1 7
REMARK H PARENT
REMARK Flexibility Score: inf
ROOT
ATOM      1  C   UNL     1       8.853 -28.081  51.509  1.00  0.00     0.043 A 
ATOM      2  C   UNL     1       9.789 -28.395  52.475  1.00  0.00     0.196 A 
ATOM      3  O   UNL     1       9.791 -27.471  53.407  1.00  0.00    -0.462 OA
ATOM      4  C   UNL     1       8.896 -26.563  53.094  1.00  0.00     0.166 A 
ATOM      5  C   UNL     1       8.274 -26.895  51.909  1.00  0.00     0.054 A 
ENDROOT
BRANCH   4   6
ATOM      6  C   UNL     1       8.612 -25.373  53.899  1.00  0.00     0.298 C 
ATOM      7  O   UNL     1       9.310 -25.113  54.913  1.00  0.00    -0.294 OA
ENDBRANCH   4   6
TORSDOF 1
ENDMDL
MODEL 7
REMARK VINA RESULT:    -2.990      1.762      3.832
REMARK INTER + INTRA:          -3.177
REMARK INTER:                  -3.162
REMARK INTRA:                  -0.014
REMARK UNBOUND:                -0.012
REMARK SMILES O=Cc1ccco1
REMARK SMILES IDX 5 1 6 2 7 3 3 4 4 5 2 6 1 7
REMARK H PARENT
REMARK Flexibility Score: inf
ROOT
ATOM      1  C   UNL     1       8.526 -22.494  56.380  1.00  0.00     0.043 A 
ATOM      2  C   UNL     1       9.419 -22.067  55.417  1.00  0.00     0.196 A 
ATOM      3  O   UNL     1       9.422 -22.912  54.411  1.00  0.00    -0.462 OA
ATOM      4  C   UNL     1       8.570 -23.875  54.674  1.00  0.00     0.166 A 
ATOM      5  C   UNL     1       7.975 -23.663  55.901  1.00  0.00     0.054 A 
ENDROOT
BRANCH   4   6
ATOM      6  C   UNL     1       8.301 -25.004  53.783  1.00  0.00     0.298 C 
ATOM      7  O   UNL     1       8.179 -24.819  52.544  1.00  0.00    -0.294 OA
ENDBRANCH   4   6
TORSDOF 1
ENDMDL
MODEL 8
REMARK VINA RESULT:    -2.893      1.710      2.081
REMARK INTER + INTRA:          -3.074
REMARK INTER:                  -3.061
REMARK INTRA:                  -0.013
REMARK UNBOUND:                -0.012
REMARK SMILES O=Cc1ccco1
REMARK SMILES IDX 5 1 6 2 7 3 3 4 4 5 2 6 1 7
REMARK H PARENT
REMARK Flexibility Score: inf
ROOT
ATOM      1  C   UNL     1       9.640 -26.435  54.153  1.00  0.00     0.043 A 
ATOM      2  C   UNL     1       8.773 -26.620  53.095  1.00  0.00     0.196 A 
ATOM      3  O   UNL     1       7.991 -25.572  52.973  1.00  0.00    -0.462 OA
ATOM      4  C   UNL     1       8.309 -24.706  53.908  1.00  0.00     0.166 A 
ATOM      5  C   UNL     1       9.342 -25.196  54.680  1.00  0.00     0.054 A 
ENDROOT
BRANCH   4   6
ATOM      6  C   UNL     1       7.652 -23.411  54.090  1.00  0.00     0.298 C 
ATOM      7  O   UNL     1       7.633 -22.573  53.151  1.00  0.00    -0.294 OA
ENDBRANCH   4   6
TORSDOF 1
ENDMDL
MODEL 9
REMARK VINA RESULT:    -2.799      1.934      2.917
REMARK INTER + INTRA:          -2.975
REMARK INTER:                  -2.959
REMARK INTRA:                  -0.016
REMARK UNBOUND:                -0.012
REMARK SMILES O=Cc1ccco1
REMARK SMILES IDX 5 1 6 2 7 3 3 4 4 5 2 6 1 7
REMARK H PARENT
REMARK Flexibility Score: inf
ROOT
ATOM      1  C   UNL     1      10.127 -28.508  51.134  1.00  0.00     0.043 A 
ATOM      2  C   UNL     1      11.039 -27.764  51.856  1.00  0.00     0.196 A 
ATOM      3  O   UNL     1      10.404 -26.910  52.626  1.00  0.00    -0.462 OA
ATOM      4  C   UNL     1       9.113 -27.063  52.438  1.00  0.00     0.166 A 
ATOM      5  C   UNL     1       8.881 -28.056  51.510  1.00  0.00     0.054 A 
ENDROOT
BRANCH   4   6
ATOM      6  C   UNL     1       8.083 -26.282  53.125  1.00  0.00     0.298 C 
ATOM      7  O   UNL     1       8.406 -25.434  53.996  1.00  0.00    -0.294 OA
ENDBRANCH   4   6
TORSDOF 1
ENDMDL
