MODEL 1
REMARK VINA RESULT:    -3.129      0.000      0.000
REMARK INTER + INTRA:          -7.335
REMARK INTER:                  -5.690
REMARK INTRA:                  -1.645
REMARK UNBOUND:                -1.645
REMARK SMILES CCCCCCCCCCCCCCCC(=O)[O-]
REMARK SMILES IDX 9 1 10 2 11 3 12 4 13 5 14 6 15 7 16 8 17 9 18 10 8 11 7 12
REMARK SMILES IDX 6 13 5 14 4 15 3 16 2 17 1 18
REMARK H PARENT
REMARK Flexibility Score: inf
ROOT
ATOM      1  C   UNL     1       6.103 -19.699   5.957  1.00  0.00     0.000 C 
ENDROOT
BRANCH   1   2
ATOM      2  C   UNL     1       6.107 -20.248   4.521  1.00  0.00     0.000 C 
BRANCH   2   3
ATOM      3  C   UNL     1       7.046 -19.459   3.591  1.00  0.00     0.000 C 
BRANCH   3   4
ATOM      4  C   UNL     1       8.318 -18.979   4.308  1.00  0.00     0.000 C 
BRANCH   4   5
ATOM      5  C   UNL     1       8.974 -17.776   3.611  1.00  0.00     0.000 C 
BRANCH   5   6
ATOM      6  C   UNL     1       9.882 -17.009   4.580  1.00  0.00     0.006 C 
BRANCH   6   7
ATOM      7  C   UNL     1       9.204 -16.830   5.942  1.00  0.00     0.053 C 
BRANCH   7   8
ATOM      8  C   UNL     1       9.413 -15.438   6.451  1.00  0.00     0.041 C 
ATOM      9  O   UNL     1      10.571 -15.037   6.742  1.00  0.00    -0.550 OA
ATOM     10  O   UNL     1       8.324 -14.600   6.651  1.00  0.00    -0.550 OA
ENDBRANCH   7   8
ENDBRANCH   6   7
ENDBRANCH   5   6
ENDBRANCH   4   5
ENDBRANCH   3   4
ENDBRANCH   2   3
ENDBRANCH   1   2
BRANCH   1  11
ATOM     11  C   UNL     1       4.704 -19.269   6.425  1.00  0.00     0.000 C 
BRANCH  11  12
ATOM     12  C   UNL     1       3.613 -19.946   5.582  1.00  0.00    -0.000 C 
BRANCH  12  13
ATOM     13  C   UNL     1       2.394 -19.040   5.350  1.00  0.00    -0.000 C 
BRANCH  13  14
ATOM     14  C   UNL     1       2.040 -18.888   3.863  1.00  0.00    -0.000 C 
BRANCH  14  15
ATOM     15  C   UNL     1       2.925 -17.824   3.195  1.00  0.00    -0.000 C 
BRANCH  15  16
ATOM     16  C   UNL     1       3.808 -18.403   2.080  1.00  0.00    -0.000 C 
BRANCH  16  17
ATOM     17  C   UNL     1       3.580 -19.907   1.864  1.00  0.00    -0.003 C 
ATOM     18  C   UNL     1       3.253 -20.209   0.404  1.00  0.00     0.004 C 
ENDBRANCH  16  17
ENDBRANCH  15  16
ENDBRANCH  14  15
ENDBRANCH  13  14
ENDBRANCH  12  13
ENDBRANCH  11  12
ENDBRANCH   1  11
TORSDOF 14
ENDMDL
MODEL 2
REMARK VINA RESULT:    -3.030      4.577      8.136
REMARK INTER + INTRA:          -7.155
REMARK INTER:                  -5.011
REMARK INTRA:                  -2.144
REMARK UNBOUND:                -1.645
REMARK SMILES CCCCCCCCCCCCCCCC(=O)[O-]
REMARK SMILES IDX 9 1 10 2 11 3 12 4 13 5 14 6 15 7 16 8 17 9 18 10 8 11 7 12
REMARK SMILES IDX 6 13 5 14 4 15 3 16 2 17 1 18
REMARK H PARENT
REMARK Flexibility Score: inf
ROOT
ATOM      1  C   UNL     1       8.646 -17.039   8.755  1.00  0.00     0.000 C 
ENDROOT
BRANCH   1   2
ATOM      2  C   UNL     1       9.253 -18.397   8.365  1.00  0.00     0.000 C 
BRANCH   2   3
ATOM      3  C   UNL     1      10.641 -18.259   7.719  1.00  0.00     0.000 C 
BRANCH   3   4
ATOM      4  C   UNL     1      10.659 -18.724   6.253  1.00  0.00     0.000 C 
BRANCH   4   5
ATOM      5  C   UNL     1      11.146 -17.631   5.289  1.00  0.00     0.000 C 
BRANCH   5   6
ATOM      6  C   UNL     1       9.977 -17.049   4.484  1.00  0.00     0.006 C 
BRANCH   6   7
ATOM      7  C   UNL     1       8.847 -18.073   4.339  1.00  0.00     0.053 C 
BRANCH   7   8
ATOM      8  C   UNL     1       8.838 -18.651   2.959  1.00  0.00     0.041 C 
ATOM      9  O   UNL     1       8.297 -19.767   2.743  1.00  0.00    -0.550 OA
ATOM     10  O   UNL     1       9.470 -17.980   1.920  1.00  0.00    -0.550 OA
ENDBRANCH   7   8
ENDBRANCH   6   7
ENDBRANCH   5   6
ENDBRANCH   4   5
ENDBRANCH   3   4
ENDBRANCH   2   3
ENDBRANCH   1   2
BRANCH   1  11
ATOM     11  C   UNL     1       7.865 -16.384   7.605  1.00  0.00     0.000 C 
BRANCH  11  12
ATOM     12  C   UNL     1       8.593 -15.133   7.092  1.00  0.00    -0.000 C 
BRANCH  12  13
ATOM     13  C   UNL     1       9.628 -14.596   8.093  1.00  0.00    -0.000 C 
BRANCH  13  14
ATOM     14  C   UNL     1      11.060 -14.623   7.537  1.00  0.00    -0.000 C 
BRANCH  14  15
ATOM     15  C   UNL     1      12.087 -14.385   8.655  1.00  0.00    -0.000 C 
BRANCH  15  16
ATOM     16  C   UNL     1      11.429 -14.171  10.027  1.00  0.00    -0.000 C 
BRANCH  16  17
ATOM     17  C   UNL     1      12.351 -13.442  11.017  1.00  0.00    -0.003 C 
ATOM     18  C   UNL     1      12.848 -12.122  10.435  1.00  0.00     0.004 C 
ENDBRANCH  16  17
ENDBRANCH  15  16
ENDBRANCH  14  15
ENDBRANCH  13  14
ENDBRANCH  12  13
ENDBRANCH  11  12
ENDBRANCH   1  11
TORSDOF 14
ENDMDL
MODEL 3
REMARK VINA RESULT:    -3.025      4.684      8.519
REMARK INTER + INTRA:          -7.146
REMARK INTER:                  -5.329
REMARK INTRA:                  -1.817
REMARK UNBOUND:                -1.645
REMARK SMILES CCCCCCCCCCCCCCCC(=O)[O-]
REMARK SMILES IDX 9 1 10 2 11 3 12 4 13 5 14 6 15 7 16 8 17 9 18 10 8 11 7 12
REMARK SMILES IDX 6 13 5 14 4 15 3 16 2 17 1 18
REMARK H PARENT
REMARK Flexibility Score: inf
ROOT
ATOM      1  C   UNL     1       8.612 -17.662   9.010  1.00  0.00     0.000 C 
ENDROOT
BRANCH   1   2
ATOM      2  C   UNL     1       8.230 -17.216   7.588  1.00  0.00     0.000 C 
BRANCH   2   3
ATOM      3  C   UNL     1       7.825 -15.734   7.524  1.00  0.00     0.000 C 
BRANCH   3   4
ATOM      4  C   UNL     1       8.759 -14.906   6.626  1.00  0.00     0.000 C 
BRANCH   4   5
ATOM      5  C   UNL     1      10.060 -15.646   6.279  1.00  0.00     0.000 C 
BRANCH   5   6
ATOM      6  C   UNL     1      10.230 -15.773   4.761  1.00  0.00     0.006 C 
BRANCH   6   7
ATOM      7  C   UNL     1      10.418 -17.237   4.349  1.00  0.00     0.053 C 
BRANCH   7   8
ATOM      8  C   UNL     1       9.178 -17.760   3.696  1.00  0.00     0.041 C 
ATOM      9  O   UNL     1       8.428 -18.563   4.311  1.00  0.00    -0.550 OA
ATOM     10  O   UNL     1       8.876 -17.400   2.388  1.00  0.00    -0.550 OA
ENDBRANCH   7   8
ENDBRANCH   6   7
ENDBRANCH   5   6
ENDBRANCH   4   5
ENDBRANCH   3   4
ENDBRANCH   2   3
ENDBRANCH   1   2
BRANCH   1  11
ATOM     11  C   UNL     1       8.165 -16.661  10.087  1.00  0.00     0.000 C 
BRANCH  11  12
ATOM     12  C   UNL     1       9.360 -16.203  10.937  1.00  0.00    -0.000 C 
BRANCH  12  13
ATOM     13  C   UNL     1      10.616 -15.927  10.096  1.00  0.00    -0.000 C 
BRANCH  13  14
ATOM     14  C   UNL     1      10.721 -14.461   9.650  1.00  0.00    -0.000 C 
BRANCH  14  15
ATOM     15  C   UNL     1      12.104 -14.169   9.048  1.00  0.00    -0.000 C 
BRANCH  15  16
ATOM     16  C   UNL     1      12.925 -13.189   9.900  1.00  0.00    -0.000 C 
BRANCH  16  17
ATOM     17  C   UNL     1      12.050 -12.336  10.831  1.00  0.00    -0.003 C 
ATOM     18  C   UNL     1      12.344 -12.645  12.296  1.00  0.00     0.004 C 
ENDBRANCH  16  17
ENDBRANCH  15  16
ENDBRANCH  14  15
ENDBRANCH  13  14
ENDBRANCH  12  13
ENDBRANCH  11  12
ENDBRANCH   1  11
TORSDOF 14
ENDMDL
MODEL 4
REMARK VINA RESULT:    -3.007      0.937      2.895
REMARK INTER + INTRA:          -7.112
REMARK INTER:                  -5.442
REMARK INTRA:                  -1.670
REMARK UNBOUND:                -1.645
REMARK SMILES CCCCCCCCCCCCCCCC(=O)[O-]
REMARK SMILES IDX 9 1 10 2 11 3 12 4 13 5 14 6 15 7 16 8 17 9 18 10 8 11 7 12
REMARK SMILES IDX 6 13 5 14 4 15 3 16 2 17 1 18
REMARK H PARENT
REMARK Flexibility Score: inf
ROOT
ATOM      1  C   UNL     1       5.205 -20.372   3.351  1.00  0.00     0.000 C 
ENDROOT
BRANCH   1   2
ATOM      2  C   UNL     1       6.316 -19.314   3.459  1.00  0.00     0.000 C 
BRANCH   2   3
ATOM      3  C   UNL     1       7.690 -19.932   3.774  1.00  0.00     0.000 C 
BRANCH   3   4
ATOM      4  C   UNL     1       8.839 -19.220   3.041  1.00  0.00     0.000 C 
BRANCH   4   5
ATOM      5  C   UNL     1       8.807 -17.695   3.227  1.00  0.00     0.000 C 
BRANCH   5   6
ATOM      6  C   UNL     1       9.866 -17.245   4.240  1.00  0.00     0.006 C 
BRANCH   6   7
ATOM      7  C   UNL     1       9.240 -16.993   5.615  1.00  0.00     0.053 C 
BRANCH   7   8
ATOM      8  C   UNL     1       9.572 -15.616   6.097  1.00  0.00     0.041 C 
ATOM      9  O   UNL     1       8.654 -14.833   6.459  1.00  0.00    -0.550 OA
ATOM     10  O   UNL     1      10.891 -15.180   6.101  1.00  0.00    -0.550 OA
ENDBRANCH   7   8
ENDBRANCH   6   7
ENDBRANCH   5   6
ENDBRANCH   4   5
ENDBRANCH   3   4
ENDBRANCH   2   3
ENDBRANCH   1   2
BRANCH   1  11
ATOM     11  C   UNL     1       4.108 -19.981   2.348  1.00  0.00     0.000 C 
BRANCH  11  12
ATOM     12  C   UNL     1       3.976 -18.454   2.248  1.00  0.00    -0.000 C 
BRANCH  12  13
ATOM     13  C   UNL     1       2.848 -17.897   3.130  1.00  0.00    -0.000 C 
BRANCH  13  14
ATOM     14  C   UNL     1       1.698 -18.896   3.324  1.00  0.00    -0.000 C 
BRANCH  14  15
ATOM     15  C   UNL     1       1.593 -19.334   4.793  1.00  0.00    -0.000 C 
BRANCH  15  16
ATOM     16  C   UNL     1       2.604 -18.614   5.699  1.00  0.00    -0.000 C 
BRANCH  16  17
ATOM     17  C   UNL     1       3.465 -19.589   6.517  1.00  0.00    -0.003 C 
ATOM     18  C   UNL     1       4.819 -18.974   6.859  1.00  0.00     0.004 C 
ENDBRANCH  16  17
ENDBRANCH  15  16
ENDBRANCH  14  15
ENDBRANCH  13  14
ENDBRANCH  12  13
ENDBRANCH  11  12
ENDBRANCH   1  11
TORSDOF 14
ENDMDL
MODEL 5
REMARK VINA RESULT:    -2.987      1.304      2.916
REMARK INTER + INTRA:          -7.076
REMARK INTER:                  -5.585
REMARK INTRA:                  -1.491
REMARK UNBOUND:                -1.645
REMARK SMILES CCCCCCCCCCCCCCCC(=O)[O-]
REMARK SMILES IDX 9 1 10 2 11 3 12 4 13 5 14 6 15 7 16 8 17 9 18 10 8 11 7 12
REMARK SMILES IDX 6 13 5 14 4 15 3 16 2 17 1 18
REMARK H PARENT
REMARK Flexibility Score: inf
ROOT
ATOM      1  C   UNL     1       6.415 -19.850   4.852  1.00  0.00     0.000 C 
ENDROOT
BRANCH   1   2
ATOM      2  C   UNL     1       7.793 -19.249   5.177  1.00  0.00     0.000 C 
BRANCH   2   3
ATOM      3  C   UNL     1       8.578 -18.857   3.914  1.00  0.00     0.000 C 
BRANCH   3   4
ATOM      4  C   UNL     1       9.315 -17.516   4.070  1.00  0.00     0.000 C 
BRANCH   4   5
ATOM      5  C   UNL     1       9.466 -17.089   5.538  1.00  0.00     0.000 C 
BRANCH   5   6
ATOM      6  C   UNL     1       9.736 -15.583   5.645  1.00  0.00     0.006 C 
BRANCH   6   7
ATOM      7  C   UNL     1       8.773 -14.921   6.634  1.00  0.00     0.053 C 
BRANCH   7   8
ATOM      8  C   UNL     1       9.246 -15.121   8.039  1.00  0.00     0.041 C 
ATOM      9  O   UNL     1      10.205 -14.439   8.488  1.00  0.00    -0.550 OA
ATOM     10  O   UNL     1       8.660 -16.094   8.839  1.00  0.00    -0.550 OA
ENDBRANCH   7   8
ENDBRANCH   6   7
ENDBRANCH   5   6
ENDBRANCH   4   5
ENDBRANCH   3   4
ENDBRANCH   2   3
ENDBRANCH   1   2
BRANCH   1  11
ATOM     11  C   UNL     1       6.036 -19.702   3.371  1.00  0.00     0.000 C 
BRANCH  11  12
ATOM     12  C   UNL     1       4.515 -19.796   3.183  1.00  0.00    -0.000 C 
BRANCH  12  13
ATOM     13  C   UNL     1       3.929 -18.576   2.456  1.00  0.00    -0.000 C 
BRANCH  13  14
ATOM     14  C   UNL     1       2.801 -17.899   3.247  1.00  0.00    -0.000 C 
BRANCH  14  15
ATOM     15  C   UNL     1       2.502 -18.668   4.543  1.00  0.00    -0.000 C 
BRANCH  15  16
ATOM     16  C   UNL     1       2.777 -17.834   5.804  1.00  0.00    -0.000 C 
BRANCH  16  17
ATOM     17  C   UNL     1       3.582 -18.607   6.861  1.00  0.00    -0.003 C 
ATOM     18  C   UNL     1       3.286 -20.102   6.792  1.00  0.00     0.004 C 
ENDBRANCH  16  17
ENDBRANCH  15  16
ENDBRANCH  14  15
ENDBRANCH  13  14
ENDBRANCH  12  13
ENDBRANCH  11  12
ENDBRANCH   1  11
TORSDOF 14
ENDMDL
MODEL 6
REMARK VINA RESULT:    -2.961      4.428      6.923
REMARK INTER + INTRA:          -7.029
REMARK INTER:                  -4.321
REMARK INTRA:                  -2.708
REMARK UNBOUND:                -1.645
REMARK SMILES CCCCCCCCCCCCCCCC(=O)[O-]
REMARK SMILES IDX 9 1 10 2 11 3 12 4 13 5 14 6 15 7 16 8 17 9 18 10 8 11 7 12
REMARK SMILES IDX 6 13 5 14 4 15 3 16 2 17 1 18
REMARK H PARENT
REMARK Flexibility Score: inf
ROOT
ATOM      1  C   UNL     1      11.636 -17.286   9.566  1.00  0.00     0.000 C 
ENDROOT
BRANCH   1   2
ATOM      2  C   UNL     1      12.036 -17.553   8.105  1.00  0.00     0.000 C 
BRANCH   2   3
ATOM      3  C   UNL     1      11.405 -18.841   7.547  1.00  0.00     0.000 C 
BRANCH   3   4
ATOM      4  C   UNL     1      11.101 -18.745   6.043  1.00  0.00     0.000 C 
BRANCH   4   5
ATOM      5  C   UNL     1      11.377 -17.346   5.470  1.00  0.00     0.000 C 
BRANCH   5   6
ATOM      6  C   UNL     1      10.310 -16.955   4.440  1.00  0.00     0.006 C 
BRANCH   6   7
ATOM      7  C   UNL     1       9.122 -17.921   4.486  1.00  0.00     0.053 C 
BRANCH   7   8
ATOM      8  C   UNL     1       8.560 -18.126   3.115  1.00  0.00     0.041 C 
ATOM      9  O   UNL     1       8.975 -17.432   2.150  1.00  0.00    -0.550 OA
ATOM     10  O   UNL     1       7.543 -19.051   2.911  1.00  0.00    -0.550 OA
ENDBRANCH   7   8
ENDBRANCH   6   7
ENDBRANCH   5   6
ENDBRANCH   4   5
ENDBRANCH   3   4
ENDBRANCH   2   3
ENDBRANCH   1   2
BRANCH   1  11
ATOM     11  C   UNL     1      11.335 -15.804   9.838  1.00  0.00     0.000 C 
BRANCH  11  12
ATOM     12  C   UNL     1      11.133 -15.036   8.523  1.00  0.00    -0.000 C 
BRANCH  12  13
ATOM     13  C   UNL     1       9.720 -14.447   8.390  1.00  0.00    -0.000 C 
BRANCH  13  14
ATOM     14  C   UNL     1       8.937 -15.044   7.211  1.00  0.00    -0.000 C 
BRANCH  14  15
ATOM     15  C   UNL     1       7.740 -15.869   7.709  1.00  0.00    -0.000 C 
BRANCH  15  16
ATOM     16  C   UNL     1       8.066 -17.365   7.841  1.00  0.00    -0.000 C 
BRANCH  16  17
ATOM     17  C   UNL     1       8.136 -17.828   9.304  1.00  0.00    -0.003 C 
ATOM     18  C   UNL     1       7.204 -17.003  10.187  1.00  0.00     0.004 C 
ENDBRANCH  16  17
ENDBRANCH  15  16
ENDBRANCH  14  15
ENDBRANCH  13  14
ENDBRANCH  12  13
ENDBRANCH  11  12
ENDBRANCH   1  11
TORSDOF 14
ENDMDL
MODEL 7
REMARK VINA RESULT:    -2.921      2.012      3.351
REMARK INTER + INTRA:          -6.956
REMARK INTER:                  -4.641
REMARK INTRA:                  -2.315
REMARK UNBOUND:                -1.645
REMARK SMILES CCCCCCCCCCCCCCCC(=O)[O-]
REMARK SMILES IDX 9 1 10 2 11 3 12 4 13 5 14 6 15 7 16 8 17 9 18 10 8 11 7 12
REMARK SMILES IDX 6 13 5 14 4 15 3 16 2 17 1 18
REMARK H PARENT
REMARK Flexibility Score: inf
ROOT
ATOM      1  C   UNL     1       2.061 -20.700   5.906  1.00  0.00     0.000 C 
ENDROOT
BRANCH   1   2
ATOM      2  C   UNL     1       3.501 -21.211   5.726  1.00  0.00     0.000 C 
BRANCH   2   3
ATOM      3  C   UNL     1       4.552 -20.187   6.188  1.00  0.00     0.000 C 
BRANCH   3   4
ATOM      4  C   UNL     1       5.575 -19.855   5.088  1.00  0.00     0.000 C 
BRANCH   4   5
ATOM      5  C   UNL     1       6.950 -20.491   5.345  1.00  0.00     0.000 C 
BRANCH   5   6
ATOM      6  C   UNL     1       7.840 -20.392   4.100  1.00  0.00     0.006 C 
BRANCH   6   7
ATOM      7  C   UNL     1       7.491 -19.153   3.272  1.00  0.00     0.053 C 
BRANCH   7   8
ATOM      8  C   UNL     1       8.622 -18.173   3.292  1.00  0.00     0.041 C 
ATOM      9  O   UNL     1       9.045 -17.717   4.387  1.00  0.00    -0.550 OA
ATOM     10  O   UNL     1       9.178 -17.727   2.099  1.00  0.00    -0.550 OA
ENDBRANCH   7   8
ENDBRANCH   6   7
ENDBRANCH   5   6
ENDBRANCH   4   5
ENDBRANCH   3   4
ENDBRANCH   2   3
ENDBRANCH   1   2
BRANCH   1  11
ATOM     11  C   UNL     1       1.802 -19.381   5.160  1.00  0.00     0.000 C 
BRANCH  11  12
ATOM     12  C   UNL     1       0.925 -19.617   3.921  1.00  0.00    -0.000 C 
BRANCH  12  13
ATOM     13  C   UNL     1       1.408 -18.828   2.694  1.00  0.00    -0.000 C 
BRANCH  13  14
ATOM     14  C   UNL     1       2.650 -17.973   2.989  1.00  0.00    -0.000 C 
BRANCH  14  15
ATOM     15  C   UNL     1       3.879 -18.518   2.245  1.00  0.00    -0.000 C 
BRANCH  15  16
ATOM     16  C   UNL     1       3.556 -19.756   1.394  1.00  0.00    -0.000 C 
BRANCH  16  17
ATOM     17  C   UNL     1       4.122 -21.052   1.994  1.00  0.00    -0.003 C 
ATOM     18  C   UNL     1       3.041 -22.124   2.103  1.00  0.00     0.004 C 
ENDBRANCH  16  17
ENDBRANCH  15  16
ENDBRANCH  14  15
ENDBRANCH  13  14
ENDBRANCH  12  13
ENDBRANCH  11  12
ENDBRANCH   1  11
TORSDOF 14
ENDMDL
MODEL 8
REMARK VINA RESULT:    -2.909      4.240      6.440
REMARK INTER + INTRA:          -6.934
REMARK INTER:                  -4.382
REMARK INTRA:                  -2.552
REMARK UNBOUND:                -1.645
REMARK SMILES CCCCCCCCCCCCCCCC(=O)[O-]
REMARK SMILES IDX 9 1 10 2 11 3 12 4 13 5 14 6 15 7 16 8 17 9 18 10 8 11 7 12
REMARK SMILES IDX 6 13 5 14 4 15 3 16 2 17 1 18
REMARK H PARENT
REMARK Flexibility Score: inf
ROOT
ATOM      1  C   UNL     1      10.379 -14.834   9.573  1.00  0.00     0.000 C 
ENDROOT
BRANCH   1   2
ATOM      2  C   UNL     1      10.322 -14.703   8.042  1.00  0.00     0.000 C 
BRANCH   2   3
ATOM      3  C   UNL     1       8.883 -14.748   7.499  1.00  0.00     0.000 C 
BRANCH   3   4
ATOM      4  C   UNL     1       8.687 -15.843   6.438  1.00  0.00     0.000 C 
BRANCH   4   5
ATOM      5  C   UNL     1       9.993 -16.212   5.717  1.00  0.00     0.000 C 
BRANCH   5   6
ATOM      6  C   UNL     1      10.272 -17.716   5.825  1.00  0.00     0.006 C 
BRANCH   6   7
ATOM      7  C   UNL     1       9.442 -18.504   4.807  1.00  0.00     0.053 C 
BRANCH   7   8
ATOM      8  C   UNL     1       9.764 -18.062   3.414  1.00  0.00     0.041 C 
ATOM      9  O   UNL     1       8.869 -17.554   2.688  1.00  0.00    -0.550 OA
ATOM     10  O   UNL     1      11.040 -18.255   2.901  1.00  0.00    -0.550 OA
ENDBRANCH   7   8
ENDBRANCH   6   7
ENDBRANCH   5   6
ENDBRANCH   4   5
ENDBRANCH   3   4
ENDBRANCH   2   3
ENDBRANCH   1   2
BRANCH   1  11
ATOM     11  C   UNL     1       9.578 -16.036  10.097  1.00  0.00     0.000 C 
BRANCH  11  12
ATOM     12  C   UNL     1      10.423 -17.318  10.052  1.00  0.00    -0.000 C 
BRANCH  12  13
ATOM     13  C   UNL     1       9.717 -18.470   9.320  1.00  0.00    -0.000 C 
BRANCH  13  14
ATOM     14  C   UNL     1       8.187 -18.342   9.351  1.00  0.00    -0.000 C 
BRANCH  14  15
ATOM     15  C   UNL     1       7.558 -18.992   8.109  1.00  0.00    -0.000 C 
BRANCH  15  16
ATOM     16  C   UNL     1       6.310 -18.244   7.616  1.00  0.00    -0.000 C 
BRANCH  16  17
ATOM     17  C   UNL     1       5.634 -17.425   8.727  1.00  0.00    -0.003 C 
ATOM     18  C   UNL     1       5.356 -15.997   8.265  1.00  0.00     0.004 C 
ENDBRANCH  16  17
ENDBRANCH  15  16
ENDBRANCH  14  15
ENDBRANCH  13  14
ENDBRANCH  12  13
ENDBRANCH  11  12
ENDBRANCH   1  11
TORSDOF 14
ENDMDL
MODEL 9
REMARK VINA RESULT:    -2.895      4.293      7.772
REMARK INTER + INTRA:          -6.909
REMARK INTER:                  -4.377
REMARK INTRA:                  -2.532
REMARK UNBOUND:                -1.645
REMARK SMILES CCCCCCCCCCCCCCCC(=O)[O-]
REMARK SMILES IDX 9 1 10 2 11 3 12 4 13 5 14 6 15 7 16 8 17 9 18 10 8 11 7 12
REMARK SMILES IDX 6 13 5 14 4 15 3 16 2 17 1 18
REMARK H PARENT
REMARK Flexibility Score: inf
ROOT
ATOM      1  C   UNL     1      11.318 -15.336   6.104  1.00  0.00     0.000 C 
ENDROOT
BRANCH   1   2
ATOM      2  C   UNL     1      12.163 -16.542   5.657  1.00  0.00     0.000 C 
BRANCH   2   3
ATOM      3  C   UNL     1      12.394 -17.553   6.792  1.00  0.00     0.000 C 
BRANCH   3   4
ATOM      4  C   UNL     1      11.481 -18.785   6.679  1.00  0.00     0.000 C 
BRANCH   4   5
ATOM      5  C   UNL     1      10.896 -18.963   5.270  1.00  0.00     0.000 C 
BRANCH   5   6
ATOM      6  C   UNL     1       9.488 -19.568   5.334  1.00  0.00     0.006 C 
BRANCH   6   7
ATOM      7  C   UNL     1       8.469 -18.663   4.636  1.00  0.00     0.053 C 
BRANCH   7   8
ATOM      8  C   UNL     1       8.706 -18.649   3.158  1.00  0.00     0.041 C 
ATOM      9  O   UNL     1       8.715 -19.728   2.508  1.00  0.00    -0.550 OA
ATOM     10  O   UNL     1       8.965 -17.450   2.506  1.00  0.00    -0.550 OA
ENDBRANCH   7   8
ENDBRANCH   6   7
ENDBRANCH   5   6
ENDBRANCH   4   5
ENDBRANCH   3   4
ENDBRANCH   2   3
ENDBRANCH   1   2
BRANCH   1  11
ATOM     11  C   UNL     1       9.900 -15.352   5.512  1.00  0.00     0.000 C 
BRANCH  11  12
ATOM     12  C   UNL     1       8.847 -15.146   6.611  1.00  0.00    -0.000 C 
BRANCH  12  13
ATOM     13  C   UNL     1       8.723 -16.355   7.550  1.00  0.00    -0.000 C 
BRANCH  13  14
ATOM     14  C   UNL     1       8.976 -15.992   9.021  1.00  0.00    -0.000 C 
BRANCH  14  15
ATOM     15  C   UNL     1      10.260 -16.659   9.538  1.00  0.00    -0.000 C 
BRANCH  15  16
ATOM     16  C   UNL     1      11.301 -15.641  10.028  1.00  0.00    -0.000 C 
BRANCH  16  17
ATOM     17  C   UNL     1      11.012 -14.215   9.535  1.00  0.00    -0.003 C 
ATOM     18  C   UNL     1      11.855 -13.192  10.291  1.00  0.00     0.004 C 
ENDBRANCH  16  17
ENDBRANCH  15  16
ENDBRANCH  14  15
ENDBRANCH  13  14
ENDBRANCH  12  13
ENDBRANCH  11  12
ENDBRANCH   1  11
TORSDOF 14
ENDMDL
