MODEL 1
REMARK VINA RESULT:    -4.614      0.000      0.000
REMARK INTER + INTRA:          -7.469
REMARK INTER:                  -7.041
REMARK INTRA:                  -0.428
REMARK UNBOUND:                -0.428
REMARK SMILES CCCCCCCCCCC(=O)[O-]
REMARK SMILES IDX 7 1 8 2 9 3 10 4 11 5 12 6 13 7 6 8 5 9 4 10 3 11 2 12 1 13
REMARK H PARENT
REMARK Flexibility Score: inf
ROOT
ATOM      1  C   UNL     1      -6.904 -19.299  33.020  1.00  0.00     0.000 C 
ENDROOT
BRANCH   1   2
ATOM      2  C   UNL     1      -5.432 -19.412  32.594  1.00  0.00     0.000 C 
BRANCH   2   3
ATOM      3  C   UNL     1      -4.532 -18.572  33.506  1.00  0.00     0.006 C 
BRANCH   3   4
ATOM      4  C   UNL     1      -4.531 -19.121  34.936  1.00  0.00     0.053 C 
BRANCH   4   5
ATOM      5  C   UNL     1      -3.752 -20.397  35.006  1.00  0.00     0.041 C 
ATOM      6  O   UNL     1      -4.314 -21.463  35.369  1.00  0.00    -0.550 OA
ATOM      7  O   UNL     1      -2.417 -20.418  34.624  1.00  0.00    -0.550 OA
ENDBRANCH   4   5
ENDBRANCH   3   4
ENDBRANCH   2   3
ENDBRANCH   1   2
BRANCH   1   8
ATOM      8  C   UNL     1      -7.769 -18.552  31.989  1.00  0.00     0.000 C 
BRANCH   8   9
ATOM      9  C   UNL     1      -9.121 -19.221  31.666  1.00  0.00    -0.000 C 
BRANCH   9  10
ATOM     10  C   UNL     1     -10.240 -18.257  31.223  1.00  0.00    -0.000 C 
BRANCH  10  11
ATOM     11  C   UNL     1     -10.542 -18.263  29.715  1.00  0.00    -0.000 C 
BRANCH  11  12
ATOM     12  C   UNL     1      -9.832 -19.402  28.969  1.00  0.00    -0.003 C 
ATOM     13  C   UNL     1      -9.691 -19.083  27.484  1.00  0.00     0.004 C 
ENDBRANCH  11  12
ENDBRANCH  10  11
ENDBRANCH   9  10
ENDBRANCH   8   9
ENDBRANCH   1   8
TORSDOF 9
ENDMDL
MODEL 2
REMARK VINA RESULT:    -4.601     19.763     20.847
REMARK INTER + INTRA:          -7.450
REMARK INTER:                  -6.856
REMARK INTRA:                  -0.594
REMARK UNBOUND:                -0.428
REMARK SMILES CCCCCCCCCCC(=O)[O-]
REMARK SMILES IDX 7 1 8 2 9 3 10 4 11 5 12 6 13 7 6 8 5 9 4 10 3 11 2 12 1 13
REMARK H PARENT
REMARK Flexibility Score: inf
ROOT
ATOM      1  C   UNL     1      -1.602 -36.024  21.362  1.00  0.00     0.000 C 
ENDROOT
BRANCH   1   2
ATOM      2  C   UNL     1      -3.001 -36.024  21.998  1.00  0.00     0.000 C 
BRANCH   2   3
ATOM      3  C   UNL     1      -3.166 -34.843  22.960  1.00  0.00     0.006 C 
BRANCH   3   4
ATOM      4  C   UNL     1      -1.920 -33.952  22.955  1.00  0.00     0.053 C 
BRANCH   4   5
ATOM      5  C   UNL     1      -2.138 -32.743  23.809  1.00  0.00     0.041 C 
ATOM      6  O   UNL     1      -3.279 -32.216  23.884  1.00  0.00    -0.550 OA
ATOM      7  O   UNL     1      -1.091 -32.227  24.562  1.00  0.00    -0.550 OA
ENDBRANCH   4   5
ENDBRANCH   3   4
ENDBRANCH   2   3
ENDBRANCH   1   2
BRANCH   1   8
ATOM      8  C   UNL     1      -0.932 -37.409  21.391  1.00  0.00     0.000 C 
BRANCH   8   9
ATOM      9  C   UNL     1       0.609 -37.389  21.314  1.00  0.00    -0.000 C 
BRANCH   9  10
ATOM     10  C   UNL     1       1.234 -36.003  21.059  1.00  0.00    -0.000 C 
BRANCH  10  11
ATOM     11  C   UNL     1       2.025 -35.878  19.746  1.00  0.00    -0.000 C 
BRANCH  11  12
ATOM     12  C   UNL     1       2.037 -37.180  18.932  1.00  0.00    -0.003 C 
ATOM     13  C   UNL     1       2.649 -36.960  17.552  1.00  0.00     0.004 C 
ENDBRANCH  11  12
ENDBRANCH  10  11
ENDBRANCH   9  10
ENDBRANCH   8   9
ENDBRANCH   1   8
TORSDOF 9
ENDMDL
MODEL 3
REMARK VINA RESULT:    -4.569      1.694      2.351
REMARK INTER + INTRA:          -7.402
REMARK INTER:                  -6.588
REMARK INTRA:                  -0.814
REMARK UNBOUND:                -0.428
REMARK SMILES CCCCCCCCCCC(=O)[O-]
REMARK SMILES IDX 7 1 8 2 9 3 10 4 11 5 12 6 13 7 6 8 5 9 4 10 3 11 2 12 1 13
REMARK H PARENT
REMARK Flexibility Score: inf
ROOT
ATOM      1  C   UNL     1      -8.536 -19.638  33.465  1.00  0.00     0.000 C 
ENDROOT
BRANCH   1   2
ATOM      2  C   UNL     1      -8.436 -18.214  32.899  1.00  0.00     0.000 C 
BRANCH   2   3
ATOM      3  C   UNL     1      -7.027 -17.934  32.365  1.00  0.00     0.006 C 
BRANCH   3   4
ATOM      4  C   UNL     1      -6.007 -17.875  33.507  1.00  0.00     0.053 C 
BRANCH   4   5
ATOM      5  C   UNL     1      -4.885 -18.832  33.257  1.00  0.00     0.041 C 
ATOM      6  O   UNL     1      -3.832 -18.768  33.945  1.00  0.00    -0.550 OA
ATOM      7  O   UNL     1      -5.020 -19.826  32.297  1.00  0.00    -0.550 OA
ENDBRANCH   4   5
ENDBRANCH   3   4
ENDBRANCH   2   3
ENDBRANCH   1   2
BRANCH   1   8
ATOM      8  C   UNL     1      -9.510 -20.528  32.674  1.00  0.00     0.000 C 
BRANCH   8   9
ATOM      9  C   UNL     1     -10.851 -19.860  32.306  1.00  0.00    -0.000 C 
BRANCH   9  10
ATOM     10  C   UNL     1     -11.180 -19.837  30.800  1.00  0.00    -0.000 C 
BRANCH  10  11
ATOM     11  C   UNL     1     -10.668 -18.599  30.042  1.00  0.00    -0.000 C 
BRANCH  11  12
ATOM     12  C   UNL     1      -9.360 -18.864  29.284  1.00  0.00    -0.003 C 
ATOM     13  C   UNL     1      -9.616 -19.033  27.789  1.00  0.00     0.004 C 
ENDBRANCH  11  12
ENDBRANCH  10  11
ENDBRANCH   9  10
ENDBRANCH   8   9
ENDBRANCH   1   8
TORSDOF 9
ENDMDL
MODEL 4
REMARK VINA RESULT:    -4.541      5.179      7.100
REMARK INTER + INTRA:          -7.359
REMARK INTER:                  -6.593
REMARK INTRA:                  -0.766
REMARK UNBOUND:                -0.428
REMARK SMILES CCCCCCCCCCC(=O)[O-]
REMARK SMILES IDX 7 1 8 2 9 3 10 4 11 5 12 6 13 7 6 8 5 9 4 10 3 11 2 12 1 13
REMARK H PARENT
REMARK Flexibility Score: inf
ROOT
ATOM      1  C   UNL     1     -11.315 -20.101  31.602  1.00  0.00     0.000 C 
ENDROOT
BRANCH   1   2
ATOM      2  C   UNL     1     -10.725 -18.687  31.508  1.00  0.00     0.000 C 
BRANCH   2   3
ATOM      3  C   UNL     1     -10.672 -18.210  30.053  1.00  0.00     0.006 C 
BRANCH   3   4
ATOM      4  C   UNL     1      -9.412 -18.726  29.350  1.00  0.00     0.053 C 
BRANCH   4   5
ATOM      5  C   UNL     1      -9.779 -19.554  28.160  1.00  0.00     0.041 C 
ATOM      6  O   UNL     1      -9.687 -19.073  27.000  1.00  0.00    -0.550 OA
ATOM      7  O   UNL     1     -10.175 -20.875  28.327  1.00  0.00    -0.550 OA
ENDBRANCH   4   5
ENDBRANCH   3   4
ENDBRANCH   2   3
ENDBRANCH   1   2
BRANCH   1   8
ATOM      8  C   UNL     1     -12.600 -20.158  32.447  1.00  0.00     0.000 C 
BRANCH   8   9
ATOM      9  C   UNL     1     -12.537 -19.387  33.782  1.00  0.00    -0.000 C 
BRANCH   9  10
ATOM     10  C   UNL     1     -11.737 -20.081  34.902  1.00  0.00    -0.000 C 
BRANCH  10  11
ATOM     11  C   UNL     1     -11.946 -21.602  35.003  1.00  0.00    -0.000 C 
BRANCH  11  12
ATOM     12  C   UNL     1     -10.663 -22.355  35.384  1.00  0.00    -0.003 C 
ATOM     13  C   UNL     1      -9.522 -22.014  34.431  1.00  0.00     0.004 C 
ENDBRANCH  11  12
ENDBRANCH  10  11
ENDBRANCH   9  10
ENDBRANCH   8   9
ENDBRANCH   1   8
TORSDOF 9
ENDMDL
MODEL 5
REMARK VINA RESULT:    -4.517     21.918     22.995
REMARK INTER + INTRA:          -7.322
REMARK INTER:                  -6.319
REMARK INTRA:                  -1.003
REMARK UNBOUND:                -0.428
REMARK SMILES CCCCCCCCCCC(=O)[O-]
REMARK SMILES IDX 7 1 8 2 9 3 10 4 11 5 12 6 13 7 6 8 5 9 4 10 3 11 2 12 1 13
REMARK H PARENT
REMARK Flexibility Score: inf
ROOT
ATOM      1  C   UNL     1       2.368 -35.969  21.801  1.00  0.00     0.000 C 
ENDROOT
BRANCH   1   2
ATOM      2  C   UNL     1       1.629 -37.279  21.489  1.00  0.00     0.000 C 
BRANCH   2   3
ATOM      3  C   UNL     1       0.162 -37.011  21.137  1.00  0.00     0.006 C 
BRANCH   3   4
ATOM      4  C   UNL     1      -0.214 -35.553  21.419  1.00  0.00     0.053 C 
BRANCH   4   5
ATOM      5  C   UNL     1      -1.695 -35.414  21.577  1.00  0.00     0.041 C 
ATOM      6  O   UNL     1      -2.475 -35.999  20.781  1.00  0.00    -0.550 OA
ATOM      7  O   UNL     1      -2.215 -34.678  22.634  1.00  0.00    -0.550 OA
ENDBRANCH   4   5
ENDBRANCH   3   4
ENDBRANCH   2   3
ENDBRANCH   1   2
BRANCH   1   8
ATOM      8  C   UNL     1       3.812 -36.196  22.282  1.00  0.00     0.000 C 
BRANCH   8   9
ATOM      9  C   UNL     1       4.554 -37.357  21.587  1.00  0.00    -0.000 C 
BRANCH   9  10
ATOM     10  C   UNL     1       5.194 -37.006  20.229  1.00  0.00    -0.000 C 
BRANCH  10  11
ATOM     11  C   UNL     1       4.438 -37.536  18.999  1.00  0.00    -0.000 C 
BRANCH  11  12
ATOM     12  C   UNL     1       3.609 -36.450  18.297  1.00  0.00    -0.003 C 
ATOM     13  C   UNL     1       2.263 -37.001  17.835  1.00  0.00     0.004 C 
ENDBRANCH  11  12
ENDBRANCH  10  11
ENDBRANCH   9  10
ENDBRANCH   8   9
ENDBRANCH   1   8
TORSDOF 9
ENDMDL
MODEL 6
REMARK VINA RESULT:    -4.482      1.636      2.759
REMARK INTER + INTRA:          -7.268
REMARK INTER:                  -6.558
REMARK INTRA:                  -0.710
REMARK UNBOUND:                -0.428
REMARK SMILES CCCCCCCCCCC(=O)[O-]
REMARK SMILES IDX 7 1 8 2 9 3 10 4 11 5 12 6 13 7 6 8 5 9 4 10 3 11 2 12 1 13
REMARK H PARENT
REMARK Flexibility Score: inf
ROOT
ATOM      1  C   UNL     1      -8.309 -18.164  31.792  1.00  0.00     0.000 C 
ENDROOT
BRANCH   1   2
ATOM      2  C   UNL     1      -7.551 -19.038  32.803  1.00  0.00     0.000 C 
BRANCH   2   3
ATOM      3  C   UNL     1      -6.046 -18.752  32.755  1.00  0.00     0.006 C 
BRANCH   3   4
ATOM      4  C   UNL     1      -5.238 -19.995  33.141  1.00  0.00     0.053 C 
BRANCH   4   5
ATOM      5  C   UNL     1      -4.097 -19.622  34.033  1.00  0.00     0.041 C 
ATOM      6  O   UNL     1      -3.774 -18.414  34.178  1.00  0.00    -0.550 OA
ATOM      7  O   UNL     1      -3.419 -20.605  34.743  1.00  0.00    -0.550 OA
ENDBRANCH   4   5
ENDBRANCH   3   4
ENDBRANCH   2   3
ENDBRANCH   1   2
BRANCH   1   8
ATOM      8  C   UNL     1      -8.137 -18.643  30.340  1.00  0.00     0.000 C 
BRANCH   8   9
ATOM      9  C   UNL     1      -9.451 -18.970  29.602  1.00  0.00    -0.000 C 
BRANCH   9  10
ATOM     10  C   UNL     1     -10.736 -18.767  30.430  1.00  0.00    -0.000 C 
BRANCH  10  11
ATOM     11  C   UNL     1     -11.400 -20.062  30.927  1.00  0.00    -0.000 C 
BRANCH  11  12
ATOM     12  C   UNL     1     -12.000 -19.922  32.334  1.00  0.00    -0.003 C 
ATOM     13  C   UNL     1     -10.988 -20.320  33.405  1.00  0.00     0.004 C 
ENDBRANCH  11  12
ENDBRANCH  10  11
ENDBRANCH   9  10
ENDBRANCH   8   9
ENDBRANCH   1   8
TORSDOF 9
ENDMDL
MODEL 7
REMARK VINA RESULT:    -4.442      4.371      5.404
REMARK INTER + INTRA:          -7.207
REMARK INTER:                  -6.344
REMARK INTRA:                  -0.863
REMARK UNBOUND:                -0.428
REMARK SMILES CCCCCCCCCCC(=O)[O-]
REMARK SMILES IDX 7 1 8 2 9 3 10 4 11 5 12 6 13 7 6 8 5 9 4 10 3 11 2 12 1 13
REMARK H PARENT
REMARK Flexibility Score: inf
ROOT
ATOM      1  C   UNL     1      -8.569 -18.968  33.353  1.00  0.00     0.000 C 
ENDROOT
BRANCH   1   2
ATOM      2  C   UNL     1      -8.790 -20.487  33.423  1.00  0.00     0.000 C 
BRANCH   2   3
ATOM      3  C   UNL     1     -10.226 -20.813  33.848  1.00  0.00     0.006 C 
BRANCH   3   4
ATOM      4  C   UNL     1     -11.081 -19.544  33.914  1.00  0.00     0.053 C 
BRANCH   4   5
ATOM      5  C   UNL     1     -12.309 -19.695  33.073  1.00  0.00     0.041 C 
ATOM      6  O   UNL     1     -12.267 -20.355  32.002  1.00  0.00    -0.550 OA
ATOM      7  O   UNL     1     -13.513 -19.147  33.497  1.00  0.00    -0.550 OA
ENDBRANCH   4   5
ENDBRANCH   3   4
ENDBRANCH   2   3
ENDBRANCH   1   2
BRANCH   1   8
ATOM      8  C   UNL     1      -7.726 -18.542  32.138  1.00  0.00     0.000 C 
BRANCH   8   9
ATOM      9  C   UNL     1      -8.425 -18.702  30.772  1.00  0.00    -0.000 C 
BRANCH   9  10
ATOM     10  C   UNL     1      -9.870 -18.170  30.709  1.00  0.00    -0.000 C 
BRANCH  10  11
ATOM     11  C   UNL     1     -10.591 -18.405  29.370  1.00  0.00    -0.000 C 
BRANCH  11  12
ATOM     12  C   UNL     1      -9.926 -19.496  28.519  1.00  0.00    -0.003 C 
ATOM     13  C   UNL     1      -9.639 -18.993  27.108  1.00  0.00     0.004 C 
ENDBRANCH  11  12
ENDBRANCH  10  11
ENDBRANCH   9  10
ENDBRANCH   8   9
ENDBRANCH   1   8
TORSDOF 9
ENDMDL
MODEL 8
REMARK VINA RESULT:    -4.436     22.049     23.297
REMARK INTER + INTRA:          -7.198
REMARK INTER:                  -6.046
REMARK INTRA:                  -1.152
REMARK UNBOUND:                -0.428
REMARK SMILES CCCCCCCCCCC(=O)[O-]
REMARK SMILES IDX 7 1 8 2 9 3 10 4 11 5 12 6 13 7 6 8 5 9 4 10 3 11 2 12 1 13
REMARK H PARENT
REMARK Flexibility Score: inf
ROOT
ATOM      1  C   UNL     1       1.740 -36.570  19.181  1.00  0.00     0.000 C 
ENDROOT
BRANCH   1   2
ATOM      2  C   UNL     1       1.073 -37.767  19.875  1.00  0.00     0.000 C 
BRANCH   2   3
ATOM      3  C   UNL     1       0.408 -37.339  21.187  1.00  0.00     0.006 C 
BRANCH   3   4
ATOM      4  C   UNL     1       0.078 -35.844  21.175  1.00  0.00     0.053 C 
BRANCH   4   5
ATOM      5  C   UNL     1      -1.380 -35.626  21.429  1.00  0.00     0.041 C 
ATOM      6  O   UNL     1      -1.758 -34.724  22.222  1.00  0.00    -0.550 OA
ATOM      7  O   UNL     1      -2.324 -36.388  20.753  1.00  0.00    -0.550 OA
ENDBRANCH   4   5
ENDBRANCH   3   4
ENDBRANCH   2   3
ENDBRANCH   1   2
BRANCH   1   8
ATOM      8  C   UNL     1       2.832 -36.990  18.182  1.00  0.00     0.000 C 
BRANCH   8   9
ATOM      9  C   UNL     1       4.273 -36.633  18.603  1.00  0.00    -0.000 C 
BRANCH   9  10
ATOM     10  C   UNL     1       4.863 -37.507  19.727  1.00  0.00    -0.000 C 
BRANCH  10  11
ATOM     11  C   UNL     1       5.179 -36.760  21.034  1.00  0.00    -0.000 C 
BRANCH  11  12
ATOM     12  C   UNL     1       4.056 -36.880  22.075  1.00  0.00    -0.003 C 
ATOM     13  C   UNL     1       3.538 -35.505  22.485  1.00  0.00     0.004 C 
ENDBRANCH  11  12
ENDBRANCH  10  11
ENDBRANCH   9  10
ENDBRANCH   8   9
ENDBRANCH   1   8
TORSDOF 9
ENDMDL
MODEL 9
REMARK VINA RESULT:    -4.417      2.041      3.494
REMARK INTER + INTRA:          -7.169
REMARK INTER:                  -6.150
REMARK INTRA:                  -1.019
REMARK UNBOUND:                -0.428
REMARK SMILES CCCCCCCCCCC(=O)[O-]
REMARK SMILES IDX 7 1 8 2 9 3 10 4 11 5 12 6 13 7 6 8 5 9 4 10 3 11 2 12 1 13
REMARK H PARENT
REMARK Flexibility Score: inf
ROOT
ATOM      1  C   UNL     1      -8.143 -18.952  30.697  1.00  0.00     0.000 C 
ENDROOT
BRANCH   1   2
ATOM      2  C   UNL     1      -8.216 -18.096  31.970  1.00  0.00     0.000 C 
BRANCH   2   3
ATOM      3  C   UNL     1      -7.580 -18.825  33.158  1.00  0.00     0.006 C 
BRANCH   3   4
ATOM      4  C   UNL     1      -6.365 -18.056  33.688  1.00  0.00     0.053 C 
BRANCH   4   5
ATOM      5  C   UNL     1      -5.098 -18.765  33.328  1.00  0.00     0.041 C 
ATOM      6  O   UNL     1      -3.983 -18.252  33.608  1.00  0.00    -0.550 OA
ATOM      7  O   UNL     1      -5.149 -20.015  32.725  1.00  0.00    -0.550 OA
ENDBRANCH   4   5
ENDBRANCH   3   4
ENDBRANCH   2   3
ENDBRANCH   1   2
BRANCH   1   8
ATOM      8  C   UNL     1      -9.260 -18.625  29.690  1.00  0.00     0.000 C 
BRANCH   8   9
ATOM      9  C   UNL     1     -10.693 -18.713  30.256  1.00  0.00    -0.000 C 
BRANCH   9  10
ATOM     10  C   UNL     1     -11.120 -20.113  30.740  1.00  0.00    -0.000 C 
BRANCH  10  11
ATOM     11  C   UNL     1     -11.972 -20.125  32.021  1.00  0.00    -0.000 C 
BRANCH  11  12
ATOM     12  C   UNL     1     -11.123 -20.131  33.301  1.00  0.00    -0.003 C 
ATOM     13  C   UNL     1     -11.259 -18.813  34.057  1.00  0.00     0.004 C 
ENDBRANCH  11  12
ENDBRANCH  10  11
ENDBRANCH   9  10
ENDBRANCH   8   9
ENDBRANCH   1   8
TORSDOF 9
ENDMDL
