MODEL 1
REMARK VINA RESULT:    -4.303      0.000      0.000
REMARK INTER + INTRA:         -14.899
REMARK INTER:                 -10.844
REMARK INTRA:                  -4.056
REMARK UNBOUND:                -4.056
REMARK SMILES CCCCCCCCCCCCCCCCCCCCCCCCCCCC(=O)[O-]
REMARK SMILES IDX 15 1 16 2 17 3 18 4 19 5 20 6 21 7 22 8 23 9 24 10 25 11
REMARK SMILES IDX 26 12 27 13 28 14 29 15 30 16 14 17 13 18 12 19 11 20 10 21
REMARK SMILES IDX 9 22 8 23 7 24 6 25 5 26 4 27 3 28 2 29 1 30
REMARK H PARENT
REMARK Flexibility Score: inf
ROOT
ATOM      1  C   UNL     1       9.071  -1.085  44.391  1.00  0.00     0.000 C 
ENDROOT
BRANCH   1   2
ATOM      2  C   UNL     1      10.290  -0.368  44.989  1.00  0.00     0.000 C 
BRANCH   2   3
ATOM      3  C   UNL     1      11.180   0.220  43.883  1.00  0.00     0.000 C 
BRANCH   3   4
ATOM      4  C   UNL     1      12.185  -0.801  43.323  1.00  0.00     0.000 C 
BRANCH   4   5
ATOM      5  C   UNL     1      12.212  -0.824  41.786  1.00  0.00     0.000 C 
BRANCH   5   6
ATOM      6  C   UNL     1      12.252  -2.268  41.257  1.00  0.00     0.000 C 
BRANCH   6   7
ATOM      7  C   UNL     1      12.046  -3.311  42.367  1.00  0.00     0.000 C 
BRANCH   7   8
ATOM      8  C   UNL     1      10.783  -4.165  42.157  1.00  0.00     0.000 C 
BRANCH   8   9
ATOM      9  C   UNL     1      10.811  -4.952  40.834  1.00  0.00     0.000 C 
BRANCH   9  10
ATOM     10  C   UNL     1       9.430  -5.225  40.212  1.00  0.00     0.000 C 
BRANCH  10  11
ATOM     11  C   UNL     1       8.465  -5.920  41.188  1.00  0.00     0.000 C 
BRANCH  11  12
ATOM     12  C   UNL     1       8.853  -7.383  41.453  1.00  0.00     0.006 C 
BRANCH  12  13
ATOM     13  C   UNL     1       7.971  -8.039  42.523  1.00  0.00     0.053 C 
BRANCH  13  14
ATOM     14  C   UNL     1       8.506  -7.753  43.891  1.00  0.00     0.041 C 
ATOM     15  O   UNL     1       9.671  -8.115  44.205  1.00  0.00    -0.550 OA
ATOM     16  O   UNL     1       7.727  -7.063  44.812  1.00  0.00    -0.550 OA
ENDBRANCH  13  14
ENDBRANCH  12  13
ENDBRANCH  11  12
ENDBRANCH  10  11
ENDBRANCH   9  10
ENDBRANCH   8   9
ENDBRANCH   7   8
ENDBRANCH   6   7
ENDBRANCH   5   6
ENDBRANCH   4   5
ENDBRANCH   3   4
ENDBRANCH   2   3
ENDBRANCH   1   2
BRANCH   1  17
ATOM     17  C   UNL     1       8.623  -0.482  43.047  1.00  0.00     0.000 C 
BRANCH  17  18
ATOM     18  C   UNL     1       8.564  -1.482  41.879  1.00  0.00     0.000 C 
BRANCH  18  19
ATOM     19  C   UNL     1       8.729  -0.807  40.509  1.00  0.00     0.000 C 
BRANCH  19  20
ATOM     20  C   UNL     1       8.614  -1.833  39.374  1.00  0.00     0.000 C 
BRANCH  20  21
ATOM     21  C   UNL     1       7.344  -2.683  39.525  1.00  0.00     0.000 C 
BRANCH  21  22
ATOM     22  C   UNL     1       6.323  -2.430  38.403  1.00  0.00    -0.000 C 
BRANCH  22  23
ATOM     23  C   UNL     1       6.608  -1.133  37.626  1.00  0.00    -0.000 C 
BRANCH  23  24
ATOM     24  C   UNL     1       5.568  -0.854  36.526  1.00  0.00    -0.000 C 
BRANCH  24  25
ATOM     25  C   UNL     1       5.847  -1.533  35.169  1.00  0.00    -0.000 C 
BRANCH  25  26
ATOM     26  C   UNL     1       7.216  -2.227  35.053  1.00  0.00    -0.000 C 
BRANCH  26  27
ATOM     27  C   UNL     1       7.190  -3.753  35.259  1.00  0.00    -0.000 C 
BRANCH  27  28
ATOM     28  C   UNL     1       8.591  -4.399  35.304  1.00  0.00    -0.000 C 
BRANCH  28  29
ATOM     29  C   UNL     1       9.359  -4.056  36.590  1.00  0.00    -0.003 C 
ATOM     30  C   UNL     1      10.867  -4.154  36.371  1.00  0.00     0.004 C 
ENDBRANCH  28  29
ENDBRANCH  27  28
ENDBRANCH  26  27
ENDBRANCH  25  26
ENDBRANCH  24  25
ENDBRANCH  23  24
ENDBRANCH  22  23
ENDBRANCH  21  22
ENDBRANCH  20  21
ENDBRANCH  19  20
ENDBRANCH  18  19
ENDBRANCH  17  18
ENDBRANCH   1  17
TORSDOF 26
ENDMDL
MODEL 2
REMARK VINA RESULT:    -4.296      1.654      3.848
REMARK INTER + INTRA:         -14.882
REMARK INTER:                 -11.130
REMARK INTRA:                  -3.752
REMARK UNBOUND:                -4.056
REMARK SMILES CCCCCCCCCCCCCCCCCCCCCCCCCCCC(=O)[O-]
REMARK SMILES IDX 15 1 16 2 17 3 18 4 19 5 20 6 21 7 22 8 23 9 24 10 25 11
REMARK SMILES IDX 26 12 27 13 28 14 29 15 30 16 14 17 13 18 12 19 11 20 10 21
REMARK SMILES IDX 9 22 8 23 7 24 6 25 5 26 4 27 3 28 2 29 1 30
REMARK H PARENT
REMARK Flexibility Score: inf
ROOT
ATOM      1  C   UNL     1      12.786  -0.644  43.498  1.00  0.00     0.000 C 
ENDROOT
BRANCH   1   2
ATOM      2  C   UNL     1      12.187   0.012  44.751  1.00  0.00     0.000 C 
BRANCH   2   3
ATOM      3  C   UNL     1      10.721   0.412  44.516  1.00  0.00     0.000 C 
BRANCH   3   4
ATOM      4  C   UNL     1       9.750  -0.304  45.470  1.00  0.00     0.000 C 
BRANCH   4   5
ATOM      5  C   UNL     1       8.589  -0.988  44.731  1.00  0.00     0.000 C 
BRANCH   5   6
ATOM      6  C   UNL     1       8.927  -1.196  43.245  1.00  0.00     0.000 C 
BRANCH   6   7
ATOM      7  C   UNL     1       9.436  -2.616  42.947  1.00  0.00     0.000 C 
BRANCH   7   8
ATOM      8  C   UNL     1       8.418  -3.461  42.162  1.00  0.00     0.000 C 
BRANCH   8   9
ATOM      9  C   UNL     1       7.485  -4.274  43.079  1.00  0.00     0.000 C 
BRANCH   9  10
ATOM     10  C   UNL     1       7.838  -5.767  43.205  1.00  0.00     0.000 C 
BRANCH  10  11
ATOM     11  C   UNL     1       9.184  -6.117  42.547  1.00  0.00     0.000 C 
BRANCH  11  12
ATOM     12  C   UNL     1       9.084  -7.346  41.629  1.00  0.00     0.006 C 
BRANCH  12  13
ATOM     13  C   UNL     1       7.655  -7.896  41.541  1.00  0.00     0.053 C 
BRANCH  13  14
ATOM     14  C   UNL     1       7.613  -9.322  41.996  1.00  0.00     0.041 C 
ATOM     15  O   UNL     1       7.554 -10.255  41.152  1.00  0.00    -0.550 OA
ATOM     16  O   UNL     1       7.666  -9.621  43.351  1.00  0.00    -0.550 OA
ENDBRANCH  13  14
ENDBRANCH  12  13
ENDBRANCH  11  12
ENDBRANCH  10  11
ENDBRANCH   9  10
ENDBRANCH   8   9
ENDBRANCH   7   8
ENDBRANCH   6   7
ENDBRANCH   5   6
ENDBRANCH   4   5
ENDBRANCH   3   4
ENDBRANCH   2   3
ENDBRANCH   1   2
BRANCH   1  17
ATOM     17  C   UNL     1      12.505   0.156  42.213  1.00  0.00     0.000 C 
BRANCH  17  18
ATOM     18  C   UNL     1      11.900  -0.665  41.061  1.00  0.00     0.000 C 
BRANCH  18  19
ATOM     19  C   UNL     1      12.924  -1.003  39.968  1.00  0.00     0.000 C 
BRANCH  19  20
ATOM     20  C   UNL     1      13.019  -2.519  39.755  1.00  0.00     0.000 C 
BRANCH  20  21
ATOM     21  C   UNL     1      12.223  -3.278  40.827  1.00  0.00     0.000 C 
BRANCH  21  22
ATOM     22  C   UNL     1      11.410  -4.447  40.247  1.00  0.00    -0.000 C 
BRANCH  22  23
ATOM     23  C   UNL     1      10.909  -4.168  38.819  1.00  0.00    -0.000 C 
BRANCH  23  24
ATOM     24  C   UNL     1       9.762  -3.143  38.777  1.00  0.00    -0.000 C 
BRANCH  24  25
ATOM     25  C   UNL     1       8.379  -3.719  38.408  1.00  0.00    -0.000 C 
BRANCH  25  26
ATOM     26  C   UNL     1       7.174  -2.948  38.978  1.00  0.00    -0.000 C 
BRANCH  26  27
ATOM     27  C   UNL     1       6.211  -2.377  37.921  1.00  0.00    -0.000 C 
BRANCH  27  28
ATOM     28  C   UNL     1       6.711  -2.541  36.470  1.00  0.00    -0.000 C 
BRANCH  28  29
ATOM     29  C   UNL     1       6.834  -1.198  35.733  1.00  0.00    -0.003 C 
ATOM     30  C   UNL     1       5.458  -0.610  35.431  1.00  0.00     0.004 C 
ENDBRANCH  28  29
ENDBRANCH  27  28
ENDBRANCH  26  27
ENDBRANCH  25  26
ENDBRANCH  24  25
ENDBRANCH  23  24
ENDBRANCH  22  23
ENDBRANCH  21  22
ENDBRANCH  20  21
ENDBRANCH  19  20
ENDBRANCH  18  19
ENDBRANCH  17  18
ENDBRANCH   1  17
TORSDOF 26
ENDMDL
MODEL 3
REMARK VINA RESULT:    -4.294      4.976      9.638
REMARK INTER + INTRA:         -14.876
REMARK INTER:                 -11.952
REMARK INTRA:                  -2.924
REMARK UNBOUND:                -4.056
REMARK SMILES CCCCCCCCCCCCCCCCCCCCCCCCCCCC(=O)[O-]
REMARK SMILES IDX 15 1 16 2 17 3 18 4 19 5 20 6 21 7 22 8 23 9 24 10 25 11
REMARK SMILES IDX 26 12 27 13 28 14 29 15 30 16 14 17 13 18 12 19 11 20 10 21
REMARK SMILES IDX 9 22 8 23 7 24 6 25 5 26 4 27 3 28 2 29 1 30
REMARK H PARENT
REMARK Flexibility Score: inf
ROOT
ATOM      1  C   UNL     1       7.809  -9.257  43.160  1.00  0.00     0.000 C 
ENDROOT
BRANCH   1   2
ATOM      2  C   UNL     1       8.693  -8.294  43.967  1.00  0.00     0.000 C 
BRANCH   2   3
ATOM      3  C   UNL     1       9.082  -7.069  43.125  1.00  0.00     0.000 C 
BRANCH   3   4
ATOM      4  C   UNL     1       8.324  -7.000  41.789  1.00  0.00     0.000 C 
BRANCH   4   5
ATOM      5  C   UNL     1       7.518  -5.701  41.630  1.00  0.00     0.000 C 
BRANCH   5   6
ATOM      6  C   UNL     1       7.430  -4.939  42.964  1.00  0.00     0.000 C 
BRANCH   6   7
ATOM      7  C   UNL     1       7.955  -3.498  42.857  1.00  0.00     0.000 C 
BRANCH   7   8
ATOM      8  C   UNL     1       9.392  -3.425  42.311  1.00  0.00     0.000 C 
BRANCH   8   9
ATOM      9  C   UNL     1       9.445  -3.015  40.827  1.00  0.00     0.000 C 
BRANCH   9  10
ATOM     10  C   UNL     1       8.399  -1.966  40.407  1.00  0.00     0.000 C 
BRANCH  10  11
ATOM     11  C   UNL     1       7.459  -2.473  39.301  1.00  0.00     0.000 C 
BRANCH  11  12
ATOM     12  C   UNL     1       7.947  -3.789  38.675  1.00  0.00     0.006 C 
BRANCH  12  13
ATOM     13  C   UNL     1       8.731  -3.564  37.376  1.00  0.00     0.053 C 
BRANCH  13  14
ATOM     14  C   UNL     1       7.902  -3.950  36.190  1.00  0.00     0.041 C 
ATOM     15  O   UNL     1       8.379  -4.703  35.301  1.00  0.00    -0.550 OA
ATOM     16  O   UNL     1       6.593  -3.498  36.081  1.00  0.00    -0.550 OA
ENDBRANCH  13  14
ENDBRANCH  12  13
ENDBRANCH  11  12
ENDBRANCH  10  11
ENDBRANCH   9  10
ENDBRANCH   8   9
ENDBRANCH   7   8
ENDBRANCH   6   7
ENDBRANCH   5   6
ENDBRANCH   4   5
ENDBRANCH   3   4
ENDBRANCH   2   3
ENDBRANCH   1   2
BRANCH   1  17
ATOM     17  C   UNL     1       7.221 -10.390  44.021  1.00  0.00     0.000 C 
BRANCH  17  18
ATOM     18  C   UNL     1       6.191 -11.279  43.301  1.00  0.00     0.000 C 
BRANCH  18  19
ATOM     19  C   UNL     1       5.748 -10.702  41.948  1.00  0.00     0.000 C 
BRANCH  19  20
ATOM     20  C   UNL     1       5.639 -11.806  40.890  1.00  0.00     0.000 C 
BRANCH  20  21
ATOM     21  C   UNL     1       6.702 -11.629  39.796  1.00  0.00     0.000 C 
BRANCH  21  22
ATOM     22  C   UNL     1       6.776 -12.830  38.838  1.00  0.00    -0.000 C 
BRANCH  22  23
ATOM     23  C   UNL     1       7.971 -13.751  39.135  1.00  0.00    -0.000 C 
BRANCH  23  24
ATOM     24  C   UNL     1       9.061 -13.064  39.978  1.00  0.00    -0.000 C 
BRANCH  24  25
ATOM     25  C   UNL     1      10.291 -13.938  40.301  1.00  0.00    -0.000 C 
BRANCH  25  26
ATOM     26  C   UNL     1      10.058 -15.457  40.206  1.00  0.00    -0.000 C 
BRANCH  26  27
ATOM     27  C   UNL     1       9.979 -16.187  41.561  1.00  0.00    -0.000 C 
BRANCH  27  28
ATOM     28  C   UNL     1      10.360 -15.302  42.767  1.00  0.00    -0.000 C 
BRANCH  28  29
ATOM     29  C   UNL     1       9.234 -15.209  43.809  1.00  0.00    -0.003 C 
ATOM     30  C   UNL     1       8.002 -14.522  43.226  1.00  0.00     0.004 C 
ENDBRANCH  28  29
ENDBRANCH  27  28
ENDBRANCH  26  27
ENDBRANCH  25  26
ENDBRANCH  24  25
ENDBRANCH  23  24
ENDBRANCH  22  23
ENDBRANCH  21  22
ENDBRANCH  20  21
ENDBRANCH  19  20
ENDBRANCH  18  19
ENDBRANCH  17  18
ENDBRANCH   1  17
TORSDOF 26
ENDMDL
MODEL 4
REMARK VINA RESULT:    -4.250     14.187     17.538
REMARK INTER + INTRA:         -14.765
REMARK INTER:                  -8.842
REMARK INTRA:                  -5.923
REMARK UNBOUND:                -4.056
REMARK SMILES CCCCCCCCCCCCCCCCCCCCCCCCCCCC(=O)[O-]
REMARK SMILES IDX 15 1 16 2 17 3 18 4 19 5 20 6 21 7 22 8 23 9 24 10 25 11
REMARK SMILES IDX 26 12 27 13 28 14 29 15 30 16 14 17 13 18 12 19 11 20 10 21
REMARK SMILES IDX 9 22 8 23 7 24 6 25 5 26 4 27 3 28 2 29 1 30
REMARK H PARENT
REMARK Flexibility Score: inf
ROOT
ATOM      1  C   UNL     1      23.711 -10.122  45.495  1.00  0.00     0.000 C 
ENDROOT
BRANCH   1   2
ATOM      2  C   UNL     1      24.937 -10.517  46.332  1.00  0.00     0.000 C 
BRANCH   2   3
ATOM      3  C   UNL     1      24.573 -11.596  47.365  1.00  0.00     0.000 C 
BRANCH   3   4
ATOM      4  C   UNL     1      24.983 -13.009  46.918  1.00  0.00     0.000 C 
BRANCH   4   5
ATOM      5  C   UNL     1      23.839 -14.027  47.045  1.00  0.00     0.000 C 
BRANCH   5   6
ATOM      6  C   UNL     1      22.470 -13.327  46.995  1.00  0.00     0.000 C 
BRANCH   6   7
ATOM      7  C   UNL     1      21.351 -14.254  46.491  1.00  0.00     0.000 C 
BRANCH   7   8
ATOM      8  C   UNL     1      20.277 -13.506  45.681  1.00  0.00     0.000 C 
BRANCH   8   9
ATOM      9  C   UNL     1      20.680 -12.057  45.353  1.00  0.00     0.000 C 
BRANCH   9  10
ATOM     10  C   UNL     1      19.651 -11.270  44.521  1.00  0.00     0.000 C 
BRANCH  10  11
ATOM     11  C   UNL     1      20.160 -10.932  43.110  1.00  0.00     0.000 C 
BRANCH  11  12
ATOM     12  C   UNL     1      19.014 -10.757  42.101  1.00  0.00     0.006 C 
BRANCH  12  13
ATOM     13  C   UNL     1      17.635 -10.974  42.738  1.00  0.00     0.053 C 
BRANCH  13  14
ATOM     14  C   UNL     1      16.671  -9.928  42.272  1.00  0.00     0.041 C 
ATOM     15  O   UNL     1      16.880  -8.713  42.531  1.00  0.00    -0.550 OA
ATOM     16  O   UNL     1      15.556 -10.292  41.528  1.00  0.00    -0.550 OA
ENDBRANCH  13  14
ENDBRANCH  12  13
ENDBRANCH  11  12
ENDBRANCH  10  11
ENDBRANCH   9  10
ENDBRANCH   8   9
ENDBRANCH   7   8
ENDBRANCH   6   7
ENDBRANCH   5   6
ENDBRANCH   4   5
ENDBRANCH   3   4
ENDBRANCH   2   3
ENDBRANCH   1   2
BRANCH   1  17
ATOM     17  C   UNL     1      23.790 -10.632  44.044  1.00  0.00     0.000 C 
BRANCH  17  18
ATOM     18  C   UNL     1      25.116 -11.318  43.673  1.00  0.00     0.000 C 
BRANCH  18  19
ATOM     19  C   UNL     1      24.928 -12.777  43.230  1.00  0.00     0.000 C 
BRANCH  19  20
ATOM     20  C   UNL     1      23.445 -13.167  43.239  1.00  0.00     0.000 C 
BRANCH  20  21
ATOM     21  C   UNL     1      23.273 -14.677  43.465  1.00  0.00     0.000 C 
BRANCH  21  22
ATOM     22  C   UNL     1      24.612 -15.403  43.674  1.00  0.00    -0.000 C 
BRANCH  22  23
ATOM     23  C   UNL     1      24.486 -16.617  44.610  1.00  0.00    -0.000 C 
BRANCH  23  24
ATOM     24  C   UNL     1      23.024 -16.974  44.934  1.00  0.00    -0.000 C 
BRANCH  24  25
ATOM     25  C   UNL     1      22.470 -18.210  44.196  1.00  0.00    -0.000 C 
BRANCH  25  26
ATOM     26  C   UNL     1      21.169 -17.973  43.408  1.00  0.00    -0.000 C 
BRANCH  26  27
ATOM     27  C   UNL     1      20.326 -16.779  43.892  1.00  0.00    -0.000 C 
BRANCH  27  28
ATOM     28  C   UNL     1      19.057 -16.530  43.049  1.00  0.00    -0.000 C 
BRANCH  28  29
ATOM     29  C   UNL     1      18.832 -15.040  42.747  1.00  0.00    -0.003 C 
ATOM     30  C   UNL     1      19.965 -14.477  41.892  1.00  0.00     0.004 C 
ENDBRANCH  28  29
ENDBRANCH  27  28
ENDBRANCH  26  27
ENDBRANCH  25  26
ENDBRANCH  24  25
ENDBRANCH  23  24
ENDBRANCH  22  23
ENDBRANCH  21  22
ENDBRANCH  20  21
ENDBRANCH  19  20
ENDBRANCH  18  19
ENDBRANCH  17  18
ENDBRANCH   1  17
TORSDOF 26
ENDMDL
MODEL 5
REMARK VINA RESULT:    -4.208      3.086      5.254
REMARK INTER + INTRA:         -14.660
REMARK INTER:                 -11.810
REMARK INTRA:                  -2.850
REMARK UNBOUND:                -4.056
REMARK SMILES CCCCCCCCCCCCCCCCCCCCCCCCCCCC(=O)[O-]
REMARK SMILES IDX 15 1 16 2 17 3 18 4 19 5 20 6 21 7 22 8 23 9 24 10 25 11
REMARK SMILES IDX 26 12 27 13 28 14 29 15 30 16 14 17 13 18 12 19 11 20 10 21
REMARK SMILES IDX 9 22 8 23 7 24 6 25 5 26 4 27 3 28 2 29 1 30
REMARK H PARENT
REMARK Flexibility Score: inf
ROOT
ATOM      1  C   UNL     1       9.750  -4.271  42.331  1.00  0.00     0.000 C 
ENDROOT
BRANCH   1   2
ATOM      2  C   UNL     1       8.309  -3.945  42.753  1.00  0.00     0.000 C 
BRANCH   2   3
ATOM      3  C   UNL     1       7.401  -5.176  42.606  1.00  0.00     0.000 C 
BRANCH   3   4
ATOM      4  C   UNL     1       7.713  -5.998  41.344  1.00  0.00     0.000 C 
BRANCH   4   5
ATOM      5  C   UNL     1       7.833  -7.503  41.631  1.00  0.00     0.000 C 
BRANCH   5   6
ATOM      6  C   UNL     1       9.190  -7.836  42.275  1.00  0.00     0.000 C 
BRANCH   6   7
ATOM      7  C   UNL     1       9.063  -8.210  43.761  1.00  0.00     0.000 C 
BRANCH   7   8
ATOM      8  C   UNL     1       7.663  -8.736  44.126  1.00  0.00     0.000 C 
BRANCH   8   9
ATOM      9  C   UNL     1       7.614 -10.272  44.234  1.00  0.00     0.000 C 
BRANCH   9  10
ATOM     10  C   UNL     1       6.239 -10.899  43.944  1.00  0.00     0.000 C 
BRANCH  10  11
ATOM     11  C   UNL     1       6.167 -11.560  42.557  1.00  0.00     0.000 C 
BRANCH  11  12
ATOM     12  C   UNL     1       5.889 -10.544  41.438  1.00  0.00     0.006 C 
BRANCH  12  13
ATOM     13  C   UNL     1       6.728 -10.812  40.182  1.00  0.00     0.053 C 
BRANCH  13  14
ATOM     14  C   UNL     1       6.800 -12.281  39.903  1.00  0.00     0.041 C 
ATOM     15  O   UNL     1       5.797 -12.890  39.447  1.00  0.00    -0.550 OA
ATOM     16  O   UNL     1       7.986 -12.972  40.121  1.00  0.00    -0.550 OA
ENDBRANCH  13  14
ENDBRANCH  12  13
ENDBRANCH  11  12
ENDBRANCH  10  11
ENDBRANCH   9  10
ENDBRANCH   8   9
ENDBRANCH   7   8
ENDBRANCH   6   7
ENDBRANCH   5   6
ENDBRANCH   4   5
ENDBRANCH   3   4
ENDBRANCH   2   3
ENDBRANCH   1   2
BRANCH   1  17
ATOM     17  C   UNL     1      10.323  -3.253  41.329  1.00  0.00     0.000 C 
BRANCH  17  18
ATOM     18  C   UNL     1       9.658  -3.269  39.941  1.00  0.00     0.000 C 
BRANCH  18  19
ATOM     19  C   UNL     1       8.835  -2.003  39.660  1.00  0.00     0.000 C 
BRANCH  19  20
ATOM     20  C   UNL     1       7.374  -2.355  39.353  1.00  0.00     0.000 C 
BRANCH  20  21
ATOM     21  C   UNL     1       7.279  -3.327  38.168  1.00  0.00     0.000 C 
BRANCH  21  22
ATOM     22  C   UNL     1       7.334  -2.613  36.807  1.00  0.00    -0.000 C 
BRANCH  22  23
ATOM     23  C   UNL     1       7.057  -3.563  35.629  1.00  0.00    -0.000 C 
BRANCH  23  24
ATOM     24  C   UNL     1       8.241  -4.499  35.324  1.00  0.00    -0.000 C 
BRANCH  24  25
ATOM     25  C   UNL     1       9.626  -3.967  35.747  1.00  0.00    -0.000 C 
BRANCH  25  26
ATOM     26  C   UNL     1      10.805  -4.455  34.886  1.00  0.00    -0.000 C 
BRANCH  26  27
ATOM     27  C   UNL     1      10.484  -4.639  33.391  1.00  0.00    -0.000 C 
BRANCH  27  28
ATOM     28  C   UNL     1      11.469  -5.571  32.653  1.00  0.00    -0.000 C 
BRANCH  28  29
ATOM     29  C   UNL     1      10.813  -6.886  32.205  1.00  0.00    -0.003 C 
ATOM     30  C   UNL     1      10.552  -7.803  33.398  1.00  0.00     0.004 C 
ENDBRANCH  28  29
ENDBRANCH  27  28
ENDBRANCH  26  27
ENDBRANCH  25  26
ENDBRANCH  24  25
ENDBRANCH  23  24
ENDBRANCH  22  23
ENDBRANCH  21  22
ENDBRANCH  20  21
ENDBRANCH  19  20
ENDBRANCH  18  19
ENDBRANCH  17  18
ENDBRANCH   1  17
TORSDOF 26
ENDMDL
MODEL 6
REMARK VINA RESULT:    -4.176      2.870      6.773
REMARK INTER + INTRA:         -14.579
REMARK INTER:                 -10.444
REMARK INTRA:                  -4.135
REMARK UNBOUND:                -4.056
REMARK SMILES CCCCCCCCCCCCCCCCCCCCCCCCCCCC(=O)[O-]
REMARK SMILES IDX 15 1 16 2 17 3 18 4 19 5 20 6 21 7 22 8 23 9 24 10 25 11
REMARK SMILES IDX 26 12 27 13 28 14 29 15 30 16 14 17 13 18 12 19 11 20 10 21
REMARK SMILES IDX 9 22 8 23 7 24 6 25 5 26 4 27 3 28 2 29 1 30
REMARK H PARENT
REMARK Flexibility Score: inf
ROOT
ATOM      1  C   UNL     1       8.996  -0.865  43.218  1.00  0.00     0.000 C 
ENDROOT
BRANCH   1   2
ATOM      2  C   UNL     1       8.828   0.463  42.463  1.00  0.00     0.000 C 
BRANCH   2   3
ATOM      3  C   UNL     1       8.464   0.216  40.990  1.00  0.00     0.000 C 
BRANCH   3   4
ATOM      4  C   UNL     1       8.547  -1.269  40.598  1.00  0.00     0.000 C 
BRANCH   4   5
ATOM      5  C   UNL     1       7.741  -1.593  39.330  1.00  0.00     0.000 C 
BRANCH   5   6
ATOM      6  C   UNL     1       7.447  -3.099  39.233  1.00  0.00     0.000 C 
BRANCH   6   7
ATOM      7  C   UNL     1       8.096  -3.750  38.000  1.00  0.00     0.000 C 
BRANCH   7   8
ATOM      8  C   UNL     1       7.762  -3.012  36.692  1.00  0.00     0.000 C 
BRANCH   8   9
ATOM      9  C   UNL     1       7.458  -3.972  35.527  1.00  0.00     0.000 C 
BRANCH   9  10
ATOM     10  C   UNL     1       8.691  -4.665  34.919  1.00  0.00     0.000 C 
BRANCH  10  11
ATOM     11  C   UNL     1       9.847  -3.689  34.643  1.00  0.00     0.000 C 
BRANCH  11  12
ATOM     12  C   UNL     1      11.206  -4.247  35.093  1.00  0.00     0.006 C 
BRANCH  12  13
ATOM     13  C   UNL     1      12.366  -3.298  34.767  1.00  0.00     0.053 C 
BRANCH  13  14
ATOM     14  C   UNL     1      13.261  -3.136  35.956  1.00  0.00     0.041 C 
ATOM     15  O   UNL     1      14.443  -2.727  35.809  1.00  0.00    -0.550 OA
ATOM     16  O   UNL     1      12.781  -3.411  37.230  1.00  0.00    -0.550 OA
ENDBRANCH  13  14
ENDBRANCH  12  13
ENDBRANCH  11  12
ENDBRANCH  10  11
ENDBRANCH   9  10
ENDBRANCH   8   9
ENDBRANCH   7   8
ENDBRANCH   6   7
ENDBRANCH   5   6
ENDBRANCH   4   5
ENDBRANCH   3   4
ENDBRANCH   2   3
ENDBRANCH   1   2
BRANCH   1  17
ATOM     17  C   UNL     1       9.889  -0.734  44.465  1.00  0.00     0.000 C 
BRANCH  17  18
ATOM     18  C   UNL     1      11.245  -0.050  44.218  1.00  0.00     0.000 C 
BRANCH  18  19
ATOM     19  C   UNL     1      12.265  -0.977  43.541  1.00  0.00     0.000 C 
BRANCH  19  20
ATOM     20  C   UNL     1      12.673  -0.434  42.166  1.00  0.00     0.000 C 
BRANCH  20  21
ATOM     21  C   UNL     1      12.259  -1.401  41.046  1.00  0.00     0.000 C 
BRANCH  21  22
ATOM     22  C   UNL     1      11.869  -2.791  41.575  1.00  0.00    -0.000 C 
BRANCH  22  23
ATOM     23  C   UNL     1      11.374  -3.729  40.461  1.00  0.00    -0.000 C 
BRANCH  23  24
ATOM     24  C   UNL     1      10.278  -4.698  40.938  1.00  0.00    -0.000 C 
BRANCH  24  25
ATOM     25  C   UNL     1       9.781  -4.471  42.381  1.00  0.00    -0.000 C 
BRANCH  25  26
ATOM     26  C   UNL     1       8.261  -4.274  42.526  1.00  0.00    -0.000 C 
BRANCH  26  27
ATOM     27  C   UNL     1       7.462  -5.564  42.789  1.00  0.00    -0.000 C 
BRANCH  27  28
ATOM     28  C   UNL     1       7.661  -6.650  41.710  1.00  0.00    -0.000 C 
BRANCH  28  29
ATOM     29  C   UNL     1       8.429  -7.872  42.237  1.00  0.00    -0.003 C 
ATOM     30  C   UNL     1       8.274  -8.006  43.750  1.00  0.00     0.004 C 
ENDBRANCH  28  29
ENDBRANCH  27  28
ENDBRANCH  26  27
ENDBRANCH  25  26
ENDBRANCH  24  25
ENDBRANCH  23  24
ENDBRANCH  22  23
ENDBRANCH  21  22
ENDBRANCH  20  21
ENDBRANCH  19  20
ENDBRANCH  18  19
ENDBRANCH  17  18
ENDBRANCH   1  17
TORSDOF 26
ENDMDL
MODEL 7
REMARK VINA RESULT:    -4.128      1.669      3.552
REMARK INTER + INTRA:         -14.457
REMARK INTER:                  -9.815
REMARK INTRA:                  -4.642
REMARK UNBOUND:                -4.056
REMARK SMILES CCCCCCCCCCCCCCCCCCCCCCCCCCCC(=O)[O-]
REMARK SMILES IDX 15 1 16 2 17 3 18 4 19 5 20 6 21 7 22 8 23 9 24 10 25 11
REMARK SMILES IDX 26 12 27 13 28 14 29 15 30 16 14 17 13 18 12 19 11 20 10 21
REMARK SMILES IDX 9 22 8 23 7 24 6 25 5 26 4 27 3 28 2 29 1 30
REMARK H PARENT
REMARK Flexibility Score: inf
ROOT
ATOM      1  C   UNL     1       8.353  -2.263  42.517  1.00  0.00     0.000 C 
ENDROOT
BRANCH   1   2
ATOM      2  C   UNL     1       9.110  -1.506  43.619  1.00  0.00     0.000 C 
BRANCH   2   3
ATOM      3  C   UNL     1       9.051   0.012  43.385  1.00  0.00     0.000 C 
BRANCH   3   4
ATOM      4  C   UNL     1      10.325   0.736  43.850  1.00  0.00     0.000 C 
BRANCH   4   5
ATOM      5  C   UNL     1      11.280  -0.185  44.626  1.00  0.00     0.000 C 
BRANCH   5   6
ATOM      6  C   UNL     1      12.726  -0.029  44.123  1.00  0.00     0.000 C 
BRANCH   6   7
ATOM      7  C   UNL     1      12.796   0.357  42.637  1.00  0.00     0.000 C 
BRANCH   7   8
ATOM      8  C   UNL     1      13.207  -0.819  41.734  1.00  0.00     0.000 C 
BRANCH   8   9
ATOM      9  C   UNL     1      12.037  -1.356  40.888  1.00  0.00     0.000 C 
BRANCH   9  10
ATOM     10  C   UNL     1      11.993  -2.888  40.740  1.00  0.00     0.000 C 
BRANCH  10  11
ATOM     11  C   UNL     1      11.970  -3.616  42.096  1.00  0.00     0.000 C 
BRANCH  11  12
ATOM     12  C   UNL     1      10.717  -4.487  42.271  1.00  0.00     0.006 C 
BRANCH  12  13
ATOM     13  C   UNL     1      10.227  -5.081  40.944  1.00  0.00     0.053 C 
BRANCH  13  14
ATOM     14  C   UNL     1       9.111  -6.049  41.183  1.00  0.00     0.041 C 
ATOM     15  O   UNL     1       9.358  -7.213  41.598  1.00  0.00    -0.550 OA
ATOM     16  O   UNL     1       7.794  -5.658  40.973  1.00  0.00    -0.550 OA
ENDBRANCH  13  14
ENDBRANCH  12  13
ENDBRANCH  11  12
ENDBRANCH  10  11
ENDBRANCH   9  10
ENDBRANCH   8   9
ENDBRANCH   7   8
ENDBRANCH   6   7
ENDBRANCH   5   6
ENDBRANCH   4   5
ENDBRANCH   3   4
ENDBRANCH   2   3
ENDBRANCH   1   2
BRANCH   1  17
ATOM     17  C   UNL     1       8.391  -1.537  41.161  1.00  0.00     0.000 C 
BRANCH  17  18
ATOM     18  C   UNL     1       7.788  -2.329  39.988  1.00  0.00     0.000 C 
BRANCH  18  19
ATOM     19  C   UNL     1       8.812  -2.633  38.885  1.00  0.00     0.000 C 
BRANCH  19  20
ATOM     20  C   UNL     1       8.341  -3.795  38.002  1.00  0.00     0.000 C 
BRANCH  20  21
ATOM     21  C   UNL     1       7.034  -3.442  37.277  1.00  0.00     0.000 C 
BRANCH  21  22
ATOM     22  C   UNL     1       7.164  -3.514  35.746  1.00  0.00    -0.000 C 
BRANCH  22  23
ATOM     23  C   UNL     1       8.627  -3.616  35.282  1.00  0.00    -0.000 C 
BRANCH  23  24
ATOM     24  C   UNL     1       8.920  -4.913  34.507  1.00  0.00    -0.000 C 
BRANCH  24  25
ATOM     25  C   UNL     1      10.158  -4.865  33.587  1.00  0.00    -0.000 C 
BRANCH  25  26
ATOM     26  C   UNL     1      11.318  -3.989  34.096  1.00  0.00    -0.000 C 
BRANCH  26  27
ATOM     27  C   UNL     1      12.434  -4.754  34.831  1.00  0.00    -0.000 C 
BRANCH  27  28
ATOM     28  C   UNL     1      12.085  -5.115  36.291  1.00  0.00    -0.000 C 
BRANCH  28  29
ATOM     29  C   UNL     1      12.033  -3.882  37.207  1.00  0.00    -0.003 C 
ATOM     30  C   UNL     1      13.325  -3.074  37.111  1.00  0.00     0.004 C 
ENDBRANCH  28  29
ENDBRANCH  27  28
ENDBRANCH  26  27
ENDBRANCH  25  26
ENDBRANCH  24  25
ENDBRANCH  23  24
ENDBRANCH  22  23
ENDBRANCH  21  22
ENDBRANCH  20  21
ENDBRANCH  19  20
ENDBRANCH  18  19
ENDBRANCH  17  18
ENDBRANCH   1  17
TORSDOF 26
ENDMDL
MODEL 8
REMARK VINA RESULT:    -4.107      6.395     11.929
REMARK INTER + INTRA:         -14.405
REMARK INTER:                 -10.464
REMARK INTRA:                  -3.941
REMARK UNBOUND:                -4.056
REMARK SMILES CCCCCCCCCCCCCCCCCCCCCCCCCCCC(=O)[O-]
REMARK SMILES IDX 15 1 16 2 17 3 18 4 19 5 20 6 21 7 22 8 23 9 24 10 25 11
REMARK SMILES IDX 26 12 27 13 28 14 29 15 30 16 14 17 13 18 12 19 11 20 10 21
REMARK SMILES IDX 9 22 8 23 7 24 6 25 5 26 4 27 3 28 2 29 1 30
REMARK H PARENT
REMARK Flexibility Score: inf
ROOT
ATOM      1  C   UNL     1       7.751 -12.797  39.612  1.00  0.00     0.000 C 
ENDROOT
BRANCH   1   2
ATOM      2  C   UNL     1       6.682 -11.772  39.205  1.00  0.00     0.000 C 
BRANCH   2   3
ATOM      3  C   UNL     1       6.397 -10.789  40.352  1.00  0.00     0.000 C 
BRANCH   3   4
ATOM      4  C   UNL     1       5.249 -11.254  41.263  1.00  0.00     0.000 C 
BRANCH   4   5
ATOM      5  C   UNL     1       5.592 -11.134  42.756  1.00  0.00     0.000 C 
BRANCH   5   6
ATOM      6  C   UNL     1       7.088 -10.838  42.957  1.00  0.00     0.000 C 
BRANCH   6   7
ATOM      7  C   UNL     1       7.361 -10.010  44.224  1.00  0.00     0.000 C 
BRANCH   7   8
ATOM      8  C   UNL     1       7.923  -8.612  43.913  1.00  0.00     0.000 C 
BRANCH   8   9
ATOM      9  C   UNL     1       8.401  -8.473  42.455  1.00  0.00     0.000 C 
BRANCH   9  10
ATOM     10  C   UNL     1       7.650  -7.417  41.624  1.00  0.00     0.000 C 
BRANCH  10  11
ATOM     11  C   UNL     1       7.558  -6.056  42.335  1.00  0.00     0.000 C 
BRANCH  11  12
ATOM     12  C   UNL     1       8.231  -4.930  41.534  1.00  0.00     0.006 C 
BRANCH  12  13
ATOM     13  C   UNL     1       8.020  -3.551  42.171  1.00  0.00     0.053 C 
BRANCH  13  14
ATOM     14  C   UNL     1       9.311  -3.016  42.704  1.00  0.00     0.041 C 
ATOM     15  O   UNL     1      10.400  -3.575  42.408  1.00  0.00    -0.550 OA
ATOM     16  O   UNL     1       9.316  -1.882  43.508  1.00  0.00    -0.550 OA
ENDBRANCH  13  14
ENDBRANCH  12  13
ENDBRANCH  11  12
ENDBRANCH  10  11
ENDBRANCH   9  10
ENDBRANCH   8   9
ENDBRANCH   7   8
ENDBRANCH   6   7
ENDBRANCH   5   6
ENDBRANCH   4   5
ENDBRANCH   3   4
ENDBRANCH   2   3
ENDBRANCH   1   2
BRANCH   1  17
ATOM     17  C   UNL     1       7.375 -14.238  39.223  1.00  0.00     0.000 C 
BRANCH  17  18
ATOM     18  C   UNL     1       8.442 -15.296  39.557  1.00  0.00     0.000 C 
BRANCH  18  19
ATOM     19  C   UNL     1       7.855 -16.539  40.242  1.00  0.00     0.000 C 
BRANCH  19  20
ATOM     20  C   UNL     1       6.441 -16.261  40.766  1.00  0.00     0.000 C 
BRANCH  20  21
ATOM     21  C   UNL     1       6.426 -16.187  42.300  1.00  0.00     0.000 C 
BRANCH  21  22
ATOM     22  C   UNL     1       6.466 -14.742  42.826  1.00  0.00    -0.000 C 
BRANCH  22  23
ATOM     23  C   UNL     1       7.896 -14.263  43.127  1.00  0.00    -0.000 C 
BRANCH  23  24
ATOM     24  C   UNL     1       8.637 -15.175  44.121  1.00  0.00    -0.000 C 
BRANCH  24  25
ATOM     25  C   UNL     1       9.689 -16.113  43.495  1.00  0.00    -0.000 C 
BRANCH  25  26
ATOM     26  C   UNL     1      10.733 -15.420  42.599  1.00  0.00    -0.000 C 
BRANCH  26  27
ATOM     27  C   UNL     1      11.690 -16.375  41.861  1.00  0.00    -0.000 C 
BRANCH  27  28
ATOM     28  C   UNL     1      11.192 -17.836  41.807  1.00  0.00    -0.000 C 
BRANCH  28  29
ATOM     29  C   UNL     1      11.592 -18.547  40.505  1.00  0.00    -0.003 C 
ATOM     30  C   UNL     1      11.310 -17.667  39.290  1.00  0.00     0.004 C 
ENDBRANCH  28  29
ENDBRANCH  27  28
ENDBRANCH  26  27
ENDBRANCH  25  26
ENDBRANCH  24  25
ENDBRANCH  23  24
ENDBRANCH  22  23
ENDBRANCH  21  22
ENDBRANCH  20  21
ENDBRANCH  19  20
ENDBRANCH  18  19
ENDBRANCH  17  18
ENDBRANCH   1  17
TORSDOF 26
ENDMDL
MODEL 9
REMARK VINA RESULT:    -4.052      4.066      8.235
REMARK INTER + INTRA:         -14.267
REMARK INTER:                 -11.398
REMARK INTRA:                  -2.870
REMARK UNBOUND:                -4.056
REMARK SMILES CCCCCCCCCCCCCCCCCCCCCCCCCCCC(=O)[O-]
REMARK SMILES IDX 15 1 16 2 17 3 18 4 19 5 20 6 21 7 22 8 23 9 24 10 25 11
REMARK SMILES IDX 26 12 27 13 28 14 29 15 30 16 14 17 13 18 12 19 11 20 10 21
REMARK SMILES IDX 9 22 8 23 7 24 6 25 5 26 4 27 3 28 2 29 1 30
REMARK H PARENT
REMARK Flexibility Score: inf
ROOT
ATOM      1  C   UNL     1      10.566  -3.787  41.442  1.00  0.00     0.000 C 
ENDROOT
BRANCH   1   2
ATOM      2  C   UNL     1      10.135  -2.658  42.391  1.00  0.00     0.000 C 
BRANCH   2   3
ATOM      3  C   UNL     1       8.645  -2.327  42.210  1.00  0.00     0.000 C 
BRANCH   3   4
ATOM      4  C   UNL     1       8.306  -1.873  40.781  1.00  0.00     0.000 C 
BRANCH   4   5
ATOM      5  C   UNL     1       7.480  -2.913  40.009  1.00  0.00     0.000 C 
BRANCH   5   6
ATOM      6  C   UNL     1       7.480  -2.609  38.501  1.00  0.00     0.000 C 
BRANCH   6   7
ATOM      7  C   UNL     1       8.134  -3.727  37.672  1.00  0.00     0.000 C 
BRANCH   7   8
ATOM      8  C   UNL     1       8.221  -3.386  36.174  1.00  0.00     0.000 C 
BRANCH   8   9
ATOM      9  C   UNL     1       8.261  -4.639  35.280  1.00  0.00     0.000 C 
BRANCH   9  10
ATOM     10  C   UNL     1       9.229  -4.553  34.086  1.00  0.00     0.000 C 
BRANCH  10  11
ATOM     11  C   UNL     1      10.552  -3.854  34.442  1.00  0.00     0.000 C 
BRANCH  11  12
ATOM     12  C   UNL     1      11.552  -4.803  35.119  1.00  0.00     0.006 C 
BRANCH  12  13
ATOM     13  C   UNL     1      11.532  -6.209  34.506  1.00  0.00     0.053 C 
BRANCH  13  14
ATOM     14  C   UNL     1      12.540  -6.317  33.405  1.00  0.00     0.041 C 
ATOM     15  O   UNL     1      12.262  -5.904  32.248  1.00  0.00    -0.550 OA
ATOM     16  O   UNL     1      13.798  -6.847  33.663  1.00  0.00    -0.550 OA
ENDBRANCH  13  14
ENDBRANCH  12  13
ENDBRANCH  11  12
ENDBRANCH  10  11
ENDBRANCH   9  10
ENDBRANCH   8   9
ENDBRANCH   7   8
ENDBRANCH   6   7
ENDBRANCH   5   6
ENDBRANCH   4   5
ENDBRANCH   3   4
ENDBRANCH   2   3
ENDBRANCH   1   2
BRANCH   1  17
ATOM     17  C   UNL     1      10.145  -5.181  41.943  1.00  0.00     0.000 C 
BRANCH  17  18
ATOM     18  C   UNL     1       9.179  -5.935  41.013  1.00  0.00     0.000 C 
BRANCH  18  19
ATOM     19  C   UNL     1       7.892  -6.379  41.725  1.00  0.00     0.000 C 
BRANCH  19  20
ATOM     20  C   UNL     1       7.877  -5.901  43.181  1.00  0.00     0.000 C 
BRANCH  20  21
ATOM     21  C   UNL     1       7.921  -7.089  44.153  1.00  0.00     0.000 C 
BRANCH  21  22
ATOM     22  C   UNL     1       8.319  -8.405  43.465  1.00  0.00    -0.000 C 
BRANCH  22  23
ATOM     23  C   UNL     1       7.563  -9.620  44.030  1.00  0.00    -0.000 C 
BRANCH  23  24
ATOM     24  C   UNL     1       6.859 -10.447  42.939  1.00  0.00    -0.000 C 
BRANCH  24  25
ATOM     25  C   UNL     1       6.748  -9.760  41.562  1.00  0.00    -0.000 C 
BRANCH  25  26
ATOM     26  C   UNL     1       6.724 -10.715  40.355  1.00  0.00    -0.000 C 
BRANCH  26  27
ATOM     27  C   UNL     1       5.515 -11.669  40.307  1.00  0.00    -0.000 C 
BRANCH  27  28
ATOM     28  C   UNL     1       5.903 -13.161  40.226  1.00  0.00    -0.000 C 
BRANCH  28  29
ATOM     29  C   UNL     1       7.405 -13.394  40.456  1.00  0.00    -0.003 C 
ATOM     30  C   UNL     1       7.670 -13.896  41.873  1.00  0.00     0.004 C 
ENDBRANCH  28  29
ENDBRANCH  27  28
ENDBRANCH  26  27
ENDBRANCH  25  26
ENDBRANCH  24  25
ENDBRANCH  23  24
ENDBRANCH  22  23
ENDBRANCH  21  22
ENDBRANCH  20  21
ENDBRANCH  19  20
ENDBRANCH  18  19
ENDBRANCH  17  18
ENDBRANCH   1  17
TORSDOF 26
ENDMDL
