MODEL 1
REMARK VINA RESULT:    -3.387      0.000      0.000
REMARK INTER + INTRA:          -4.074
REMARK INTER:                  -3.981
REMARK INTRA:                  -0.094
REMARK UNBOUND:                -0.094
REMARK SMILES CCCCC(=O)[O-]
REMARK SMILES IDX 4 1 5 2 6 3 7 4 3 5 2 6 1 7
REMARK H PARENT
REMARK Flexibility Score: inf
ROOT
ATOM      1  C   UNL     1      61.147  29.907  10.963  1.00  0.00     0.053 C 
ENDROOT
BRANCH   1   2
ATOM      2  C   UNL     1      62.153  28.984  10.347  1.00  0.00     0.041 C 
ATOM      3  O   UNL     1      63.366  29.053  10.681  1.00  0.00    -0.550 OA
ATOM      4  O   UNL     1      61.757  28.069   9.379  1.00  0.00    -0.550 OA
ENDBRANCH   1   2
BRANCH   1   5
ATOM      5  C   UNL     1      61.272  29.985  12.495  1.00  0.00     0.006 C 
BRANCH   5   6
ATOM      6  C   UNL     1      60.945  28.665  13.216  1.00  0.00    -0.003 C 
ATOM      7  C   UNL     1      59.474  28.266  13.105  1.00  0.00     0.004 C 
ENDBRANCH   5   6
ENDBRANCH   1   5
TORSDOF 3
ENDMDL
MODEL 2
REMARK VINA RESULT:    -3.386      0.101      1.225
REMARK INTER + INTRA:          -4.073
REMARK INTER:                  -3.963
REMARK INTRA:                  -0.110
REMARK UNBOUND:                -0.094
REMARK SMILES CCCCC(=O)[O-]
REMARK SMILES IDX 4 1 5 2 6 3 7 4 3 5 2 6 1 7
REMARK H PARENT
REMARK Flexibility Score: inf
ROOT
ATOM      1  C   UNL     1      61.180  29.934  11.017  1.00  0.00     0.053 C 
ENDROOT
BRANCH   1   2
ATOM      2  C   UNL     1      62.137  29.014  10.323  1.00  0.00     0.041 C 
ATOM      3  O   UNL     1      61.715  28.166   9.494  1.00  0.00    -0.550 OA
ATOM      4  O   UNL     1      63.494  29.073  10.616  1.00  0.00    -0.550 OA
ENDBRANCH   1   2
BRANCH   1   5
ATOM      5  C   UNL     1      61.350  29.926  12.546  1.00  0.00     0.006 C 
BRANCH   5   6
ATOM      6  C   UNL     1      60.935  28.602  13.212  1.00  0.00    -0.003 C 
ATOM      7  C   UNL     1      59.444  28.297  13.070  1.00  0.00     0.004 C 
ENDBRANCH   5   6
ENDBRANCH   1   5
TORSDOF 3
ENDMDL
MODEL 3
REMARK VINA RESULT:    -3.327      1.402      2.144
REMARK INTER + INTRA:          -4.004
REMARK INTER:                  -3.899
REMARK INTRA:                  -0.105
REMARK UNBOUND:                -0.094
REMARK SMILES CCCCC(=O)[O-]
REMARK SMILES IDX 4 1 5 2 6 3 7 4 3 5 2 6 1 7
REMARK H PARENT
REMARK Flexibility Score: inf
ROOT
ATOM      1  C   UNL     1      60.638  29.946  11.529  1.00  0.00     0.053 C 
ENDROOT
BRANCH   1   2
ATOM      2  C   UNL     1      60.944  29.391  10.172  1.00  0.00     0.041 C 
ATOM      3  O   UNL     1      60.324  29.812   9.160  1.00  0.00    -0.550 OA
ATOM      4  O   UNL     1      61.893  28.387  10.028  1.00  0.00    -0.550 OA
ENDBRANCH   1   2
BRANCH   1   5
ATOM      5  C   UNL     1      60.720  28.881  12.638  1.00  0.00     0.006 C 
BRANCH   5   6
ATOM      6  C   UNL     1      61.689  29.242  13.778  1.00  0.00    -0.003 C 
ATOM      7  C   UNL     1      63.158  29.196  13.358  1.00  0.00     0.004 C 
ENDBRANCH   5   6
ENDBRANCH   1   5
TORSDOF 3
ENDMDL
MODEL 4
REMARK VINA RESULT:    -3.284      2.263      3.398
REMARK INTER + INTRA:          -3.953
REMARK INTER:                  -3.831
REMARK INTRA:                  -0.122
REMARK UNBOUND:                -0.094
REMARK SMILES CCCCC(=O)[O-]
REMARK SMILES IDX 4 1 5 2 6 3 7 4 3 5 2 6 1 7
REMARK H PARENT
REMARK Flexibility Score: inf
ROOT
ATOM      1  C   UNL     1      60.695  30.041  11.760  1.00  0.00     0.053 C 
ENDROOT
BRANCH   1   2
ATOM      2  C   UNL     1      60.507  29.039  12.859  1.00  0.00     0.041 C 
ATOM      3  O   UNL     1      61.445  28.794  13.662  1.00  0.00    -0.550 OA
ATOM      4  O   UNL     1      59.304  28.353  12.976  1.00  0.00    -0.550 OA
ENDBRANCH   1   2
BRANCH   1   5
ATOM      5  C   UNL     1      60.663  29.401  10.361  1.00  0.00     0.006 C 
BRANCH   5   6
ATOM      6  C   UNL     1      61.912  28.564  10.030  1.00  0.00    -0.003 C 
ATOM      7  C   UNL     1      63.222  29.299  10.311  1.00  0.00     0.004 C 
ENDBRANCH   5   6
ENDBRANCH   1   5
TORSDOF 3
ENDMDL
MODEL 5
REMARK VINA RESULT:    -3.240      1.558      2.118
REMARK INTER + INTRA:          -3.902
REMARK INTER:                  -3.804
REMARK INTRA:                  -0.099
REMARK UNBOUND:                -0.094
REMARK SMILES CCCCC(=O)[O-]
REMARK SMILES IDX 4 1 5 2 6 3 7 4 3 5 2 6 1 7
REMARK H PARENT
REMARK Flexibility Score: inf
ROOT
ATOM      1  C   UNL     1      62.415  28.989  10.189  1.00  0.00     0.053 C 
ENDROOT
BRANCH   1   2
ATOM      2  C   UNL     1      63.866  29.323  10.358  1.00  0.00     0.041 C 
ATOM      3  O   UNL     1      64.680  29.111   9.420  1.00  0.00    -0.550 OA
ATOM      4  O   UNL     1      64.325  29.839  11.563  1.00  0.00    -0.550 OA
ENDBRANCH   1   2
BRANCH   1   5
ATOM      5  C   UNL     1      61.495  29.906  11.014  1.00  0.00     0.006 C 
BRANCH   5   6
ATOM      6  C   UNL     1      60.549  29.149  11.963  1.00  0.00    -0.003 C 
ATOM      7  C   UNL     1      61.201  28.779  13.295  1.00  0.00     0.004 C 
ENDBRANCH   5   6
ENDBRANCH   1   5
TORSDOF 3
ENDMDL
MODEL 6
REMARK VINA RESULT:    -3.220      2.693      3.602
REMARK INTER + INTRA:          -3.879
REMARK INTER:                  -3.826
REMARK INTRA:                  -0.053
REMARK UNBOUND:                -0.094
REMARK SMILES CCCCC(=O)[O-]
REMARK SMILES IDX 4 1 5 2 6 3 7 4 3 5 2 6 1 7
REMARK H PARENT
REMARK Flexibility Score: inf
ROOT
ATOM      1  C   UNL     1      61.337  29.648  13.417  1.00  0.00     0.053 C 
ENDROOT
BRANCH   1   2
ATOM      2  C   UNL     1      60.280  28.997  12.578  1.00  0.00     0.041 C 
ATOM      3  O   UNL     1      60.247  29.191  11.335  1.00  0.00    -0.550 OA
ATOM      4  O   UNL     1      59.311  28.200  13.176  1.00  0.00    -0.550 OA
ENDBRANCH   1   2
BRANCH   1   5
ATOM      5  C   UNL     1      61.726  31.046  12.903  1.00  0.00     0.006 C 
BRANCH   5   6
ATOM      6  C   UNL     1      60.810  32.174  13.410  1.00  0.00    -0.003 C 
ATOM      7  C   UNL     1      61.567  33.456  13.755  1.00  0.00     0.004 C 
ENDBRANCH   5   6
ENDBRANCH   1   5
TORSDOF 3
ENDMDL
MODEL 7
REMARK VINA RESULT:    -3.187     14.981     15.985
REMARK INTER + INTRA:          -3.840
REMARK INTER:                  -3.740
REMARK INTRA:                  -0.101
REMARK UNBOUND:                -0.094
REMARK SMILES CCCCC(=O)[O-]
REMARK SMILES IDX 4 1 5 2 6 3 7 4 3 5 2 6 1 7
REMARK H PARENT
REMARK Flexibility Score: inf
ROOT
ATOM      1  C   UNL     1      63.394  29.471  27.084  1.00  0.00     0.053 C 
ENDROOT
BRANCH   1   2
ATOM      2  C   UNL     1      62.787  30.150  28.273  1.00  0.00     0.041 C 
ATOM      3  O   UNL     1      61.716  29.718  28.774  1.00  0.00    -0.550 OA
ATOM      4  O   UNL     1      63.389  31.281  28.811  1.00  0.00    -0.550 OA
ENDBRANCH   1   2
BRANCH   1   5
ATOM      5  C   UNL     1      62.704  29.855  25.763  1.00  0.00     0.006 C 
BRANCH   5   6
ATOM      6  C   UNL     1      62.114  28.658  24.998  1.00  0.00    -0.003 C 
ATOM      7  C   UNL     1      60.921  28.018  25.707  1.00  0.00     0.004 C 
ENDBRANCH   5   6
ENDBRANCH   1   5
TORSDOF 3
ENDMDL
MODEL 8
REMARK VINA RESULT:    -3.186     14.608     15.750
REMARK INTER + INTRA:          -3.839
REMARK INTER:                  -3.737
REMARK INTRA:                  -0.102
REMARK UNBOUND:                -0.094
REMARK SMILES CCCCC(=O)[O-]
REMARK SMILES IDX 4 1 5 2 6 3 7 4 3 5 2 6 1 7
REMARK H PARENT
REMARK Flexibility Score: inf
ROOT
ATOM      1  C   UNL     1      61.483  27.515  26.966  1.00  0.00     0.053 C 
ENDROOT
BRANCH   1   2
ATOM      2  C   UNL     1      62.110  28.276  28.094  1.00  0.00     0.041 C 
ATOM      3  O   UNL     1      63.258  27.967  28.508  1.00  0.00    -0.550 OA
ATOM      4  O   UNL     1      61.413  29.309  28.709  1.00  0.00    -0.550 OA
ENDBRANCH   1   2
BRANCH   1   5
ATOM      5  C   UNL     1      61.175  28.404  25.748  1.00  0.00     0.006 C 
BRANCH   5   6
ATOM      6  C   UNL     1      62.350  29.300  25.317  1.00  0.00    -0.003 C 
ATOM      7  C   UNL     1      63.214  28.674  24.222  1.00  0.00     0.004 C 
ENDBRANCH   5   6
ENDBRANCH   1   5
TORSDOF 3
ENDMDL
MODEL 9
REMARK VINA RESULT:    -3.176      2.525      3.551
REMARK INTER + INTRA:          -3.827
REMARK INTER:                  -3.718
REMARK INTRA:                  -0.109
REMARK UNBOUND:                -0.094
REMARK SMILES CCCCC(=O)[O-]
REMARK SMILES IDX 4 1 5 2 6 3 7 4 3 5 2 6 1 7
REMARK H PARENT
REMARK Flexibility Score: inf
ROOT
ATOM      1  C   UNL     1      61.552  29.460  13.749  1.00  0.00     0.053 C 
ENDROOT
BRANCH   1   2
ATOM      2  C   UNL     1      60.466  28.986  12.832  1.00  0.00     0.041 C 
ATOM      3  O   UNL     1      59.579  28.197  13.253  1.00  0.00    -0.550 OA
ATOM      4  O   UNL     1      60.451  29.392  11.503  1.00  0.00    -0.550 OA
ENDBRANCH   1   2
BRANCH   1   5
ATOM      5  C   UNL     1      62.944  28.948  13.336  1.00  0.00     0.006 C 
BRANCH   5   6
ATOM      6  C   UNL     1      63.809  30.002  12.621  1.00  0.00    -0.003 C 
ATOM      7  C   UNL     1      64.010  29.708  11.135  1.00  0.00     0.004 C 
ENDBRANCH   5   6
ENDBRANCH   1   5
TORSDOF 3
ENDMDL
