MODEL 1
REMARK VINA RESULT:    -2.724      0.000      0.000
REMARK INTER + INTRA:          -3.658
REMARK INTER:                  -3.441
REMARK INTRA:                  -0.217
REMARK UNBOUND:                -0.217
REMARK SMILES CCCCC[C@@H](C)O
REMARK SMILES IDX 4 1 3 2 2 3 1 4 5 5 6 6 7 7 8 8
REMARK H PARENT 8 9
REMARK Flexibility Score: inf
ROOT
ATOM      1  C   UNL     1     135.511 141.872 141.367  1.00  0.00     0.003 C 
ENDROOT
BRANCH   1   2
ATOM      2  C   UNL     1     136.532 142.006 142.510  1.00  0.00    -0.000 C 
BRANCH   2   3
ATOM      3  C   UNL     1     135.895 141.812 143.895  1.00  0.00    -0.003 C 
ATOM      4  C   UNL     1     136.599 142.619 144.986  1.00  0.00     0.004 C 
ENDBRANCH   2   3
ENDBRANCH   1   2
BRANCH   1   5
ATOM      5  C   UNL     1     134.067 141.728 141.874  1.00  0.00     0.031 C 
BRANCH   5   6
ATOM      6  C   UNL     1     133.276 140.605 141.167  1.00  0.00     0.111 C 
ATOM      7  C   UNL     1     134.170 139.837 140.190  1.00  0.00     0.038 C 
BRANCH   6   8
ATOM      8  O   UNL     1     132.702 139.721 142.098  1.00  0.00    -0.393 OA
ATOM      9  H   UNL     1     133.424 139.421 142.711  1.00  0.00     0.210 HD
ENDBRANCH   6   8
ENDBRANCH   5   6
ENDBRANCH   1   5
TORSDOF 5
ENDMDL
MODEL 2
REMARK VINA RESULT:    -2.652      8.368      8.844
REMARK INTER + INTRA:          -3.566
REMARK INTER:                  -3.321
REMARK INTRA:                  -0.245
REMARK UNBOUND:                -0.217
REMARK SMILES CCCCC[C@@H](C)O
REMARK SMILES IDX 4 1 3 2 2 3 1 4 5 5 6 6 7 7 8 8
REMARK H PARENT 8 9
REMARK Flexibility Score: inf
ROOT
ATOM      1  C   UNL     1     141.985 146.218 141.220  1.00  0.00     0.003 C 
ENDROOT
BRANCH   1   2
ATOM      2  C   UNL     1     142.174 145.201 142.360  1.00  0.00    -0.000 C 
BRANCH   2   3
ATOM      3  C   UNL     1     141.804 145.781 143.734  1.00  0.00    -0.003 C 
ATOM      4  C   UNL     1     142.565 145.114 144.879  1.00  0.00     0.004 C 
ENDBRANCH   2   3
ENDBRANCH   1   2
BRANCH   1   5
ATOM      5  C   UNL     1     141.810 147.658 141.732  1.00  0.00     0.031 C 
BRANCH   5   6
ATOM      6  C   UNL     1     140.561 148.365 141.163  1.00  0.00     0.111 C 
ATOM      7  C   UNL     1     139.760 147.422 140.261  1.00  0.00     0.038 C 
BRANCH   6   8
ATOM      8  O   UNL     1     139.743 148.863 142.192  1.00  0.00    -0.393 OA
ATOM      9  H   UNL     1     139.441 148.089 142.737  1.00  0.00     0.210 HD
ENDBRANCH   6   8
ENDBRANCH   5   6
ENDBRANCH   1   5
TORSDOF 5
ENDMDL
MODEL 3
REMARK VINA RESULT:    -2.649     11.257     12.459
REMARK INTER + INTRA:          -3.563
REMARK INTER:                  -3.322
REMARK INTRA:                  -0.241
REMARK UNBOUND:                -0.217
REMARK SMILES CCCCC[C@@H](C)O
REMARK SMILES IDX 4 1 3 2 2 3 1 4 5 5 6 6 7 7 8 8
REMARK H PARENT 8 9
REMARK Flexibility Score: inf
ROOT
ATOM      1  C   UNL     1     146.109 139.733 141.370  1.00  0.00     0.003 C 
ENDROOT
BRANCH   1   2
ATOM      2  C   UNL     1     145.104 139.793 142.534  1.00  0.00    -0.000 C 
BRANCH   2   3
ATOM      3  C   UNL     1     145.793 139.875 143.905  1.00  0.00    -0.003 C 
ATOM      4  C   UNL     1     145.082 139.043 144.973  1.00  0.00     0.004 C 
ENDBRANCH   2   3
ENDBRANCH   1   2
BRANCH   1   5
ATOM      5  C   UNL     1     147.570 139.817 141.843  1.00  0.00     0.031 C 
BRANCH   5   6
ATOM      6  C   UNL     1     148.352 140.993 141.218  1.00  0.00     0.111 C 
ATOM      7  C   UNL     1     147.471 141.782 140.245  1.00  0.00     0.038 C 
BRANCH   6   8
ATOM      8  O   UNL     1     148.868 141.847 142.208  1.00  0.00    -0.393 OA
ATOM      9  H   UNL     1     149.546 142.431 141.777  1.00  0.00     0.210 HD
ENDBRANCH   6   8
ENDBRANCH   5   6
ENDBRANCH   1   5
TORSDOF 5
ENDMDL
MODEL 4
REMARK VINA RESULT:    -2.605      2.111      2.565
REMARK INTER + INTRA:          -3.507
REMARK INTER:                  -3.403
REMARK INTRA:                  -0.105
REMARK UNBOUND:                -0.217
REMARK SMILES CCCCC[C@@H](C)O
REMARK SMILES IDX 4 1 3 2 2 3 1 4 5 5 6 6 7 7 8 8
REMARK H PARENT 8 9
REMARK Flexibility Score: inf
ROOT
ATOM      1  C   UNL     1     135.803 142.133 142.748  1.00  0.00     0.003 C 
ENDROOT
BRANCH   1   2
ATOM      2  C   UNL     1     135.741 141.781 144.245  1.00  0.00    -0.000 C 
BRANCH   2   3
ATOM      3  C   UNL     1     136.670 142.660 145.096  1.00  0.00    -0.003 C 
ATOM      4  C   UNL     1     138.102 142.694 144.562  1.00  0.00     0.004 C 
ENDBRANCH   2   3
ENDBRANCH   1   2
BRANCH   1   5
ATOM      5  C   UNL     1     134.540 141.702 141.983  1.00  0.00     0.031 C 
BRANCH   5   6
ATOM      6  C   UNL     1     134.025 142.771 140.996  1.00  0.00     0.111 C 
ATOM      7  C   UNL     1     132.505 142.928 141.101  1.00  0.00     0.038 C 
BRANCH   6   8
ATOM      8  O   UNL     1     134.656 144.009 141.208  1.00  0.00    -0.393 OA
ATOM      9  H   UNL     1     133.947 144.679 141.398  1.00  0.00     0.210 HD
ENDBRANCH   6   8
ENDBRANCH   5   6
ENDBRANCH   1   5
TORSDOF 5
ENDMDL
MODEL 5
REMARK VINA RESULT:    -2.602      2.395      4.480
REMARK INTER + INTRA:          -3.504
REMARK INTER:                  -3.208
REMARK INTRA:                  -0.296
REMARK UNBOUND:                -0.217
REMARK SMILES CCCCC[C@@H](C)O
REMARK SMILES IDX 4 1 3 2 2 3 1 4 5 5 6 6 7 7 8 8
REMARK H PARENT 8 9
REMARK Flexibility Score: inf
ROOT
ATOM      1  C   UNL     1     132.677 141.171 140.665  1.00  0.00     0.003 C 
ENDROOT
BRANCH   1   2
ATOM      2  C   UNL     1     132.499 140.934 139.155  1.00  0.00    -0.000 C 
BRANCH   2   3
ATOM      3  C   UNL     1     133.794 140.464 138.475  1.00  0.00    -0.003 C 
ATOM      4  C   UNL     1     134.690 139.652 139.411  1.00  0.00     0.004 C 
ENDBRANCH   2   3
ENDBRANCH   1   2
BRANCH   1   5
ATOM      5  C   UNL     1     132.597 142.659 141.046  1.00  0.00     0.031 C 
BRANCH   5   6
ATOM      6  C   UNL     1     133.833 143.163 141.822  1.00  0.00     0.111 C 
ATOM      7  C   UNL     1     134.657 141.990 142.361  1.00  0.00     0.038 C 
BRANCH   6   8
ATOM      8  O   UNL     1     134.636 143.993 141.021  1.00  0.00    -0.393 OA
ATOM      9  H   UNL     1     134.422 144.934 141.256  1.00  0.00     0.210 HD
ENDBRANCH   6   8
ENDBRANCH   5   6
ENDBRANCH   1   5
TORSDOF 5
ENDMDL
MODEL 6
REMARK VINA RESULT:    -2.576     11.956     13.265
REMARK INTER + INTRA:          -3.470
REMARK INTER:                  -3.103
REMARK INTRA:                  -0.366
REMARK UNBOUND:                -0.217
REMARK SMILES CCCCC[C@@H](C)O
REMARK SMILES IDX 4 1 3 2 2 3 1 4 5 5 6 6 7 7 8 8
REMARK H PARENT 8 9
REMARK Flexibility Score: inf
ROOT
ATOM      1  C   UNL     1     148.708 140.736 140.963  1.00  0.00     0.003 C 
ENDROOT
BRANCH   1   2
ATOM      2  C   UNL     1     148.344 141.296 139.577  1.00  0.00    -0.000 C 
BRANCH   2   3
ATOM      3  C   UNL     1     146.913 141.853 139.524  1.00  0.00    -0.003 C 
ATOM      4  C   UNL     1     145.885 140.799 139.112  1.00  0.00     0.004 C 
ENDBRANCH   2   3
ENDBRANCH   1   2
BRANCH   1   5
ATOM      5  C   UNL     1     148.850 139.204 140.965  1.00  0.00     0.031 C 
BRANCH   5   6
ATOM      6  C   UNL     1     147.787 138.490 141.828  1.00  0.00     0.111 C 
ATOM      7  C   UNL     1     146.860 139.502 142.507  1.00  0.00     0.038 C 
BRANCH   6   8
ATOM      8  O   UNL     1     147.035 137.582 141.062  1.00  0.00    -0.393 OA
ATOM      9  H   UNL     1     146.079 137.707 141.302  1.00  0.00     0.210 HD
ENDBRANCH   6   8
ENDBRANCH   5   6
ENDBRANCH   1   5
TORSDOF 5
ENDMDL
MODEL 7
REMARK VINA RESULT:    -2.533     11.166     12.307
REMARK INTER + INTRA:          -3.416
REMARK INTER:                  -3.221
REMARK INTRA:                  -0.195
REMARK UNBOUND:                -0.217
REMARK SMILES CCCCC[C@@H](C)O
REMARK SMILES IDX 4 1 3 2 2 3 1 4 5 5 6 6 7 7 8 8
REMARK H PARENT 8 9
REMARK Flexibility Score: inf
ROOT
ATOM      1  C   UNL     1     145.925 140.375 141.520  1.00  0.00     0.003 C 
ENDROOT
BRANCH   1   2
ATOM      2  C   UNL     1     145.048 140.001 142.728  1.00  0.00    -0.000 C 
BRANCH   2   3
ATOM      3  C   UNL     1     145.878 139.684 143.982  1.00  0.00    -0.003 C 
ATOM      4  C   UNL     1     145.029 139.126 145.125  1.00  0.00     0.004 C 
ENDBRANCH   2   3
ENDBRANCH   1   2
BRANCH   1   5
ATOM      5  C   UNL     1     147.398 139.976 141.709  1.00  0.00     0.031 C 
BRANCH   5   6
ATOM      6  C   UNL     1     147.819 138.758 140.859  1.00  0.00     0.111 C 
ATOM      7  C   UNL     1     149.287 138.398 141.105  1.00  0.00     0.038 C 
BRANCH   6   8
ATOM      8  O   UNL     1     146.997 137.647 141.117  1.00  0.00    -0.393 OA
ATOM      9  H   UNL     1     147.543 136.829 140.970  1.00  0.00     0.210 HD
ENDBRANCH   6   8
ENDBRANCH   5   6
ENDBRANCH   1   5
TORSDOF 5
ENDMDL
MODEL 8
REMARK VINA RESULT:    -2.075      8.290      8.686
REMARK INTER + INTRA:          -2.838
REMARK INTER:                  -2.651
REMARK INTRA:                  -0.187
REMARK UNBOUND:                -0.217
REMARK SMILES CCCCC[C@@H](C)O
REMARK SMILES IDX 4 1 3 2 2 3 1 4 5 5 6 6 7 7 8 8
REMARK H PARENT 8 9
REMARK Flexibility Score: inf
ROOT
ATOM      1  C   UNL     1     140.121 135.862 141.654  1.00  0.00     0.003 C 
ENDROOT
BRANCH   1   2
ATOM      2  C   UNL     1     139.771 136.854 142.777  1.00  0.00    -0.000 C 
BRANCH   2   3
ATOM      3  C   UNL     1     139.885 136.225 144.174  1.00  0.00    -0.003 C 
ATOM      4  C   UNL     1     138.785 136.698 145.125  1.00  0.00     0.004 C 
ENDBRANCH   2   3
ENDBRANCH   1   2
BRANCH   1   5
ATOM      5  C   UNL     1     140.064 134.397 142.117  1.00  0.00     0.031 C 
BRANCH   5   6
ATOM      6  C   UNL     1     140.986 133.459 141.307  1.00  0.00     0.111 C 
ATOM      7  C   UNL     1     141.774 134.242 140.253  1.00  0.00     0.038 C 
BRANCH   6   8
ATOM      8  O   UNL     1     141.866 132.757 142.149  1.00  0.00    -0.393 OA
ATOM      9  H   UNL     1     142.763 133.174 142.060  1.00  0.00     0.210 HD
ENDBRANCH   6   8
ENDBRANCH   5   6
ENDBRANCH   1   5
TORSDOF 5
ENDMDL
