MODEL 1
REMARK VINA RESULT:    -3.656      0.000      0.000
REMARK INTER + INTRA:          -7.150
REMARK INTER:                  -6.327
REMARK INTRA:                  -0.823
REMARK UNBOUND:                -0.823
REMARK SMILES OC[C@@H]1O[C@@H](O[C@H]2[C@H](O)[C@H](O)[C@H](O[C@@H]3[C@@H](O)[C@@H](O)[C@H](O)O[C@H]3CO)O[C@@H]2CO)[C@H](O)[C@@H](O)[C@@H]1O
REMARK SMILES IDX 7 1 26 2 25 3 12 4 10 5 8 6 6 7 5 8 3 9 33 10 4 11 31 12
REMARK SMILES IDX 29 13 2 14 1 15 34 17 32 19 30 21 27 23 28 24 9 26 11 28
REMARK SMILES IDX 13 30 14 31 22 32 15 33 21 34 17 35 19 36 23 37 24 38 16 40
REMARK SMILES IDX 18 42 20 44
REMARK H PARENT 1 16 34 18 32 20 30 22 28 25 9 27 11 29 24 39 16 41 18 43
REMARK H PARENT 20 45
REMARK Flexibility Score: inf
ROOT
ATOM      1  C   UNL     1      13.192  35.995  33.287  1.00  0.00     0.184 C 
ATOM      2  C   UNL     1      11.734  36.284  33.730  1.00  0.00     0.178 C 
ATOM      3  O   UNL     1      11.315  35.539  34.868  1.00  0.00    -0.341 OA
ATOM      4  C   UNL     1      11.529  34.135  34.785  1.00  0.00     0.282 C 
ATOM      5  C   UNL     1      12.990  33.779  34.440  1.00  0.00     0.202 C 
ATOM      6  C   UNL     1      13.452  34.487  33.164  1.00  0.00     0.180 C 
ENDROOT
BRANCH   1   7
ATOM      7  O   UNL     1      14.075  36.526  34.265  1.00  0.00    -0.341 OA
BRANCH   7   8
ATOM      8  C   UNL     1      15.269  37.079  33.731  1.00  0.00     0.282 C 
ATOM      9  C   UNL     1      17.144  36.668  32.356  1.00  0.00     0.178 C 
ATOM     10  C   UNL     1      17.698  38.026  32.892  1.00  0.00     0.177 C 
ATOM     11  O   UNL     1      16.104  36.092  33.143  1.00  0.00    -0.341 OA
ATOM     12  C   UNL     1      17.514  38.115  34.423  1.00  0.00     0.179 C 
ATOM     13  C   UNL     1      16.034  37.872  34.821  1.00  0.00     0.202 C 
BRANCH   9  14
ATOM     14  C   UNL     1      16.719  36.712  30.881  1.00  0.00     0.191 C 
BRANCH  14  15
ATOM     15  O   UNL     1      17.116  37.926  30.302  1.00  0.00    -0.394 OA
ATOM     16  H   UNL     1      16.340  38.234  29.758  1.00  0.00     0.210 HD
ENDBRANCH  14  15
ENDBRANCH   9  14
BRANCH  10  17
ATOM     17  O   UNL     1      17.057  39.112  32.269  1.00  0.00    -0.387 OA
ATOM     18  H   UNL     1      17.666  39.441  31.561  1.00  0.00     0.211 HD
ENDBRANCH  10  17
BRANCH  12  19
ATOM     19  O   UNL     1      18.328  37.158  35.049  1.00  0.00    -0.387 OA
ATOM     20  H   UNL     1      18.333  36.351  34.467  1.00  0.00     0.211 HD
ENDBRANCH  12  19
BRANCH  13  21
ATOM     21  O   UNL     1      15.371  39.086  35.094  1.00  0.00    -0.385 OA
ATOM     22  H   UNL     1      15.986  39.654  35.629  1.00  0.00     0.211 HD
ENDBRANCH  13  21
ENDBRANCH   7   8
ENDBRANCH   1   7
BRANCH   2  23
ATOM     23  C   UNL     1      10.711  36.253  32.577  1.00  0.00     0.191 C 
BRANCH  23  24
ATOM     24  O   UNL     1       9.973  37.447  32.567  1.00  0.00    -0.394 OA
ATOM     25  H   UNL     1      10.584  38.172  32.868  1.00  0.00     0.210 HD
ENDBRANCH  23  24
ENDBRANCH   2  23
BRANCH   6  26
ATOM     26  O   UNL     1      12.790  33.953  32.050  1.00  0.00    -0.387 OA
ATOM     27  H   UNL     1      12.925  34.586  31.296  1.00  0.00     0.211 HD
ENDBRANCH   6  26
BRANCH   5  28
ATOM     28  O   UNL     1      13.148  32.388  34.289  1.00  0.00    -0.385 OA
ATOM     29  H   UNL     1      13.498  32.230  33.375  1.00  0.00     0.211 HD
ENDBRANCH   5  28
BRANCH   4  30
ATOM     30  O   UNL     1      10.631  33.548  33.852  1.00  0.00    -0.341 OA
BRANCH  30  31
ATOM     31  C   UNL     1       9.293  33.497  34.333  1.00  0.00     0.184 C 
ATOM     32  C   UNL     1       8.366  34.366  33.413  1.00  0.00     0.178 C 
ATOM     33  C   UNL     1       8.848  32.020  34.347  1.00  0.00     0.180 C 
ATOM     34  O   UNL     1       7.463  33.598  32.624  1.00  0.00    -0.342 OA
ATOM     35  C   UNL     1       8.681  31.478  32.909  1.00  0.00     0.201 C 
ATOM     36  C   UNL     1       8.105  32.537  31.931  1.00  0.00     0.279 C 
BRANCH  32  37
ATOM     37  C   UNL     1       7.529  35.358  34.231  1.00  0.00     0.191 C 
BRANCH  37  38
ATOM     38  O   UNL     1       8.367  36.168  35.011  1.00  0.00    -0.394 OA
ATOM     39  H   UNL     1       9.285  35.805  34.909  1.00  0.00     0.210 HD
ENDBRANCH  37  38
ENDBRANCH  32  37
BRANCH  33  40
ATOM     40  O   UNL     1       7.688  31.839  35.124  1.00  0.00    -0.387 OA
ATOM     41  H   UNL     1       7.095  31.198  34.657  1.00  0.00     0.211 HD
ENDBRANCH  33  40
BRANCH  35  42
ATOM     42  O   UNL     1       7.922  30.291  32.908  1.00  0.00    -0.385 OA
ATOM     43  H   UNL     1       6.996  30.524  32.644  1.00  0.00     0.211 HD
ENDBRANCH  35  42
BRANCH  36  44
ATOM     44  O   UNL     1       9.110  32.995  31.058  1.00  0.00    -0.366 OA
ATOM     45  H   UNL     1       9.770  32.258  30.921  1.00  0.00     0.213 HD
ENDBRANCH  36  44
ENDBRANCH  30  31
ENDBRANCH   4  30
TORSDOF 18
ENDMDL
MODEL 2
REMARK VINA RESULT:    -3.269      1.794      3.055
REMARK INTER + INTRA:          -6.481
REMARK INTER:                  -6.501
REMARK INTRA:                   0.020
REMARK UNBOUND:                -0.823
REMARK SMILES OC[C@@H]1O[C@@H](O[C@H]2[C@H](O)[C@H](O)[C@H](O[C@@H]3[C@@H](O)[C@@H](O)[C@H](O)O[C@H]3CO)O[C@@H]2CO)[C@H](O)[C@@H](O)[C@@H]1O
REMARK SMILES IDX 7 1 26 2 25 3 12 4 10 5 8 6 6 7 5 8 3 9 33 10 4 11 31 12
REMARK SMILES IDX 29 13 2 14 1 15 34 17 32 19 30 21 27 23 28 24 9 26 11 28
REMARK SMILES IDX 13 30 14 31 22 32 15 33 21 34 17 35 19 36 23 37 24 38 16 40
REMARK SMILES IDX 18 42 20 44
REMARK H PARENT 1 16 34 18 32 20 30 22 28 25 9 27 11 29 24 39 16 41 18 43
REMARK H PARENT 20 45
REMARK Flexibility Score: inf
ROOT
ATOM      1  C   UNL     1      11.114  37.558  33.109  1.00  0.00     0.184 C 
ATOM      2  C   UNL     1       9.660  37.700  33.630  1.00  0.00     0.178 C 
ATOM      3  O   UNL     1       9.340  36.821  34.703  1.00  0.00    -0.341 OA
ATOM      4  C   UNL     1       9.641  35.450  34.472  1.00  0.00     0.282 C 
ATOM      5  C   UNL     1      11.107  35.231  34.041  1.00  0.00     0.202 C 
ATOM      6  C   UNL     1      11.467  36.091  32.827  1.00  0.00     0.180 C 
ENDROOT
BRANCH   1   7
ATOM      7  O   UNL     1      12.002  38.051  34.103  1.00  0.00    -0.341 OA
BRANCH   7   8
ATOM      8  C   UNL     1      13.345  37.621  33.949  1.00  0.00     0.282 C 
ATOM      9  C   UNL     1      15.078  36.319  34.885  1.00  0.00     0.178 C 
ATOM     10  C   UNL     1      16.004  36.978  33.813  1.00  0.00     0.177 C 
ATOM     11  O   UNL     1      13.854  37.009  35.125  1.00  0.00    -0.341 OA
ATOM     12  C   UNL     1      15.749  38.499  33.744  1.00  0.00     0.179 C 
ATOM     13  C   UNL     1      14.246  38.802  33.506  1.00  0.00     0.202 C 
BRANCH   9  14
ATOM     14  C   UNL     1      14.799  34.830  34.631  1.00  0.00     0.191 C 
BRANCH  14  15
ATOM     15  O   UNL     1      14.333  34.645  33.321  1.00  0.00    -0.394 OA
ATOM     16  H   UNL     1      13.599  33.974  33.387  1.00  0.00     0.210 HD
ENDBRANCH  14  15
ENDBRANCH   9  14
BRANCH  10  17
ATOM     17  O   UNL     1      15.798  36.400  32.548  1.00  0.00    -0.387 OA
ATOM     18  H   UNL     1      15.046  36.888  32.125  1.00  0.00     0.211 HD
ENDBRANCH  10  17
BRANCH  12  19
ATOM     19  O   UNL     1      16.160  39.098  34.946  1.00  0.00    -0.387 OA
ATOM     20  H   UNL     1      15.960  40.070  34.873  1.00  0.00     0.211 HD
ENDBRANCH  12  19
BRANCH  13  21
ATOM     21  O   UNL     1      13.996  39.124  32.156  1.00  0.00    -0.385 OA
ATOM     22  H   UNL     1      13.176  39.683  32.124  1.00  0.00     0.211 HD
ENDBRANCH  13  21
ENDBRANCH   7   8
ENDBRANCH   1   7
BRANCH   2  23
ATOM     23  C   UNL     1       8.593  37.712  32.518  1.00  0.00     0.191 C 
BRANCH  23  24
ATOM     24  O   UNL     1       7.713  38.786  32.718  1.00  0.00    -0.394 OA
ATOM     25  H   UNL     1       7.527  39.183  31.826  1.00  0.00     0.210 HD
ENDBRANCH  23  24
ENDBRANCH   2  23
BRANCH   6  26
ATOM     26  O   UNL     1      10.795  35.623  31.689  1.00  0.00    -0.387 OA
ATOM     27  H   UNL     1       9.838  35.870  31.790  1.00  0.00     0.211 HD
ENDBRANCH   6  26
BRANCH   5  28
ATOM     28  O   UNL     1      11.349  33.877  33.746  1.00  0.00    -0.385 OA
ATOM     29  H   UNL     1      11.429  33.397  34.610  1.00  0.00     0.211 HD
ENDBRANCH   5  28
BRANCH   4  30
ATOM     30  O   UNL     1       8.745  34.896  33.517  1.00  0.00    -0.341 OA
BRANCH  30  31
ATOM     31  C   UNL     1       8.921  33.495  33.347  1.00  0.00     0.184 C 
ATOM     32  C   UNL     1       8.524  32.746  34.667  1.00  0.00     0.178 C 
ATOM     33  C   UNL     1       8.045  33.045  32.159  1.00  0.00     0.180 C 
ATOM     34  O   UNL     1       7.323  31.990  34.554  1.00  0.00    -0.342 OA
ATOM     35  C   UNL     1       6.543  33.128  32.516  1.00  0.00     0.201 C 
ATOM     36  C   UNL     1       6.254  32.736  33.990  1.00  0.00     0.279 C 
BRANCH  32  37
ATOM     37  C   UNL     1       9.629  31.785  35.125  1.00  0.00     0.191 C 
BRANCH  37  38
ATOM     38  O   UNL     1      10.422  31.407  34.032  1.00  0.00    -0.394 OA
ATOM     39  H   UNL     1       9.944  30.664  33.579  1.00  0.00     0.210 HD
ENDBRANCH  37  38
ENDBRANCH  32  37
BRANCH  33  40
ATOM     40  O   UNL     1       8.415  31.768  31.700  1.00  0.00    -0.387 OA
ATOM     41  H   UNL     1       8.414  31.778  30.709  1.00  0.00     0.211 HD
ENDBRANCH  33  40
BRANCH  35  42
ATOM     42  O   UNL     1       5.772  32.374  31.609  1.00  0.00    -0.385 OA
ATOM     43  H   UNL     1       5.136  31.826  32.135  1.00  0.00     0.211 HD
ENDBRANCH  35  42
BRANCH  36  44
ATOM     44  O   UNL     1       5.939  33.880  34.748  1.00  0.00    -0.366 OA
ATOM     45  H   UNL     1       5.487  33.588  35.590  1.00  0.00     0.213 HD
ENDBRANCH  36  44
ENDBRANCH  30  31
ENDBRANCH   4  30
TORSDOF 18
ENDMDL
MODEL 3
REMARK VINA RESULT:    -2.747      0.942      2.033
REMARK INTER + INTRA:          -5.577
REMARK INTER:                  -4.560
REMARK INTRA:                  -1.017
REMARK UNBOUND:                -0.823
REMARK SMILES OC[C@@H]1O[C@@H](O[C@H]2[C@H](O)[C@H](O)[C@H](O[C@@H]3[C@@H](O)[C@@H](O)[C@H](O)O[C@H]3CO)O[C@@H]2CO)[C@H](O)[C@@H](O)[C@@H]1O
REMARK SMILES IDX 7 1 26 2 25 3 12 4 10 5 8 6 6 7 5 8 3 9 33 10 4 11 31 12
REMARK SMILES IDX 29 13 2 14 1 15 34 17 32 19 30 21 27 23 28 24 9 26 11 28
REMARK SMILES IDX 13 30 14 31 22 32 15 33 21 34 17 35 19 36 23 37 24 38 16 40
REMARK SMILES IDX 18 42 20 44
REMARK H PARENT 1 16 34 18 32 20 30 22 28 25 9 27 11 29 24 39 16 41 18 43
REMARK H PARENT 20 45
REMARK Flexibility Score: inf
ROOT
ATOM      1  C   UNL     1      13.446  35.693  33.230  1.00  0.00     0.184 C 
ATOM      2  C   UNL     1      12.006  36.216  33.473  1.00  0.00     0.178 C 
ATOM      3  O   UNL     1      11.388  35.692  34.644  1.00  0.00    -0.341 OA
ATOM      4  C   UNL     1      11.416  34.274  34.759  1.00  0.00     0.282 C 
ATOM      5  C   UNL     1      12.841  33.698  34.622  1.00  0.00     0.202 C 
ATOM      6  C   UNL     1      13.509  34.162  33.325  1.00  0.00     0.180 C 
ENDROOT
BRANCH   1   7
ATOM      7  O   UNL     1      14.300  36.242  34.224  1.00  0.00    -0.341 OA
BRANCH   7   8
ATOM      8  C   UNL     1      15.421  36.941  33.705  1.00  0.00     0.282 C 
ATOM      9  C   UNL     1      16.737  38.893  33.888  1.00  0.00     0.178 C 
ATOM     10  C   UNL     1      17.418  38.427  32.562  1.00  0.00     0.177 C 
ATOM     11  O   UNL     1      15.477  38.285  34.161  1.00  0.00    -0.341 OA
ATOM     12  C   UNL     1      16.352  37.967  31.543  1.00  0.00     0.179 C 
ATOM     13  C   UNL     1      15.427  36.882  32.156  1.00  0.00     0.202 C 
BRANCH   9  14
ATOM     14  C   UNL     1      17.647  38.786  35.121  1.00  0.00     0.191 C 
BRANCH  14  15
ATOM     15  O   UNL     1      18.964  39.123  34.778  1.00  0.00    -0.394 OA
ATOM     16  H   UNL     1      19.541  38.705  35.475  1.00  0.00     0.210 HD
ENDBRANCH  14  15
ENDBRANCH   9  14
BRANCH  10  17
ATOM     17  O   UNL     1      18.330  37.384  32.804  1.00  0.00    -0.387 OA
ATOM     18  H   UNL     1      18.006  36.895  33.603  1.00  0.00     0.211 HD
ENDBRANCH  10  17
BRANCH  12  19
ATOM     19  O   UNL     1      15.578  39.069  31.146  1.00  0.00    -0.387 OA
ATOM     20  H   UNL     1      15.409  39.617  31.958  1.00  0.00     0.211 HD
ENDBRANCH  12  19
BRANCH  13  21
ATOM     21  O   UNL     1      15.793  35.592  31.720  1.00  0.00    -0.385 OA
ATOM     22  H   UNL     1      16.291  35.152  32.458  1.00  0.00     0.211 HD
ENDBRANCH  13  21
ENDBRANCH   7   8
ENDBRANCH   1   7
BRANCH   2  23
ATOM     23  C   UNL     1      11.097  36.153  32.229  1.00  0.00     0.191 C 
BRANCH  23  24
ATOM     24  O   UNL     1      10.020  37.039  32.385  1.00  0.00    -0.394 OA
ATOM     25  H   UNL     1      10.259  37.877  31.908  1.00  0.00     0.210 HD
ENDBRANCH  23  24
ENDBRANCH   2  23
BRANCH   6  26
ATOM     26  O   UNL     1      12.885  33.564  32.221  1.00  0.00    -0.387 OA
ATOM     27  H   UNL     1      13.488  33.685  31.441  1.00  0.00     0.211 HD
ENDBRANCH   6  26
BRANCH   5  28
ATOM     28  O   UNL     1      12.822  32.291  34.664  1.00  0.00    -0.385 OA
ATOM     29  H   UNL     1      12.931  32.024  35.612  1.00  0.00     0.211 HD
ENDBRANCH   5  28
BRANCH   4  30
ATOM     30  O   UNL     1      10.536  33.679  33.816  1.00  0.00    -0.341 OA
BRANCH  30  31
ATOM     31  C   UNL     1       9.201  33.576  34.297  1.00  0.00     0.184 C 
ATOM     32  C   UNL     1       8.236  34.380  33.358  1.00  0.00     0.178 C 
ATOM     33  C   UNL     1       8.826  32.080  34.345  1.00  0.00     0.180 C 
ATOM     34  O   UNL     1       7.371  33.552  32.586  1.00  0.00    -0.342 OA
ATOM     35  C   UNL     1       8.687  31.499  32.919  1.00  0.00     0.201 C 
ATOM     36  C   UNL     1       8.063  32.507  31.917  1.00  0.00     0.279 C 
BRANCH  32  37
ATOM     37  C   UNL     1       7.351  35.349  34.152  1.00  0.00     0.191 C 
BRANCH  37  38
ATOM     38  O   UNL     1       7.349  36.611  33.540  1.00  0.00    -0.394 OA
ATOM     39  H   UNL     1       8.094  36.608  32.884  1.00  0.00     0.210 HD
ENDBRANCH  37  38
ENDBRANCH  32  37
BRANCH  33  40
ATOM     40  O   UNL     1       7.675  31.863  35.124  1.00  0.00    -0.387 OA
ATOM     41  H   UNL     1       7.732  32.431  35.934  1.00  0.00     0.211 HD
ENDBRANCH  33  40
BRANCH  35  42
ATOM     42  O   UNL     1       7.984  30.278  32.944  1.00  0.00    -0.385 OA
ATOM     43  H   UNL     1       7.796  30.017  32.008  1.00  0.00     0.211 HD
ENDBRANCH  35  42
BRANCH  36  44
ATOM     44  O   UNL     1       9.047  32.992  31.035  1.00  0.00    -0.366 OA
ATOM     45  H   UNL     1       9.526  32.212  30.634  1.00  0.00     0.213 HD
ENDBRANCH  36  44
ENDBRANCH  30  31
ENDBRANCH   4  30
TORSDOF 18
ENDMDL
MODEL 4
REMARK VINA RESULT:    -2.431      1.823      8.523
REMARK INTER + INTRA:          -5.031
REMARK INTER:                  -3.961
REMARK INTRA:                  -1.070
REMARK UNBOUND:                -0.823
REMARK SMILES OC[C@@H]1O[C@@H](O[C@H]2[C@H](O)[C@H](O)[C@H](O[C@@H]3[C@@H](O)[C@@H](O)[C@H](O)O[C@H]3CO)O[C@@H]2CO)[C@H](O)[C@@H](O)[C@@H]1O
REMARK SMILES IDX 7 1 26 2 25 3 12 4 10 5 8 6 6 7 5 8 3 9 33 10 4 11 31 12
REMARK SMILES IDX 29 13 2 14 1 15 34 17 32 19 30 21 27 23 28 24 9 26 11 28
REMARK SMILES IDX 13 30 14 31 22 32 15 33 21 34 17 35 19 36 23 37 24 38 16 40
REMARK SMILES IDX 18 42 20 44
REMARK H PARENT 1 16 34 18 32 20 30 22 28 25 9 27 11 29 24 39 16 41 18 43
REMARK H PARENT 20 45
REMARK Flexibility Score: inf
ROOT
ATOM      1  C   UNL     1      10.396  33.398  33.971  1.00  0.00     0.184 C 
ATOM      2  C   UNL     1      11.747  33.609  34.703  1.00  0.00     0.178 C 
ATOM      3  O   UNL     1      11.975  34.950  35.125  1.00  0.00    -0.341 OA
ATOM      4  C   UNL     1      11.809  35.938  34.115  1.00  0.00     0.282 C 
ATOM      5  C   UNL     1      10.439  35.841  33.412  1.00  0.00     0.202 C 
ATOM      6  C   UNL     1      10.194  34.435  32.858  1.00  0.00     0.180 C 
ENDROOT
BRANCH   1   7
ATOM      7  O   UNL     1       9.343  33.540  34.915  1.00  0.00    -0.341 OA
BRANCH   7   8
ATOM      8  C   UNL     1       8.096  33.026  34.476  1.00  0.00     0.282 C 
ATOM      9  C   UNL     1       6.923  31.078  33.839  1.00  0.00     0.178 C 
ATOM     10  C   UNL     1       5.782  32.044  33.387  1.00  0.00     0.177 C 
ATOM     11  O   UNL     1       8.199  31.691  34.000  1.00  0.00    -0.341 OA
ATOM     12  C   UNL     1       6.366  33.229  32.588  1.00  0.00     0.179 C 
ATOM     13  C   UNL     1       7.478  33.950  33.396  1.00  0.00     0.202 C 
BRANCH   9  14
ATOM     14  C   UNL     1       6.577  30.254  35.089  1.00  0.00     0.191 C 
BRANCH  14  15
ATOM     15  O   UNL     1       5.268  29.759  34.992  1.00  0.00    -0.394 OA
ATOM     16  H   UNL     1       4.787  30.109  35.792  1.00  0.00     0.210 HD
ENDBRANCH  14  15
ENDBRANCH   9  14
BRANCH  10  17
ATOM     17  O   UNL     1       5.060  32.522  34.495  1.00  0.00    -0.387 OA
ATOM     18  H   UNL     1       5.351  31.994  35.282  1.00  0.00     0.211 HD
ENDBRANCH  10  17
BRANCH  12  19
ATOM     19  O   UNL     1       6.899  32.761  31.377  1.00  0.00    -0.387 OA
ATOM     20  H   UNL     1       7.277  31.858  31.553  1.00  0.00     0.211 HD
ENDBRANCH  12  19
BRANCH  13  21
ATOM     21  O   UNL     1       6.994  35.135  33.989  1.00  0.00    -0.385 OA
ATOM     22  H   UNL     1       6.837  35.795  33.264  1.00  0.00     0.211 HD
ENDBRANCH  13  21
ENDBRANCH   7   8
ENDBRANCH   1   7
BRANCH   2  23
ATOM     23  C   UNL     1      12.958  32.989  33.977  1.00  0.00     0.191 C 
BRANCH  23  24
ATOM     24  O   UNL     1      13.971  32.706  34.905  1.00  0.00    -0.394 OA
ATOM     25  H   UNL     1      14.366  31.830  34.651  1.00  0.00     0.210 HD
ENDBRANCH  23  24
ENDBRANCH   2  23
BRANCH   6  26
ATOM     26  O   UNL     1      11.053  34.186  31.778  1.00  0.00    -0.387 OA
ATOM     27  H   UNL     1      11.964  34.055  32.151  1.00  0.00     0.211 HD
ENDBRANCH   6  26
BRANCH   5  28
ATOM     28  O   UNL     1      10.340  36.781  32.369  1.00  0.00    -0.385 OA
ATOM     29  H   UNL     1      11.248  36.890  31.985  1.00  0.00     0.211 HD
ENDBRANCH   5  28
BRANCH   4  30
ATOM     30  O   UNL     1      12.869  35.869  33.171  1.00  0.00    -0.341 OA
BRANCH  30  31
ATOM     31  C   UNL     1      13.572  37.099  33.042  1.00  0.00     0.184 C 
ATOM     32  C   UNL     1      13.996  37.617  34.461  1.00  0.00     0.178 C 
ATOM     33  C   UNL     1      14.801  36.855  32.142  1.00  0.00     0.180 C 
ATOM     34  O   UNL     1      15.398  37.546  34.699  1.00  0.00    -0.342 OA
ATOM     35  C   UNL     1      15.847  35.973  32.860  1.00  0.00     0.201 C 
ATOM     36  C   UNL     1      15.946  36.275  34.380  1.00  0.00     0.279 C 
BRANCH  32  37
ATOM     37  C   UNL     1      13.569  39.074  34.681  1.00  0.00     0.191 C 
BRANCH  37  38
ATOM     38  O   UNL     1      12.240  39.125  35.125  1.00  0.00    -0.394 OA
ATOM     39  H   UNL     1      12.168  38.481  35.878  1.00  0.00     0.210 HD
ENDBRANCH  37  38
ENDBRANCH  32  37
BRANCH  33  40
ATOM     40  O   UNL     1      15.350  38.065  31.679  1.00  0.00    -0.387 OA
ATOM     41  H   UNL     1      15.573  38.628  32.463  1.00  0.00     0.211 HD
ENDBRANCH  33  40
BRANCH  35  42
ATOM     42  O   UNL     1      17.100  36.064  32.222  1.00  0.00    -0.385 OA
ATOM     43  H   UNL     1      17.801  35.959  32.913  1.00  0.00     0.211 HD
ENDBRANCH  35  42
BRANCH  36  44
ATOM     44  O   UNL     1      15.359  35.234  35.125  1.00  0.00    -0.366 OA
ATOM     45  H   UNL     1      15.620  35.345  36.083  1.00  0.00     0.213 HD
ENDBRANCH  36  44
ENDBRANCH  30  31
ENDBRANCH   4  30
TORSDOF 18
ENDMDL
MODEL 5
REMARK VINA RESULT:    -2.378      1.595      8.358
REMARK INTER + INTRA:          -4.940
REMARK INTER:                  -3.623
REMARK INTRA:                  -1.316
REMARK UNBOUND:                -0.823
REMARK SMILES OC[C@@H]1O[C@@H](O[C@H]2[C@H](O)[C@H](O)[C@H](O[C@@H]3[C@@H](O)[C@@H](O)[C@H](O)O[C@H]3CO)O[C@@H]2CO)[C@H](O)[C@@H](O)[C@@H]1O
REMARK SMILES IDX 7 1 26 2 25 3 12 4 10 5 8 6 6 7 5 8 3 9 33 10 4 11 31 12
REMARK SMILES IDX 29 13 2 14 1 15 34 17 32 19 30 21 27 23 28 24 9 26 11 28
REMARK SMILES IDX 13 30 14 31 22 32 15 33 21 34 17 35 19 36 23 37 24 38 16 40
REMARK SMILES IDX 18 42 20 44
REMARK H PARENT 1 16 34 18 32 20 30 22 28 25 9 27 11 29 24 39 16 41 18 43
REMARK H PARENT 20 45
REMARK Flexibility Score: inf
ROOT
ATOM      1  C   UNL     1      11.147  33.316  33.585  1.00  0.00     0.184 C 
ATOM      2  C   UNL     1      12.544  33.362  34.258  1.00  0.00     0.178 C 
ATOM      3  O   UNL     1      12.784  34.542  35.017  1.00  0.00    -0.341 OA
ATOM      4  C   UNL     1      12.534  35.763  34.331  1.00  0.00     0.282 C 
ATOM      5  C   UNL     1      11.119  35.819  33.718  1.00  0.00     0.202 C 
ATOM      6  C   UNL     1      10.854  34.611  32.816  1.00  0.00     0.180 C 
ENDROOT
BRANCH   1   7
ATOM      7  O   UNL     1      10.162  33.160  34.597  1.00  0.00    -0.341 OA
BRANCH   7   8
ATOM      8  C   UNL     1       8.828  33.165  34.115  1.00  0.00     0.282 C 
ATOM      9  C   UNL     1       6.702  34.172  34.317  1.00  0.00     0.178 C 
ATOM     10  C   UNL     1       6.191  33.027  33.386  1.00  0.00     0.177 C 
ATOM     11  O   UNL     1       7.956  33.921  34.944  1.00  0.00    -0.341 OA
ATOM     12  C   UNL     1       6.759  31.666  33.847  1.00  0.00     0.179 C 
ATOM     13  C   UNL     1       8.307  31.715  33.945  1.00  0.00     0.202 C 
BRANCH   9  14
ATOM     14  C   UNL     1       6.721  35.553  33.645  1.00  0.00     0.191 C 
BRANCH  14  15
ATOM     15  O   UNL     1       6.432  36.551  34.587  1.00  0.00    -0.394 OA
ATOM     16  H   UNL     1       5.441  36.656  34.575  1.00  0.00     0.210 HD
ENDBRANCH  14  15
ENDBRANCH   9  14
BRANCH  10  17
ATOM     17  O   UNL     1       6.550  33.268  32.048  1.00  0.00    -0.387 OA
ATOM     18  H   UNL     1       5.890  33.910  31.682  1.00  0.00     0.211 HD
ENDBRANCH  10  17
BRANCH  12  19
ATOM     19  O   UNL     1       6.223  31.335  35.101  1.00  0.00    -0.387 OA
ATOM     20  H   UNL     1       5.549  32.031  35.325  1.00  0.00     0.211 HD
ENDBRANCH  12  19
BRANCH  13  21
ATOM     21  O   UNL     1       8.910  31.110  32.822  1.00  0.00    -0.385 OA
ATOM     22  H   UNL     1       8.802  30.127  32.912  1.00  0.00     0.211 HD
ENDBRANCH  13  21
ENDBRANCH   7   8
ENDBRANCH   1   7
BRANCH   2  23
ATOM     23  C   UNL     1      13.708  33.003  33.313  1.00  0.00     0.191 C 
BRANCH  23  24
ATOM     24  O   UNL     1      14.281  31.785  33.710  1.00  0.00    -0.394 OA
ATOM     25  H   UNL     1      15.260  31.856  33.553  1.00  0.00     0.210 HD
ENDBRANCH  23  24
ENDBRANCH   2  23
BRANCH   6  26
ATOM     26  O   UNL     1      11.637  34.695  31.656  1.00  0.00    -0.387 OA
ATOM     27  H   UNL     1      11.180  34.162  30.953  1.00  0.00     0.211 HD
ENDBRANCH   6  26
BRANCH   5  28
ATOM     28  O   UNL     1      10.935  37.004  32.983  1.00  0.00    -0.385 OA
ATOM     29  H   UNL     1      11.468  37.712  33.428  1.00  0.00     0.211 HD
ENDBRANCH   5  28
BRANCH   4  30
ATOM     30  O   UNL     1      13.526  35.989  33.338  1.00  0.00    -0.341 OA
BRANCH  30  31
ATOM     31  C   UNL     1      13.971  37.340  33.303  1.00  0.00     0.184 C 
ATOM     32  C   UNL     1      14.367  37.805  34.748  1.00  0.00     0.178 C 
ATOM     33  C   UNL     1      15.170  37.422  32.336  1.00  0.00     0.180 C 
ATOM     34  O   UNL     1      15.768  37.990  34.924  1.00  0.00    -0.342 OA
ATOM     35  C   UNL     1      16.406  36.703  32.925  1.00  0.00     0.201 C 
ATOM     36  C   UNL     1      16.531  36.884  34.462  1.00  0.00     0.279 C 
BRANCH  32  37
ATOM     37  C   UNL     1      13.680  39.125  35.124  1.00  0.00     0.191 C 
BRANCH  37  38
ATOM     38  O   UNL     1      12.294  39.016  34.940  1.00  0.00    -0.394 OA
ATOM     39  H   UNL     1      12.133  39.083  33.962  1.00  0.00     0.210 HD
ENDBRANCH  37  38
ENDBRANCH  32  37
BRANCH  33  40
ATOM     40  O   UNL     1      15.449  38.752  31.972  1.00  0.00    -0.387 OA
ATOM     41  H   UNL     1      14.886  39.353  32.523  1.00  0.00     0.211 HD
ENDBRANCH  33  40
BRANCH  35  42
ATOM     42  O   UNL     1      17.580  37.095  32.251  1.00  0.00    -0.385 OA
ATOM     43  H   UNL     1      17.591  36.638  31.372  1.00  0.00     0.211 HD
ENDBRANCH  35  42
BRANCH  36  44
ATOM     44  O   UNL     1      16.198  35.688  35.124  1.00  0.00    -0.366 OA
ATOM     45  H   UNL     1      15.206  35.658  35.245  1.00  0.00     0.213 HD
ENDBRANCH  36  44
ENDBRANCH  30  31
ENDBRANCH   4  30
TORSDOF 18
ENDMDL
MODEL 6
REMARK VINA RESULT:    -2.183      1.379      2.284
REMARK INTER + INTRA:          -4.602
REMARK INTER:                  -3.072
REMARK INTRA:                  -1.530
REMARK UNBOUND:                -0.823
REMARK SMILES OC[C@@H]1O[C@@H](O[C@H]2[C@H](O)[C@H](O)[C@H](O[C@@H]3[C@@H](O)[C@@H](O)[C@H](O)O[C@H]3CO)O[C@@H]2CO)[C@H](O)[C@@H](O)[C@@H]1O
REMARK SMILES IDX 7 1 26 2 25 3 12 4 10 5 8 6 6 7 5 8 3 9 33 10 4 11 31 12
REMARK SMILES IDX 29 13 2 14 1 15 34 17 32 19 30 21 27 23 28 24 9 26 11 28
REMARK SMILES IDX 13 30 14 31 22 32 15 33 21 34 17 35 19 36 23 37 24 38 16 40
REMARK SMILES IDX 18 42 20 44
REMARK H PARENT 1 16 34 18 32 20 30 22 28 25 9 27 11 29 24 39 16 41 18 43
REMARK H PARENT 20 45
REMARK Flexibility Score: inf
ROOT
ATOM      1  C   UNL     1      13.741  35.781  33.189  1.00  0.00     0.184 C 
ATOM      2  C   UNL     1      13.088  34.909  32.086  1.00  0.00     0.178 C 
ATOM      3  O   UNL     1      11.748  35.276  31.774  1.00  0.00    -0.341 OA
ATOM      4  C   UNL     1      10.874  35.381  32.892  1.00  0.00     0.282 C 
ATOM      5  C   UNL     1      11.427  36.316  33.989  1.00  0.00     0.202 C 
ATOM      6  C   UNL     1      12.834  35.898  34.422  1.00  0.00     0.180 C 
ENDROOT
BRANCH   1   7
ATOM      7  O   UNL     1      13.960  37.085  32.666  1.00  0.00    -0.341 OA
BRANCH   7   8
ATOM      8  C   UNL     1      15.321  37.383  32.400  1.00  0.00     0.282 C 
ATOM      9  C   UNL     1      16.930  37.734  30.707  1.00  0.00     0.178 C 
ATOM     10  C   UNL     1      17.987  37.707  31.857  1.00  0.00     0.177 C 
ATOM     11  O   UNL     1      15.667  37.164  31.040  1.00  0.00    -0.341 OA
ATOM     12  C   UNL     1      17.707  36.529  32.816  1.00  0.00     0.179 C 
ATOM     13  C   UNL     1      16.248  36.574  33.343  1.00  0.00     0.202 C 
BRANCH   9  14
ATOM     14  C   UNL     1      16.727  39.125  30.086  1.00  0.00     0.191 C 
BRANCH  14  15
ATOM     15  O   UNL     1      16.074  39.009  28.851  1.00  0.00    -0.394 OA
ATOM     16  H   UNL     1      16.765  38.689  28.207  1.00  0.00     0.210 HD
ENDBRANCH  14  15
ENDBRANCH   9  14
BRANCH  10  17
ATOM     17  O   UNL     1      17.983  38.918  32.572  1.00  0.00    -0.387 OA
ATOM     18  H   UNL     1      18.869  39.000  33.009  1.00  0.00     0.211 HD
ENDBRANCH  10  17
BRANCH  12  19
ATOM     19  O   UNL     1      17.922  35.316  32.143  1.00  0.00    -0.387 OA
ATOM     20  H   UNL     1      18.732  34.898  32.541  1.00  0.00     0.211 HD
ENDBRANCH  12  19
BRANCH  13  21
ATOM     21  O   UNL     1      16.192  37.102  34.650  1.00  0.00    -0.385 OA
ATOM     22  H   UNL     1      16.674  37.971  34.647  1.00  0.00     0.211 HD
ENDBRANCH  13  21
ENDBRANCH   7   8
ENDBRANCH   1   7
BRANCH   2  23
ATOM     23  C   UNL     1      13.267  33.393  32.297  1.00  0.00     0.191 C 
BRANCH  23  24
ATOM     24  O   UNL     1      14.297  33.162  33.221  1.00  0.00    -0.394 OA
ATOM     25  H   UNL     1      13.971  33.474  34.107  1.00  0.00     0.210 HD
ENDBRANCH  23  24
ENDBRANCH   2  23
BRANCH   6  26
ATOM     26  O   UNL     1      12.783  34.685  35.123  1.00  0.00    -0.387 OA
ATOM     27  H   UNL     1      12.997  33.962  34.477  1.00  0.00     0.211 HD
ENDBRANCH   6  26
BRANCH   5  28
ATOM     28  O   UNL     1      10.576  36.335  35.110  1.00  0.00    -0.385 OA
ATOM     29  H   UNL     1       9.951  37.096  34.991  1.00  0.00     0.211 HD
ENDBRANCH   5  28
BRANCH   4  30
ATOM     30  O   UNL     1      10.585  34.094  33.422  1.00  0.00    -0.341 OA
BRANCH  30  31
ATOM     31  C   UNL     1       9.274  34.006  33.968  1.00  0.00     0.184 C 
ATOM     32  C   UNL     1       8.236  34.596  32.951  1.00  0.00     0.178 C 
ATOM     33  C   UNL     1       8.984  32.522  34.274  1.00  0.00     0.180 C 
ATOM     34  O   UNL     1       7.394  33.611  32.360  1.00  0.00    -0.342 OA
ATOM     35  C   UNL     1       8.831  31.708  32.969  1.00  0.00     0.201 C 
ATOM     36  C   UNL     1       8.121  32.505  31.842  1.00  0.00     0.279 C 
BRANCH  32  37
ATOM     37  C   UNL     1       7.325  35.638  33.613  1.00  0.00     0.191 C 
BRANCH  37  38
ATOM     38  O   UNL     1       7.508  35.624  35.003  1.00  0.00    -0.394 OA
ATOM     39  H   UNL     1       7.316  36.544  35.323  1.00  0.00     0.210 HD
ENDBRANCH  37  38
ENDBRANCH  32  37
BRANCH  33  40
ATOM     40  O   UNL     1       7.872  32.379  35.125  1.00  0.00    -0.387 OA
ATOM     41  H   UNL     1       8.018  31.585  35.700  1.00  0.00     0.211 HD
ENDBRANCH  33  40
BRANCH  35  42
ATOM     42  O   UNL     1       8.199  30.474  33.221  1.00  0.00    -0.385 OA
ATOM     43  H   UNL     1       8.685  29.775  32.715  1.00  0.00     0.211 HD
ENDBRANCH  35  42
BRANCH  36  44
ATOM     44  O   UNL     1       9.047  32.887  30.853  1.00  0.00    -0.366 OA
ATOM     45  H   UNL     1       9.378  32.063  30.395  1.00  0.00     0.213 HD
ENDBRANCH  36  44
ENDBRANCH  30  31
ENDBRANCH   4  30
TORSDOF 18
ENDMDL
