MODEL 1
REMARK VINA RESULT:    -4.270      0.000      0.000
REMARK INTER + INTRA:          -9.032
REMARK INTER:                  -7.516
REMARK INTRA:                  -1.517
REMARK UNBOUND:                -1.517
REMARK SMILES CCCCCCC=CCCCCCCCC(=O)[O-]
REMARK SMILES IDX 10 1 11 2 12 3 13 4 14 5 15 6 16 7 17 8 18 9 9 10 8 11 7 12
REMARK SMILES IDX 6 13 5 14 4 15 3 16 2 17 1 18
REMARK H PARENT
REMARK Flexibility Score: inf
ROOT
ATOM      1  C   UNL     1     -11.938  -5.111  15.406  1.00  0.00     0.004 C 
ENDROOT
BRANCH   1   2
ATOM      2  C   UNL     1     -13.075  -5.339  14.396  1.00  0.00     0.000 C 
BRANCH   2   3
ATOM      3  C   UNL     1     -12.929  -4.568  13.071  1.00  0.00     0.000 C 
BRANCH   3   4
ATOM      4  C   UNL     1     -12.253  -5.383  11.948  1.00  0.00     0.000 C 
BRANCH   4   5
ATOM      5  C   UNL     1     -10.819  -5.804  12.314  1.00  0.00     0.006 C 
BRANCH   5   6
ATOM      6  C   UNL     1     -10.134  -6.579  11.182  1.00  0.00     0.053 C 
BRANCH   6   7
ATOM      7  C   UNL     1      -8.963  -7.372  11.678  1.00  0.00     0.041 C 
ATOM      8  O   UNL     1      -8.034  -7.691  10.889  1.00  0.00    -0.550 OA
ATOM      9  O   UNL     1      -8.914  -7.788  13.002  1.00  0.00    -0.550 OA
ENDBRANCH   6   7
ENDBRANCH   5   6
ENDBRANCH   4   5
ENDBRANCH   3   4
ENDBRANCH   2   3
ENDBRANCH   1   2
BRANCH   1  10
ATOM     10  C   UNL     1     -11.228  -6.411  15.807  1.00  0.00     0.027 C 
BRANCH  10  11
ATOM     11  C   UNL     1     -12.170  -7.588  15.740  1.00  0.00    -0.031 C 
ATOM     12  C   UNL     1     -12.167  -8.594  16.632  1.00  0.00    -0.031 C 
BRANCH  12  13
ATOM     13  C   UNL     1     -11.264  -8.659  17.838  1.00  0.00     0.027 C 
BRANCH  13  14
ATOM     14  C   UNL     1     -11.926  -7.998  19.051  1.00  0.00     0.004 C 
BRANCH  14  15
ATOM     15  C   UNL     1     -11.033  -6.889  19.628  1.00  0.00     0.000 C 
BRANCH  15  16
ATOM     16  C   UNL     1     -11.774  -5.551  19.780  1.00  0.00    -0.000 C 
BRANCH  16  17
ATOM     17  C   UNL     1     -11.092  -4.408  19.016  1.00  0.00    -0.003 C 
ATOM     18  C   UNL     1      -9.621  -4.722  18.755  1.00  0.00     0.004 C 
ENDBRANCH  16  17
ENDBRANCH  15  16
ENDBRANCH  14  15
ENDBRANCH  13  14
ENDBRANCH  12  13
ENDBRANCH  10  11
ENDBRANCH   1  10
TORSDOF 13
ENDMDL
MODEL 2
REMARK VINA RESULT:    -4.200      6.451      9.474
REMARK INTER + INTRA:          -8.908
REMARK INTER:                  -6.898
REMARK INTRA:                  -2.010
REMARK UNBOUND:                -1.517
REMARK SMILES CCCCCCC=CCCCCCCCC(=O)[O-]
REMARK SMILES IDX 10 1 11 2 12 3 13 4 14 5 15 6 16 7 17 8 18 9 9 10 8 11 7 12
REMARK SMILES IDX 6 13 5 14 4 15 3 16 2 17 1 18
REMARK H PARENT
REMARK Flexibility Score: inf
ROOT
ATOM      1  C   UNL     1     -11.287  -6.613  23.888  1.00  0.00     0.004 C 
ENDROOT
BRANCH   1   2
ATOM      2  C   UNL     1     -12.382  -5.641  24.359  1.00  0.00     0.000 C 
BRANCH   2   3
ATOM      3  C   UNL     1     -12.359  -4.260  23.676  1.00  0.00     0.000 C 
BRANCH   3   4
ATOM      4  C   UNL     1     -10.956  -3.821  23.207  1.00  0.00     0.000 C 
BRANCH   4   5
ATOM      5  C   UNL     1     -10.964  -3.290  21.763  1.00  0.00     0.006 C 
BRANCH   5   6
ATOM      6  C   UNL     1     -11.682  -4.242  20.797  1.00  0.00     0.053 C 
BRANCH   6   7
ATOM      7  C   UNL     1     -12.226  -3.519  19.602  1.00  0.00     0.041 C 
ATOM      8  O   UNL     1     -13.121  -2.645  19.745  1.00  0.00    -0.550 OA
ATOM      9  O   UNL     1     -11.769  -3.835  18.330  1.00  0.00    -0.550 OA
ENDBRANCH   6   7
ENDBRANCH   5   6
ENDBRANCH   4   5
ENDBRANCH   3   4
ENDBRANCH   2   3
ENDBRANCH   1   2
BRANCH   1  10
ATOM     10  C   UNL     1     -11.247  -7.908  24.711  1.00  0.00     0.027 C 
BRANCH  10  11
ATOM     11  C   UNL     1     -12.603  -8.225  25.292  1.00  0.00    -0.031 C 
ATOM     12  C   UNL     1     -12.788  -8.665  26.550  1.00  0.00    -0.031 C 
BRANCH  12  13
ATOM     13  C   UNL     1     -11.682  -8.853  27.556  1.00  0.00     0.027 C 
BRANCH  13  14
ATOM     14  C   UNL     1     -11.710  -7.742  28.612  1.00  0.00     0.004 C 
BRANCH  14  15
ATOM     15  C   UNL     1     -10.636  -6.683  28.322  1.00  0.00     0.000 C 
BRANCH  15  16
ATOM     16  C   UNL     1     -11.229  -5.280  28.119  1.00  0.00    -0.000 C 
BRANCH  16  17
ATOM     17  C   UNL     1     -10.499  -4.482  27.029  1.00  0.00    -0.003 C 
ATOM     18  C   UNL     1      -9.182  -5.152  26.646  1.00  0.00     0.004 C 
ENDBRANCH  16  17
ENDBRANCH  15  16
ENDBRANCH  14  15
ENDBRANCH  13  14
ENDBRANCH  12  13
ENDBRANCH  10  11
ENDBRANCH   1  10
TORSDOF 13
ENDMDL
MODEL 3
REMARK VINA RESULT:    -4.199     17.019     18.507
REMARK INTER + INTRA:          -8.906
REMARK INTER:                  -7.230
REMARK INTRA:                  -1.676
REMARK UNBOUND:                -1.517
REMARK SMILES CCCCCCC=CCCCCCCCC(=O)[O-]
REMARK SMILES IDX 10 1 11 2 12 3 13 4 14 5 15 6 16 7 17 8 18 9 9 10 8 11 7 12
REMARK SMILES IDX 6 13 5 14 4 15 3 16 2 17 1 18
REMARK H PARENT
REMARK Flexibility Score: inf
ROOT
ATOM      1  C   UNL     1       6.441  -7.587  14.608  1.00  0.00     0.004 C 
ENDROOT
BRANCH   1   2
ATOM      2  C   UNL     1       6.929  -7.683  16.063  1.00  0.00     0.000 C 
BRANCH   2   3
ATOM      3  C   UNL     1       6.471  -8.947  16.816  1.00  0.00     0.000 C 
BRANCH   3   4
ATOM      4  C   UNL     1       5.665  -8.650  18.099  1.00  0.00     0.000 C 
BRANCH   4   5
ATOM      5  C   UNL     1       6.151  -7.375  18.810  1.00  0.00     0.006 C 
BRANCH   5   6
ATOM      6  C   UNL     1       6.489  -7.626  20.286  1.00  0.00     0.053 C 
BRANCH   6   7
ATOM      7  C   UNL     1       6.414  -6.368  21.097  1.00  0.00     0.041 C 
ATOM      8  O   UNL     1       6.627  -6.402  22.338  1.00  0.00    -0.550 OA
ATOM      9  O   UNL     1       6.074  -5.167  20.489  1.00  0.00    -0.550 OA
ENDBRANCH   6   7
ENDBRANCH   5   6
ENDBRANCH   4   5
ENDBRANCH   3   4
ENDBRANCH   2   3
ENDBRANCH   1   2
BRANCH   1  10
ATOM     10  C   UNL     1       5.965  -6.176  14.232  1.00  0.00     0.027 C 
BRANCH  10  11
ATOM     11  C   UNL     1       6.644  -5.690  12.975  1.00  0.00    -0.031 C 
ATOM     12  C   UNL     1       6.534  -4.433  12.509  1.00  0.00    -0.031 C 
BRANCH  12  13
ATOM     13  C   UNL     1       5.764  -3.335  13.198  1.00  0.00     0.027 C 
BRANCH  13  14
ATOM     14  C   UNL     1       6.716  -2.343  13.874  1.00  0.00     0.004 C 
BRANCH  14  15
ATOM     15  C   UNL     1       6.393  -2.203  15.369  1.00  0.00     0.000 C 
BRANCH  15  16
ATOM     16  C   UNL     1       5.043  -2.834  15.744  1.00  0.00    -0.000 C 
BRANCH  16  17
ATOM     17  C   UNL     1       5.152  -3.802  16.931  1.00  0.00    -0.003 C 
ATOM     18  C   UNL     1       6.610  -4.137  17.234  1.00  0.00     0.004 C 
ENDBRANCH  16  17
ENDBRANCH  15  16
ENDBRANCH  14  15
ENDBRANCH  13  14
ENDBRANCH  12  13
ENDBRANCH  10  11
ENDBRANCH   1  10
TORSDOF 13
ENDMDL
MODEL 4
REMARK VINA RESULT:    -4.194      3.442      7.719
REMARK INTER + INTRA:          -8.898
REMARK INTER:                  -7.817
REMARK INTRA:                  -1.081
REMARK UNBOUND:                -1.517
REMARK SMILES CCCCCCC=CCCCCCCCC(=O)[O-]
REMARK SMILES IDX 10 1 11 2 12 3 13 4 14 5 15 6 16 7 17 8 18 9 9 10 8 11 7 12
REMARK SMILES IDX 6 13 5 14 4 15 3 16 2 17 1 18
REMARK H PARENT
REMARK Flexibility Score: inf
ROOT
ATOM      1  C   UNL     1     -10.479  -7.471  18.275  1.00  0.00     0.004 C 
ENDROOT
BRANCH   1   2
ATOM      2  C   UNL     1     -11.700  -8.306  18.699  1.00  0.00     0.000 C 
BRANCH   2   3
ATOM      3  C   UNL     1     -11.621  -8.891  20.122  1.00  0.00     0.000 C 
BRANCH   3   4
ATOM      4  C   UNL     1     -10.372  -8.444  20.911  1.00  0.00     0.000 C 
BRANCH   4   5
ATOM      5  C   UNL     1     -10.710  -7.418  22.006  1.00  0.00     0.006 C 
BRANCH   5   6
ATOM      6  C   UNL     1     -10.217  -6.008  21.654  1.00  0.00     0.053 C 
BRANCH   6   7
ATOM      7  C   UNL     1     -11.353  -5.049  21.470  1.00  0.00     0.041 C 
ATOM      8  O   UNL     1     -11.979  -4.610  22.471  1.00  0.00    -0.550 OA
ATOM      9  O   UNL     1     -11.742  -4.668  20.192  1.00  0.00    -0.550 OA
ENDBRANCH   6   7
ENDBRANCH   5   6
ENDBRANCH   4   5
ENDBRANCH   3   4
ENDBRANCH   2   3
ENDBRANCH   1   2
BRANCH   1  10
ATOM     10  C   UNL     1     -10.565  -6.987  16.821  1.00  0.00     0.027 C 
BRANCH  10  11
ATOM     11  C   UNL     1     -11.022  -5.551  16.753  1.00  0.00    -0.031 C 
ATOM     12  C   UNL     1     -11.809  -5.066  15.776  1.00  0.00    -0.031 C 
BRANCH  12  13
ATOM     13  C   UNL     1     -12.378  -5.896  14.653  1.00  0.00     0.027 C 
BRANCH  13  14
ATOM     14  C   UNL     1     -12.826  -5.004  13.489  1.00  0.00     0.004 C 
BRANCH  14  15
ATOM     15  C   UNL     1     -12.084  -5.376  12.196  1.00  0.00     0.000 C 
BRANCH  15  16
ATOM     16  C   UNL     1     -10.881  -6.299  12.448  1.00  0.00    -0.000 C 
BRANCH  16  17
ATOM     17  C   UNL     1     -10.033  -6.522  11.188  1.00  0.00    -0.003 C 
ATOM     18  C   UNL     1      -8.906  -5.496  11.096  1.00  0.00     0.004 C 
ENDBRANCH  16  17
ENDBRANCH  15  16
ENDBRANCH  14  15
ENDBRANCH  13  14
ENDBRANCH  12  13
ENDBRANCH  10  11
ENDBRANCH   1  10
TORSDOF 13
ENDMDL
MODEL 5
REMARK VINA RESULT:    -4.104     15.688     17.262
REMARK INTER + INTRA:          -8.739
REMARK INTER:                  -6.551
REMARK INTRA:                  -2.188
REMARK UNBOUND:                -1.517
REMARK SMILES CCCCCCC=CCCCCCCCC(=O)[O-]
REMARK SMILES IDX 10 1 11 2 12 3 13 4 14 5 15 6 16 7 17 8 18 9 9 10 8 11 7 12
REMARK SMILES IDX 6 13 5 14 4 15 3 16 2 17 1 18
REMARK H PARENT
REMARK Flexibility Score: inf
ROOT
ATOM      1  C   UNL     1       4.215  -5.809  14.563  1.00  0.00     0.004 C 
ENDROOT
BRANCH   1   2
ATOM      2  C   UNL     1       4.195  -5.747  16.100  1.00  0.00     0.000 C 
BRANCH   2   3
ATOM      3  C   UNL     1       4.732  -4.435  16.701  1.00  0.00     0.000 C 
BRANCH   3   4
ATOM      4  C   UNL     1       6.164  -4.081  16.245  1.00  0.00     0.000 C 
BRANCH   4   5
ATOM      5  C   UNL     1       6.269  -2.638  15.720  1.00  0.00     0.006 C 
BRANCH   5   6
ATOM      6  C   UNL     1       6.624  -2.586  14.228  1.00  0.00     0.053 C 
BRANCH   6   7
ATOM      7  C   UNL     1       5.415  -2.763  13.360  1.00  0.00     0.041 C 
ATOM      8  O   UNL     1       4.289  -2.356  13.754  1.00  0.00    -0.550 OA
ATOM      9  O   UNL     1       5.526  -3.407  12.135  1.00  0.00    -0.550 OA
ENDBRANCH   6   7
ENDBRANCH   5   6
ENDBRANCH   4   5
ENDBRANCH   3   4
ENDBRANCH   2   3
ENDBRANCH   1   2
BRANCH   1  10
ATOM     10  C   UNL     1       4.896  -7.077  14.028  1.00  0.00     0.027 C 
BRANCH  10  11
ATOM     11  C   UNL     1       6.380  -7.053  14.301  1.00  0.00    -0.031 C 
ATOM     12  C   UNL     1       6.989  -7.879  15.171  1.00  0.00    -0.031 C 
BRANCH  12  13
ATOM     13  C   UNL     1       6.287  -8.964  15.947  1.00  0.00     0.027 C 
BRANCH  13  14
ATOM     14  C   UNL     1       6.336  -8.677  17.452  1.00  0.00     0.004 C 
BRANCH  14  15
ATOM     15  C   UNL     1       7.116  -7.385  17.738  1.00  0.00     0.000 C 
BRANCH  15  16
ATOM     16  C   UNL     1       6.666  -6.698  19.037  1.00  0.00    -0.000 C 
BRANCH  16  17
ATOM     17  C   UNL     1       5.527  -7.451  19.740  1.00  0.00    -0.003 C 
ATOM     18  C   UNL     1       5.978  -7.982  21.099  1.00  0.00     0.004 C 
ENDBRANCH  16  17
ENDBRANCH  15  16
ENDBRANCH  14  15
ENDBRANCH  13  14
ENDBRANCH  12  13
ENDBRANCH  10  11
ENDBRANCH   1  10
TORSDOF 13
ENDMDL
MODEL 6
REMARK VINA RESULT:    -4.101      3.378      7.257
REMARK INTER + INTRA:          -8.734
REMARK INTER:                  -6.935
REMARK INTRA:                  -1.799
REMARK UNBOUND:                -1.517
REMARK SMILES CCCCCCC=CCCCCCCCC(=O)[O-]
REMARK SMILES IDX 10 1 11 2 12 3 13 4 14 5 15 6 16 7 17 8 18 9 9 10 8 11 7 12
REMARK SMILES IDX 6 13 5 14 4 15 3 16 2 17 1 18
REMARK H PARENT
REMARK Flexibility Score: inf
ROOT
ATOM      1  C   UNL     1     -11.278  -8.834  17.945  1.00  0.00     0.004 C 
ENDROOT
BRANCH   1   2
ATOM      2  C   UNL     1     -11.992  -8.359  19.222  1.00  0.00     0.000 C 
BRANCH   2   3
ATOM      3  C   UNL     1     -11.147  -8.447  20.507  1.00  0.00     0.000 C 
BRANCH   3   4
ATOM      4  C   UNL     1      -9.755  -7.790  20.383  1.00  0.00     0.000 C 
BRANCH   4   5
ATOM      5  C   UNL     1      -9.838  -6.255  20.325  1.00  0.00     0.006 C 
BRANCH   5   6
ATOM      6  C   UNL     1     -10.637  -5.671  21.497  1.00  0.00     0.053 C 
BRANCH   6   7
ATOM      7  C   UNL     1     -11.649  -4.666  21.036  1.00  0.00     0.041 C 
ATOM      8  O   UNL     1     -12.079  -4.698  19.853  1.00  0.00    -0.550 OA
ATOM      9  O   UNL     1     -12.088  -3.674  21.902  1.00  0.00    -0.550 OA
ENDBRANCH   6   7
ENDBRANCH   5   6
ENDBRANCH   4   5
ENDBRANCH   3   4
ENDBRANCH   2   3
ENDBRANCH   1   2
BRANCH   1  10
ATOM     10  C   UNL     1     -11.631  -7.985  16.716  1.00  0.00     0.027 C 
BRANCH  10  11
ATOM     11  C   UNL     1     -11.077  -6.587  16.844  1.00  0.00    -0.031 C 
ATOM     12  C   UNL     1      -9.937  -6.183  16.256  1.00  0.00    -0.031 C 
BRANCH  12  13
ATOM     13  C   UNL     1      -9.090  -7.048  15.357  1.00  0.00     0.027 C 
BRANCH  13  14
ATOM     14  C   UNL     1      -9.063  -6.489  13.931  1.00  0.00     0.004 C 
BRANCH  14  15
ATOM     15  C   UNL     1     -10.366  -6.820  13.187  1.00  0.00     0.000 C 
BRANCH  15  16
ATOM     16  C   UNL     1     -10.740  -5.754  12.145  1.00  0.00    -0.000 C 
BRANCH  16  17
ATOM     17  C   UNL     1     -12.182  -5.252  12.305  1.00  0.00    -0.003 C 
ATOM     18  C   UNL     1     -12.582  -5.191  13.776  1.00  0.00     0.004 C 
ENDBRANCH  16  17
ENDBRANCH  15  16
ENDBRANCH  14  15
ENDBRANCH  13  14
ENDBRANCH  12  13
ENDBRANCH  10  11
ENDBRANCH   1  10
TORSDOF 13
ENDMDL
MODEL 7
REMARK VINA RESULT:    -4.083      2.993      5.648
REMARK INTER + INTRA:          -8.702
REMARK INTER:                  -7.245
REMARK INTRA:                  -1.457
REMARK UNBOUND:                -1.517
REMARK SMILES CCCCCCC=CCCCCCCCC(=O)[O-]
REMARK SMILES IDX 10 1 11 2 12 3 13 4 14 5 15 6 16 7 17 8 18 9 9 10 8 11 7 12
REMARK SMILES IDX 6 13 5 14 4 15 3 16 2 17 1 18
REMARK H PARENT
REMARK Flexibility Score: inf
ROOT
ATOM      1  C   UNL     1     -11.579  -6.650  19.748  1.00  0.00     0.004 C 
ENDROOT
BRANCH   1   2
ATOM      2  C   UNL     1     -10.644  -7.868  19.669  1.00  0.00     0.000 C 
BRANCH   2   3
ATOM      3  C   UNL     1     -10.913  -8.814  18.484  1.00  0.00     0.000 C 
BRANCH   3   4
ATOM      4  C   UNL     1     -12.183  -8.461  17.681  1.00  0.00     0.000 C 
BRANCH   4   5
ATOM      5  C   UNL     1     -11.880  -8.194  16.196  1.00  0.00     0.006 C 
BRANCH   5   6
ATOM      6  C   UNL     1     -11.299  -6.793  15.965  1.00  0.00     0.053 C 
BRANCH   6   7
ATOM      7  C   UNL     1     -11.848  -6.160  14.722  1.00  0.00     0.041 C 
ATOM      8  O   UNL     1     -11.321  -6.400  13.604  1.00  0.00    -0.550 OA
ATOM      9  O   UNL     1     -12.918  -5.279  14.805  1.00  0.00    -0.550 OA
ENDBRANCH   6   7
ENDBRANCH   5   6
ENDBRANCH   4   5
ENDBRANCH   3   4
ENDBRANCH   2   3
ENDBRANCH   1   2
BRANCH   1  10
ATOM     10  C   UNL     1     -10.817  -5.323  19.883  1.00  0.00     0.027 C 
BRANCH  10  11
ATOM     11  C   UNL     1     -11.769  -4.165  20.051  1.00  0.00    -0.031 C 
ATOM     12  C   UNL     1     -12.013  -3.569  21.232  1.00  0.00    -0.031 C 
BRANCH  12  13
ATOM     13  C   UNL     1     -11.338  -3.940  22.528  1.00  0.00     0.027 C 
BRANCH  13  14
ATOM     14  C   UNL     1     -12.371  -4.164  23.637  1.00  0.00     0.004 C 
BRANCH  14  15
ATOM     15  C   UNL     1     -12.267  -5.587  24.206  1.00  0.00     0.000 C 
BRANCH  15  16
ATOM     16  C   UNL     1     -11.212  -6.438  23.481  1.00  0.00    -0.000 C 
BRANCH  16  17
ATOM     17  C   UNL     1     -11.238  -7.910  23.918  1.00  0.00    -0.003 C 
ATOM     18  C   UNL     1     -12.270  -8.137  25.019  1.00  0.00     0.004 C 
ENDBRANCH  16  17
ENDBRANCH  15  16
ENDBRANCH  14  15
ENDBRANCH  13  14
ENDBRANCH  12  13
ENDBRANCH  10  11
ENDBRANCH   1  10
TORSDOF 13
ENDMDL
MODEL 8
REMARK VINA RESULT:    -4.067      8.016     10.487
REMARK INTER + INTRA:          -8.675
REMARK INTER:                  -6.283
REMARK INTRA:                  -2.392
REMARK UNBOUND:                -1.517
REMARK SMILES CCCCCCC=CCCCCCCCC(=O)[O-]
REMARK SMILES IDX 10 1 11 2 12 3 13 4 14 5 15 6 16 7 17 8 18 9 9 10 8 11 7 12
REMARK SMILES IDX 6 13 5 14 4 15 3 16 2 17 1 18
REMARK H PARENT
REMARK Flexibility Score: inf
ROOT
ATOM      1  C   UNL     1     -10.637  -8.452  25.564  1.00  0.00     0.004 C 
ENDROOT
BRANCH   1   2
ATOM      2  C   UNL     1     -11.566  -8.126  24.383  1.00  0.00     0.000 C 
BRANCH   2   3
ATOM      3  C   UNL     1     -11.419  -6.700  23.818  1.00  0.00     0.000 C 
BRANCH   3   4
ATOM      4  C   UNL     1     -12.384  -5.676  24.454  1.00  0.00     0.000 C 
BRANCH   4   5
ATOM      5  C   UNL     1     -12.239  -4.276  23.834  1.00  0.00     0.006 C 
BRANCH   5   6
ATOM      6  C   UNL     1     -11.753  -4.331  22.380  1.00  0.00     0.053 C 
BRANCH   6   7
ATOM      7  C   UNL     1     -10.382  -3.744  22.227  1.00  0.00     0.041 C 
ATOM      8  O   UNL     1      -9.457  -4.426  21.710  1.00  0.00    -0.550 OA
ATOM      9  O   UNL     1     -10.119  -2.461  22.687  1.00  0.00    -0.550 OA
ENDBRANCH   6   7
ENDBRANCH   5   6
ENDBRANCH   4   5
ENDBRANCH   3   4
ENDBRANCH   2   3
ENDBRANCH   1   2
BRANCH   1  10
ATOM     10  C   UNL     1     -11.381  -9.086  26.748  1.00  0.00     0.027 C 
BRANCH  10  11
ATOM     11  C   UNL     1     -12.781  -8.536  26.868  1.00  0.00    -0.031 C 
ATOM     12  C   UNL     1     -13.125  -7.561  27.729  1.00  0.00    -0.031 C 
BRANCH  12  13
ATOM     13  C   UNL     1     -12.158  -6.857  28.647  1.00  0.00     0.027 C 
BRANCH  13  14
ATOM     14  C   UNL     1     -11.996  -5.387  28.244  1.00  0.00     0.004 C 
BRANCH  14  15
ATOM     15  C   UNL     1     -10.515  -4.979  28.240  1.00  0.00     0.000 C 
BRANCH  15  16
ATOM     16  C   UNL     1      -9.997  -4.648  26.832  1.00  0.00    -0.000 C 
BRANCH  16  17
ATOM     17  C   UNL     1      -8.685  -5.373  26.499  1.00  0.00    -0.003 C 
ATOM     18  C   UNL     1      -8.342  -5.235  25.018  1.00  0.00     0.004 C 
ENDBRANCH  16  17
ENDBRANCH  15  16
ENDBRANCH  14  15
ENDBRANCH  13  14
ENDBRANCH  12  13
ENDBRANCH  10  11
ENDBRANCH   1  10
TORSDOF 13
ENDMDL
MODEL 9
REMARK VINA RESULT:    -3.761      3.116      5.552
REMARK INTER + INTRA:          -8.137
REMARK INTER:                  -6.852
REMARK INTRA:                  -1.285
REMARK UNBOUND:                -1.517
REMARK SMILES CCCCCCC=CCCCCCCCC(=O)[O-]
REMARK SMILES IDX 10 1 11 2 12 3 13 4 14 5 15 6 16 7 17 8 18 9 9 10 8 11 7 12
REMARK SMILES IDX 6 13 5 14 4 15 3 16 2 17 1 18
REMARK H PARENT
REMARK Flexibility Score: inf
ROOT
ATOM      1  C   UNL     1     -10.996  -8.820  20.475  1.00  0.00     0.004 C 
ENDROOT
BRANCH   1   2
ATOM      2  C   UNL     1     -11.956  -8.362  19.365  1.00  0.00     0.000 C 
BRANCH   2   3
ATOM      3  C   UNL     1     -11.290  -7.585  18.213  1.00  0.00     0.000 C 
BRANCH   3   4
ATOM      4  C   UNL     1     -11.084  -8.423  16.934  1.00  0.00     0.000 C 
BRANCH   4   5
ATOM      5  C   UNL     1     -12.081  -8.047  15.824  1.00  0.00     0.006 C 
BRANCH   5   6
ATOM      6  C   UNL     1     -11.504  -7.011  14.851  1.00  0.00     0.053 C 
BRANCH   6   7
ATOM      7  C   UNL     1     -12.147  -5.667  15.020  1.00  0.00     0.041 C 
ATOM      8  O   UNL     1     -13.125  -5.338  14.298  1.00  0.00    -0.550 OA
ATOM      9  O   UNL     1     -11.643  -4.768  15.950  1.00  0.00    -0.550 OA
ENDBRANCH   6   7
ENDBRANCH   5   6
ENDBRANCH   4   5
ENDBRANCH   3   4
ENDBRANCH   2   3
ENDBRANCH   1   2
BRANCH   1  10
ATOM     10  C   UNL     1     -10.830  -7.774  21.587  1.00  0.00     0.027 C 
BRANCH  10  11
ATOM     11  C   UNL     1     -11.206  -8.346  22.932  1.00  0.00    -0.031 C 
ATOM     12  C   UNL     1     -11.254  -7.619  24.062  1.00  0.00    -0.031 C 
BRANCH  12  13
ATOM     13  C   UNL     1     -10.991  -6.136  24.131  1.00  0.00     0.027 C 
BRANCH  13  14
ATOM     14  C   UNL     1     -12.302  -5.355  24.274  1.00  0.00     0.004 C 
BRANCH  14  15
ATOM     15  C   UNL     1     -12.276  -4.078  23.421  1.00  0.00     0.000 C 
BRANCH  15  16
ATOM     16  C   UNL     1     -10.878  -3.765  22.866  1.00  0.00    -0.000 C 
BRANCH  16  17
ATOM     17  C   UNL     1     -10.890  -3.487  21.356  1.00  0.00    -0.003 C 
ATOM     18  C   UNL     1     -11.905  -4.376  20.642  1.00  0.00     0.004 C 
ENDBRANCH  16  17
ENDBRANCH  15  16
ENDBRANCH  14  15
ENDBRANCH  13  14
ENDBRANCH  12  13
ENDBRANCH  10  11
ENDBRANCH   1  10
TORSDOF 13
ENDMDL
