MODEL 1
REMARK VINA RESULT:    -4.029      0.000      0.000
REMARK INTER + INTRA:          -7.013
REMARK INTER:                  -6.150
REMARK INTRA:                  -0.863
REMARK UNBOUND:                -0.863
REMARK SMILES O=C([O-])CCCCCCCCC(=O)[O-]
REMARK SMILES IDX 7 1 6 2 5 3 4 4 2 5 1 6 3 7 8 8 9 9 10 10 11 11 12 12 13 13
REMARK SMILES IDX 14 14
REMARK H PARENT
REMARK Flexibility Score: inf
ROOT
ATOM      1  C   UNL     1      19.282  -5.598 -18.011  1.00  0.00     0.000 C 
ENDROOT
BRANCH   1   2
ATOM      2  C   UNL     1      18.683  -6.273 -16.764  1.00  0.00     0.000 C 
BRANCH   2   3
ATOM      3  C   UNL     1      17.162  -6.077 -16.661  1.00  0.00     0.006 C 
BRANCH   3   4
ATOM      4  C   UNL     1      16.780  -4.774 -15.947  1.00  0.00     0.053 C 
BRANCH   4   5
ATOM      5  C   UNL     1      16.131  -3.824 -16.904  1.00  0.00     0.041 C 
ATOM      6  O   UNL     1      15.475  -4.264 -17.886  1.00  0.00    -0.550 OA
ATOM      7  O   UNL     1      16.292  -2.455 -16.742  1.00  0.00    -0.550 OA
ENDBRANCH   4   5
ENDBRANCH   3   4
ENDBRANCH   2   3
ENDBRANCH   1   2
BRANCH   1   8
ATOM      8  C   UNL     1      20.507  -4.731 -17.681  1.00  0.00     0.000 C 
BRANCH   8   9
ATOM      9  C   UNL     1      20.207  -3.226 -17.760  1.00  0.00     0.000 C 
BRANCH   9  10
ATOM     10  C   UNL     1      19.148  -2.932 -18.830  1.00  0.00     0.006 C 
BRANCH  10  11
ATOM     11  C   UNL     1      19.778  -2.285 -20.065  1.00  0.00     0.053 C 
BRANCH  11  12
ATOM     12  C   UNL     1      20.054  -3.317 -21.114  1.00  0.00     0.041 C 
ATOM     13  O   UNL     1      21.196  -3.397 -21.640  1.00  0.00    -0.550 OA
ATOM     14  O   UNL     1      19.035  -4.158 -21.547  1.00  0.00    -0.550 OA
ENDBRANCH  11  12
ENDBRANCH  10  11
ENDBRANCH   9  10
ENDBRANCH   8   9
ENDBRANCH   1   8
TORSDOF 9
ENDMDL
MODEL 2
REMARK VINA RESULT:    -4.021      9.123     11.103
REMARK INTER + INTRA:          -7.000
REMARK INTER:                  -5.982
REMARK INTRA:                  -1.017
REMARK UNBOUND:                -0.863
REMARK SMILES O=C([O-])CCCCCCCCC(=O)[O-]
REMARK SMILES IDX 7 1 6 2 5 3 4 4 2 5 1 6 3 7 8 8 9 9 10 10 11 11 12 12 13 13
REMARK SMILES IDX 14 14
REMARK H PARENT
REMARK Flexibility Score: inf
ROOT
ATOM      1  C   UNL     1       7.167  -4.142 -24.167  1.00  0.00     0.000 C 
ENDROOT
BRANCH   1   2
ATOM      2  C   UNL     1       8.239  -4.192 -25.270  1.00  0.00     0.000 C 
BRANCH   2   3
ATOM      3  C   UNL     1       9.485  -3.362 -24.919  1.00  0.00     0.006 C 
BRANCH   3   4
ATOM      4  C   UNL     1      10.782  -3.991 -25.444  1.00  0.00     0.053 C 
BRANCH   4   5
ATOM      5  C   UNL     1      11.916  -3.704 -24.510  1.00  0.00     0.041 C 
ATOM      6  O   UNL     1      12.996  -4.345 -24.609  1.00  0.00    -0.550 OA
ATOM      7  O   UNL     1      11.763  -2.763 -23.500  1.00  0.00    -0.550 OA
ENDBRANCH   4   5
ENDBRANCH   3   4
ENDBRANCH   2   3
ENDBRANCH   1   2
BRANCH   1   8
ATOM      8  C   UNL     1       7.771  -4.193 -22.755  1.00  0.00     0.000 C 
BRANCH   8   9
ATOM      9  C   UNL     1       7.316  -5.426 -21.959  1.00  0.00     0.000 C 
BRANCH   9  10
ATOM     10  C   UNL     1       8.517  -6.282 -21.539  1.00  0.00     0.006 C 
BRANCH  10  11
ATOM     11  C   UNL     1       9.827  -5.505 -21.692  1.00  0.00     0.053 C 
BRANCH  11  12
ATOM     12  C   UNL     1      10.846  -6.333 -22.412  1.00  0.00     0.041 C 
ATOM     13  O   UNL     1      10.535  -6.941 -23.470  1.00  0.00    -0.550 OA
ATOM     14  O   UNL     1      12.125  -6.471 -21.887  1.00  0.00    -0.550 OA
ENDBRANCH  11  12
ENDBRANCH  10  11
ENDBRANCH   9  10
ENDBRANCH   8   9
ENDBRANCH   1   8
TORSDOF 9
ENDMDL
MODEL 3
REMARK VINA RESULT:    -3.994      9.370     10.732
REMARK INTER + INTRA:          -6.958
REMARK INTER:                  -5.996
REMARK INTRA:                  -0.962
REMARK UNBOUND:                -0.863
REMARK SMILES O=C([O-])CCCCCCCCC(=O)[O-]
REMARK SMILES IDX 7 1 6 2 5 3 4 4 2 5 1 6 3 7 8 8 9 9 10 10 11 11 12 12 13 13
REMARK SMILES IDX 14 14
REMARK H PARENT
REMARK Flexibility Score: inf
ROOT
ATOM      1  C   UNL     1       7.853  -4.238 -22.741  1.00  0.00     0.000 C 
ENDROOT
BRANCH   1   2
ATOM      2  C   UNL     1       7.424  -5.553 -22.066  1.00  0.00     0.000 C 
BRANCH   2   3
ATOM      3  C   UNL     1       8.616  -6.338 -21.495  1.00  0.00     0.006 C 
BRANCH   3   4
ATOM      4  C   UNL     1       9.967  -5.700 -21.842  1.00  0.00     0.053 C 
BRANCH   4   5
ATOM      5  C   UNL     1      10.825  -6.670 -22.592  1.00  0.00     0.041 C 
ATOM      6  O   UNL     1      10.365  -7.283 -23.591  1.00  0.00    -0.550 OA
ATOM      7  O   UNL     1      12.117  -6.935 -22.157  1.00  0.00    -0.550 OA
ENDBRANCH   4   5
ENDBRANCH   3   4
ENDBRANCH   2   3
ENDBRANCH   1   2
BRANCH   1   8
ATOM      8  C   UNL     1       7.219  -4.053 -24.129  1.00  0.00     0.000 C 
BRANCH   8   9
ATOM      9  C   UNL     1       8.210  -3.500 -25.165  1.00  0.00     0.000 C 
BRANCH   9  10
ATOM     10  C   UNL     1       9.411  -4.439 -25.331  1.00  0.00     0.006 C 
BRANCH  10  11
ATOM     11  C   UNL     1      10.729  -3.685 -25.138  1.00  0.00     0.053 C 
BRANCH  11  12
ATOM     12  C   UNL     1      11.870  -4.469 -25.708  1.00  0.00     0.041 C 
ATOM     13  O   UNL     1      12.826  -4.823 -24.969  1.00  0.00    -0.550 OA
ATOM     14  O   UNL     1      11.900  -4.765 -27.065  1.00  0.00    -0.550 OA
ENDBRANCH  11  12
ENDBRANCH  10  11
ENDBRANCH   9  10
ENDBRANCH   8   9
ENDBRANCH   1   8
TORSDOF 9
ENDMDL
MODEL 4
REMARK VINA RESULT:    -3.977     11.715     13.590
REMARK INTER + INTRA:          -6.932
REMARK INTER:                  -6.014
REMARK INTRA:                  -0.919
REMARK UNBOUND:                -0.863
REMARK SMILES O=C([O-])CCCCCCCCC(=O)[O-]
REMARK SMILES IDX 7 1 6 2 5 3 4 4 2 5 1 6 3 7 8 8 9 9 10 10 11 11 12 12 13 13
REMARK SMILES IDX 14 14
REMARK H PARENT
REMARK Flexibility Score: inf
ROOT
ATOM      1  C   UNL     1       8.978  -4.588 -25.204  1.00  0.00     0.000 C 
ENDROOT
BRANCH   1   2
ATOM      2  C   UNL     1       8.032  -3.374 -25.188  1.00  0.00     0.000 C 
BRANCH   2   3
ATOM      3  C   UNL     1       6.557  -3.778 -25.035  1.00  0.00     0.006 C 
BRANCH   3   4
ATOM      4  C   UNL     1       6.177  -4.975 -25.916  1.00  0.00     0.053 C 
BRANCH   4   5
ATOM      5  C   UNL     1       5.203  -4.557 -26.973  1.00  0.00     0.041 C 
ATOM      6  O   UNL     1       4.355  -3.657 -26.733  1.00  0.00    -0.550 OA
ATOM      7  O   UNL     1       5.198  -5.197 -28.205  1.00  0.00    -0.550 OA
ENDBRANCH   4   5
ENDBRANCH   3   4
ENDBRANCH   2   3
ENDBRANCH   1   2
BRANCH   1   8
ATOM      8  C   UNL     1       9.970  -4.579 -24.030  1.00  0.00     0.000 C 
BRANCH   8   9
ATOM      9  C   UNL     1       9.312  -4.186 -22.699  1.00  0.00     0.000 C 
BRANCH   9  10
ATOM     10  C   UNL     1       8.939  -5.431 -21.883  1.00  0.00     0.006 C 
BRANCH  10  11
ATOM     11  C   UNL     1       7.425  -5.660 -21.890  1.00  0.00     0.053 C 
BRANCH  11  12
ATOM     12  C   UNL     1       7.105  -7.032 -22.396  1.00  0.00     0.041 C 
ATOM     13  O   UNL     1       7.316  -7.327 -23.603  1.00  0.00    -0.550 OA
ATOM     14  O   UNL     1       6.529  -7.969 -21.548  1.00  0.00    -0.550 OA
ENDBRANCH  11  12
ENDBRANCH  10  11
ENDBRANCH   9  10
ENDBRANCH   8   9
ENDBRANCH   1   8
TORSDOF 9
ENDMDL
MODEL 5
REMARK VINA RESULT:    -3.955      2.609      3.597
REMARK INTER + INTRA:          -6.900
REMARK INTER:                  -5.857
REMARK INTRA:                  -1.043
REMARK UNBOUND:                -0.863
REMARK SMILES O=C([O-])CCCCCCCCC(=O)[O-]
REMARK SMILES IDX 7 1 6 2 5 3 4 4 2 5 1 6 3 7 8 8 9 9 10 10 11 11 12 12 13 13
REMARK SMILES IDX 14 14
REMARK H PARENT
REMARK Flexibility Score: inf
ROOT
ATOM      1  C   UNL     1      20.410  -3.002 -17.630  1.00  0.00     0.000 C 
ENDROOT
BRANCH   1   2
ATOM      2  C   UNL     1      18.899  -3.171 -17.862  1.00  0.00     0.000 C 
BRANCH   2   3
ATOM      3  C   UNL     1      18.398  -4.574 -17.485  1.00  0.00     0.006 C 
BRANCH   3   4
ATOM      4  C   UNL     1      18.691  -5.620 -18.569  1.00  0.00     0.053 C 
BRANCH   4   5
ATOM      5  C   UNL     1      19.667  -6.636 -18.063  1.00  0.00     0.041 C 
ATOM      6  O   UNL     1      20.135  -7.508 -18.843  1.00  0.00    -0.550 OA
ATOM      7  O   UNL     1      20.020  -6.653 -16.720  1.00  0.00    -0.550 OA
ENDBRANCH   4   5
ENDBRANCH   3   4
ENDBRANCH   2   3
ENDBRANCH   1   2
BRANCH   1   8
ATOM      8  C   UNL     1      21.213  -3.003 -18.941  1.00  0.00     0.000 C 
BRANCH   8   9
ATOM      9  C   UNL     1      20.387  -2.519 -20.143  1.00  0.00     0.000 C 
BRANCH   9  10
ATOM     10  C   UNL     1      20.643  -3.397 -21.374  1.00  0.00     0.006 C 
BRANCH  10  11
ATOM     11  C   UNL     1      21.382  -4.682 -20.990  1.00  0.00     0.053 C 
BRANCH  11  12
ATOM     12  C   UNL     1      20.941  -5.819 -21.857  1.00  0.00     0.041 C 
ATOM     13  O   UNL     1      19.894  -5.719 -22.549  1.00  0.00    -0.550 OA
ATOM     14  O   UNL     1      21.661  -7.008 -21.864  1.00  0.00    -0.550 OA
ENDBRANCH  11  12
ENDBRANCH  10  11
ENDBRANCH   9  10
ENDBRANCH   8   9
ENDBRANCH   1   8
TORSDOF 9
ENDMDL
MODEL 6
REMARK VINA RESULT:    -3.926      1.583      4.914
REMARK INTER + INTRA:          -6.855
REMARK INTER:                  -5.978
REMARK INTRA:                  -0.877
REMARK UNBOUND:                -0.863
REMARK SMILES O=C([O-])CCCCCCCCC(=O)[O-]
REMARK SMILES IDX 7 1 6 2 5 3 4 4 2 5 1 6 3 7 8 8 9 9 10 10 11 11 12 12 13 13
REMARK SMILES IDX 14 14
REMARK H PARENT
REMARK Flexibility Score: inf
ROOT
ATOM      1  C   UNL     1      18.961  -6.430 -18.180  1.00  0.00     0.000 C 
ENDROOT
BRANCH   1   2
ATOM      2  C   UNL     1      19.198  -5.162 -19.017  1.00  0.00     0.000 C 
BRANCH   2   3
ATOM      3  C   UNL     1      18.282  -5.090 -20.250  1.00  0.00     0.006 C 
BRANCH   3   4
ATOM      4  C   UNL     1      18.731  -4.026 -21.260  1.00  0.00     0.053 C 
BRANCH   4   5
ATOM      5  C   UNL     1      20.129  -4.299 -21.719  1.00  0.00     0.041 C 
ATOM      6  O   UNL     1      21.032  -3.436 -21.548  1.00  0.00    -0.550 OA
ATOM      7  O   UNL     1      20.425  -5.484 -22.379  1.00  0.00    -0.550 OA
ENDBRANCH   4   5
ENDBRANCH   3   4
ENDBRANCH   2   3
ENDBRANCH   1   2
BRANCH   1   8
ATOM      8  C   UNL     1      18.684  -6.118 -16.700  1.00  0.00     0.000 C 
BRANCH   8   9
ATOM      9  C   UNL     1      17.183  -6.078 -16.374  1.00  0.00     0.000 C 
BRANCH   9  10
ATOM     10  C   UNL     1      16.702  -4.635 -16.177  1.00  0.00     0.006 C 
BRANCH  10  11
ATOM     11  C   UNL     1      15.901  -4.152 -17.390  1.00  0.00     0.053 C 
BRANCH  11  12
ATOM     12  C   UNL     1      16.523  -2.921 -17.972  1.00  0.00     0.041 C 
ATOM     13  O   UNL     1      17.496  -2.369 -17.393  1.00  0.00    -0.550 OA
ATOM     14  O   UNL     1      15.997  -2.357 -19.128  1.00  0.00    -0.550 OA
ENDBRANCH  11  12
ENDBRANCH  10  11
ENDBRANCH   9  10
ENDBRANCH   8   9
ENDBRANCH   1   8
TORSDOF 9
ENDMDL
MODEL 7
REMARK VINA RESULT:    -3.892      1.388      2.365
REMARK INTER + INTRA:          -6.802
REMARK INTER:                  -5.762
REMARK INTRA:                  -1.040
REMARK UNBOUND:                -0.863
REMARK SMILES O=C([O-])CCCCCCCCC(=O)[O-]
REMARK SMILES IDX 7 1 6 2 5 3 4 4 2 5 1 6 3 7 8 8 9 9 10 10 11 11 12 12 13 13
REMARK SMILES IDX 14 14
REMARK H PARENT
REMARK Flexibility Score: inf
ROOT
ATOM      1  C   UNL     1      17.242  -5.993 -16.635  1.00  0.00     0.000 C 
ENDROOT
BRANCH   1   2
ATOM      2  C   UNL     1      16.737  -4.700 -15.972  1.00  0.00     0.000 C 
BRANCH   2   3
ATOM      3  C   UNL     1      15.942  -3.812 -16.943  1.00  0.00     0.006 C 
BRANCH   3   4
ATOM      4  C   UNL     1      15.681  -4.496 -18.292  1.00  0.00     0.053 C 
BRANCH   4   5
ATOM      5  C   UNL     1      15.037  -3.539 -19.246  1.00  0.00     0.041 C 
ATOM      6  O   UNL     1      15.593  -2.440 -19.513  1.00  0.00    -0.550 OA
ATOM      7  O   UNL     1      13.801  -3.838 -19.802  1.00  0.00    -0.550 OA
ENDBRANCH   4   5
ENDBRANCH   3   4
ENDBRANCH   2   3
ENDBRANCH   1   2
BRANCH   1   8
ATOM      8  C   UNL     1      18.773  -6.030 -16.767  1.00  0.00     0.000 C 
BRANCH   8   9
ATOM      9  C   UNL     1      19.269  -5.439 -18.096  1.00  0.00     0.000 C 
BRANCH   9  10
ATOM     10  C   UNL     1      19.861  -4.040 -17.887  1.00  0.00     0.006 C 
BRANCH  10  11
ATOM     11  C   UNL     1      19.081  -2.989 -18.681  1.00  0.00     0.053 C 
BRANCH  11  12
ATOM     12  C   UNL     1      19.321  -3.157 -20.149  1.00  0.00     0.041 C 
ATOM     13  O   UNL     1      20.429  -2.830 -20.651  1.00  0.00    -0.550 OA
ATOM     14  O   UNL     1      18.304  -3.629 -20.970  1.00  0.00    -0.550 OA
ENDBRANCH  11  12
ENDBRANCH  10  11
ENDBRANCH   9  10
ENDBRANCH   8   9
ENDBRANCH   1   8
TORSDOF 9
ENDMDL
MODEL 8
REMARK VINA RESULT:    -3.890     10.320     11.722
REMARK INTER + INTRA:          -6.800
REMARK INTER:                  -6.093
REMARK INTRA:                  -0.708
REMARK UNBOUND:                -0.863
REMARK SMILES O=C([O-])CCCCCCCCC(=O)[O-]
REMARK SMILES IDX 7 1 6 2 5 3 4 4 2 5 1 6 3 7 8 8 9 9 10 10 11 11 12 12 13 13
REMARK SMILES IDX 14 14
REMARK H PARENT
REMARK Flexibility Score: inf
ROOT
ATOM      1  C   UNL     1       7.295  -6.145 -23.785  1.00  0.00     0.000 C 
ENDROOT
BRANCH   1   2
ATOM      2  C   UNL     1       7.349  -5.397 -22.442  1.00  0.00     0.000 C 
BRANCH   2   3
ATOM      3  C   UNL     1       7.004  -6.302 -21.249  1.00  0.00     0.006 C 
BRANCH   3   4
ATOM      4  C   UNL     1       6.885  -7.780 -21.642  1.00  0.00     0.053 C 
BRANCH   4   5
ATOM      5  C   UNL     1       7.989  -8.576 -21.019  1.00  0.00     0.041 C 
ATOM      6  O   UNL     1       8.997  -7.994 -20.539  1.00  0.00    -0.550 OA
ATOM      7  O   UNL     1       7.928  -9.964 -21.014  1.00  0.00    -0.550 OA
ENDBRANCH   4   5
ENDBRANCH   3   4
ENDBRANCH   2   3
ENDBRANCH   1   2
BRANCH   1   8
ATOM      8  C   UNL     1       7.022  -5.207 -24.972  1.00  0.00     0.000 C 
BRANCH   8   9
ATOM      9  C   UNL     1       7.301  -3.733 -24.641  1.00  0.00     0.000 C 
BRANCH   9  10
ATOM     10  C   UNL     1       8.609  -3.262 -25.288  1.00  0.00     0.006 C 
BRANCH  10  11
ATOM     11  C   UNL     1       9.792  -3.444 -24.333  1.00  0.00     0.053 C 
BRANCH  11  12
ATOM     12  C   UNL     1      10.854  -4.286 -24.969  1.00  0.00     0.041 C 
ATOM     13  O   UNL     1      12.062  -3.934 -24.908  1.00  0.00    -0.550 OA
ATOM     14  O   UNL     1      10.504  -5.434 -25.670  1.00  0.00    -0.550 OA
ENDBRANCH  11  12
ENDBRANCH  10  11
ENDBRANCH   9  10
ENDBRANCH   8   9
ENDBRANCH   1   8
TORSDOF 9
ENDMDL
MODEL 9
REMARK VINA RESULT:    -3.884      1.386      4.404
REMARK INTER + INTRA:          -6.791
REMARK INTER:                  -5.737
REMARK INTRA:                  -1.055
REMARK UNBOUND:                -0.863
REMARK SMILES O=C([O-])CCCCCCCCC(=O)[O-]
REMARK SMILES IDX 7 1 6 2 5 3 4 4 2 5 1 6 3 7 8 8 9 9 10 10 11 11 12 12 13 13
REMARK SMILES IDX 14 14
REMARK H PARENT
REMARK Flexibility Score: inf
ROOT
ATOM      1  C   UNL     1      18.728  -6.047 -16.794  1.00  0.00     0.000 C 
ENDROOT
BRANCH   1   2
ATOM      2  C   UNL     1      19.274  -5.426 -18.092  1.00  0.00     0.000 C 
BRANCH   2   3
ATOM      3  C   UNL     1      19.856  -4.020 -17.873  1.00  0.00     0.006 C 
BRANCH   3   4
ATOM      4  C   UNL     1      19.147  -2.949 -18.712  1.00  0.00     0.053 C 
BRANCH   4   5
ATOM      5  C   UNL     1      19.402  -3.175 -20.170  1.00  0.00     0.041 C 
ATOM      6  O   UNL     1      20.545  -2.962 -20.654  1.00  0.00    -0.550 OA
ATOM      7  O   UNL     1      18.364  -3.571 -21.003  1.00  0.00    -0.550 OA
ENDBRANCH   4   5
ENDBRANCH   3   4
ENDBRANCH   2   3
ENDBRANCH   1   2
BRANCH   1   8
ATOM      8  C   UNL     1      17.193  -6.000 -16.718  1.00  0.00     0.000 C 
BRANCH   8   9
ATOM      9  C   UNL     1      16.672  -4.756 -15.983  1.00  0.00     0.000 C 
BRANCH   9  10
ATOM     10  C   UNL     1      16.041  -3.761 -16.966  1.00  0.00     0.006 C 
BRANCH  10  11
ATOM     11  C   UNL     1      15.576  -4.469 -18.241  1.00  0.00     0.053 C 
BRANCH  11  12
ATOM     12  C   UNL     1      15.271  -3.470 -19.313  1.00  0.00     0.041 C 
ATOM     13  O   UNL     1      15.747  -2.306 -19.248  1.00  0.00    -0.550 OA
ATOM     14  O   UNL     1      14.421  -3.810 -20.359  1.00  0.00    -0.550 OA
ENDBRANCH  11  12
ENDBRANCH  10  11
ENDBRANCH   9  10
ENDBRANCH   8   9
ENDBRANCH   1   8
TORSDOF 9
ENDMDL
