MODEL 1
REMARK VINA RESULT:     7.156      0.000      0.000
REMARK INTER + INTRA:          12.491
REMARK INTER:                  13.432
REMARK INTRA:                  -0.941
REMARK UNBOUND:                -0.941
REMARK SMILES CCCCCC=CCC=CCCCCCCCC(=O)OC
REMARK SMILES IDX 11 1 10 2 9 3 8 4 7 5 6 6 5 7 4 8 3 9 2 10 1 11 12 12 13 13
REMARK SMILES IDX 14 14 15 15 16 16 17 17 18 18 19 19 20 20 21 21
REMARK H PARENT
REMARK Flexibility Score: inf
ROOT
ATOM      1  C   UNL     1     -13.049  62.269  -5.434  1.00  0.00     0.027 C 
ENDROOT
BRANCH   1   2
ATOM      2  C   UNL     1     -12.294  61.599  -6.554  1.00  0.00    -0.031 C 
ATOM      3  C   UNL     1     -12.118  62.134  -7.777  1.00  0.00    -0.027 C 
BRANCH   3   4
ATOM      4  C   UNL     1     -12.702  63.452  -8.218  1.00  0.00     0.054 C 
BRANCH   4   5
ATOM      5  C   UNL     1     -14.192  63.492  -7.984  1.00  0.00    -0.027 C 
ATOM      6  C   UNL     1     -15.094  62.979  -8.839  1.00  0.00    -0.031 C 
BRANCH   6   7
ATOM      7  C   UNL     1     -14.753  62.256 -10.120  1.00  0.00     0.027 C 
BRANCH   7   8
ATOM      8  C   UNL     1     -14.829  60.734  -9.941  1.00  0.00     0.004 C 
BRANCH   8   9
ATOM      9  C   UNL     1     -13.459  60.060 -10.124  1.00  0.00     0.000 C 
BRANCH   9  10
ATOM     10  C   UNL     1     -13.414  58.644  -9.531  1.00  0.00    -0.003 C 
ATOM     11  C   UNL     1     -12.063  58.313  -8.895  1.00  0.00     0.004 C 
ENDBRANCH   9  10
ENDBRANCH   8   9
ENDBRANCH   7   8
ENDBRANCH   6   7
ENDBRANCH   4   5
ENDBRANCH   3   4
ENDBRANCH   1   2
BRANCH   1  12
ATOM     12  C   UNL     1     -13.371  61.265  -4.319  1.00  0.00     0.004 C 
BRANCH  12  13
ATOM     13  C   UNL     1     -13.017  61.794  -2.921  1.00  0.00     0.000 C 
BRANCH  13  14
ATOM     14  C   UNL     1     -14.116  61.509  -1.882  1.00  0.00     0.000 C 
BRANCH  14  15
ATOM     15  C   UNL     1     -15.458  61.143  -2.538  1.00  0.00     0.001 C 
BRANCH  15  16
ATOM     16  C   UNL     1     -16.658  61.744  -1.791  1.00  0.00     0.012 C 
BRANCH  16  17
ATOM     17  C   UNL     1     -17.964  61.468  -2.540  1.00  0.00     0.123 C 
BRANCH  17  18
ATOM     18  C   UNL     1     -19.122  62.080  -1.817  1.00  0.00     0.305 C 
ATOM     19  O   UNL     1     -20.301  61.805  -2.174  1.00  0.00    -0.252 OA
BRANCH  18  20
ATOM     20  O   UNL     1     -18.884  62.979  -0.772  1.00  0.00    -0.469 OA
ATOM     21  C   UNL     1     -19.916  63.759  -0.183  1.00  0.00     0.282 C 
ENDBRANCH  18  20
ENDBRANCH  17  18
ENDBRANCH  16  17
ENDBRANCH  15  16
ENDBRANCH  14  15
ENDBRANCH  13  14
ENDBRANCH  12  13
ENDBRANCH   1  12
TORSDOF 15
ENDMDL
MODEL 2
REMARK VINA RESULT:     7.168      1.134      1.644
REMARK INTER + INTRA:          12.512
REMARK INTER:                  12.154
REMARK INTRA:                   0.358
REMARK UNBOUND:                -0.941
REMARK SMILES CCCCCC=CCC=CCCCCCCCC(=O)OC
REMARK SMILES IDX 11 1 10 2 9 3 8 4 7 5 6 6 5 7 4 8 3 9 2 10 1 11 12 12 13 13
REMARK SMILES IDX 14 14 15 15 16 16 17 17 18 18 19 19 20 20 21 21
REMARK H PARENT
REMARK Flexibility Score: inf
ROOT
ATOM      1  C   UNL     1     -13.132  61.897  -5.121  1.00  0.00     0.027 C 
ENDROOT
BRANCH   1   2
ATOM      2  C   UNL     1     -12.048  61.771  -6.161  1.00  0.00    -0.031 C 
ATOM      3  C   UNL     1     -12.165  62.195  -7.433  1.00  0.00    -0.027 C 
BRANCH   3   4
ATOM      4  C   UNL     1     -13.416  62.803  -8.013  1.00  0.00     0.054 C 
BRANCH   4   5
ATOM      5  C   UNL     1     -13.509  62.544  -9.497  1.00  0.00    -0.027 C 
ATOM      6  C   UNL     1     -12.850  61.553 -10.123  1.00  0.00    -0.031 C 
BRANCH   6   7
ATOM      7  C   UNL     1     -11.966  60.539  -9.436  1.00  0.00     0.027 C 
BRANCH   7   8
ATOM      8  C   UNL     1     -12.047  59.170 -10.125  1.00  0.00     0.004 C 
BRANCH   8   9
ATOM      9  C   UNL     1     -12.448  58.054  -9.146  1.00  0.00     0.000 C 
BRANCH   9  10
ATOM     10  C   UNL     1     -12.949  56.792  -9.865  1.00  0.00    -0.003 C 
ATOM     11  C   UNL     1     -12.285  55.515  -9.349  1.00  0.00     0.004 C 
ENDBRANCH   9  10
ENDBRANCH   8   9
ENDBRANCH   7   8
ENDBRANCH   6   7
ENDBRANCH   4   5
ENDBRANCH   3   4
ENDBRANCH   1   2
BRANCH   1  12
ATOM     12  C   UNL     1     -12.629  61.421  -3.751  1.00  0.00     0.004 C 
BRANCH  12  13
ATOM     13  C   UNL     1     -13.374  62.081  -2.581  1.00  0.00     0.000 C 
BRANCH  13  14
ATOM     14  C   UNL     1     -14.483  61.186  -2.002  1.00  0.00     0.000 C 
BRANCH  14  15
ATOM     15  C   UNL     1     -15.776  61.247  -2.832  1.00  0.00     0.001 C 
BRANCH  15  16
ATOM     16  C   UNL     1     -17.010  61.559  -1.972  1.00  0.00     0.012 C 
BRANCH  16  17
ATOM     17  C   UNL     1     -18.287  61.535  -2.816  1.00  0.00     0.123 C 
BRANCH  17  18
ATOM     18  C   UNL     1     -19.467  61.941  -1.993  1.00  0.00     0.305 C 
ATOM     19  O   UNL     1     -20.489  61.200  -1.951  1.00  0.00    -0.252 OA
BRANCH  18  20
ATOM     20  O   UNL     1     -19.440  63.158  -1.304  1.00  0.00    -0.469 OA
ATOM     21  C   UNL     1     -20.038  63.329  -0.025  1.00  0.00     0.282 C 
ENDBRANCH  18  20
ENDBRANCH  17  18
ENDBRANCH  16  17
ENDBRANCH  15  16
ENDBRANCH  14  15
ENDBRANCH  13  14
ENDBRANCH  12  13
ENDBRANCH   1  12
TORSDOF 15
ENDMDL
MODEL 3
REMARK VINA RESULT:     8.791      1.785      4.046
REMARK INTER + INTRA:          15.560
REMARK INTER:                  16.250
REMARK INTRA:                  -0.691
REMARK UNBOUND:                -0.941
REMARK SMILES CCCCCC=CCC=CCCCCCCCC(=O)OC
REMARK SMILES IDX 11 1 10 2 9 3 8 4 7 5 6 6 5 7 4 8 3 9 2 10 1 11 12 12 13 13
REMARK SMILES IDX 14 14 15 15 16 16 17 17 18 18 19 19 20 20 21 21
REMARK H PARENT
REMARK Flexibility Score: inf
ROOT
ATOM      1  C   UNL     1     -15.238  61.465  -2.631  1.00  0.00     0.027 C 
ENDROOT
BRANCH   1   2
ATOM      2  C   UNL     1     -13.769  61.304  -2.333  1.00  0.00    -0.031 C 
ATOM      3  C   UNL     1     -12.783  61.579  -3.207  1.00  0.00    -0.027 C 
BRANCH   3   4
ATOM      4  C   UNL     1     -13.010  62.033  -4.626  1.00  0.00     0.054 C 
BRANCH   4   5
ATOM      5  C   UNL     1     -11.967  61.460  -5.554  1.00  0.00    -0.027 C 
ATOM      6  C   UNL     1     -11.958  61.665  -6.883  1.00  0.00    -0.031 C 
BRANCH   6   7
ATOM      7  C   UNL     1     -12.951  62.524  -7.628  1.00  0.00     0.027 C 
BRANCH   7   8
ATOM      8  C   UNL     1     -12.334  63.115  -8.903  1.00  0.00     0.004 C 
BRANCH   8   9
ATOM      9  C   UNL     1     -13.269  62.974 -10.116  1.00  0.00     0.000 C 
BRANCH   9  10
ATOM     10  C   UNL     1     -14.644  62.404  -9.737  1.00  0.00    -0.003 C 
ATOM     11  C   UNL     1     -15.725  63.481  -9.641  1.00  0.00     0.004 C 
ENDBRANCH   9  10
ENDBRANCH   8   9
ENDBRANCH   7   8
ENDBRANCH   6   7
ENDBRANCH   4   5
ENDBRANCH   3   4
ENDBRANCH   1   2
BRANCH   1  12
ATOM     12  C   UNL     1     -16.033  61.688  -1.337  1.00  0.00     0.004 C 
BRANCH  12  13
ATOM     13  C   UNL     1     -16.928  62.936  -1.396  1.00  0.00     0.000 C 
BRANCH  13  14
ATOM     14  C   UNL     1     -17.896  63.029  -0.203  1.00  0.00     0.000 C 
BRANCH  14  15
ATOM     15  C   UNL     1     -19.094  63.948  -0.494  1.00  0.00     0.001 C 
BRANCH  15  16
ATOM     16  C   UNL     1     -20.366  63.161  -0.841  1.00  0.00     0.012 C 
BRANCH  16  17
ATOM     17  C   UNL     1     -20.062  61.668  -0.996  1.00  0.00     0.123 C 
BRANCH  17  18
ATOM     18  C   UNL     1     -20.131  61.266  -2.434  1.00  0.00     0.305 C 
ATOM     19  O   UNL     1     -19.246  61.663  -3.241  1.00  0.00    -0.252 OA
BRANCH  18  20
ATOM     20  O   UNL     1     -21.200  60.480  -2.878  1.00  0.00    -0.469 OA
ATOM     21  C   UNL     1     -21.289  59.990  -4.210  1.00  0.00     0.282 C 
ENDBRANCH  18  20
ENDBRANCH  17  18
ENDBRANCH  16  17
ENDBRANCH  15  16
ENDBRANCH  14  15
ENDBRANCH  13  14
ENDBRANCH  12  13
ENDBRANCH   1  12
TORSDOF 15
ENDMDL
MODEL 4
REMARK VINA RESULT:     9.088      5.691      8.385
REMARK INTER + INTRA:          16.116
REMARK INTER:                  17.152
REMARK INTRA:                  -1.035
REMARK UNBOUND:                -0.941
REMARK SMILES CCCCCC=CCC=CCCCCCCCC(=O)OC
REMARK SMILES IDX 11 1 10 2 9 3 8 4 7 5 6 6 5 7 4 8 3 9 2 10 1 11 12 12 13 13
REMARK SMILES IDX 14 14 15 15 16 16 17 17 18 18 19 19 20 20 21 21
REMARK H PARENT
REMARK Flexibility Score: inf
ROOT
ATOM      1  C   UNL     1     -19.032  63.415  -0.178  1.00  0.00     0.027 C 
ENDROOT
BRANCH   1   2
ATOM      2  C   UNL     1     -20.505  63.129  -0.316  1.00  0.00    -0.031 C 
ATOM      3  C   UNL     1     -21.015  62.102  -1.022  1.00  0.00    -0.027 C 
BRANCH   3   4
ATOM      4  C   UNL     1     -20.188  61.128  -1.821  1.00  0.00     0.054 C 
BRANCH   4   5
ATOM      5  C   UNL     1     -19.467  61.823  -2.949  1.00  0.00    -0.027 C 
ATOM      6  C   UNL     1     -18.129  61.821  -3.091  1.00  0.00    -0.031 C 
BRANCH   6   7
ATOM      7  C   UNL     1     -17.168  61.095  -2.181  1.00  0.00     0.027 C 
BRANCH   7   8
ATOM      8  C   UNL     1     -15.860  61.880  -2.010  1.00  0.00     0.004 C 
BRANCH   8   9
ATOM      9  C   UNL     1     -14.634  61.065  -2.455  1.00  0.00     0.000 C 
BRANCH   9  10
ATOM     10  C   UNL     1     -13.961  60.327  -1.289  1.00  0.00    -0.003 C 
ATOM     11  C   UNL     1     -12.492  60.712  -1.114  1.00  0.00     0.004 C 
ENDBRANCH   9  10
ENDBRANCH   8   9
ENDBRANCH   7   8
ENDBRANCH   6   7
ENDBRANCH   4   5
ENDBRANCH   3   4
ENDBRANCH   1   2
BRANCH   1  12
ATOM     12  C   UNL     1     -18.726  64.875  -0.540  1.00  0.00     0.004 C 
BRANCH  12  13
ATOM     13  C   UNL     1     -17.257  65.097  -0.931  1.00  0.00     0.000 C 
BRANCH  13  14
ATOM     14  C   UNL     1     -16.843  66.578  -0.873  1.00  0.00     0.000 C 
BRANCH  14  15
ATOM     15  C   UNL     1     -15.714  66.908  -1.863  1.00  0.00     0.001 C 
BRANCH  15  16
ATOM     16  C   UNL     1     -15.059  68.266  -1.573  1.00  0.00     0.012 C 
BRANCH  16  17
ATOM     17  C   UNL     1     -13.935  68.558  -2.572  1.00  0.00     0.123 C 
BRANCH  17  18
ATOM     18  C   UNL     1     -12.673  68.912  -1.852  1.00  0.00     0.305 C 
ATOM     19  O   UNL     1     -12.314  70.119  -1.771  1.00  0.00    -0.252 OA
BRANCH  18  20
ATOM     20  O   UNL     1     -11.884  67.894  -1.305  1.00  0.00    -0.469 OA
ATOM     21  C   UNL     1     -11.890  67.581   0.082  1.00  0.00     0.282 C 
ENDBRANCH  18  20
ENDBRANCH  17  18
ENDBRANCH  16  17
ENDBRANCH  15  16
ENDBRANCH  14  15
ENDBRANCH  13  14
ENDBRANCH  12  13
ENDBRANCH   1  12
TORSDOF 15
ENDMDL
MODEL 5
REMARK VINA RESULT:     9.124      5.662      8.486
REMARK INTER + INTRA:          16.184
REMARK INTER:                  16.607
REMARK INTRA:                  -0.423
REMARK UNBOUND:                -0.941
REMARK SMILES CCCCCC=CCC=CCCCCCCCC(=O)OC
REMARK SMILES IDX 11 1 10 2 9 3 8 4 7 5 6 6 5 7 4 8 3 9 2 10 1 11 12 12 13 13
REMARK SMILES IDX 14 14 15 15 16 16 17 17 18 18 19 19 20 20 21 21
REMARK H PARENT
REMARK Flexibility Score: inf
ROOT
ATOM      1  C   UNL     1     -18.153  64.465  -0.627  1.00  0.00     0.027 C 
ENDROOT
BRANCH   1   2
ATOM      2  C   UNL     1     -19.638  64.466  -0.368  1.00  0.00    -0.031 C 
ATOM      3  C   UNL     1     -20.402  63.359  -0.328  1.00  0.00    -0.027 C 
BRANCH   3   4
ATOM      4  C   UNL     1     -19.891  61.965  -0.593  1.00  0.00     0.054 C 
BRANCH   4   5
ATOM      5  C   UNL     1     -19.715  61.724  -2.072  1.00  0.00    -0.027 C 
ATOM      6  C   UNL     1     -18.517  61.676  -2.682  1.00  0.00    -0.031 C 
BRANCH   6   7
ATOM      7  C   UNL     1     -17.187  61.811  -1.978  1.00  0.00     0.027 C 
BRANCH   7   8
ATOM      8  C   UNL     1     -16.068  61.111  -2.760  1.00  0.00     0.004 C 
BRANCH   8   9
ATOM      9  C   UNL     1     -14.675  61.446  -2.201  1.00  0.00     0.000 C 
BRANCH   9  10
ATOM     10  C   UNL     1     -14.135  60.351  -1.269  1.00  0.00    -0.003 C 
ATOM     11  C   UNL     1     -12.730  60.658  -0.749  1.00  0.00     0.004 C 
ENDBRANCH   9  10
ENDBRANCH   8   9
ENDBRANCH   7   8
ENDBRANCH   6   7
ENDBRANCH   4   5
ENDBRANCH   3   4
ENDBRANCH   1   2
BRANCH   1  12
ATOM     12  C   UNL     1     -17.610  65.899  -0.686  1.00  0.00     0.004 C 
BRANCH  12  13
ATOM     13  C   UNL     1     -16.374  66.032  -1.587  1.00  0.00     0.000 C 
BRANCH  13  14
ATOM     14  C   UNL     1     -15.420  67.148  -1.127  1.00  0.00     0.000 C 
BRANCH  14  15
ATOM     15  C   UNL     1     -14.966  68.045  -2.291  1.00  0.00     0.001 C 
BRANCH  15  16
ATOM     16  C   UNL     1     -14.448  69.409  -1.811  1.00  0.00     0.012 C 
BRANCH  16  17
ATOM     17  C   UNL     1     -12.938  69.533  -2.037  1.00  0.00     0.123 C 
BRANCH  17  18
ATOM     18  C   UNL     1     -12.215  68.401  -1.379  1.00  0.00     0.305 C 
ATOM     19  O   UNL     1     -11.947  67.359  -2.038  1.00  0.00    -0.252 OA
BRANCH  18  20
ATOM     20  O   UNL     1     -11.876  68.497  -0.025  1.00  0.00    -0.469 OA
ATOM     21  C   UNL     1     -12.079  67.430   0.893  1.00  0.00     0.282 C 
ENDBRANCH  18  20
ENDBRANCH  17  18
ENDBRANCH  16  17
ENDBRANCH  15  16
ENDBRANCH  14  15
ENDBRANCH  13  14
ENDBRANCH  12  13
ENDBRANCH   1  12
TORSDOF 15
ENDMDL
MODEL 6
REMARK VINA RESULT:    10.030      3.515      8.211
REMARK INTER + INTRA:          17.884
REMARK INTER:                  18.125
REMARK INTRA:                  -0.241
REMARK UNBOUND:                -0.941
REMARK SMILES CCCCCC=CCC=CCCCCCCCC(=O)OC
REMARK SMILES IDX 11 1 10 2 9 3 8 4 7 5 6 6 5 7 4 8 3 9 2 10 1 11 12 12 13 13
REMARK SMILES IDX 14 14 15 15 16 16 17 17 18 18 19 19 20 20 21 21
REMARK H PARENT
REMARK Flexibility Score: inf
ROOT
ATOM      1  C   UNL     1     -13.231  61.843  -4.147  1.00  0.00     0.027 C 
ENDROOT
BRANCH   1   2
ATOM      2  C   UNL     1     -12.792  61.159  -2.877  1.00  0.00    -0.031 C 
ATOM      3  C   UNL     1     -13.520  61.123  -1.745  1.00  0.00    -0.027 C 
BRANCH   3   4
ATOM      4  C   UNL     1     -14.849  61.812  -1.569  1.00  0.00     0.054 C 
BRANCH   4   5
ATOM      5  C   UNL     1     -15.796  61.461  -2.689  1.00  0.00    -0.027 C 
ATOM      6  C   UNL     1     -17.134  61.571  -2.596  1.00  0.00    -0.031 C 
BRANCH   6   7
ATOM      7  C   UNL     1     -17.872  62.097  -1.388  1.00  0.00     0.027 C 
BRANCH   7   8
ATOM      8  C   UNL     1     -19.151  62.841  -1.795  1.00  0.00     0.004 C 
BRANCH   8   9
ATOM      9  C   UNL     1     -20.409  61.979  -1.599  1.00  0.00     0.000 C 
BRANCH   9  10
ATOM     10  C   UNL     1     -20.269  60.582  -2.222  1.00  0.00    -0.003 C 
ATOM     11  C   UNL     1     -21.227  60.359  -3.393  1.00  0.00     0.004 C 
ENDBRANCH   9  10
ENDBRANCH   8   9
ENDBRANCH   7   8
ENDBRANCH   6   7
ENDBRANCH   4   5
ENDBRANCH   3   4
ENDBRANCH   1   2
BRANCH   1  12
ATOM     12  C   UNL     1     -12.096  61.849  -5.181  1.00  0.00     0.004 C 
BRANCH  12  13
ATOM     13  C   UNL     1     -12.600  62.046  -6.618  1.00  0.00     0.000 C 
BRANCH  13  14
ATOM     14  C   UNL     1     -13.901  62.866  -6.684  1.00  0.00     0.000 C 
BRANCH  14  15
ATOM     15  C   UNL     1     -13.925  63.827  -7.884  1.00  0.00     0.001 C 
BRANCH  15  16
ATOM     16  C   UNL     1     -14.395  63.142  -9.175  1.00  0.00     0.012 C 
BRANCH  16  17
ATOM     17  C   UNL     1     -13.203  62.656 -10.004  1.00  0.00     0.123 C 
BRANCH  17  18
ATOM     18  C   UNL     1     -13.098  61.165  -9.948  1.00  0.00     0.305 C 
ATOM     19  O   UNL     1     -11.980  60.608 -10.125  1.00  0.00    -0.252 OA
BRANCH  18  20
ATOM     20  O   UNL     1     -14.250  60.402  -9.735  1.00  0.00    -0.469 OA
ATOM     21  C   UNL     1     -14.203  59.021  -9.397  1.00  0.00     0.282 C 
ENDBRANCH  18  20
ENDBRANCH  17  18
ENDBRANCH  16  17
ENDBRANCH  15  16
ENDBRANCH  14  15
ENDBRANCH  13  14
ENDBRANCH  12  13
ENDBRANCH   1  12
TORSDOF 15
ENDMDL
