MODEL 1
REMARK VINA RESULT:    -4.797      0.000      0.000
REMARK INTER + INTRA:          -6.187
REMARK INTER:                  -5.919
REMARK INTRA:                  -0.268
REMARK UNBOUND:                -0.268
REMARK SMILES O=c1c(O)c(-c2cc(O)c(O)c(O)c2)oc2cc(O)cc(O)c12
REMARK SMILES IDX 5 1 3 2 2 3 1 4 23 5 21 6 20 7 18 8 17 9 16 10 15 11 6 12
REMARK SMILES IDX 7 13 8 14 14 15 10 16 12 17 9 18 11 20 13 22 4 24 22 26
REMARK SMILES IDX 19 28
REMARK H PARENT 9 19 11 21 13 23 4 25 22 27 19 29
REMARK Flexibility Score: inf
ROOT
ATOM      1  C   UNL     1     127.882 127.090 132.040  1.00  0.00     0.180 A 
ATOM      2  C   UNL     1     127.591 128.381 132.515  1.00  0.00     0.208 A 
ATOM      3  C   UNL     1     126.620 128.535 133.516  1.00  0.00     0.238 A 
ATOM      4  O   UNL     1     126.325 129.698 133.898  1.00  0.00    -0.285 OA
ATOM      5  C   UNL     1     125.964 127.396 134.042  1.00  0.00     0.111 A 
ATOM      6  C   UNL     1     124.991 127.432 135.087  1.00  0.00     0.134 A 
ATOM      7  C   UNL     1     124.312 126.260 135.438  1.00  0.00     0.093 A 
ATOM      8  C   UNL     1     124.616 125.040 134.828  1.00  0.00     0.123 A 
ATOM      9  C   UNL     1     125.606 124.985 133.849  1.00  0.00     0.094 A 
ATOM     10  C   UNL     1     126.275 126.145 133.452  1.00  0.00     0.146 A 
ATOM     11  O   UNL     1     127.203 126.050 132.507  1.00  0.00    -0.452 OA
ENDROOT
BRANCH   1  12
ATOM     12  C   UNL     1     128.912 126.845 131.004  1.00  0.00     0.029 A 
ATOM     13  C   UNL     1     130.133 126.224 131.319  1.00  0.00     0.062 A 
ATOM     14  C   UNL     1     131.085 125.979 130.320  1.00  0.00     0.162 A 
ATOM     15  C   UNL     1     128.644 127.188 129.670  1.00  0.00     0.062 A 
ATOM     16  C   UNL     1     130.820 126.345 128.995  1.00  0.00     0.200 A 
ATOM     17  C   UNL     1     129.594 126.949 128.667  1.00  0.00     0.162 A 
BRANCH  14  18
ATOM     18  O   UNL     1     132.297 125.368 130.637  1.00  0.00    -0.504 OA
ATOM     19  H   UNL     1     133.137 125.910 130.801  1.00  0.00     0.293 HD
ENDBRANCH  14  18
BRANCH  16  20
ATOM     20  O   UNL     1     131.782 126.098 128.014  1.00  0.00    -0.502 OA
ATOM     21  H   UNL     1     132.518 126.761 127.803  1.00  0.00     0.293 HD
ENDBRANCH  16  20
BRANCH  17  22
ATOM     22  O   UNL     1     129.322 127.307 127.347  1.00  0.00    -0.504 OA
ATOM     23  H   UNL     1     128.426 127.109 126.917  1.00  0.00     0.293 HD
ENDBRANCH  17  22
ENDBRANCH   1  12
BRANCH   2  24
ATOM     24  O   UNL     1     128.235 129.494 131.967  1.00  0.00    -0.502 OA
ATOM     25  H   UNL     1     128.228 129.693 130.974  1.00  0.00     0.293 HD
ENDBRANCH   2  24
BRANCH   6  26
ATOM     26  O   UNL     1     124.679 128.579 135.824  1.00  0.00    -0.507 OA
ATOM     27  H   UNL     1     123.882 129.172 135.654  1.00  0.00     0.293 HD
ENDBRANCH   6  26
BRANCH   8  28
ATOM     28  O   UNL     1     123.947 123.875 135.194  1.00  0.00    -0.508 OA
ATOM     29  H   UNL     1     124.444 123.011 135.373  1.00  0.00     0.293 HD
ENDBRANCH   8  28
TORSDOF 7
ENDMDL
MODEL 2
REMARK VINA RESULT:    -4.794      3.774      7.845
REMARK INTER + INTRA:          -6.183
REMARK INTER:                  -5.915
REMARK INTRA:                  -0.268
REMARK UNBOUND:                -0.268
REMARK SMILES O=c1c(O)c(-c2cc(O)c(O)c(O)c2)oc2cc(O)cc(O)c12
REMARK SMILES IDX 5 1 3 2 2 3 1 4 23 5 21 6 20 7 18 8 17 9 16 10 15 11 6 12
REMARK SMILES IDX 7 13 8 14 14 15 10 16 12 17 9 18 11 20 13 22 4 24 22 26
REMARK SMILES IDX 19 28
REMARK H PARENT 9 19 11 21 13 23 4 25 22 27 19 29
REMARK Flexibility Score: inf
ROOT
ATOM      1  C   UNL     1     127.105 127.816 136.755  1.00  0.00     0.180 A 
ATOM      2  C   UNL     1     128.396 127.515 136.285  1.00  0.00     0.208 A 
ATOM      3  C   UNL     1     128.547 126.541 135.286  1.00  0.00     0.238 A 
ATOM      4  O   UNL     1     129.709 126.237 134.909  1.00  0.00    -0.285 OA
ATOM      5  C   UNL     1     127.406 125.889 134.759  1.00  0.00     0.111 A 
ATOM      6  C   UNL     1     127.439 124.914 133.717  1.00  0.00     0.134 A 
ATOM      7  C   UNL     1     126.263 124.241 133.365  1.00  0.00     0.093 A 
ATOM      8  C   UNL     1     125.043 124.554 133.970  1.00  0.00     0.123 A 
ATOM      9  C   UNL     1     124.991 125.547 134.946  1.00  0.00     0.094 A 
ATOM     10  C   UNL     1     126.155 126.211 135.345  1.00  0.00     0.146 A 
ATOM     11  O   UNL     1     126.062 127.142 136.286  1.00  0.00    -0.452 OA
ENDROOT
BRANCH   1  12
ATOM     12  C   UNL     1     126.863 128.850 137.787  1.00  0.00     0.029 A 
ATOM     13  C   UNL     1     126.251 130.074 137.467  1.00  0.00     0.062 A 
ATOM     14  C   UNL     1     126.009 131.030 138.462  1.00  0.00     0.162 A 
ATOM     15  C   UNL     1     127.200 128.584 139.123  1.00  0.00     0.062 A 
ATOM     16  C   UNL     1     126.369 130.767 139.789  1.00  0.00     0.200 A 
ATOM     17  C   UNL     1     126.963 129.537 140.123  1.00  0.00     0.162 A 
BRANCH  14  18
ATOM     18  O   UNL     1     125.408 132.246 138.139  1.00  0.00    -0.504 OA
ATOM     19  H   UNL     1     125.393 132.594 137.188  1.00  0.00     0.293 HD
ENDBRANCH  14  18
BRANCH  16  20
ATOM     20  O   UNL     1     126.125 131.733 140.767  1.00  0.00    -0.502 OA
ATOM     21  H   UNL     1     126.584 131.714 141.669  1.00  0.00     0.293 HD
ENDBRANCH  16  20
BRANCH  17  22
ATOM     22  O   UNL     1     127.314 129.267 141.445  1.00  0.00    -0.504 OA
ATOM     23  H   UNL     1     126.620 129.009 142.136  1.00  0.00     0.293 HD
ENDBRANCH  17  22
ENDBRANCH   1  12
BRANCH   2  24
ATOM     24  O   UNL     1     129.511 128.154 136.835  1.00  0.00    -0.502 OA
ATOM     25  H   UNL     1     129.568 129.160 136.933  1.00  0.00     0.293 HD
ENDBRANCH   2  24
BRANCH   6  26
ATOM     26  O   UNL     1     128.585 124.593 132.984  1.00  0.00    -0.507 OA
ATOM     27  H   UNL     1     129.216 125.268 132.578  1.00  0.00     0.293 HD
ENDBRANCH   6  26
BRANCH   8  28
ATOM     28  O   UNL     1     123.876 123.890 133.602  1.00  0.00    -0.508 OA
ATOM     29  H   UNL     1     123.893 122.938 133.256  1.00  0.00     0.293 HD
ENDBRANCH   8  28
TORSDOF 7
ENDMDL
MODEL 3
REMARK VINA RESULT:    -4.634     12.481     14.437
REMARK INTER + INTRA:          -5.985
REMARK INTER:                  -5.653
REMARK INTRA:                  -0.333
REMARK UNBOUND:                -0.268
REMARK SMILES O=c1c(O)c(-c2cc(O)c(O)c(O)c2)oc2cc(O)cc(O)c12
REMARK SMILES IDX 5 1 3 2 2 3 1 4 23 5 21 6 20 7 18 8 17 9 16 10 15 11 6 12
REMARK SMILES IDX 7 13 8 14 14 15 10 16 12 17 9 18 11 20 13 22 4 24 22 26
REMARK SMILES IDX 19 28
REMARK H PARENT 9 19 11 21 13 23 4 25 22 27 19 29
REMARK Flexibility Score: inf
ROOT
ATOM      1  C   UNL     1     126.676 140.648 131.389  1.00  0.00     0.180 A 
ATOM      2  C   UNL     1     125.340 140.803 131.799  1.00  0.00     0.208 A 
ATOM      3  C   UNL     1     125.069 141.507 132.983  1.00  0.00     0.238 A 
ATOM      4  O   UNL     1     123.875 141.595 133.373  1.00  0.00    -0.285 OA
ATOM      5  C   UNL     1     126.134 142.061 133.733  1.00  0.00     0.111 A 
ATOM      6  C   UNL     1     125.972 142.828 134.927  1.00  0.00     0.134 A 
ATOM      7  C   UNL     1     127.101 143.215 135.657  1.00  0.00     0.093 A 
ATOM      8  C   UNL     1     128.390 142.921 135.202  1.00  0.00     0.123 A 
ATOM      9  C   UNL     1     128.559 142.225 134.007  1.00  0.00     0.094 A 
ATOM     10  C   UNL     1     127.450 141.793 133.275  1.00  0.00     0.146 A 
ATOM     11  O   UNL     1     127.656 141.123 132.148  1.00  0.00    -0.452 OA
ENDROOT
BRANCH   1  12
ATOM     12  C   UNL     1     127.040 139.941 130.139  1.00  0.00     0.029 A 
ATOM     13  C   UNL     1     127.103 138.538 130.085  1.00  0.00     0.062 A 
ATOM     14  C   UNL     1     127.426 137.887 128.886  1.00  0.00     0.162 A 
ATOM     15  C   UNL     1     127.272 140.682 128.970  1.00  0.00     0.062 A 
ATOM     16  C   UNL     1     127.679 138.634 127.729  1.00  0.00     0.200 A 
ATOM     17  C   UNL     1     127.599 140.036 127.769  1.00  0.00     0.162 A 
BRANCH  14  18
ATOM     18  O   UNL     1     127.494 136.495 128.838  1.00  0.00    -0.504 OA
ATOM     19  H   UNL     1     127.322 135.986 127.979  1.00  0.00     0.293 HD
ENDBRANCH  14  18
BRANCH  16  20
ATOM     20  O   UNL     1     128.004 137.968 126.546  1.00  0.00    -0.502 OA
ATOM     21  H   UNL     1     128.596 138.386 125.839  1.00  0.00     0.293 HD
ENDBRANCH  16  20
BRANCH  17  22
ATOM     22  O   UNL     1     127.841 140.783 126.617  1.00  0.00    -0.504 OA
ATOM     23  H   UNL     1     128.754 141.177 126.422  1.00  0.00     0.293 HD
ENDBRANCH  17  22
ENDBRANCH   1  12
BRANCH   2  24
ATOM     24  O   UNL     1     124.306 140.229 131.056  1.00  0.00    -0.502 OA
ATOM     25  H   UNL     1     123.402 140.012 131.457  1.00  0.00     0.293 HD
ENDBRANCH   2  24
BRANCH   6  26
ATOM     26  O   UNL     1     124.734 143.254 135.418  1.00  0.00    -0.507 OA
ATOM     27  H   UNL     1     124.430 143.154 136.374  1.00  0.00     0.293 HD
ENDBRANCH   6  26
BRANCH   8  28
ATOM     28  O   UNL     1     129.509 143.324 135.927  1.00  0.00    -0.508 OA
ATOM     29  H   UNL     1     129.487 143.403 136.937  1.00  0.00     0.293 HD
ENDBRANCH   8  28
TORSDOF 7
ENDMDL
MODEL 4
REMARK VINA RESULT:    -4.611     12.889     15.918
REMARK INTER + INTRA:          -5.957
REMARK INTER:                  -5.621
REMARK INTRA:                  -0.336
REMARK UNBOUND:                -0.268
REMARK SMILES O=c1c(O)c(-c2cc(O)c(O)c(O)c2)oc2cc(O)cc(O)c12
REMARK SMILES IDX 5 1 3 2 2 3 1 4 23 5 21 6 20 7 18 8 17 9 16 10 15 11 6 12
REMARK SMILES IDX 7 13 8 14 14 15 10 16 12 17 9 18 11 20 13 22 4 24 22 26
REMARK SMILES IDX 19 28
REMARK H PARENT 9 19 11 21 13 23 4 25 22 27 19 29
REMARK Flexibility Score: inf
ROOT
ATOM      1  C   UNL     1     140.672 126.687 137.422  1.00  0.00     0.180 A 
ATOM      2  C   UNL     1     140.783 125.351 136.999  1.00  0.00     0.208 A 
ATOM      3  C   UNL     1     141.489 125.067 135.819  1.00  0.00     0.238 A 
ATOM      4  O   UNL     1     141.539 123.875 135.417  1.00  0.00    -0.285 OA
ATOM      5  C   UNL     1     142.089 126.120 135.086  1.00  0.00     0.111 A 
ATOM      6  C   UNL     1     142.861 125.943 133.898  1.00  0.00     0.134 A 
ATOM      7  C   UNL     1     143.296 127.066 133.185  1.00  0.00     0.093 A 
ATOM      8  C   UNL     1     143.043 128.359 133.650  1.00  0.00     0.123 A 
ATOM      9  C   UNL     1     142.341 128.540 134.840  1.00  0.00     0.094 A 
ATOM     10  C   UNL     1     141.863 127.439 135.556  1.00  0.00     0.146 A 
ATOM     11  O   UNL     1     141.189 127.657 136.678  1.00  0.00    -0.452 OA
ENDROOT
BRANCH   1  12
ATOM     12  C   UNL     1     139.965 127.062 138.669  1.00  0.00     0.029 A 
ATOM     13  C   UNL     1     138.566 127.187 138.707  1.00  0.00     0.062 A 
ATOM     14  C   UNL     1     137.914 127.520 139.902  1.00  0.00     0.162 A 
ATOM     15  C   UNL     1     140.700 127.243 139.850  1.00  0.00     0.062 A 
ATOM     16  C   UNL     1     138.656 127.722 141.073  1.00  0.00     0.200 A 
ATOM     17  C   UNL     1     140.054 127.579 141.048  1.00  0.00     0.162 A 
BRANCH  14  18
ATOM     18  O   UNL     1     136.526 127.649 139.935  1.00  0.00    -0.504 OA
ATOM     19  H   UNL     1     135.954 127.425 139.129  1.00  0.00     0.293 HD
ENDBRANCH  14  18
BRANCH  16  20
ATOM     20  O   UNL     1     137.991 128.057 142.252  1.00  0.00    -0.502 OA
ATOM     21  H   UNL     1     137.759 127.367 142.956  1.00  0.00     0.293 HD
ENDBRANCH  16  20
BRANCH  17  22
ATOM     22  O   UNL     1     140.796 127.770 142.213  1.00  0.00    -0.504 OA
ATOM     23  H   UNL     1     141.744 128.127 142.187  1.00  0.00     0.293 HD
ENDBRANCH  17  22
ENDBRANCH   1  12
BRANCH   2  24
ATOM     24  O   UNL     1     140.166 124.329 137.725  1.00  0.00    -0.502 OA
ATOM     25  H   UNL     1     139.187 124.360 137.984  1.00  0.00     0.293 HD
ENDBRANCH   2  24
BRANCH   6  26
ATOM     26  O   UNL     1     143.248 124.696 133.398  1.00  0.00    -0.507 OA
ATOM     27  H   UNL     1     143.132 123.820 133.885  1.00  0.00     0.293 HD
ENDBRANCH   6  26
BRANCH   8  28
ATOM     28  O   UNL     1     143.493 129.470 132.942  1.00  0.00    -0.508 OA
ATOM     29  H   UNL     1     142.986 129.831 132.142  1.00  0.00     0.293 HD
ENDBRANCH   8  28
TORSDOF 7
ENDMDL
MODEL 5
REMARK VINA RESULT:    -4.604     10.774     14.063
REMARK INTER + INTRA:          -5.949
REMARK INTER:                  -5.647
REMARK INTRA:                  -0.302
REMARK UNBOUND:                -0.268
REMARK SMILES O=c1c(O)c(-c2cc(O)c(O)c(O)c2)oc2cc(O)cc(O)c12
REMARK SMILES IDX 5 1 3 2 2 3 1 4 23 5 21 6 20 7 18 8 17 9 16 10 15 11 6 12
REMARK SMILES IDX 7 13 8 14 14 15 10 16 12 17 9 18 11 20 13 22 4 24 22 26
REMARK SMILES IDX 19 28
REMARK H PARENT 9 19 11 21 13 23 4 25 22 27 19 29
REMARK Flexibility Score: inf
ROOT
ATOM      1  C   UNL     1     136.083 134.804 125.413  1.00  0.00     0.180 A 
ATOM      2  C   UNL     1     136.891 133.688 125.131  1.00  0.00     0.208 A 
ATOM      3  C   UNL     1     136.281 132.442 124.919  1.00  0.00     0.238 A 
ATOM      4  O   UNL     1     137.012 131.437 124.720  1.00  0.00    -0.285 OA
ATOM      5  C   UNL     1     134.870 132.329 124.976  1.00  0.00     0.111 A 
ATOM      6  C   UNL     1     134.143 131.123 124.739  1.00  0.00     0.134 A 
ATOM      7  C   UNL     1     132.760 131.098 124.950  1.00  0.00     0.093 A 
ATOM      8  C   UNL     1     132.067 132.252 125.328  1.00  0.00     0.123 A 
ATOM      9  C   UNL     1     132.760 133.448 125.504  1.00  0.00     0.094 A 
ATOM     10  C   UNL     1     134.147 133.495 125.335  1.00  0.00     0.146 A 
ATOM     11  O   UNL     1     134.769 134.652 125.524  1.00  0.00    -0.452 OA
ENDROOT
BRANCH   1  12
ATOM     12  C   UNL     1     136.651 136.155 125.622  1.00  0.00     0.029 A 
ATOM     13  C   UNL     1     136.556 137.150 124.634  1.00  0.00     0.062 A 
ATOM     14  C   UNL     1     137.079 138.430 124.860  1.00  0.00     0.162 A 
ATOM     15  C   UNL     1     137.249 136.470 126.852  1.00  0.00     0.062 A 
ATOM     16  C   UNL     1     137.694 138.730 126.082  1.00  0.00     0.200 A 
ATOM     17  C   UNL     1     137.777 137.748 127.084  1.00  0.00     0.162 A 
BRANCH  14  18
ATOM     18  O   UNL     1     136.987 139.413 123.875  1.00  0.00    -0.504 OA
ATOM     19  H   UNL     1     137.184 139.208 122.903  1.00  0.00     0.293 HD
ENDBRANCH  14  18
BRANCH  16  20
ATOM     20  O   UNL     1     138.214 140.008 126.288  1.00  0.00    -0.502 OA
ATOM     21  H   UNL     1     138.816 140.460 125.611  1.00  0.00     0.293 HD
ENDBRANCH  16  20
BRANCH  17  22
ATOM     22  O   UNL     1     138.381 138.044 128.305  1.00  0.00    -0.504 OA
ATOM     23  H   UNL     1     138.029 137.667 129.177  1.00  0.00     0.293 HD
ENDBRANCH  17  22
ENDBRANCH   1  12
BRANCH   2  24
ATOM     24  O   UNL     1     138.282 133.817 125.100  1.00  0.00    -0.502 OA
ATOM     25  H   UNL     1     138.904 133.087 125.426  1.00  0.00     0.293 HD
ENDBRANCH   2  24
BRANCH   6  26
ATOM     26  O   UNL     1     134.725 129.941 124.270  1.00  0.00    -0.507 OA
ATOM     27  H   UNL     1     134.252 129.052 124.211  1.00  0.00     0.293 HD
ENDBRANCH   6  26
BRANCH   8  28
ATOM     28  O   UNL     1     130.689 132.222 125.521  1.00  0.00    -0.508 OA
ATOM     29  H   UNL     1     130.122 133.058 125.434  1.00  0.00     0.293 HD
ENDBRANCH   8  28
TORSDOF 7
ENDMDL
MODEL 6
REMARK VINA RESULT:    -4.596     10.810     12.411
REMARK INTER + INTRA:          -5.938
REMARK INTER:                  -5.610
REMARK INTRA:                  -0.328
REMARK UNBOUND:                -0.268
REMARK SMILES O=c1c(O)c(-c2cc(O)c(O)c(O)c2)oc2cc(O)cc(O)c12
REMARK SMILES IDX 5 1 3 2 2 3 1 4 23 5 21 6 20 7 18 8 17 9 16 10 15 11 6 12
REMARK SMILES IDX 7 13 8 14 14 15 10 16 12 17 9 18 11 20 13 22 4 24 22 26
REMARK SMILES IDX 19 28
REMARK H PARENT 9 19 11 21 13 23 4 25 22 27 19 29
REMARK Flexibility Score: inf
ROOT
ATOM      1  C   UNL     1     134.786 132.754 125.425  1.00  0.00     0.180 A 
ATOM      2  C   UNL     1     133.684 131.952 125.083  1.00  0.00     0.208 A 
ATOM      3  C   UNL     1     132.436 132.561 124.877  1.00  0.00     0.238 A 
ATOM      4  O   UNL     1     131.441 131.832 124.624  1.00  0.00    -0.285 OA
ATOM      5  C   UNL     1     132.310 133.966 125.000  1.00  0.00     0.111 A 
ATOM      6  C   UNL     1     131.102 134.694 124.775  1.00  0.00     0.134 A 
ATOM      7  C   UNL     1     131.061 136.065 125.053  1.00  0.00     0.093 A 
ATOM      8  C   UNL     1     132.200 136.748 125.485  1.00  0.00     0.123 A 
ATOM      9  C   UNL     1     133.399 136.057 125.650  1.00  0.00     0.094 A 
ATOM     10  C   UNL     1     133.462 134.681 125.416  1.00  0.00     0.146 A 
ATOM     11  O   UNL     1     134.621 134.060 125.597  1.00  0.00    -0.452 OA
ENDROOT
BRANCH   1  12
ATOM     12  C   UNL     1     136.139 132.187 125.632  1.00  0.00     0.029 A 
ATOM     13  C   UNL     1     137.130 132.278 124.640  1.00  0.00     0.062 A 
ATOM     14  C   UNL     1     138.411 131.757 124.864  1.00  0.00     0.162 A 
ATOM     15  C   UNL     1     136.458 131.596 126.864  1.00  0.00     0.062 A 
ATOM     16  C   UNL     1     138.715 131.148 126.088  1.00  0.00     0.200 A 
ATOM     17  C   UNL     1     137.737 131.070 127.094  1.00  0.00     0.162 A 
BRANCH  14  18
ATOM     18  O   UNL     1     139.390 131.844 123.875  1.00  0.00    -0.504 OA
ATOM     19  H   UNL     1     139.321 131.316 123.013  1.00  0.00     0.293 HD
ENDBRANCH  14  18
BRANCH  16  20
ATOM     20  O   UNL     1     139.995 130.629 126.292  1.00  0.00    -0.502 OA
ATOM     21  H   UNL     1     140.794 131.224 126.475  1.00  0.00     0.293 HD
ENDBRANCH  16  20
BRANCH  17  22
ATOM     22  O   UNL     1     138.039 130.472 128.317  1.00  0.00    -0.504 OA
ATOM     23  H   UNL     1     137.533 129.659 128.649  1.00  0.00     0.293 HD
ENDBRANCH  17  22
ENDBRANCH   1  12
BRANCH   2  24
ATOM     24  O   UNL     1     133.826 130.565 124.987  1.00  0.00    -0.502 OA
ATOM     25  H   UNL     1     134.335 130.021 125.674  1.00  0.00     0.293 HD
ENDBRANCH   2  24
BRANCH   6  26
ATOM     26  O   UNL     1     129.934 134.126 124.257  1.00  0.00    -0.507 OA
ATOM     27  H   UNL     1     129.657 134.165 123.288  1.00  0.00     0.293 HD
ENDBRANCH   6  26
BRANCH   8  28
ATOM     28  O   UNL     1     132.155 138.116 125.744  1.00  0.00    -0.508 OA
ATOM     29  H   UNL     1     131.825 138.777 125.050  1.00  0.00     0.293 HD
ENDBRANCH   8  28
TORSDOF 7
ENDMDL
MODEL 7
REMARK VINA RESULT:    -4.524     12.016     14.339
REMARK INTER + INTRA:          -5.850
REMARK INTER:                  -5.585
REMARK INTRA:                  -0.265
REMARK UNBOUND:                -0.268
REMARK SMILES O=c1c(O)c(-c2cc(O)c(O)c(O)c2)oc2cc(O)cc(O)c12
REMARK SMILES IDX 5 1 3 2 2 3 1 4 23 5 21 6 20 7 18 8 17 9 16 10 15 11 6 12
REMARK SMILES IDX 7 13 8 14 14 15 10 16 12 17 9 18 11 20 13 22 4 24 22 26
REMARK SMILES IDX 19 28
REMARK H PARENT 9 19 11 21 13 23 4 25 22 27 19 29
REMARK Flexibility Score: inf
ROOT
ATOM      1  C   UNL     1     133.978 136.051 125.468  1.00  0.00     0.180 A 
ATOM      2  C   UNL     1     135.105 136.867 125.271  1.00  0.00     0.208 A 
ATOM      3  C   UNL     1     136.357 136.264 125.074  1.00  0.00     0.238 A 
ATOM      4  O   UNL     1     137.371 137.001 124.953  1.00  0.00    -0.285 OA
ATOM      5  C   UNL     1     136.464 134.852 125.060  1.00  0.00     0.111 A 
ATOM      6  C   UNL     1     137.677 134.134 124.830  1.00  0.00     0.134 A 
ATOM      7  C   UNL     1     137.690 132.741 124.968  1.00  0.00     0.093 A 
ATOM      8  C   UNL     1     136.522 132.034 125.264  1.00  0.00     0.123 A 
ATOM      9  C   UNL     1     135.322 132.722 125.432  1.00  0.00     0.094 A 
ATOM     10  C   UNL     1     135.284 134.115 125.336  1.00  0.00     0.146 A 
ATOM     11  O   UNL     1     134.122 134.732 125.514  1.00  0.00    -0.452 OA
ENDROOT
BRANCH   1  12
ATOM     12  C   UNL     1     132.621 136.613 125.656  1.00  0.00     0.029 A 
ATOM     13  C   UNL     1     131.635 136.494 124.661  1.00  0.00     0.062 A 
ATOM     14  C   UNL     1     130.350 137.012 124.867  1.00  0.00     0.162 A 
ATOM     15  C   UNL     1     132.291 137.228 126.873  1.00  0.00     0.062 A 
ATOM     16  C   UNL     1     130.035 137.645 126.076  1.00  0.00     0.200 A 
ATOM     17  C   UNL     1     131.008 137.751 127.085  1.00  0.00     0.162 A 
BRANCH  14  18
ATOM     18  O   UNL     1     129.377 136.898 123.875  1.00  0.00    -0.504 OA
ATOM     19  H   UNL     1     129.621 136.687 122.915  1.00  0.00     0.293 HD
ENDBRANCH  14  18
BRANCH  16  20
ATOM     20  O   UNL     1     128.751 138.159 126.262  1.00  0.00    -0.502 OA
ATOM     21  H   UNL     1     128.268 138.677 125.539  1.00  0.00     0.293 HD
ENDBRANCH  16  20
BRANCH  17  22
ATOM     22  O   UNL     1     130.696 138.373 128.293  1.00  0.00    -0.504 OA
ATOM     23  H   UNL     1     129.867 138.124 128.819  1.00  0.00     0.293 HD
ENDBRANCH  17  22
ENDBRANCH   1  12
BRANCH   2  24
ATOM     24  O   UNL     1     134.981 138.259 125.310  1.00  0.00    -0.502 OA
ATOM     25  H   UNL     1     134.086 138.723 125.408  1.00  0.00     0.293 HD
ENDBRANCH   2  24
BRANCH   6  26
ATOM     26  O   UNL     1     138.877 134.734 124.438  1.00  0.00    -0.507 OA
ATOM     27  H   UNL     1     139.253 134.711 123.502  1.00  0.00     0.293 HD
ENDBRANCH   6  26
BRANCH   8  28
ATOM     28  O   UNL     1     136.541 130.647 125.385  1.00  0.00    -0.508 OA
ATOM     29  H   UNL     1     135.895 130.158 125.994  1.00  0.00     0.293 HD
ENDBRANCH   8  28
TORSDOF 7
ENDMDL
MODEL 8
REMARK VINA RESULT:    -4.482      1.482      2.858
REMARK INTER + INTRA:          -5.798
REMARK INTER:                  -5.470
REMARK INTRA:                  -0.328
REMARK UNBOUND:                -0.268
REMARK SMILES O=c1c(O)c(-c2cc(O)c(O)c(O)c2)oc2cc(O)cc(O)c12
REMARK SMILES IDX 5 1 3 2 2 3 1 4 23 5 21 6 20 7 18 8 17 9 16 10 15 11 6 12
REMARK SMILES IDX 7 13 8 14 14 15 10 16 12 17 9 18 11 20 13 22 4 24 22 26
REMARK SMILES IDX 19 28
REMARK H PARENT 9 19 11 21 13 23 4 25 22 27 19 29
REMARK Flexibility Score: inf
ROOT
ATOM      1  C   UNL     1     127.966 126.796 131.889  1.00  0.00     0.180 A 
ATOM      2  C   UNL     1     127.728 125.437 132.159  1.00  0.00     0.208 A 
ATOM      3  C   UNL     1     126.854 125.093 133.202  1.00  0.00     0.238 A 
ATOM      4  O   UNL     1     126.688 123.875 133.475  1.00  0.00    -0.285 OA
ATOM      5  C   UNL     1     126.216 126.111 133.951  1.00  0.00     0.111 A 
ATOM      6  C   UNL     1     125.281 125.877 135.005  1.00  0.00     0.134 A 
ATOM      7  C   UNL     1     124.812 126.956 135.763  1.00  0.00     0.093 A 
ATOM      8  C   UNL     1     125.193 128.267 135.465  1.00  0.00     0.123 A 
ATOM      9  C   UNL     1     126.059 128.510 134.401  1.00  0.00     0.094 A 
ATOM     10  C   UNL     1     126.572 127.450 133.649  1.00  0.00     0.146 A 
ATOM     11  O   UNL     1     127.403 127.725 132.651  1.00  0.00    -0.452 OA
ENDROOT
BRANCH   1  12
ATOM     12  C   UNL     1     128.854 127.237 130.789  1.00  0.00     0.029 A 
ATOM     13  C   UNL     1     130.188 127.609 131.030  1.00  0.00     0.062 A 
ATOM     14  C   UNL     1     131.020 128.000 129.973  1.00  0.00     0.162 A 
ATOM     15  C   UNL     1     128.375 127.230 129.470  1.00  0.00     0.062 A 
ATOM     16  C   UNL     1     130.527 128.014 128.662  1.00  0.00     0.200 A 
ATOM     17  C   UNL     1     129.202 127.624 128.408  1.00  0.00     0.162 A 
BRANCH  14  18
ATOM     18  O   UNL     1     132.340 128.375 130.217  1.00  0.00    -0.504 OA
ATOM     19  H   UNL     1     132.817 129.050 129.631  1.00  0.00     0.293 HD
ENDBRANCH  14  18
BRANCH  16  20
ATOM     20  O   UNL     1     131.369 128.411 127.622  1.00  0.00    -0.502 OA
ATOM     21  H   UNL     1     131.348 129.349 127.241  1.00  0.00     0.293 HD
ENDBRANCH  16  20
BRANCH  17  22
ATOM     22  O   UNL     1     128.710 127.627 127.103  1.00  0.00    -0.504 OA
ATOM     23  H   UNL     1     129.162 128.157 126.367  1.00  0.00     0.293 HD
ENDBRANCH  17  22
ENDBRANCH   1  12
BRANCH   2  24
ATOM     24  O   UNL     1     128.385 124.448 131.422  1.00  0.00    -0.502 OA
ATOM     25  H   UNL     1     128.670 124.585 130.460  1.00  0.00     0.293 HD
ENDBRANCH   2  24
BRANCH   6  26
ATOM     26  O   UNL     1     124.764 124.618 135.324  1.00  0.00    -0.507 OA
ATOM     27  H   UNL     1     124.876 124.160 136.216  1.00  0.00     0.293 HD
ENDBRANCH   6  26
BRANCH   8  28
ATOM     28  O   UNL     1     124.709 129.336 136.215  1.00  0.00    -0.508 OA
ATOM     29  H   UNL     1     124.340 130.170 135.774  1.00  0.00     0.293 HD
ENDBRANCH   8  28
TORSDOF 7
ENDMDL
MODEL 9
REMARK VINA RESULT:    -4.458      4.066      7.802
REMARK INTER + INTRA:          -5.768
REMARK INTER:                  -5.442
REMARK INTRA:                  -0.326
REMARK UNBOUND:                -0.268
REMARK SMILES O=c1c(O)c(-c2cc(O)c(O)c(O)c2)oc2cc(O)cc(O)c12
REMARK SMILES IDX 5 1 3 2 2 3 1 4 23 5 21 6 20 7 18 8 17 9 16 10 15 11 6 12
REMARK SMILES IDX 7 13 8 14 14 15 10 16 12 17 9 18 11 20 13 22 4 24 22 26
REMARK SMILES IDX 19 28
REMARK H PARENT 9 19 11 21 13 23 4 25 22 27 19 29
REMARK Flexibility Score: inf
ROOT
ATOM      1  C   UNL     1     126.877 127.995 137.010  1.00  0.00     0.180 A 
ATOM      2  C   UNL     1     125.508 127.910 136.700  1.00  0.00     0.208 A 
ATOM      3  C   UNL     1     125.095 127.046 135.674  1.00  0.00     0.238 A 
ATOM      4  O   UNL     1     123.876 127.015 135.364  1.00  0.00    -0.285 OA
ATOM      5  C   UNL     1     126.053 126.267 134.981  1.00  0.00     0.111 A 
ATOM      6  C   UNL     1     125.743 125.329 133.950  1.00  0.00     0.134 A 
ATOM      7  C   UNL     1     126.781 124.710 133.245  1.00  0.00     0.093 A 
ATOM      8  C   UNL     1     128.118 124.944 133.576  1.00  0.00     0.123 A 
ATOM      9  C   UNL     1     128.429 125.812 134.620  1.00  0.00     0.094 A 
ATOM     10  C   UNL     1     127.416 126.473 135.319  1.00  0.00     0.146 A 
ATOM     11  O   UNL     1     127.756 127.301 136.299  1.00  0.00    -0.452 OA
ENDROOT
BRANCH   1  12
ATOM     12  C   UNL     1     127.386 128.864 138.097  1.00  0.00     0.029 A 
ATOM     13  C   UNL     1     127.931 130.131 137.825  1.00  0.00     0.062 A 
ATOM     14  C   UNL     1     128.386 130.948 138.869  1.00  0.00     0.162 A 
ATOM     15  C   UNL     1     127.272 128.440 139.430  1.00  0.00     0.062 A 
ATOM     16  C   UNL     1     128.290 130.508 140.196  1.00  0.00     0.200 A 
ATOM     17  C   UNL     1     127.728 129.252 140.478  1.00  0.00     0.162 A 
BRANCH  14  18
ATOM     18  O   UNL     1     128.932 132.201 138.596  1.00  0.00    -0.504 OA
ATOM     19  H   UNL     1     129.361 132.762 139.322  1.00  0.00     0.293 HD
ENDBRANCH  14  18
BRANCH  16  20
ATOM     20  O   UNL     1     128.752 131.333 141.222  1.00  0.00    -0.502 OA
ATOM     21  H   UNL     1     128.631 132.338 141.201  1.00  0.00     0.293 HD
ENDBRANCH  16  20
BRANCH  17  22
ATOM     22  O   UNL     1     127.622 128.815 141.798  1.00  0.00    -0.504 OA
ATOM     23  H   UNL     1     127.168 129.377 142.509  1.00  0.00     0.293 HD
ENDBRANCH  17  22
ENDBRANCH   1  12
BRANCH   2  24
ATOM     24  O   UNL     1     124.582 128.704 137.381  1.00  0.00    -0.502 OA
ATOM     25  H   UNL     1     123.632 128.402 137.559  1.00  0.00     0.293 HD
ENDBRANCH   2  24
BRANCH   6  26
ATOM     26  O   UNL     1     124.442 124.953 133.603  1.00  0.00    -0.507 OA
ATOM     27  H   UNL     1     123.608 125.263 134.079  1.00  0.00     0.293 HD
ENDBRANCH   6  26
BRANCH   8  28
ATOM     28  O   UNL     1     129.145 124.311 132.880  1.00  0.00    -0.508 OA
ATOM     29  H   UNL     1     129.391 123.345 133.060  1.00  0.00     0.293 HD
ENDBRANCH   8  28
TORSDOF 7
ENDMDL
