MODEL 1
REMARK VINA RESULT:    17.113      0.000      0.000
REMARK INTER + INTRA:          20.990
REMARK INTER:                  21.115
REMARK INTRA:                  -0.125
REMARK UNBOUND:                -0.125
REMARK SMILES COc1cc(-c2oc3cc(O)cc(O)c3c(=O)c2O)ccc1O
REMARK SMILES IDX 6 1 18 2 16 3 17 4 15 5 13 6 12 7 10 8 9 9 8 10 7 11 5 12
REMARK SMILES IDX 3 13 22 14 4 15 21 16 20 17 2 18 1 19 23 20 19 22 14 24
REMARK SMILES IDX 11 26
REMARK H PARENT 23 21 19 23 14 25 11 27
REMARK Flexibility Score: inf
ROOT
ATOM      1  C   UNL     1      12.734  -2.077  11.085  1.00  0.00     0.180 A 
ATOM      2  C   UNL     1      13.011  -0.702  11.166  1.00  0.00     0.208 A 
ATOM      3  C   UNL     1      13.936  -0.248  12.119  1.00  0.00     0.238 A 
ATOM      4  O   UNL     1      14.138   0.990  12.224  1.00  0.00    -0.285 OA
ATOM      5  C   UNL     1      14.585  -1.176  12.968  1.00  0.00     0.111 A 
ATOM      6  C   UNL     1      15.570  -0.832  13.943  1.00  0.00     0.134 A 
ATOM      7  C   UNL     1      16.051  -1.816  14.817  1.00  0.00     0.093 A 
ATOM      8  C   UNL     1      15.630  -3.143  14.707  1.00  0.00     0.123 A 
ATOM      9  C   UNL     1      14.713  -3.500  13.721  1.00  0.00     0.094 A 
ATOM     10  C   UNL     1      14.189  -2.535  12.858  1.00  0.00     0.146 A 
ATOM     11  O   UNL     1      13.310  -2.915  11.939  1.00  0.00    -0.452 OA
ENDROOT
BRANCH   1  12
ATOM     12  C   UNL     1      11.789  -2.634  10.089  1.00  0.00     0.025 A 
ATOM     13  C   UNL     1      11.206  -3.048   7.751  1.00  0.00     0.161 A 
ATOM     14  C   UNL     1       9.997  -3.625   8.161  1.00  0.00     0.157 A 
ATOM     15  C   UNL     1      12.097  -2.547   8.721  1.00  0.00     0.062 A 
ATOM     16  C   UNL     1       9.679  -3.695   9.523  1.00  0.00     0.051 A 
ATOM     17  C   UNL     1      10.564  -3.198  10.481  1.00  0.00     0.016 A 
BRANCH  13  18
ATOM     18  O   UNL     1      11.486  -2.989   6.377  1.00  0.00    -0.493 OA
ATOM     19  C   UNL     1      11.917  -4.097   5.594  1.00  0.00     0.278 C 
ENDBRANCH  13  18
BRANCH  14  20
ATOM     20  O   UNL     1       9.112  -4.125   7.207  1.00  0.00    -0.504 OA
ATOM     21  H   UNL     1       8.364  -4.761   7.458  1.00  0.00     0.293 HD
ENDBRANCH  14  20
ENDBRANCH   1  12
BRANCH   2  22
ATOM     22  O   UNL     1      12.342   0.200  10.332  1.00  0.00    -0.502 OA
ATOM     23  H   UNL     1      12.613   0.354   9.369  1.00  0.00     0.293 HD
ENDBRANCH   2  22
BRANCH   6  24
ATOM     24  O   UNL     1      16.124   0.444  14.075  1.00  0.00    -0.507 OA
ATOM     25  H   UNL     1      15.595   1.286  14.245  1.00  0.00     0.293 HD
ENDBRANCH   6  24
BRANCH   8  26
ATOM     26  O   UNL     1      16.124  -4.118  15.571  1.00  0.00    -0.508 OA
ATOM     27  H   UNL     1      17.082  -4.445  15.508  1.00  0.00     0.293 HD
ENDBRANCH   8  26
TORSDOF 6
ENDMDL
