MODEL 1
REMARK VINA RESULT:    -3.617      0.000      0.000
REMARK INTER + INTRA:          -4.267
REMARK INTER:                  -4.251
REMARK INTRA:                  -0.016
REMARK UNBOUND:                -0.016
REMARK SMILES CCCCC(=O)[O-]
REMARK SMILES IDX 4 1 5 2 6 3 7 4 3 5 2 6 1 7
REMARK H PARENT
REMARK Flexibility Score: inf
ROOT
ATOM      1  C   UNL     1      41.758  37.144  22.619  1.00  0.00     0.053 C 
ENDROOT
BRANCH   1   2
ATOM      2  C   UNL     1      42.787  38.231  22.565  1.00  0.00     0.041 C 
ATOM      3  O   UNL     1      42.442  39.419  22.330  1.00  0.00    -0.550 OA
ATOM      4  O   UNL     1      44.125  37.940  22.809  1.00  0.00    -0.550 OA
ENDBRANCH   1   2
BRANCH   1   5
ATOM      5  C   UNL     1      40.989  37.124  23.951  1.00  0.00     0.006 C 
BRANCH   5   6
ATOM      6  C   UNL     1      39.855  36.083  24.001  1.00  0.00    -0.003 C 
ATOM      7  C   UNL     1      38.533  36.606  23.443  1.00  0.00     0.004 C 
ENDBRANCH   5   6
ENDBRANCH   1   5
TORSDOF 3
ENDMDL
MODEL 2
REMARK VINA RESULT:    -3.508      1.297      1.481
REMARK INTER + INTRA:          -4.139
REMARK INTER:                  -4.077
REMARK INTRA:                  -0.062
REMARK UNBOUND:                -0.016
REMARK SMILES CCCCC(=O)[O-]
REMARK SMILES IDX 4 1 5 2 6 3 7 4 3 5 2 6 1 7
REMARK H PARENT
REMARK Flexibility Score: inf
ROOT
ATOM      1  C   UNL     1      41.334  36.868  22.940  1.00  0.00     0.053 C 
ENDROOT
BRANCH   1   2
ATOM      2  C   UNL     1      42.453  37.649  23.558  1.00  0.00     0.041 C 
ATOM      3  O   UNL     1      42.411  37.961  24.776  1.00  0.00    -0.550 OA
ATOM      4  O   UNL     1      43.560  38.005  22.796  1.00  0.00    -0.550 OA
ENDBRANCH   1   2
BRANCH   1   5
ATOM      5  C   UNL     1      40.261  36.463  23.965  1.00  0.00     0.006 C 
BRANCH   5   6
ATOM      6  C   UNL     1      38.818  36.681  23.475  1.00  0.00    -0.003 C 
ATOM      7  C   UNL     1      38.695  37.795  22.438  1.00  0.00     0.004 C 
ENDBRANCH   5   6
ENDBRANCH   1   5
TORSDOF 3
ENDMDL
MODEL 3
REMARK VINA RESULT:    -3.491     11.646     12.741
REMARK INTER + INTRA:          -4.119
REMARK INTER:                  -4.103
REMARK INTRA:                  -0.016
REMARK UNBOUND:                -0.016
REMARK SMILES CCCCC(=O)[O-]
REMARK SMILES IDX 4 1 5 2 6 3 7 4 3 5 2 6 1 7
REMARK H PARENT
REMARK Flexibility Score: inf
ROOT
ATOM      1  C   UNL     1      48.872  34.308  13.520  1.00  0.00     0.053 C 
ENDROOT
BRANCH   1   2
ATOM      2  C   UNL     1      49.187  33.730  12.174  1.00  0.00     0.041 C 
ATOM      3  O   UNL     1      50.352  33.815  11.705  1.00  0.00    -0.550 OA
ATOM      4  O   UNL     1      48.203  33.066  11.451  1.00  0.00    -0.550 OA
ENDBRANCH   1   2
BRANCH   1   5
ATOM      5  C   UNL     1      48.477  33.233  14.547  1.00  0.00     0.006 C 
BRANCH   5   6
ATOM      6  C   UNL     1      47.817  33.797  15.818  1.00  0.00    -0.003 C 
ATOM      7  C   UNL     1      48.809  34.041  16.954  1.00  0.00     0.004 C 
ENDBRANCH   5   6
ENDBRANCH   1   5
TORSDOF 3
ENDMDL
MODEL 4
REMARK VINA RESULT:    -3.450     10.758     11.346
REMARK INTER + INTRA:          -4.072
REMARK INTER:                  -3.971
REMARK INTRA:                  -0.100
REMARK UNBOUND:                -0.016
REMARK SMILES CCCCC(=O)[O-]
REMARK SMILES IDX 4 1 5 2 6 3 7 4 3 5 2 6 1 7
REMARK H PARENT
REMARK Flexibility Score: inf
ROOT
ATOM      1  C   UNL     1      47.966  31.680  18.033  1.00  0.00     0.053 C 
ENDROOT
BRANCH   1   2
ATOM      2  C   UNL     1      47.725  30.437  17.232  1.00  0.00     0.041 C 
ATOM      3  O   UNL     1      47.853  29.304  17.766  1.00  0.00    -0.550 OA
ATOM      4  O   UNL     1      47.325  30.528  15.904  1.00  0.00    -0.550 OA
ENDBRANCH   1   2
BRANCH   1   5
ATOM      5  C   UNL     1      49.204  32.458  17.556  1.00  0.00     0.006 C 
BRANCH   5   6
ATOM      6  C   UNL     1      48.887  33.866  17.019  1.00  0.00    -0.003 C 
ATOM      7  C   UNL     1      48.427  33.865  15.563  1.00  0.00     0.004 C 
ENDBRANCH   5   6
ENDBRANCH   1   5
TORSDOF 3
ENDMDL
MODEL 5
REMARK VINA RESULT:    -3.441      2.875      3.984
REMARK INTER + INTRA:          -4.061
REMARK INTER:                  -3.989
REMARK INTRA:                  -0.072
REMARK UNBOUND:                -0.016
REMARK SMILES CCCCC(=O)[O-]
REMARK SMILES IDX 4 1 5 2 6 3 7 4 3 5 2 6 1 7
REMARK H PARENT
REMARK Flexibility Score: inf
ROOT
ATOM      1  C   UNL     1      40.108  36.270  24.052  1.00  0.00     0.053 C 
ENDROOT
BRANCH   1   2
ATOM      2  C   UNL     1      38.826  36.982  23.745  1.00  0.00     0.041 C 
ATOM      3  O   UNL     1      38.017  36.498  22.910  1.00  0.00    -0.550 OA
ATOM      4  O   UNL     1      38.507  38.164  24.404  1.00  0.00    -0.550 OA
ENDBRANCH   1   2
BRANCH   1   5
ATOM      5  C   UNL     1      41.318  37.219  24.076  1.00  0.00     0.006 C 
BRANCH   5   6
ATOM      6  C   UNL     1      42.183  37.159  22.805  1.00  0.00    -0.003 C 
ATOM      7  C   UNL     1      41.817  38.227  21.776  1.00  0.00     0.004 C 
ENDBRANCH   5   6
ENDBRANCH   1   5
TORSDOF 3
ENDMDL
MODEL 6
REMARK VINA RESULT:    -3.438     10.499     11.459
REMARK INTER + INTRA:          -4.057
REMARK INTER:                  -4.037
REMARK INTRA:                  -0.019
REMARK UNBOUND:                -0.016
REMARK SMILES CCCCC(=O)[O-]
REMARK SMILES IDX 4 1 5 2 6 3 7 4 3 5 2 6 1 7
REMARK H PARENT
REMARK Flexibility Score: inf
ROOT
ATOM      1  C   UNL     1      48.558  33.919  16.556  1.00  0.00     0.053 C 
ENDROOT
BRANCH   1   2
ATOM      2  C   UNL     1      48.872  32.748  17.437  1.00  0.00     0.041 C 
ATOM      3  O   UNL     1      50.064  32.490  17.746  1.00  0.00    -0.550 OA
ATOM      4  O   UNL     1      47.845  31.961  17.945  1.00  0.00    -0.550 OA
ENDBRANCH   1   2
BRANCH   1   5
ATOM      5  C   UNL     1      48.139  33.495  15.138  1.00  0.00     0.006 C 
BRANCH   5   6
ATOM      6  C   UNL     1      48.842  34.283  14.018  1.00  0.00    -0.003 C 
ATOM      7  C   UNL     1      47.954  34.515  12.797  1.00  0.00     0.004 C 
ENDBRANCH   5   6
ENDBRANCH   1   5
TORSDOF 3
ENDMDL
MODEL 7
REMARK VINA RESULT:    -3.426     10.873     11.281
REMARK INTER + INTRA:          -4.043
REMARK INTER:                  -3.928
REMARK INTRA:                  -0.115
REMARK UNBOUND:                -0.016
REMARK SMILES CCCCC(=O)[O-]
REMARK SMILES IDX 4 1 5 2 6 3 7 4 3 5 2 6 1 7
REMARK H PARENT
REMARK Flexibility Score: inf
ROOT
ATOM      1  C   UNL     1      47.813  33.763  15.874  1.00  0.00     0.053 C 
ENDROOT
BRANCH   1   2
ATOM      2  C   UNL     1      48.432  33.450  14.546  1.00  0.00     0.041 C 
ATOM      3  O   UNL     1      48.843  34.380  13.804  1.00  0.00    -0.550 OA
ATOM      4  O   UNL     1      48.587  32.129  14.141  1.00  0.00    -0.550 OA
ENDBRANCH   1   2
BRANCH   1   5
ATOM      5  C   UNL     1      48.858  33.913  16.992  1.00  0.00     0.006 C 
BRANCH   5   6
ATOM      6  C   UNL     1      49.271  32.580  17.642  1.00  0.00    -0.003 C 
ATOM      7  C   UNL     1      48.106  31.608  17.815  1.00  0.00     0.004 C 
ENDBRANCH   5   6
ENDBRANCH   1   5
TORSDOF 3
ENDMDL
MODEL 8
REMARK VINA RESULT:    -3.382     11.799     13.083
REMARK INTER + INTRA:          -3.992
REMARK INTER:                  -3.928
REMARK INTRA:                  -0.064
REMARK UNBOUND:                -0.016
REMARK SMILES CCCCC(=O)[O-]
REMARK SMILES IDX 4 1 5 2 6 3 7 4 3 5 2 6 1 7
REMARK H PARENT
REMARK Flexibility Score: inf
ROOT
ATOM      1  C   UNL     1      48.842  34.258  13.812  1.00  0.00     0.053 C 
ENDROOT
BRANCH   1   2
ATOM      2  C   UNL     1      48.173  33.341  14.791  1.00  0.00     0.041 C 
ATOM      3  O   UNL     1      47.270  33.777  15.551  1.00  0.00    -0.550 OA
ATOM      4  O   UNL     1      48.523  31.997  14.841  1.00  0.00    -0.550 OA
ENDBRANCH   1   2
BRANCH   1   5
ATOM      5  C   UNL     1      48.086  34.346  12.475  1.00  0.00     0.006 C 
BRANCH   5   6
ATOM      6  C   UNL     1      48.660  33.436  11.374  1.00  0.00    -0.003 C 
ATOM      7  C   UNL     1      50.137  33.697  11.086  1.00  0.00     0.004 C 
ENDBRANCH   5   6
ENDBRANCH   1   5
TORSDOF 3
ENDMDL
MODEL 9
REMARK VINA RESULT:    -3.371      6.908      7.432
REMARK INTER + INTRA:          -3.979
REMARK INTER:                  -3.953
REMARK INTRA:                  -0.026
REMARK UNBOUND:                -0.016
REMARK SMILES CCCCC(=O)[O-]
REMARK SMILES IDX 4 1 5 2 6 3 7 4 3 5 2 6 1 7
REMARK H PARENT
REMARK Flexibility Score: inf
ROOT
ATOM      1  C   UNL     1      44.979  35.199  28.694  1.00  0.00     0.053 C 
ENDROOT
BRANCH   1   2
ATOM      2  C   UNL     1      44.618  36.617  29.015  1.00  0.00     0.041 C 
ATOM      3  O   UNL     1      43.694  36.866  29.833  1.00  0.00    -0.550 OA
ATOM      4  O   UNL     1      45.324  37.666  28.437  1.00  0.00    -0.550 OA
ENDBRANCH   1   2
BRANCH   1   5
ATOM      5  C   UNL     1      44.351  34.194  29.673  1.00  0.00     0.006 C 
BRANCH   5   6
ATOM      6  C   UNL     1      44.705  32.726  29.373  1.00  0.00    -0.003 C 
ATOM      7  C   UNL     1      44.559  32.361  27.897  1.00  0.00     0.004 C 
ENDBRANCH   5   6
ENDBRANCH   1   5
TORSDOF 3
ENDMDL
