MODEL 1
REMARK VINA RESULT:    -4.055      0.000      0.000
REMARK INTER + INTRA:          -9.114
REMARK INTER:                  -7.136
REMARK INTRA:                  -1.978
REMARK UNBOUND:                -1.978
REMARK SMILES CCCCCCCCCCCCCCC(=O)[O-]
REMARK SMILES IDX 9 1 10 2 11 3 12 4 13 5 14 6 15 7 16 8 17 9 8 10 7 11 6 12
REMARK SMILES IDX 5 13 4 14 3 15 2 16 1 17
REMARK H PARENT
REMARK Flexibility Score: inf
ROOT
ATOM      1  C   UNL     1      26.692  -3.767  -4.469  1.00  0.00     0.000 C 
ENDROOT
BRANCH   1   2
ATOM      2  C   UNL     1      27.427  -2.813  -5.419  1.00  0.00     0.000 C 
BRANCH   2   3
ATOM      3  C   UNL     1      27.395  -1.372  -4.889  1.00  0.00     0.000 C 
BRANCH   3   4
ATOM      4  C   UNL     1      28.661  -1.019  -4.081  1.00  0.00     0.000 C 
BRANCH   4   5
ATOM      5  C   UNL     1      28.409  -0.877  -2.571  1.00  0.00     0.006 C 
BRANCH   5   6
ATOM      6  C   UNL     1      28.847  -2.111  -1.773  1.00  0.00     0.053 C 
BRANCH   6   7
ATOM      7  C   UNL     1      27.858  -2.415  -0.694  1.00  0.00     0.041 C 
ATOM      8  O   UNL     1      28.053  -2.003   0.480  1.00  0.00    -0.550 OA
ATOM      9  O   UNL     1      26.693  -3.111  -0.994  1.00  0.00    -0.550 OA
ENDBRANCH   6   7
ENDBRANCH   5   6
ENDBRANCH   4   5
ENDBRANCH   3   4
ENDBRANCH   2   3
ENDBRANCH   1   2
BRANCH   1  10
ATOM     10  C   UNL     1      27.639  -4.842  -3.925  1.00  0.00     0.000 C 
BRANCH  10  11
ATOM     11  C   UNL     1      29.029  -4.728  -4.570  1.00  0.00    -0.000 C 
BRANCH  11  12
ATOM     12  C   UNL     1      29.854  -6.017  -4.432  1.00  0.00    -0.000 C 
BRANCH  12  13
ATOM     13  C   UNL     1      28.980  -7.251  -4.159  1.00  0.00    -0.000 C 
BRANCH  13  14
ATOM     14  C   UNL     1      29.206  -8.330  -5.225  1.00  0.00    -0.000 C 
BRANCH  14  15
ATOM     15  C   UNL     1      28.455  -7.992  -6.518  1.00  0.00    -0.000 C 
BRANCH  15  16
ATOM     16  C   UNL     1      27.005  -7.590  -6.222  1.00  0.00    -0.003 C 
ATOM     17  C   UNL     1      26.553  -6.448  -7.127  1.00  0.00     0.004 C 
ENDBRANCH  15  16
ENDBRANCH  14  15
ENDBRANCH  13  14
ENDBRANCH  12  13
ENDBRANCH  11  12
ENDBRANCH  10  11
ENDBRANCH   1  10
TORSDOF 13
ENDMDL
MODEL 2
REMARK VINA RESULT:    -4.021      3.045      6.468
REMARK INTER + INTRA:          -9.054
REMARK INTER:                  -7.050
REMARK INTRA:                  -2.005
REMARK UNBOUND:                -1.978
REMARK SMILES CCCCCCCCCCCCCCC(=O)[O-]
REMARK SMILES IDX 9 1 10 2 11 3 12 4 13 5 14 6 15 7 16 8 17 9 8 10 7 11 6 12
REMARK SMILES IDX 5 13 4 14 3 15 2 16 1 17
REMARK H PARENT
REMARK Flexibility Score: inf
ROOT
ATOM      1  C   UNL     1      28.719  -3.725  -5.641  1.00  0.00     0.000 C 
ENDROOT
BRANCH   1   2
ATOM      2  C   UNL     1      29.667  -4.242  -4.552  1.00  0.00     0.000 C 
BRANCH   2   3
ATOM      3  C   UNL     1      29.144  -5.549  -3.939  1.00  0.00     0.000 C 
BRANCH   3   4
ATOM      4  C   UNL     1      29.977  -6.772  -4.375  1.00  0.00     0.000 C 
BRANCH   4   5
ATOM      5  C   UNL     1      29.139  -7.893  -5.014  1.00  0.00     0.006 C 
BRANCH   5   6
ATOM      6  C   UNL     1      27.766  -7.410  -5.497  1.00  0.00     0.053 C 
BRANCH   6   7
ATOM      7  C   UNL     1      27.721  -7.369  -6.991  1.00  0.00     0.041 C 
ATOM      8  O   UNL     1      28.425  -8.163  -7.668  1.00  0.00    -0.550 OA
ATOM      9  O   UNL     1      26.863  -6.488  -7.637  1.00  0.00    -0.550 OA
ENDBRANCH   6   7
ENDBRANCH   5   6
ENDBRANCH   4   5
ENDBRANCH   3   4
ENDBRANCH   2   3
ENDBRANCH   1   2
BRANCH   1  10
ATOM     10  C   UNL     1      27.256  -3.827  -5.193  1.00  0.00     0.000 C 
BRANCH  10  11
ATOM     11  C   UNL     1      26.740  -2.470  -4.689  1.00  0.00    -0.000 C 
BRANCH  11  12
ATOM     12  C   UNL     1      27.537  -1.286  -5.259  1.00  0.00    -0.000 C 
BRANCH  12  13
ATOM     13  C   UNL     1      28.089  -0.363  -4.162  1.00  0.00    -0.000 C 
BRANCH  13  14
ATOM     14  C   UNL     1      27.709  -0.879  -2.768  1.00  0.00    -0.000 C 
BRANCH  14  15
ATOM     15  C   UNL     1      28.937  -1.423  -2.029  1.00  0.00    -0.000 C 
BRANCH  15  16
ATOM     16  C   UNL     1      28.568  -2.638  -1.169  1.00  0.00    -0.003 C 
ATOM     17  C   UNL     1      27.060  -2.866  -1.156  1.00  0.00     0.004 C 
ENDBRANCH  15  16
ENDBRANCH  14  15
ENDBRANCH  13  14
ENDBRANCH  12  13
ENDBRANCH  11  12
ENDBRANCH  10  11
ENDBRANCH   1  10
TORSDOF 13
ENDMDL
MODEL 3
REMARK VINA RESULT:    -4.001      3.150      6.300
REMARK INTER + INTRA:          -9.019
REMARK INTER:                  -7.389
REMARK INTRA:                  -1.630
REMARK UNBOUND:                -1.978
REMARK SMILES CCCCCCCCCCCCCCC(=O)[O-]
REMARK SMILES IDX 9 1 10 2 11 3 12 4 13 5 14 6 15 7 16 8 17 9 8 10 7 11 6 12
REMARK SMILES IDX 5 13 4 14 3 15 2 16 1 17
REMARK H PARENT
REMARK Flexibility Score: inf
ROOT
ATOM      1  C   UNL     1      26.546  -3.566  -4.138  1.00  0.00     0.000 C 
ENDROOT
BRANCH   1   2
ATOM      2  C   UNL     1      26.433  -4.866  -4.944  1.00  0.00     0.000 C 
BRANCH   2   3
ATOM      3  C   UNL     1      26.330  -6.085  -4.016  1.00  0.00     0.000 C 
BRANCH   3   4
ATOM      4  C   UNL     1      27.678  -6.820  -3.865  1.00  0.00     0.000 C 
BRANCH   4   5
ATOM      5  C   UNL     1      28.589  -6.695  -5.097  1.00  0.00     0.006 C 
BRANCH   5   6
ATOM      6  C   UNL     1      28.618  -7.969  -5.950  1.00  0.00     0.053 C 
BRANCH   6   7
ATOM      7  C   UNL     1      27.957  -7.730  -7.270  1.00  0.00     0.041 C 
ATOM      8  O   UNL     1      28.517  -8.097  -8.335  1.00  0.00    -0.550 OA
ATOM      9  O   UNL     1      26.697  -7.146  -7.321  1.00  0.00    -0.550 OA
ENDBRANCH   6   7
ENDBRANCH   5   6
ENDBRANCH   4   5
ENDBRANCH   3   4
ENDBRANCH   2   3
ENDBRANCH   1   2
BRANCH   1  10
ATOM     10  C   UNL     1      27.265  -2.478  -4.944  1.00  0.00     0.000 C 
BRANCH  10  11
ATOM     11  C   UNL     1      28.422  -3.074  -5.762  1.00  0.00    -0.000 C 
BRANCH  11  12
ATOM     12  C   UNL     1      29.686  -3.302  -4.918  1.00  0.00    -0.000 C 
BRANCH  12  13
ATOM     13  C   UNL     1      29.937  -2.169  -3.911  1.00  0.00    -0.000 C 
BRANCH  13  14
ATOM     14  C   UNL     1      30.034  -2.719  -2.482  1.00  0.00    -0.000 C 
BRANCH  14  15
ATOM     15  C   UNL     1      29.700  -1.633  -1.452  1.00  0.00    -0.000 C 
BRANCH  15  16
ATOM     16  C   UNL     1      28.249  -1.160  -1.602  1.00  0.00    -0.003 C 
ATOM     17  C   UNL     1      27.283  -2.111  -0.901  1.00  0.00     0.004 C 
ENDBRANCH  15  16
ENDBRANCH  14  15
ENDBRANCH  13  14
ENDBRANCH  12  13
ENDBRANCH  11  12
ENDBRANCH  10  11
ENDBRANCH   1  10
TORSDOF 13
ENDMDL
MODEL 4
REMARK VINA RESULT:    -3.938      2.856      3.562
REMARK INTER + INTRA:          -8.909
REMARK INTER:                  -6.892
REMARK INTRA:                  -2.017
REMARK UNBOUND:                -1.978
REMARK SMILES CCCCCCCCCCCCCCC(=O)[O-]
REMARK SMILES IDX 9 1 10 2 11 3 12 4 13 5 14 6 15 7 16 8 17 9 8 10 7 11 6 12
REMARK SMILES IDX 5 13 4 14 3 15 2 16 1 17
REMARK H PARENT
REMARK Flexibility Score: inf
ROOT
ATOM      1  C   UNL     1      27.065  -3.978  -4.610  1.00  0.00     0.000 C 
ENDROOT
BRANCH   1   2
ATOM      2  C   UNL     1      26.727  -2.493  -4.428  1.00  0.00     0.000 C 
BRANCH   2   3
ATOM      3  C   UNL     1      27.465  -1.902  -3.218  1.00  0.00     0.000 C 
BRANCH   3   4
ATOM      4  C   UNL     1      28.766  -1.179  -3.624  1.00  0.00     0.000 C 
BRANCH   4   5
ATOM      5  C   UNL     1      28.608  -0.274  -4.858  1.00  0.00     0.006 C 
BRANCH   5   6
ATOM      6  C   UNL     1      29.638  -0.574  -5.954  1.00  0.00     0.053 C 
BRANCH   6   7
ATOM      7  C   UNL     1      28.951  -0.943  -7.230  1.00  0.00     0.041 C 
ATOM      8  O   UNL     1      29.483  -1.765  -8.021  1.00  0.00    -0.550 OA
ATOM      9  O   UNL     1      27.698  -0.418  -7.522  1.00  0.00    -0.550 OA
ENDBRANCH   6   7
ENDBRANCH   5   6
ENDBRANCH   4   5
ENDBRANCH   3   4
ENDBRANCH   2   3
ENDBRANCH   1   2
BRANCH   1  10
ATOM     10  C   UNL     1      28.146  -4.170  -5.681  1.00  0.00     0.000 C 
BRANCH  10  11
ATOM     11  C   UNL     1      29.523  -4.395  -5.038  1.00  0.00    -0.000 C 
BRANCH  11  12
ATOM     12  C   UNL     1      29.443  -5.214  -3.741  1.00  0.00    -0.000 C 
BRANCH  12  13
ATOM     13  C   UNL     1      29.908  -6.666  -3.929  1.00  0.00    -0.000 C 
BRANCH  13  14
ATOM     14  C   UNL     1      28.730  -7.576  -4.299  1.00  0.00    -0.000 C 
BRANCH  14  15
ATOM     15  C   UNL     1      29.009  -8.337  -5.600  1.00  0.00    -0.000 C 
BRANCH  15  16
ATOM     16  C   UNL     1      28.179  -7.769  -6.758  1.00  0.00    -0.003 C 
ATOM     17  C   UNL     1      26.781  -7.375  -6.293  1.00  0.00     0.004 C 
ENDBRANCH  15  16
ENDBRANCH  14  15
ENDBRANCH  13  14
ENDBRANCH  12  13
ENDBRANCH  11  12
ENDBRANCH  10  11
ENDBRANCH   1  10
TORSDOF 13
ENDMDL
MODEL 5
REMARK VINA RESULT:    -3.937      2.128      3.431
REMARK INTER + INTRA:          -8.907
REMARK INTER:                  -7.208
REMARK INTRA:                  -1.700
REMARK UNBOUND:                -1.978
REMARK SMILES CCCCCCCCCCCCCCC(=O)[O-]
REMARK SMILES IDX 9 1 10 2 11 3 12 4 13 5 14 6 15 7 16 8 17 9 8 10 7 11 6 12
REMARK SMILES IDX 5 13 4 14 3 15 2 16 1 17
REMARK H PARENT
REMARK Flexibility Score: inf
ROOT
ATOM      1  C   UNL     1      29.940  -5.462  -3.314  1.00  0.00     0.000 C 
ENDROOT
BRANCH   1   2
ATOM      2  C   UNL     1      29.846  -3.937  -3.448  1.00  0.00     0.000 C 
BRANCH   2   3
ATOM      3  C   UNL     1      29.378  -3.294  -2.135  1.00  0.00     0.000 C 
BRANCH   3   4
ATOM      4  C   UNL     1      27.869  -2.974  -2.147  1.00  0.00     0.000 C 
BRANCH   4   5
ATOM      5  C   UNL     1      27.558  -1.468  -2.141  1.00  0.00     0.006 C 
BRANCH   5   6
ATOM      6  C   UNL     1      28.206  -0.720  -3.312  1.00  0.00     0.053 C 
BRANCH   6   7
ATOM      7  C   UNL     1      27.317  -0.762  -4.515  1.00  0.00     0.041 C 
ATOM      8  O   UNL     1      27.389  -1.724  -5.322  1.00  0.00    -0.550 OA
ATOM      9  O   UNL     1      26.375   0.238  -4.718  1.00  0.00    -0.550 OA
ENDBRANCH   6   7
ENDBRANCH   5   6
ENDBRANCH   4   5
ENDBRANCH   3   4
ENDBRANCH   2   3
ENDBRANCH   1   2
BRANCH   1  10
ATOM     10  C   UNL     1      29.859  -6.143  -4.685  1.00  0.00     0.000 C 
BRANCH  10  11
ATOM     11  C   UNL     1      29.919  -7.672  -4.544  1.00  0.00    -0.000 C 
BRANCH  11  12
ATOM     12  C   UNL     1      28.894  -8.389  -5.436  1.00  0.00    -0.000 C 
BRANCH  12  13
ATOM     13  C   UNL     1      28.248  -7.450  -6.467  1.00  0.00    -0.000 C 
BRANCH  13  14
ATOM     14  C   UNL     1      26.775  -7.190  -6.124  1.00  0.00    -0.000 C 
BRANCH  14  15
ATOM     15  C   UNL     1      26.443  -5.697  -6.225  1.00  0.00    -0.000 C 
BRANCH  15  16
ATOM     16  C   UNL     1      26.353  -5.058  -4.833  1.00  0.00    -0.003 C 
ATOM     17  C   UNL     1      26.238  -6.122  -3.745  1.00  0.00     0.004 C 
ENDBRANCH  15  16
ENDBRANCH  14  15
ENDBRANCH  13  14
ENDBRANCH  12  13
ENDBRANCH  11  12
ENDBRANCH  10  11
ENDBRANCH   1  10
TORSDOF 13
ENDMDL
MODEL 6
REMARK VINA RESULT:    -3.904      0.875      2.245
REMARK INTER + INTRA:          -8.848
REMARK INTER:                  -7.249
REMARK INTRA:                  -1.599
REMARK UNBOUND:                -1.978
REMARK SMILES CCCCCCCCCCCCCCC(=O)[O-]
REMARK SMILES IDX 9 1 10 2 11 3 12 4 13 5 14 6 15 7 16 8 17 9 8 10 7 11 6 12
REMARK SMILES IDX 5 13 4 14 3 15 2 16 1 17
REMARK H PARENT
REMARK Flexibility Score: inf
ROOT
ATOM      1  C   UNL     1      27.932  -3.649  -5.741  1.00  0.00     0.000 C 
ENDROOT
BRANCH   1   2
ATOM      2  C   UNL     1      28.199  -2.139  -5.748  1.00  0.00     0.000 C 
BRANCH   2   3
ATOM      3  C   UNL     1      27.919  -1.521  -4.370  1.00  0.00     0.000 C 
BRANCH   3   4
ATOM      4  C   UNL     1      29.213  -1.087  -3.652  1.00  0.00     0.000 C 
BRANCH   4   5
ATOM      5  C   UNL     1      29.147  -1.232  -2.122  1.00  0.00     0.006 C 
BRANCH   5   6
ATOM      6  C   UNL     1      28.888  -2.675  -1.669  1.00  0.00     0.053 C 
BRANCH   6   7
ATOM      7  C   UNL     1      27.726  -2.727  -0.730  1.00  0.00     0.041 C 
ATOM      8  O   UNL     1      26.591  -3.080  -1.145  1.00  0.00    -0.550 OA
ATOM      9  O   UNL     1      27.906  -2.435   0.616  1.00  0.00    -0.550 OA
ENDBRANCH   6   7
ENDBRANCH   5   6
ENDBRANCH   4   5
ENDBRANCH   3   4
ENDBRANCH   2   3
ENDBRANCH   1   2
BRANCH   1  10
ATOM     10  C   UNL     1      27.027  -4.043  -4.567  1.00  0.00     0.000 C 
BRANCH  10  11
ATOM     11  C   UNL     1      26.280  -5.352  -4.865  1.00  0.00    -0.000 C 
BRANCH  11  12
ATOM     12  C   UNL     1      26.594  -5.908  -6.263  1.00  0.00    -0.000 C 
BRANCH  12  13
ATOM     13  C   UNL     1      26.765  -7.435  -6.268  1.00  0.00    -0.000 C 
BRANCH  13  14
ATOM     14  C   UNL     1      28.188  -7.826  -6.685  1.00  0.00    -0.000 C 
BRANCH  14  15
ATOM     15  C   UNL     1      28.932  -8.508  -5.531  1.00  0.00    -0.000 C 
BRANCH  15  16
ATOM     16  C   UNL     1      29.902  -7.534  -4.850  1.00  0.00    -0.003 C 
ATOM     17  C   UNL     1      29.305  -6.970  -3.564  1.00  0.00     0.004 C 
ENDBRANCH  15  16
ENDBRANCH  14  15
ENDBRANCH  13  14
ENDBRANCH  12  13
ENDBRANCH  11  12
ENDBRANCH  10  11
ENDBRANCH   1  10
TORSDOF 13
ENDMDL
MODEL 7
REMARK VINA RESULT:    -3.865      1.707      2.979
REMARK INTER + INTRA:          -8.780
REMARK INTER:                  -7.220
REMARK INTRA:                  -1.560
REMARK UNBOUND:                -1.978
REMARK SMILES CCCCCCCCCCCCCCC(=O)[O-]
REMARK SMILES IDX 9 1 10 2 11 3 12 4 13 5 14 6 15 7 16 8 17 9 8 10 7 11 6 12
REMARK SMILES IDX 5 13 4 14 3 15 2 16 1 17
REMARK H PARENT
REMARK Flexibility Score: inf
ROOT
ATOM      1  C   UNL     1      29.927  -5.130  -3.239  1.00  0.00     0.000 C 
ENDROOT
BRANCH   1   2
ATOM      2  C   UNL     1      29.571  -3.641  -3.328  1.00  0.00     0.000 C 
BRANCH   2   3
ATOM      3  C   UNL     1      29.137  -3.094  -1.961  1.00  0.00     0.000 C 
BRANCH   3   4
ATOM      4  C   UNL     1      27.747  -2.428  -2.012  1.00  0.00     0.000 C 
BRANCH   4   5
ATOM      5  C   UNL     1      27.096  -2.250  -0.630  1.00  0.00     0.006 C 
BRANCH   5   6
ATOM      6  C   UNL     1      27.916  -1.353   0.305  1.00  0.00     0.053 C 
BRANCH   6   7
ATOM      7  C   UNL     1      28.253  -2.081   1.567  1.00  0.00     0.041 C 
ATOM      8  O   UNL     1      28.246  -3.339   1.594  1.00  0.00    -0.550 OA
ATOM      9  O   UNL     1      28.624  -1.371   2.702  1.00  0.00    -0.550 OA
ENDBRANCH   6   7
ENDBRANCH   5   6
ENDBRANCH   4   5
ENDBRANCH   3   4
ENDBRANCH   2   3
ENDBRANCH   1   2
BRANCH   1  10
ATOM     10  C   UNL     1      29.905  -5.786  -4.625  1.00  0.00     0.000 C 
BRANCH  10  11
ATOM     11  C   UNL     1      30.117  -7.304  -4.518  1.00  0.00    -0.000 C 
BRANCH  11  12
ATOM     12  C   UNL     1      28.915  -8.108  -5.036  1.00  0.00    -0.000 C 
BRANCH  12  13
ATOM     13  C   UNL     1      28.269  -7.472  -6.277  1.00  0.00    -0.000 C 
BRANCH  13  14
ATOM     14  C   UNL     1      26.798  -7.127  -6.014  1.00  0.00    -0.000 C 
BRANCH  14  15
ATOM     15  C   UNL     1      26.550  -5.622  -6.167  1.00  0.00    -0.000 C 
BRANCH  15  16
ATOM     16  C   UNL     1      26.381  -4.951  -4.798  1.00  0.00    -0.003 C 
ATOM     17  C   UNL     1      26.179  -5.988  -3.697  1.00  0.00     0.004 C 
ENDBRANCH  15  16
ENDBRANCH  14  15
ENDBRANCH  13  14
ENDBRANCH  12  13
ENDBRANCH  11  12
ENDBRANCH  10  11
ENDBRANCH   1  10
TORSDOF 13
ENDMDL
MODEL 8
REMARK VINA RESULT:    -3.739      3.016      6.288
REMARK INTER + INTRA:          -8.558
REMARK INTER:                  -6.353
REMARK INTRA:                  -2.205
REMARK UNBOUND:                -1.978
REMARK SMILES CCCCCCCCCCCCCCC(=O)[O-]
REMARK SMILES IDX 9 1 10 2 11 3 12 4 13 5 14 6 15 7 16 8 17 9 8 10 7 11 6 12
REMARK SMILES IDX 5 13 4 14 3 15 2 16 1 17
REMARK H PARENT
REMARK Flexibility Score: inf
ROOT
ATOM      1  C   UNL     1      28.775  -3.512  -5.203  1.00  0.00     0.000 C 
ENDROOT
BRANCH   1   2
ATOM      2  C   UNL     1      27.280  -3.236  -5.401  1.00  0.00     0.000 C 
BRANCH   2   3
ATOM      3  C   UNL     1      26.425  -4.212  -4.579  1.00  0.00     0.000 C 
BRANCH   3   4
ATOM      4  C   UNL     1      27.279  -5.288  -3.878  1.00  0.00     0.000 C 
BRANCH   4   5
ATOM      5  C   UNL     1      27.088  -6.701  -4.457  1.00  0.00     0.006 C 
BRANCH   5   6
ATOM      6  C   UNL     1      28.223  -7.118  -5.399  1.00  0.00     0.053 C 
BRANCH   6   7
ATOM      7  C   UNL     1      27.722  -7.233  -6.804  1.00  0.00     0.041 C 
ATOM      8  O   UNL     1      26.782  -6.498  -7.204  1.00  0.00    -0.550 OA
ATOM      9  O   UNL     1      28.326  -8.118  -7.688  1.00  0.00    -0.550 OA
ENDBRANCH   6   7
ENDBRANCH   5   6
ENDBRANCH   4   5
ENDBRANCH   3   4
ENDBRANCH   2   3
ENDBRANCH   1   2
BRANCH   1  10
ATOM     10  C   UNL     1      29.629  -2.517  -5.999  1.00  0.00     0.000 C 
BRANCH  10  11
ATOM     11  C   UNL     1      30.063  -1.337  -5.116  1.00  0.00    -0.000 C 
BRANCH  11  12
ATOM     12  C   UNL     1      29.150  -0.111  -5.276  1.00  0.00    -0.000 C 
BRANCH  12  13
ATOM     13  C   UNL     1      28.403   0.243  -3.981  1.00  0.00    -0.000 C 
BRANCH  13  14
ATOM     14  C   UNL     1      28.830  -0.680  -2.832  1.00  0.00    -0.000 C 
BRANCH  14  15
ATOM     15  C   UNL     1      27.619  -1.392  -2.219  1.00  0.00    -0.000 C 
BRANCH  15  16
ATOM     16  C   UNL     1      28.055  -2.614  -1.400  1.00  0.00    -0.003 C 
ATOM     17  C   UNL     1      29.510  -2.975  -1.682  1.00  0.00     0.004 C 
ENDBRANCH  15  16
ENDBRANCH  14  15
ENDBRANCH  13  14
ENDBRANCH  12  13
ENDBRANCH  11  12
ENDBRANCH  10  11
ENDBRANCH   1  10
TORSDOF 13
ENDMDL
MODEL 9
REMARK VINA RESULT:    -2.649      3.341      6.412
REMARK INTER + INTRA:          -6.640
REMARK INTER:                  -4.761
REMARK INTRA:                  -1.880
REMARK UNBOUND:                -1.978
REMARK SMILES CCCCCCCCCCCCCCC(=O)[O-]
REMARK SMILES IDX 9 1 10 2 11 3 12 4 13 5 14 6 15 7 16 8 17 9 8 10 7 11 6 12
REMARK SMILES IDX 5 13 4 14 3 15 2 16 1 17
REMARK H PARENT
REMARK Flexibility Score: inf
ROOT
ATOM      1  C   UNL     1      27.706  -3.259  -3.578  1.00  0.00     0.000 C 
ENDROOT
BRANCH   1   2
ATOM      2  C   UNL     1      26.916  -3.583  -4.852  1.00  0.00     0.000 C 
BRANCH   2   3
ATOM      3  C   UNL     1      26.021  -4.814  -4.650  1.00  0.00     0.000 C 
BRANCH   3   4
ATOM      4  C   UNL     1      26.693  -5.886  -3.767  1.00  0.00     0.000 C 
BRANCH   4   5
ATOM      5  C   UNL     1      27.693  -6.773  -4.528  1.00  0.00     0.006 C 
BRANCH   5   6
ATOM      6  C   UNL     1      27.208  -7.150  -5.933  1.00  0.00     0.053 C 
BRANCH   6   7
ATOM      7  C   UNL     1      28.235  -7.981  -6.635  1.00  0.00     0.041 C 
ATOM      8  O   UNL     1      28.307  -7.971  -7.891  1.00  0.00    -0.550 OA
ATOM      9  O   UNL     1      29.146  -8.729  -5.899  1.00  0.00    -0.550 OA
ENDBRANCH   6   7
ENDBRANCH   5   6
ENDBRANCH   4   5
ENDBRANCH   3   4
ENDBRANCH   2   3
ENDBRANCH   1   2
BRANCH   1  10
ATOM     10  C   UNL     1      29.215  -3.246  -3.852  1.00  0.00     0.000 C 
BRANCH  10  11
ATOM     11  C   UNL     1      29.502  -3.417  -5.352  1.00  0.00    -0.000 C 
BRANCH  11  12
ATOM     12  C   UNL     1      30.125  -2.161  -5.982  1.00  0.00    -0.000 C 
BRANCH  12  13
ATOM     13  C   UNL     1      29.196  -1.489  -7.005  1.00  0.00    -0.000 C 
BRANCH  13  14
ATOM     14  C   UNL     1      28.767  -0.097  -6.524  1.00  0.00    -0.000 C 
BRANCH  14  15
ATOM     15  C   UNL     1      27.458  -0.167  -5.729  1.00  0.00    -0.000 C 
BRANCH  15  16
ATOM     16  C   UNL     1      27.496   0.778  -4.522  1.00  0.00    -0.003 C 
ATOM     17  C   UNL     1      28.631   0.412  -3.570  1.00  0.00     0.004 C 
ENDBRANCH  15  16
ENDBRANCH  14  15
ENDBRANCH  13  14
ENDBRANCH  12  13
ENDBRANCH  11  12
ENDBRANCH  10  11
ENDBRANCH   1  10
TORSDOF 13
ENDMDL
