MODEL 1
REMARK VINA RESULT:    -5.150      0.000      0.000
REMARK INTER + INTRA:          -5.451
REMARK INTER:                  -5.451
REMARK INTRA:                   0.000
REMARK UNBOUND:                 0.000
REMARK SMILES O=c1ccc2cc(O)c(O)cc2o1
REMARK SMILES IDX 4 1 3 2 2 3 1 4 13 5 12 6 11 7 9 8 7 9 6 10 5 11 8 12 10 14
REMARK H PARENT 8 13 10 15
REMARK Flexibility Score: inf
ROOT
ATOM      1  C   UNL     1      -5.727 -31.788 -50.794  1.00  0.00     0.019 A 
ATOM      2  C   UNL     1      -5.091 -30.549 -50.859  1.00  0.00     0.094 A 
ATOM      3  C   UNL     1      -5.393 -29.580 -49.896  1.00  0.00     0.336 A 
ATOM      4  O   UNL     1      -4.830 -28.455 -49.939  1.00  0.00    -0.246 OA
ATOM      5  O   UNL     1      -6.274 -29.839 -48.934  1.00  0.00    -0.423 OA
ATOM      6  C   UNL     1      -6.903 -31.008 -48.835  1.00  0.00     0.142 A 
ATOM      7  C   UNL     1      -7.820 -31.224 -47.801  1.00  0.00     0.098 A 
ATOM      8  C   UNL     1      -8.485 -32.455 -47.692  1.00  0.00     0.161 A 
ATOM      9  C   UNL     1      -8.230 -33.475 -48.626  1.00  0.00     0.158 A 
ATOM     10  C   UNL     1      -7.313 -33.262 -49.662  1.00  0.00     0.062 A 
ATOM     11  C   UNL     1      -6.648 -32.033 -49.772  1.00  0.00     0.022 A 
ENDROOT
BRANCH   9  12
ATOM     12  O   UNL     1      -8.879 -34.707 -48.541  1.00  0.00    -0.504 OA
ATOM     13  H   UNL     1      -9.889 -34.787 -48.555  1.00  0.00     0.293 HD
ENDBRANCH   9  12
BRANCH   8  14
ATOM     14  O   UNL     1      -9.399 -32.665 -46.660  1.00  0.00    -0.504 OA
ATOM     15  H   UNL     1     -10.344 -32.303 -46.705  1.00  0.00     0.293 HD
ENDBRANCH   8  14
TORSDOF 2
ENDMDL
MODEL 2
REMARK VINA RESULT:    -5.122      1.090      2.280
REMARK INTER + INTRA:          -5.422
REMARK INTER:                  -5.422
REMARK INTRA:                   0.000
REMARK UNBOUND:                 0.000
REMARK SMILES O=c1ccc2cc(O)c(O)cc2o1
REMARK SMILES IDX 4 1 3 2 2 3 1 4 13 5 12 6 11 7 9 8 7 9 6 10 5 11 8 12 10 14
REMARK H PARENT 8 13 10 15
REMARK Flexibility Score: inf
ROOT
ATOM      1  C   UNL     1      -6.661 -29.010 -48.488  1.00  0.00     0.019 A 
ATOM      2  C   UNL     1      -5.580 -28.572 -49.251  1.00  0.00     0.094 A 
ATOM      3  C   UNL     1      -4.825 -29.513 -49.959  1.00  0.00     0.336 A 
ATOM      4  O   UNL     1      -3.844 -29.138 -50.653  1.00  0.00    -0.246 OA
ATOM      5  O   UNL     1      -5.136 -30.806 -49.903  1.00  0.00    -0.423 OA
ATOM      6  C   UNL     1      -6.159 -31.266 -49.187  1.00  0.00     0.142 A 
ATOM      7  C   UNL     1      -6.439 -32.636 -49.166  1.00  0.00     0.098 A 
ATOM      8  C   UNL     1      -7.517 -33.126 -48.414  1.00  0.00     0.161 A 
ATOM      9  C   UNL     1      -8.319 -32.236 -47.677  1.00  0.00     0.158 A 
ATOM     10  C   UNL     1      -8.042 -30.865 -47.696  1.00  0.00     0.062 A 
ATOM     11  C   UNL     1      -6.966 -30.374 -48.447  1.00  0.00     0.022 A 
ENDROOT
BRANCH   9  12
ATOM     12  O   UNL     1      -9.397 -32.698 -46.920  1.00  0.00    -0.504 OA
ATOM     13  H   UNL     1      -9.589 -32.349 -45.988  1.00  0.00     0.293 HD
ENDBRANCH   9  12
BRANCH   8  14
ATOM     14  O   UNL     1      -7.791 -34.493 -48.396  1.00  0.00    -0.504 OA
ATOM     15  H   UNL     1      -8.500 -34.900 -48.994  1.00  0.00     0.293 HD
ENDBRANCH   8  14
TORSDOF 2
ENDMDL
MODEL 3
REMARK VINA RESULT:    -5.097      3.908      5.890
REMARK INTER + INTRA:          -5.395
REMARK INTER:                  -5.395
REMARK INTRA:                   0.000
REMARK UNBOUND:                 0.000
REMARK SMILES O=c1ccc2cc(O)c(O)cc2o1
REMARK SMILES IDX 4 1 3 2 2 3 1 4 13 5 12 6 11 7 9 8 7 9 6 10 5 11 8 12 10 14
REMARK H PARENT 8 13 10 15
REMARK Flexibility Score: inf
ROOT
ATOM      1  C   UNL     1      -6.343 -34.099 -50.976  1.00  0.00     0.019 A 
ATOM      2  C   UNL     1      -6.994 -35.206 -51.520  1.00  0.00     0.094 A 
ATOM      3  C   UNL     1      -6.594 -36.487 -51.126  1.00  0.00     0.336 A 
ATOM      4  O   UNL     1      -7.168 -37.499 -51.606  1.00  0.00    -0.246 OA
ATOM      5  O   UNL     1      -5.608 -36.645 -50.247  1.00  0.00    -0.423 OA
ATOM      6  C   UNL     1      -4.961 -35.616 -49.704  1.00  0.00     0.142 A 
ATOM      7  C   UNL     1      -3.933 -35.842 -48.784  1.00  0.00     0.098 A 
ATOM      8  C   UNL     1      -3.248 -34.761 -48.208  1.00  0.00     0.161 A 
ATOM      9  C   UNL     1      -3.597 -33.444 -48.558  1.00  0.00     0.158 A 
ATOM     10  C   UNL     1      -4.627 -33.214 -49.478  1.00  0.00     0.062 A 
ATOM     11  C   UNL     1      -5.311 -34.293 -50.054  1.00  0.00     0.022 A 
ENDROOT
BRANCH   9  12
ATOM     12  O   UNL     1      -2.933 -32.351 -48.001  1.00  0.00    -0.504 OA
ATOM     13  H   UNL     1      -3.252 -31.399 -48.137  1.00  0.00     0.293 HD
ENDBRANCH   9  12
BRANCH   8  14
ATOM     14  O   UNL     1      -2.223 -34.992 -47.292  1.00  0.00    -0.504 OA
ATOM     15  H   UNL     1      -2.356 -34.846 -46.299  1.00  0.00     0.293 HD
ENDBRANCH   8  14
TORSDOF 2
ENDMDL
MODEL 4
REMARK VINA RESULT:    -5.079      2.881      4.102
REMARK INTER + INTRA:          -5.376
REMARK INTER:                  -5.376
REMARK INTRA:                   0.000
REMARK UNBOUND:                 0.000
REMARK SMILES O=c1ccc2cc(O)c(O)cc2o1
REMARK SMILES IDX 4 1 3 2 2 3 1 4 13 5 12 6 11 7 9 8 7 9 6 10 5 11 8 12 10 14
REMARK H PARENT 8 13 10 15
REMARK Flexibility Score: inf
ROOT
ATOM      1  C   UNL     1      -5.983 -33.375 -48.119  1.00  0.00     0.019 A 
ATOM      2  C   UNL     1      -5.285 -34.441 -48.685  1.00  0.00     0.094 A 
ATOM      3  C   UNL     1      -5.841 -35.109 -49.782  1.00  0.00     0.336 A 
ATOM      4  O   UNL     1      -5.227 -36.074 -50.306  1.00  0.00    -0.246 OA
ATOM      5  O   UNL     1      -7.017 -34.730 -50.275  1.00  0.00    -0.423 OA
ATOM      6  C   UNL     1      -7.715 -33.718 -49.765  1.00  0.00     0.142 A 
ATOM      7  C   UNL     1      -8.946 -33.366 -50.326  1.00  0.00     0.098 A 
ATOM      8  C   UNL     1      -9.687 -32.299 -49.793  1.00  0.00     0.161 A 
ATOM      9  C   UNL     1      -9.189 -31.583 -48.690  1.00  0.00     0.158 A 
ATOM     10  C   UNL     1      -7.957 -31.934 -48.126  1.00  0.00     0.062 A 
ATOM     11  C   UNL     1      -7.217 -32.999 -48.658  1.00  0.00     0.022 A 
ENDROOT
BRANCH   9  12
ATOM     12  O   UNL     1      -9.905 -30.519 -48.140  1.00  0.00    -0.504 OA
ATOM     13  H   UNL     1     -10.784 -30.655 -47.655  1.00  0.00     0.293 HD
ENDBRANCH   9  12
BRANCH   8  14
ATOM     14  O   UNL     1     -10.914 -31.951 -50.356  1.00  0.00    -0.504 OA
ATOM     15  H   UNL     1     -11.790 -32.184 -49.904  1.00  0.00     0.293 HD
ENDBRANCH   8  14
TORSDOF 2
ENDMDL
MODEL 5
REMARK VINA RESULT:    -5.072      3.932      5.387
REMARK INTER + INTRA:          -5.369
REMARK INTER:                  -5.369
REMARK INTRA:                   0.000
REMARK UNBOUND:                 0.000
REMARK SMILES O=c1ccc2cc(O)c(O)cc2o1
REMARK SMILES IDX 4 1 3 2 2 3 1 4 13 5 12 6 11 7 9 8 7 9 6 10 5 11 8 12 10 14
REMARK H PARENT 8 13 10 15
REMARK Flexibility Score: inf
ROOT
ATOM      1  C   UNL     1      -5.629 -36.612 -50.365  1.00  0.00     0.019 A 
ATOM      2  C   UNL     1      -6.626 -36.318 -51.295  1.00  0.00     0.094 A 
ATOM      3  C   UNL     1      -6.904 -34.980 -51.590  1.00  0.00     0.336 A 
ATOM      4  O   UNL     1      -7.800 -34.694 -52.426  1.00  0.00    -0.246 OA
ATOM      5  O   UNL     1      -6.225 -34.004 -50.993  1.00  0.00    -0.423 OA
ATOM      6  C   UNL     1      -5.267 -34.240 -50.100  1.00  0.00     0.142 A 
ATOM      7  C   UNL     1      -4.588 -33.173 -49.504  1.00  0.00     0.098 A 
ATOM      8  C   UNL     1      -3.576 -33.417 -48.562  1.00  0.00     0.161 A 
ATOM      9  C   UNL     1      -3.244 -34.740 -48.217  1.00  0.00     0.158 A 
ATOM     10  C   UNL     1      -3.922 -35.809 -48.812  1.00  0.00     0.062 A 
ATOM     11  C   UNL     1      -4.933 -35.567 -49.752  1.00  0.00     0.022 A 
ENDROOT
BRANCH   9  12
ATOM     12  O   UNL     1      -2.243 -35.009 -47.283  1.00  0.00    -0.504 OA
ATOM     13  H   UNL     1      -2.243 -34.596 -46.358  1.00  0.00     0.293 HD
ENDBRANCH   9  12
BRANCH   8  14
ATOM     14  O   UNL     1      -2.902 -32.350 -47.970  1.00  0.00    -0.504 OA
ATOM     15  H   UNL     1      -2.223 -31.800 -48.483  1.00  0.00     0.293 HD
ENDBRANCH   8  14
TORSDOF 2
ENDMDL
MODEL 6
REMARK VINA RESULT:    -5.068      3.742      5.007
REMARK INTER + INTRA:          -5.365
REMARK INTER:                  -5.365
REMARK INTRA:                   0.000
REMARK UNBOUND:                 0.000
REMARK SMILES O=c1ccc2cc(O)c(O)cc2o1
REMARK SMILES IDX 4 1 3 2 2 3 1 4 13 5 12 6 11 7 9 8 7 9 6 10 5 11 8 12 10 14
REMARK H PARENT 8 13 10 15
REMARK Flexibility Score: inf
ROOT
ATOM      1  C   UNL     1      -5.979 -33.730 -48.123  1.00  0.00     0.019 A 
ATOM      2  C   UNL     1      -6.754 -32.575 -48.216  1.00  0.00     0.094 A 
ATOM      3  C   UNL     1      -6.263 -31.486 -48.943  1.00  0.00     0.336 A 
ATOM      4  O   UNL     1      -6.948 -30.434 -49.037  1.00  0.00    -0.246 OA
ATOM      5  O   UNL     1      -5.074 -31.553 -49.536  1.00  0.00    -0.423 OA
ATOM      6  C   UNL     1      -4.302 -32.636 -49.472  1.00  0.00     0.142 A 
ATOM      7  C   UNL     1      -3.061 -32.649 -50.116  1.00  0.00     0.098 A 
ATOM      8  C   UNL     1      -2.244 -33.788 -50.053  1.00  0.00     0.161 A 
ATOM      9  C   UNL     1      -2.675 -34.921 -49.339  1.00  0.00     0.158 A 
ATOM     10  C   UNL     1      -3.916 -34.911 -48.694  1.00  0.00     0.062 A 
ATOM     11  C   UNL     1      -4.733 -33.774 -48.756  1.00  0.00     0.022 A 
ENDROOT
BRANCH   9  12
ATOM     12  O   UNL     1      -1.881 -36.066 -49.260  1.00  0.00    -0.504 OA
ATOM     13  H   UNL     1      -2.073 -36.893 -49.813  1.00  0.00     0.293 HD
ENDBRANCH   9  12
BRANCH   8  14
ATOM     14  O   UNL     1      -1.007 -33.796 -50.696  1.00  0.00    -0.504 OA
ATOM     15  H   UNL     1      -0.833 -33.233 -51.520  1.00  0.00     0.293 HD
ENDBRANCH   8  14
TORSDOF 2
ENDMDL
MODEL 7
REMARK VINA RESULT:    -4.968      3.640      5.057
REMARK INTER + INTRA:          -5.259
REMARK INTER:                  -5.259
REMARK INTRA:                   0.000
REMARK UNBOUND:                 0.000
REMARK SMILES O=c1ccc2cc(O)c(O)cc2o1
REMARK SMILES IDX 4 1 3 2 2 3 1 4 13 5 12 6 11 7 9 8 7 9 6 10 5 11 8 12 10 14
REMARK H PARENT 8 13 10 15
REMARK Flexibility Score: inf
ROOT
ATOM      1  C   UNL     1      -5.395 -31.386 -49.903  1.00  0.00     0.019 A 
ATOM      2  C   UNL     1      -6.615 -31.362 -49.229  1.00  0.00     0.094 A 
ATOM      3  C   UNL     1      -6.906 -32.382 -48.317  1.00  0.00     0.336 A 
ATOM      4  O   UNL     1      -8.002 -32.378 -47.699  1.00  0.00    -0.246 OA
ATOM      5  O   UNL     1      -6.030 -33.359 -48.098  1.00  0.00    -0.423 OA
ATOM      6  C   UNL     1      -4.855 -33.420 -48.720  1.00  0.00     0.142 A 
ATOM      7  C   UNL     1      -3.974 -34.472 -48.449  1.00  0.00     0.098 A 
ATOM      8  C   UNL     1      -2.733 -34.541 -49.101  1.00  0.00     0.161 A 
ATOM      9  C   UNL     1      -2.375 -33.548 -50.032  1.00  0.00     0.158 A 
ATOM     10  C   UNL     1      -3.254 -32.495 -50.305  1.00  0.00     0.062 A 
ATOM     11  C   UNL     1      -4.493 -32.425 -49.654  1.00  0.00     0.022 A 
ENDROOT
BRANCH   9  12
ATOM     12  O   UNL     1      -1.148 -33.594 -50.695  1.00  0.00    -0.504 OA
ATOM     13  H   UNL     1      -0.355 -34.106 -50.326  1.00  0.00     0.293 HD
ENDBRANCH   9  12
BRANCH   8  14
ATOM     14  O   UNL     1      -1.859 -35.591 -48.829  1.00  0.00    -0.504 OA
ATOM     15  H   UNL     1      -1.568 -36.241 -49.550  1.00  0.00     0.293 HD
ENDBRANCH   8  14
TORSDOF 2
ENDMDL
MODEL 8
REMARK VINA RESULT:    -4.930      3.022      3.719
REMARK INTER + INTRA:          -5.218
REMARK INTER:                  -5.218
REMARK INTRA:                   0.000
REMARK UNBOUND:                 0.000
REMARK SMILES O=c1ccc2cc(O)c(O)cc2o1
REMARK SMILES IDX 4 1 3 2 2 3 1 4 13 5 12 6 11 7 9 8 7 9 6 10 5 11 8 12 10 14
REMARK H PARENT 8 13 10 15
REMARK Flexibility Score: inf
ROOT
ATOM      1  C   UNL     1      -5.882 -32.009 -48.933  1.00  0.00     0.019 A 
ATOM      2  C   UNL     1      -4.701 -32.659 -48.578  1.00  0.00     0.094 A 
ATOM      3  C   UNL     1      -4.659 -34.057 -48.615  1.00  0.00     0.336 A 
ATOM      4  O   UNL     1      -3.602 -34.662 -48.297  1.00  0.00    -0.246 OA
ATOM      5  O   UNL     1      -5.731 -34.753 -48.984  1.00  0.00    -0.423 OA
ATOM      6  C   UNL     1      -6.877 -34.172 -49.331  1.00  0.00     0.142 A 
ATOM      7  C   UNL     1      -7.971 -34.956 -49.711  1.00  0.00     0.098 A 
ATOM      8  C   UNL     1      -9.182 -34.349 -50.078  1.00  0.00     0.161 A 
ATOM      9  C   UNL     1      -9.296 -32.947 -50.064  1.00  0.00     0.158 A 
ATOM     10  C   UNL     1      -8.203 -32.160 -49.684  1.00  0.00     0.062 A 
ATOM     11  C   UNL     1      -6.993 -32.765 -49.317  1.00  0.00     0.022 A 
ENDROOT
BRANCH   9  12
ATOM     12  O   UNL     1     -10.488 -32.319 -50.424  1.00  0.00    -0.504 OA
ATOM     13  H   UNL     1     -10.683 -32.039 -51.378  1.00  0.00     0.293 HD
ENDBRANCH   9  12
BRANCH   8  14
ATOM     14  O   UNL     1     -10.270 -35.134 -50.456  1.00  0.00    -0.504 OA
ATOM     15  H   UNL     1     -11.063 -34.742 -50.950  1.00  0.00     0.293 HD
ENDBRANCH   8  14
TORSDOF 2
ENDMDL
MODEL 9
REMARK VINA RESULT:    -4.856      2.748      3.365
REMARK INTER + INTRA:          -5.140
REMARK INTER:                  -5.140
REMARK INTRA:                   0.000
REMARK UNBOUND:                 0.000
REMARK SMILES O=c1ccc2cc(O)c(O)cc2o1
REMARK SMILES IDX 4 1 3 2 2 3 1 4 13 5 12 6 11 7 9 8 7 9 6 10 5 11 8 12 10 14
REMARK H PARENT 8 13 10 15
REMARK Flexibility Score: inf
ROOT
ATOM      1  C   UNL     1      -7.129 -34.587 -50.132  1.00  0.00     0.019 A 
ATOM      2  C   UNL     1      -5.881 -34.910 -49.600  1.00  0.00     0.094 A 
ATOM      3  C   UNL     1      -5.340 -34.097 -48.598  1.00  0.00     0.336 A 
ATOM      4  O   UNL     1      -4.214 -34.372 -48.106  1.00  0.00    -0.246 OA
ATOM      5  O   UNL     1      -6.008 -33.033 -48.161  1.00  0.00    -0.423 OA
ATOM      6  C   UNL     1      -7.201 -32.689 -48.641  1.00  0.00     0.142 A 
ATOM      7  C   UNL     1      -7.856 -31.559 -48.143  1.00  0.00     0.098 A 
ATOM      8  C   UNL     1      -9.114 -31.192 -48.645  1.00  0.00     0.161 A 
ATOM      9  C   UNL     1      -9.718 -31.964 -49.654  1.00  0.00     0.158 A 
ATOM     10  C   UNL     1      -9.065 -33.096 -50.154  1.00  0.00     0.062 A 
ATOM     11  C   UNL     1      -7.808 -33.463 -49.653  1.00  0.00     0.022 A 
ENDROOT
BRANCH   9  12
ATOM     12  O   UNL     1     -10.968 -31.621 -50.170  1.00  0.00    -0.504 OA
ATOM     13  H   UNL     1     -11.763 -31.428 -49.573  1.00  0.00     0.293 HD
ENDBRANCH   9  12
BRANCH   8  14
ATOM     14  O   UNL     1      -9.763 -30.064 -48.145  1.00  0.00    -0.504 OA
ATOM     15  H   UNL     1      -9.668 -29.157 -48.587  1.00  0.00     0.293 HD
ENDBRANCH   8  14
TORSDOF 2
ENDMDL
