MODEL 1
REMARK VINA RESULT:    -3.621      0.000      0.000
REMARK INTER + INTRA:          -8.267
REMARK INTER:                  -6.797
REMARK INTRA:                  -1.471
REMARK UNBOUND:                -1.471
REMARK SMILES CCCCCCCCC=CCCCCCCCC(=O)[O-]
REMARK SMILES IDX 10 1 9 2 11 3 12 4 13 5 14 6 15 7 16 8 17 9 18 10 19 11
REMARK SMILES IDX 20 12 8 13 7 14 6 15 5 16 4 17 3 18 2 19 1 20
REMARK H PARENT
REMARK Flexibility Score: inf
ROOT
ATOM      1  C   UNL     1       7.035  -3.792  -2.070  1.00  0.00    -0.031 C 
ATOM      2  C   UNL     1       5.728  -3.490  -2.097  1.00  0.00    -0.031 C 
ENDROOT
BRANCH   1   3
ATOM      3  C   UNL     1       8.040  -3.013  -2.871  1.00  0.00     0.027 C 
BRANCH   3   4
ATOM      4  C   UNL     1       9.227  -3.899  -3.278  1.00  0.00     0.004 C 
BRANCH   4   5
ATOM      5  C   UNL     1       8.993  -5.383  -2.957  1.00  0.00     0.000 C 
BRANCH   5   6
ATOM      6  C   UNL     1       9.981  -5.924  -1.910  1.00  0.00     0.000 C 
BRANCH   6   7
ATOM      7  C   UNL     1      10.522  -4.824  -0.981  1.00  0.00     0.000 C 
BRANCH   7   8
ATOM      8  C   UNL     1      12.053  -4.880  -0.831  1.00  0.00     0.006 C 
BRANCH   8   9
ATOM      9  C   UNL     1      12.748  -3.723  -1.561  1.00  0.00     0.053 C 
BRANCH   9  10
ATOM     10  C   UNL     1      13.135  -4.096  -2.959  1.00  0.00     0.041 C 
ATOM     11  O   UNL     1      13.642  -5.224  -3.194  1.00  0.00    -0.550 OA
ATOM     12  O   UNL     1      12.907  -3.212  -4.005  1.00  0.00    -0.550 OA
ENDBRANCH   9  10
ENDBRANCH   8   9
ENDBRANCH   7   8
ENDBRANCH   6   7
ENDBRANCH   5   6
ENDBRANCH   4   5
ENDBRANCH   3   4
ENDBRANCH   1   3
BRANCH   2  13
ATOM     13  C   UNL     1       4.720  -4.281  -1.312  1.00  0.00     0.027 C 
BRANCH  13  14
ATOM     14  C   UNL     1       5.387  -5.449  -0.575  1.00  0.00     0.004 C 
BRANCH  14  15
ATOM     15  C   UNL     1       4.737  -5.678   0.795  1.00  0.00     0.000 C 
BRANCH  15  16
ATOM     16  C   UNL     1       4.855  -4.425   1.675  1.00  0.00     0.000 C 
BRANCH  16  17
ATOM     17  C   UNL     1       6.227  -4.305   2.358  1.00  0.00    -0.000 C 
BRANCH  17  18
ATOM     18  C   UNL     1       6.166  -3.499   3.667  1.00  0.00    -0.000 C 
BRANCH  18  19
ATOM     19  C   UNL     1       6.209  -1.982   3.427  1.00  0.00    -0.003 C 
ATOM     20  C   UNL     1       5.986  -1.172   4.705  1.00  0.00     0.004 C 
ENDBRANCH  18  19
ENDBRANCH  17  18
ENDBRANCH  16  17
ENDBRANCH  15  16
ENDBRANCH  14  15
ENDBRANCH  13  14
ENDBRANCH   2  13
TORSDOF 15
ENDMDL
MODEL 2
REMARK VINA RESULT:    -3.461     10.872     13.702
REMARK INTER + INTRA:          -7.967
REMARK INTER:                  -5.126
REMARK INTRA:                  -2.841
REMARK UNBOUND:                -1.471
REMARK SMILES CCCCCCCCC=CCCCCCCCC(=O)[O-]
REMARK SMILES IDX 10 1 9 2 11 3 12 4 13 5 14 6 15 7 16 8 17 9 18 10 19 11
REMARK SMILES IDX 20 12 8 13 7 14 6 15 5 16 4 17 3 18 2 19 1 20
REMARK H PARENT
REMARK Flexibility Score: inf
ROOT
ATOM      1  C   UNL     1       7.032   3.263  -7.383  1.00  0.00    -0.031 C 
ATOM      2  C   UNL     1       8.085   3.946  -6.908  1.00  0.00    -0.031 C 
ENDROOT
BRANCH   1   3
ATOM      3  C   UNL     1       5.710   3.258  -6.667  1.00  0.00     0.027 C 
BRANCH   3   4
ATOM      4  C   UNL     1       4.577   3.713  -7.598  1.00  0.00     0.004 C 
BRANCH   4   5
ATOM      5  C   UNL     1       5.085   4.562  -8.773  1.00  0.00     0.000 C 
BRANCH   5   6
ATOM      6  C   UNL     1       4.739   6.053  -8.617  1.00  0.00     0.000 C 
BRANCH   6   7
ATOM      7  C   UNL     1       5.801   6.828  -7.820  1.00  0.00     0.000 C 
BRANCH   7   8
ATOM      8  C   UNL     1       5.286   7.289  -6.445  1.00  0.00     0.006 C 
BRANCH   8   9
ATOM      9  C   UNL     1       5.972   6.544  -5.292  1.00  0.00     0.053 C 
BRANCH   9  10
ATOM     10  C   UNL     1       5.376   6.899  -3.964  1.00  0.00     0.041 C 
ATOM     11  O   UNL     1       4.237   6.467  -3.647  1.00  0.00    -0.550 OA
ATOM     12  O   UNL     1       6.091   7.680  -3.066  1.00  0.00    -0.550 OA
ENDBRANCH   9  10
ENDBRANCH   8   9
ENDBRANCH   7   8
ENDBRANCH   6   7
ENDBRANCH   5   6
ENDBRANCH   4   5
ENDBRANCH   3   4
ENDBRANCH   1   3
BRANCH   2  13
ATOM     13  C   UNL     1       9.413   3.935  -7.613  1.00  0.00     0.027 C 
BRANCH  13  14
ATOM     14  C   UNL     1       9.247   4.226  -9.110  1.00  0.00     0.004 C 
BRANCH  14  15
ATOM     15  C   UNL     1       8.977   5.715  -9.354  1.00  0.00     0.000 C 
BRANCH  15  16
ATOM     16  C   UNL     1      10.290   6.483  -9.570  1.00  0.00     0.000 C 
BRANCH  16  17
ATOM     17  C   UNL     1      10.476   7.637  -8.573  1.00  0.00    -0.000 C 
BRANCH  17  18
ATOM     18  C   UNL     1       9.488   7.564  -7.395  1.00  0.00    -0.000 C 
BRANCH  18  19
ATOM     19  C   UNL     1       8.777   8.901  -7.139  1.00  0.00    -0.003 C 
ATOM     20  C   UNL     1       8.323   9.588  -8.427  1.00  0.00     0.004 C 
ENDBRANCH  18  19
ENDBRANCH  17  18
ENDBRANCH  16  17
ENDBRANCH  15  16
ENDBRANCH  14  15
ENDBRANCH  13  14
ENDBRANCH   2  13
TORSDOF 15
ENDMDL
MODEL 3
REMARK VINA RESULT:    -3.442     12.061     14.722
REMARK INTER + INTRA:          -7.930
REMARK INTER:                  -5.265
REMARK INTRA:                  -2.665
REMARK UNBOUND:                -1.471
REMARK SMILES CCCCCCCCC=CCCCCCCCC(=O)[O-]
REMARK SMILES IDX 10 1 9 2 11 3 12 4 13 5 14 6 15 7 16 8 17 9 18 10 19 11
REMARK SMILES IDX 20 12 8 13 7 14 6 15 5 16 4 17 3 18 2 19 1 20
REMARK H PARENT
REMARK Flexibility Score: inf
ROOT
ATOM      1  C   UNL     1       7.103   6.080  -6.605  1.00  0.00    -0.031 C 
ATOM      2  C   UNL     1       7.467   5.079  -7.422  1.00  0.00    -0.031 C 
ENDROOT
BRANCH   1   3
ATOM      3  C   UNL     1       5.946   6.982  -6.933  1.00  0.00     0.027 C 
BRANCH   3   4
ATOM      4  C   UNL     1       6.235   7.814  -8.191  1.00  0.00     0.004 C 
BRANCH   4   5
ATOM      5  C   UNL     1       6.415   9.308  -7.882  1.00  0.00     0.000 C 
BRANCH   5   6
ATOM      6  C   UNL     1       6.020   9.664  -6.438  1.00  0.00     0.000 C 
BRANCH   6   7
ATOM      7  C   UNL     1       7.178  10.288  -5.643  1.00  0.00     0.000 C 
BRANCH   7   8
ATOM      8  C   UNL     1       7.767   9.321  -4.601  1.00  0.00     0.006 C 
BRANCH   8   9
ATOM      9  C   UNL     1       7.196   9.565  -3.198  1.00  0.00     0.053 C 
BRANCH   9  10
ATOM     10  C   UNL     1       5.988   8.721  -2.931  1.00  0.00     0.041 C 
ATOM     11  O   UNL     1       4.956   9.236  -2.426  1.00  0.00    -0.550 OA
ATOM     12  O   UNL     1       5.990   7.374  -3.269  1.00  0.00    -0.550 OA
ENDBRANCH   9  10
ENDBRANCH   8   9
ENDBRANCH   7   8
ENDBRANCH   6   7
ENDBRANCH   5   6
ENDBRANCH   4   5
ENDBRANCH   3   4
ENDBRANCH   1   3
BRANCH   2  13
ATOM     13  C   UNL     1       8.636   4.189  -7.105  1.00  0.00     0.027 C 
BRANCH  13  14
ATOM     14  C   UNL     1       9.537   4.001  -8.332  1.00  0.00     0.004 C 
BRANCH  14  15
ATOM     15  C   UNL     1       9.173   4.998  -9.438  1.00  0.00     0.000 C 
BRANCH  15  16
ATOM     16  C   UNL     1      10.266   6.065  -9.597  1.00  0.00     0.000 C 
BRANCH  16  17
ATOM     17  C   UNL     1       9.800   7.464  -9.164  1.00  0.00    -0.000 C 
BRANCH  17  18
ATOM     18  C   UNL     1      10.214   7.804  -7.722  1.00  0.00    -0.000 C 
BRANCH  18  19
ATOM     19  C   UNL     1      10.177   9.314  -7.438  1.00  0.00    -0.003 C 
ATOM     20  C   UNL     1      11.389  10.054  -8.005  1.00  0.00     0.004 C 
ENDBRANCH  18  19
ENDBRANCH  17  18
ENDBRANCH  16  17
ENDBRANCH  15  16
ENDBRANCH  14  15
ENDBRANCH  13  14
ENDBRANCH   2  13
TORSDOF 15
ENDMDL
MODEL 4
REMARK VINA RESULT:    -3.432     11.623     14.202
REMARK INTER + INTRA:          -7.912
REMARK INTER:                  -5.581
REMARK INTRA:                  -2.331
REMARK UNBOUND:                -1.471
REMARK SMILES CCCCCCCCC=CCCCCCCCC(=O)[O-]
REMARK SMILES IDX 10 1 9 2 11 3 12 4 13 5 14 6 15 7 16 8 17 9 18 10 19 11
REMARK SMILES IDX 20 12 8 13 7 14 6 15 5 16 4 17 3 18 2 19 1 20
REMARK H PARENT
REMARK Flexibility Score: inf
ROOT
ATOM      1  C   UNL     1       9.933   7.354  -9.035  1.00  0.00    -0.031 C 
ATOM      2  C   UNL     1       9.987   6.041  -9.309  1.00  0.00    -0.031 C 
ENDROOT
BRANCH   1   3
ATOM      3  C   UNL     1      10.420   7.905  -7.724  1.00  0.00     0.027 C 
BRANCH   3   4
ATOM      4  C   UNL     1      10.637   9.423  -7.811  1.00  0.00     0.004 C 
BRANCH   4   5
ATOM      5  C   UNL     1       9.641  10.211  -6.947  1.00  0.00     0.000 C 
BRANCH   5   6
ATOM      6  C   UNL     1       8.812   9.302  -6.023  1.00  0.00     0.000 C 
BRANCH   6   7
ATOM      7  C   UNL     1       8.788   9.798  -4.568  1.00  0.00     0.000 C 
BRANCH   7   8
ATOM      8  C   UNL     1       7.358   9.991  -4.035  1.00  0.00     0.006 C 
BRANCH   8   9
ATOM      9  C   UNL     1       6.383   8.953  -4.607  1.00  0.00     0.053 C 
BRANCH   9  10
ATOM     10  C   UNL     1       5.626   8.241  -3.528  1.00  0.00     0.041 C 
ATOM     11  O   UNL     1       5.001   8.899  -2.655  1.00  0.00    -0.550 OA
ATOM     12  O   UNL     1       5.586   6.853  -3.504  1.00  0.00    -0.550 OA
ENDBRANCH   9  10
ENDBRANCH   8   9
ENDBRANCH   7   8
ENDBRANCH   6   7
ENDBRANCH   5   6
ENDBRANCH   4   5
ENDBRANCH   3   4
ENDBRANCH   1   3
BRANCH   2  13
ATOM     13  C   UNL     1       9.481   5.487 -10.612  1.00  0.00     0.027 C 
BRANCH  13  14
ATOM     14  C   UNL     1       8.923   4.070 -10.430  1.00  0.00     0.004 C 
BRANCH  14  15
ATOM     15  C   UNL     1       9.051   3.612  -8.972  1.00  0.00     0.000 C 
BRANCH  15  16
ATOM     16  C   UNL     1       7.812   2.815  -8.536  1.00  0.00     0.000 C 
BRANCH  16  17
ATOM     17  C   UNL     1       6.941   3.576  -7.524  1.00  0.00    -0.000 C 
BRANCH  17  18
ATOM     18  C   UNL     1       7.721   4.676  -6.784  1.00  0.00    -0.000 C 
BRANCH  18  19
ATOM     19  C   UNL     1       6.987   6.025  -6.791  1.00  0.00    -0.003 C 
ATOM     20  C   UNL     1       6.442   6.397  -8.171  1.00  0.00     0.004 C 
ENDBRANCH  18  19
ENDBRANCH  17  18
ENDBRANCH  16  17
ENDBRANCH  15  16
ENDBRANCH  14  15
ENDBRANCH  13  14
ENDBRANCH   2  13
TORSDOF 15
ENDMDL
MODEL 5
REMARK VINA RESULT:    -3.427     12.012     15.349
REMARK INTER + INTRA:          -7.903
REMARK INTER:                  -5.065
REMARK INTRA:                  -2.838
REMARK UNBOUND:                -1.471
REMARK SMILES CCCCCCCCC=CCCCCCCCC(=O)[O-]
REMARK SMILES IDX 10 1 9 2 11 3 12 4 13 5 14 6 15 7 16 8 17 9 18 10 19 11
REMARK SMILES IDX 20 12 8 13 7 14 6 15 5 16 4 17 3 18 2 19 1 20
REMARK H PARENT
REMARK Flexibility Score: inf
ROOT
ATOM      1  C   UNL     1      19.636   3.619   7.309  1.00  0.00    -0.031 C 
ATOM      2  C   UNL     1      20.664   3.432   8.151  1.00  0.00    -0.031 C 
ENDROOT
BRANCH   1   3
ATOM      3  C   UNL     1      18.210   3.487   7.767  1.00  0.00     0.027 C 
BRANCH   3   4
ATOM      4  C   UNL     1      18.104   2.549   8.979  1.00  0.00     0.004 C 
BRANCH   4   5
ATOM      5  C   UNL     1      16.972   1.521   8.833  1.00  0.00     0.000 C 
BRANCH   5   6
ATOM      6  C   UNL     1      16.163   1.714   7.539  1.00  0.00     0.000 C 
BRANCH   6   7
ATOM      7  C   UNL     1      15.817   0.383   6.851  1.00  0.00     0.000 C 
BRANCH   7   8
ATOM      8  C   UNL     1      16.190  -0.838   7.709  1.00  0.00     0.006 C 
BRANCH   8   9
ATOM      9  C   UNL     1      15.081  -1.899   7.718  1.00  0.00     0.053 C 
BRANCH   9  10
ATOM     10  C   UNL     1      15.134  -2.773   6.502  1.00  0.00     0.041 C 
ATOM     11  O   UNL     1      16.240  -3.035   5.960  1.00  0.00    -0.550 OA
ATOM     12  O   UNL     1      13.967  -3.322   5.988  1.00  0.00    -0.550 OA
ENDBRANCH   9  10
ENDBRANCH   8   9
ENDBRANCH   7   8
ENDBRANCH   6   7
ENDBRANCH   5   6
ENDBRANCH   4   5
ENDBRANCH   3   4
ENDBRANCH   1   3
BRANCH   2  13
ATOM     13  C   UNL     1      22.090   3.544   7.689  1.00  0.00     0.027 C 
BRANCH  13  14
ATOM     14  C   UNL     1      22.714   2.159   7.479  1.00  0.00     0.004 C 
BRANCH  14  15
ATOM     15  C   UNL     1      22.709   1.775   5.994  1.00  0.00     0.000 C 
BRANCH  15  16
ATOM     16  C   UNL     1      21.922   0.475   5.766  1.00  0.00     0.000 C 
BRANCH  16  17
ATOM     17  C   UNL     1      20.465   0.729   5.349  1.00  0.00    -0.000 C 
BRANCH  17  18
ATOM     18  C   UNL     1      19.455   0.052   6.293  1.00  0.00    -0.000 C 
BRANCH  18  19
ATOM     19  C   UNL     1      20.123  -0.935   7.262  1.00  0.00    -0.003 C 
ATOM     20  C   UNL     1      19.978  -0.520   8.726  1.00  0.00     0.004 C 
ENDBRANCH  18  19
ENDBRANCH  17  18
ENDBRANCH  16  17
ENDBRANCH  15  16
ENDBRANCH  14  15
ENDBRANCH  13  14
ENDBRANCH   2  13
TORSDOF 15
ENDMDL
MODEL 6
REMARK VINA RESULT:    -3.344     11.225     13.986
REMARK INTER + INTRA:          -7.748
REMARK INTER:                  -4.513
REMARK INTRA:                  -3.235
REMARK UNBOUND:                -1.471
REMARK SMILES CCCCCCCCC=CCCCCCCCC(=O)[O-]
REMARK SMILES IDX 10 1 9 2 11 3 12 4 13 5 14 6 15 7 16 8 17 9 18 10 19 11
REMARK SMILES IDX 20 12 8 13 7 14 6 15 5 16 4 17 3 18 2 19 1 20
REMARK H PARENT
REMARK Flexibility Score: inf
ROOT
ATOM      1  C   UNL     1       6.866   5.035  -6.249  1.00  0.00    -0.031 C 
ATOM      2  C   UNL     1       7.604   4.135  -6.917  1.00  0.00    -0.031 C 
ENDROOT
BRANCH   1   3
ATOM      3  C   UNL     1       5.392   5.187  -6.501  1.00  0.00     0.027 C 
BRANCH   3   4
ATOM      4  C   UNL     1       5.093   5.245  -8.007  1.00  0.00     0.004 C 
BRANCH   4   5
ATOM      5  C   UNL     1       4.965   6.684  -8.528  1.00  0.00     0.000 C 
BRANCH   5   6
ATOM      6  C   UNL     1       4.570   7.679  -7.423  1.00  0.00     0.000 C 
BRANCH   6   7
ATOM      7  C   UNL     1       5.558   8.851  -7.300  1.00  0.00     0.000 C 
BRANCH   7   8
ATOM      8  C   UNL     1       6.218   8.923  -5.912  1.00  0.00     0.006 C 
BRANCH   8   9
ATOM      9  C   UNL     1       5.210   8.677  -4.780  1.00  0.00     0.053 C 
BRANCH   9  10
ATOM     10  C   UNL     1       5.829   7.943  -3.630  1.00  0.00     0.041 C 
ATOM     11  O   UNL     1       6.744   8.482  -2.955  1.00  0.00    -0.550 OA
ATOM     12  O   UNL     1       5.374   6.676  -3.286  1.00  0.00    -0.550 OA
ENDBRANCH   9  10
ENDBRANCH   8   9
ENDBRANCH   7   8
ENDBRANCH   6   7
ENDBRANCH   5   6
ENDBRANCH   4   5
ENDBRANCH   3   4
ENDBRANCH   1   3
BRANCH   2  13
ATOM     13  C   UNL     1       9.082   3.996  -6.680  1.00  0.00     0.027 C 
BRANCH  13  14
ATOM     14  C   UNL     1       9.835   3.779  -7.998  1.00  0.00     0.004 C 
BRANCH  14  15
ATOM     15  C   UNL     1       8.859   3.595  -9.166  1.00  0.00     0.000 C 
BRANCH  15  16
ATOM     16  C   UNL     1       9.112   4.639 -10.263  1.00  0.00     0.000 C 
BRANCH  16  17
ATOM     17  C   UNL     1       8.080   5.778 -10.250  1.00  0.00    -0.000 C 
BRANCH  17  18
ATOM     18  C   UNL     1       8.711   7.143  -9.922  1.00  0.00    -0.000 C 
BRANCH  18  19
ATOM     19  C   UNL     1       8.649   7.474  -8.423  1.00  0.00    -0.003 C 
ATOM     20  C   UNL     1      10.024   7.450  -7.752  1.00  0.00     0.004 C 
ENDBRANCH  18  19
ENDBRANCH  17  18
ENDBRANCH  16  17
ENDBRANCH  15  16
ENDBRANCH  14  15
ENDBRANCH  13  14
ENDBRANCH   2  13
TORSDOF 15
ENDMDL
MODEL 7
REMARK VINA RESULT:    -3.341     11.051     12.884
REMARK INTER + INTRA:          -7.741
REMARK INTER:                  -5.518
REMARK INTRA:                  -2.223
REMARK UNBOUND:                -1.471
REMARK SMILES CCCCCCCCC=CCCCCCCCC(=O)[O-]
REMARK SMILES IDX 10 1 9 2 11 3 12 4 13 5 14 6 15 7 16 8 17 9 18 10 19 11
REMARK SMILES IDX 20 12 8 13 7 14 6 15 5 16 4 17 3 18 2 19 1 20
REMARK H PARENT
REMARK Flexibility Score: inf
ROOT
ATOM      1  C   UNL     1       8.848   8.126  -6.982  1.00  0.00    -0.031 C 
ATOM      2  C   UNL     1       7.652   7.706  -7.421  1.00  0.00    -0.031 C 
ENDROOT
BRANCH   1   3
ATOM      3  C   UNL     1      10.094   7.952  -7.805  1.00  0.00     0.027 C 
BRANCH   3   4
ATOM      4  C   UNL     1       9.748   7.621  -9.265  1.00  0.00     0.004 C 
BRANCH   4   5
ATOM      5  C   UNL     1      10.283   6.248  -9.701  1.00  0.00     0.000 C 
BRANCH   5   6
ATOM      6  C   UNL     1       9.313   5.103  -9.364  1.00  0.00     0.000 C 
BRANCH   6   7
ATOM      7  C   UNL     1       9.744   4.308  -8.121  1.00  0.00     0.000 C 
BRANCH   7   8
ATOM      8  C   UNL     1       8.547   3.862  -7.262  1.00  0.00     0.006 C 
BRANCH   8   9
ATOM      9  C   UNL     1       7.519   3.063  -8.075  1.00  0.00     0.053 C 
BRANCH   9  10
ATOM     10  C   UNL     1       8.155   1.934  -8.825  1.00  0.00     0.041 C 
ATOM     11  O   UNL     1       8.817   1.058  -8.208  1.00  0.00    -0.550 OA
ATOM     12  O   UNL     1       7.992   1.831 -10.200  1.00  0.00    -0.550 OA
ENDBRANCH   9  10
ENDBRANCH   8   9
ENDBRANCH   7   8
ENDBRANCH   6   7
ENDBRANCH   5   6
ENDBRANCH   4   5
ENDBRANCH   3   4
ENDBRANCH   1   3
BRANCH   2  13
ATOM     13  C   UNL     1       6.409   7.863  -6.589  1.00  0.00     0.027 C 
BRANCH  13  14
ATOM     14  C   UNL     1       6.157   6.617  -5.732  1.00  0.00     0.004 C 
BRANCH  14  15
ATOM     15  C   UNL     1       5.626   7.001  -4.345  1.00  0.00     0.000 C 
BRANCH  15  16
ATOM     16  C   UNL     1       5.713   8.519  -4.126  1.00  0.00     0.000 C 
BRANCH  16  17
ATOM     17  C   UNL     1       6.691   8.903  -3.004  1.00  0.00    -0.000 C 
BRANCH  17  18
ATOM     18  C   UNL     1       7.925   9.657  -3.530  1.00  0.00    -0.000 C 
BRANCH  18  19
ATOM     19  C   UNL     1       7.559  10.745  -4.551  1.00  0.00    -0.003 C 
ATOM     20  C   UNL     1       8.783  11.334  -5.254  1.00  0.00     0.004 C 
ENDBRANCH  18  19
ENDBRANCH  17  18
ENDBRANCH  16  17
ENDBRANCH  15  16
ENDBRANCH  14  15
ENDBRANCH  13  14
ENDBRANCH   2  13
TORSDOF 15
ENDMDL
MODEL 8
REMARK VINA RESULT:    -3.311     11.804     14.418
REMARK INTER + INTRA:          -7.684
REMARK INTER:                  -5.096
REMARK INTRA:                  -2.589
REMARK UNBOUND:                -1.471
REMARK SMILES CCCCCCCCC=CCCCCCCCC(=O)[O-]
REMARK SMILES IDX 10 1 9 2 11 3 12 4 13 5 14 6 15 7 16 8 17 9 18 10 19 11
REMARK SMILES IDX 20 12 8 13 7 14 6 15 5 16 4 17 3 18 2 19 1 20
REMARK H PARENT
REMARK Flexibility Score: inf
ROOT
ATOM      1  C   UNL     1       6.694   5.022  -6.107  1.00  0.00    -0.031 C 
ATOM      2  C   UNL     1       7.415   4.640  -7.171  1.00  0.00    -0.031 C 
ENDROOT
BRANCH   1   3
ATOM      3  C   UNL     1       5.306   5.580  -6.256  1.00  0.00     0.027 C 
BRANCH   3   4
ATOM      4  C   UNL     1       5.194   6.964  -5.598  1.00  0.00     0.004 C 
BRANCH   4   5
ATOM      5  C   UNL     1       5.426   6.915  -4.080  1.00  0.00     0.000 C 
BRANCH   5   6
ATOM      6  C   UNL     1       6.071   8.203  -3.540  1.00  0.00     0.000 C 
BRANCH   6   7
ATOM      7  C   UNL     1       5.763   9.431  -4.412  1.00  0.00     0.000 C 
BRANCH   7   8
ATOM      8  C   UNL     1       6.972  10.373  -4.553  1.00  0.00     0.006 C 
BRANCH   8   9
ATOM      9  C   UNL     1       8.069  10.061  -3.525  1.00  0.00     0.053 C 
BRANCH   9  10
ATOM     10  C   UNL     1       8.171  11.126  -2.476  1.00  0.00     0.041 C 
ATOM     11  O   UNL     1       7.127  11.635  -1.989  1.00  0.00    -0.550 OA
ATOM     12  O   UNL     1       9.416  11.533  -2.015  1.00  0.00    -0.550 OA
ENDBRANCH   9  10
ENDBRANCH   8   9
ENDBRANCH   7   8
ENDBRANCH   6   7
ENDBRANCH   5   6
ENDBRANCH   4   5
ENDBRANCH   3   4
ENDBRANCH   1   3
BRANCH   2  13
ATOM     13  C   UNL     1       8.811   4.101  -7.024  1.00  0.00     0.027 C 
BRANCH  13  14
ATOM     14  C   UNL     1       9.492   3.951  -8.390  1.00  0.00     0.004 C 
BRANCH  14  15
ATOM     15  C   UNL     1       9.080   5.084  -9.337  1.00  0.00     0.000 C 
BRANCH  15  16
ATOM     16  C   UNL     1      10.249   6.051  -9.580  1.00  0.00     0.000 C 
BRANCH  16  17
ATOM     17  C   UNL     1       9.955   7.475  -9.083  1.00  0.00    -0.000 C 
BRANCH  17  18
ATOM     18  C   UNL     1       9.944   7.574  -7.547  1.00  0.00    -0.000 C 
BRANCH  18  19
ATOM     19  C   UNL     1       8.667   8.239  -7.009  1.00  0.00    -0.003 C 
ATOM     20  C   UNL     1       7.551   8.310  -8.052  1.00  0.00     0.004 C 
ENDBRANCH  18  19
ENDBRANCH  17  18
ENDBRANCH  16  17
ENDBRANCH  15  16
ENDBRANCH  14  15
ENDBRANCH  13  14
ENDBRANCH   2  13
TORSDOF 15
ENDMDL
MODEL 9
REMARK VINA RESULT:    -3.269     12.131     14.802
REMARK INTER + INTRA:          -7.606
REMARK INTER:                  -4.498
REMARK INTRA:                  -3.108
REMARK UNBOUND:                -1.471
REMARK SMILES CCCCCCCCC=CCCCCCCCC(=O)[O-]
REMARK SMILES IDX 10 1 9 2 11 3 12 4 13 5 14 6 15 7 16 8 17 9 18 10 19 11
REMARK SMILES IDX 20 12 8 13 7 14 6 15 5 16 4 17 3 18 2 19 1 20
REMARK H PARENT
REMARK Flexibility Score: inf
ROOT
ATOM      1  C   UNL     1      19.910   3.578   7.323  1.00  0.00    -0.031 C 
ATOM      2  C   UNL     1      18.820   3.235   8.026  1.00  0.00    -0.031 C 
ENDROOT
BRANCH   1   3
ATOM      3  C   UNL     1      21.296   3.377   7.871  1.00  0.00     0.027 C 
BRANCH   3   4
ATOM      4  C   UNL     1      21.297   2.333   8.997  1.00  0.00     0.004 C 
BRANCH   4   5
ATOM      5  C   UNL     1      21.786   0.955   8.524  1.00  0.00     0.000 C 
BRANCH   5   6
ATOM      6  C   UNL     1      20.668  -0.102   8.530  1.00  0.00     0.000 C 
BRANCH   6   7
ATOM      7  C   UNL     1      20.465  -0.758   7.154  1.00  0.00     0.000 C 
BRANCH   7   8
ATOM      8  C   UNL     1      19.800   0.190   6.141  1.00  0.00     0.006 C 
BRANCH   8   9
ATOM      9  C   UNL     1      20.420   0.068   4.743  1.00  0.00     0.053 C 
BRANCH   9  10
ATOM     10  C   UNL     1      21.676   0.874   4.616  1.00  0.00     0.041 C 
ATOM     11  O   UNL     1      21.619   2.130   4.556  1.00  0.00    -0.550 OA
ATOM     12  O   UNL     1      22.912   0.239   4.596  1.00  0.00    -0.550 OA
ENDBRANCH   9  10
ENDBRANCH   8   9
ENDBRANCH   7   8
ENDBRANCH   6   7
ENDBRANCH   5   6
ENDBRANCH   4   5
ENDBRANCH   3   4
ENDBRANCH   1   3
BRANCH   2  13
ATOM     13  C   UNL     1      17.434   3.454   7.487  1.00  0.00     0.027 C 
BRANCH  13  14
ATOM     14  C   UNL     1      16.465   2.383   8.002  1.00  0.00     0.004 C 
BRANCH  14  15
ATOM     15  C   UNL     1      17.219   1.261   8.725  1.00  0.00     0.000 C 
BRANCH  15  16
ATOM     16  C   UNL     1      16.737  -0.119   8.251  1.00  0.00     0.000 C 
BRANCH  16  17
ATOM     17  C   UNL     1      15.890  -0.045   6.971  1.00  0.00    -0.000 C 
BRANCH  17  18
ATOM     18  C   UNL     1      16.459  -0.913   5.836  1.00  0.00    -0.000 C 
BRANCH  18  19
ATOM     19  C   UNL     1      17.065  -2.229   6.347  1.00  0.00    -0.003 C 
ATOM     20  C   UNL     1      17.830  -2.991   5.264  1.00  0.00     0.004 C 
ENDBRANCH  18  19
ENDBRANCH  17  18
ENDBRANCH  16  17
ENDBRANCH  15  16
ENDBRANCH  14  15
ENDBRANCH  13  14
ENDBRANCH   2  13
TORSDOF 15
ENDMDL
