MODEL 1
REMARK VINA RESULT:    -6.890      0.000      0.000
REMARK INTER + INTRA:         -10.959
REMARK INTER:                  -9.509
REMARK INTRA:                  -1.451
REMARK UNBOUND:                -1.451
REMARK SMILES CC[C@@H](CC[C@H](C)[C@@H]1CC[C@@H]2[C@@H]3CC=C4C[C@H](O)CC[C@@]4(C)[C@H]3CC[C@@]21C)C(C)C
REMARK SMILES IDX 5 1 4 2 3 3 2 4 1 5 28 6 29 7 30 8 6 9 7 10 8 11 9 12 26 13
REMARK SMILES IDX 10 14 11 15 25 16 27 17 12 18 24 19 23 20 13 21 21 22 14 23
REMARK SMILES IDX 15 24 20 25 22 26 16 27 19 28 17 29 18 30
REMARK H PARENT 18 31
REMARK Flexibility Score: inf
ROOT
ATOM      1  C   UNL     1     164.775 175.024 150.443  1.00  0.00     0.004 C 
ENDROOT
BRANCH   1   2
ATOM      2  C   UNL     1     163.340 175.184 151.014  1.00  0.00     0.004 C 
BRANCH   2   3
ATOM      3  C   UNL     1     162.762 176.632 150.903  1.00  0.00    -0.009 C 
BRANCH   3   4
ATOM      4  C   UNL     1     163.690 177.661 151.623  1.00  0.00     0.000 C 
ATOM      5  C   UNL     1     163.783 177.484 153.141  1.00  0.00     0.004 C 
ENDBRANCH   3   4
BRANCH   3   6
ATOM      6  C   UNL     1     161.299 176.713 151.482  1.00  0.00    -0.014 C 
ATOM      7  C   UNL     1     160.448 177.783 150.776  1.00  0.00     0.007 C 
ATOM      8  C   UNL     1     160.545 175.375 151.404  1.00  0.00     0.007 C 
ENDBRANCH   3   6
ENDBRANCH   2   3
ENDBRANCH   1   2
BRANCH   1   9
ATOM      9  C   UNL     1     165.858 174.600 151.476  1.00  0.00    -0.011 C 
ATOM     10  C   UNL     1     165.186 174.102 152.775  1.00  0.00     0.008 C 
BRANCH   9  11
ATOM     11  C   UNL     1     166.818 175.812 151.753  1.00  0.00    -0.002 C 
ATOM     12  C   UNL     1     167.080 176.669 150.504  1.00  0.00     0.005 C 
ATOM     13  C   UNL     1     168.243 175.516 152.320  1.00  0.00    -0.026 C 
ATOM     14  C   UNL     1     168.474 177.285 150.651  1.00  0.00     0.005 C 
ATOM     15  C   UNL     1     168.984 176.844 152.034  1.00  0.00    -0.001 C 
ATOM     16  C   UNL     1     168.927 174.350 151.543  1.00  0.00     0.007 C 
ATOM     17  C   UNL     1     168.225 175.253 153.851  1.00  0.00     0.012 C 
ATOM     18  C   UNL     1     170.532 176.772 152.203  1.00  0.00     0.000 C 
ATOM     19  C   UNL     1     170.420 174.231 151.850  1.00  0.00     0.005 C 
ATOM     20  C   UNL     1     171.197 175.540 151.537  1.00  0.00     0.003 C 
ATOM     21  C   UNL     1     171.213 178.049 151.678  1.00  0.00     0.031 C 
ATOM     22  C   UNL     1     172.743 175.455 151.889  1.00  0.00    -0.008 C 
ATOM     23  C   UNL     1     172.696 178.004 151.905  1.00  0.00    -0.027 C 
ATOM     24  C   UNL     1     173.402 176.852 151.961  1.00  0.00    -0.065 C 
ATOM     25  C   UNL     1     172.978 174.769 153.267  1.00  0.00     0.014 C 
ATOM     26  C   UNL     1     173.440 174.620 150.778  1.00  0.00     0.016 C 
ATOM     27  C   UNL     1     174.844 176.926 152.413  1.00  0.00     0.063 C 
ATOM     28  C   UNL     1     174.432 174.837 153.776  1.00  0.00     0.033 C 
ATOM     29  C   UNL     1     174.959 176.283 153.807  1.00  0.00     0.118 C 
BRANCH  29  30
ATOM     30  O   UNL     1     176.296 176.301 154.261  1.00  0.00    -0.393 OA
ATOM     31  H   UNL     1     176.286 176.391 155.253  1.00  0.00     0.210 HD
ENDBRANCH  29  30
ENDBRANCH   9  11
ENDBRANCH   1   9
TORSDOF 7
ENDMDL
MODEL 2
REMARK VINA RESULT:    -6.633      3.470      9.501
REMARK INTER + INTRA:         -10.603
REMARK INTER:                  -9.561
REMARK INTRA:                  -1.043
REMARK UNBOUND:                -1.451
REMARK SMILES CC[C@@H](CC[C@H](C)[C@@H]1CC[C@@H]2[C@@H]3CC=C4C[C@H](O)CC[C@@]4(C)[C@H]3CC[C@@]21C)C(C)C
REMARK SMILES IDX 5 1 4 2 3 3 2 4 1 5 28 6 29 7 30 8 6 9 7 10 8 11 9 12 26 13
REMARK SMILES IDX 10 14 11 15 25 16 27 17 12 18 24 19 23 20 13 21 21 22 14 23
REMARK SMILES IDX 15 24 20 25 22 26 16 27 19 28 17 29 18 30
REMARK H PARENT 18 31
REMARK Flexibility Score: inf
ROOT
ATOM      1  C   UNL     1     171.364 176.420 151.691  1.00  0.00     0.004 C 
ENDROOT
BRANCH   1   2
ATOM      2  C   UNL     1     172.786 176.348 152.309  1.00  0.00     0.004 C 
BRANCH   2   3
ATOM      3  C   UNL     1     173.921 176.046 151.277  1.00  0.00    -0.009 C 
BRANCH   3   4
ATOM      4  C   UNL     1     174.645 174.704 151.618  1.00  0.00     0.000 C 
ATOM      5  C   UNL     1     176.078 174.599 151.091  1.00  0.00     0.004 C 
ENDBRANCH   3   4
BRANCH   3   6
ATOM      6  C   UNL     1     174.961 177.227 151.205  1.00  0.00    -0.014 C 
ATOM      7  C   UNL     1     174.748 178.120 149.970  1.00  0.00     0.007 C 
ATOM      8  C   UNL     1     174.942 178.124 152.453  1.00  0.00     0.007 C 
ENDBRANCH   3   6
ENDBRANCH   2   3
ENDBRANCH   1   2
BRANCH   1   9
ATOM      9  C   UNL     1     170.347 175.379 152.240  1.00  0.00    -0.011 C 
ATOM     10  C   UNL     1     170.876 173.946 152.006  1.00  0.00     0.008 C 
BRANCH   9  11
ATOM     11  C   UNL     1     168.953 175.596 151.550  1.00  0.00    -0.002 C 
ATOM     12  C   UNL     1     168.793 177.001 150.947  1.00  0.00     0.005 C 
ATOM     13  C   UNL     1     167.661 175.398 152.405  1.00  0.00    -0.026 C 
ATOM     14  C   UNL     1     167.304 177.355 150.987  1.00  0.00     0.005 C 
ATOM     15  C   UNL     1     166.593 176.109 151.542  1.00  0.00    -0.001 C 
ATOM     16  C   UNL     1     167.787 176.112 153.787  1.00  0.00     0.007 C 
ATOM     17  C   UNL     1     167.285 173.899 152.566  1.00  0.00     0.012 C 
ATOM     18  C   UNL     1     165.235 176.361 152.267  1.00  0.00     0.000 C 
ATOM     19  C   UNL     1     166.451 176.209 154.523  1.00  0.00     0.005 C 
ATOM     20  C   UNL     1     165.367 176.952 153.694  1.00  0.00     0.003 C 
ATOM     21  C   UNL     1     164.315 177.271 151.434  1.00  0.00     0.031 C 
ATOM     22  C   UNL     1     163.957 177.027 154.421  1.00  0.00    -0.008 C 
ATOM     23  C   UNL     1     162.985 177.455 152.104  1.00  0.00    -0.027 C 
ATOM     24  C   UNL     1     162.815 177.390 153.444  1.00  0.00    -0.065 C 
ATOM     25  C   UNL     1     163.580 175.667 155.079  1.00  0.00     0.014 C 
ATOM     26  C   UNL     1     164.049 178.119 155.525  1.00  0.00     0.016 C 
ATOM     27  C   UNL     1     161.400 177.371 153.979  1.00  0.00     0.063 C 
ATOM     28  C   UNL     1     162.139 175.596 155.622  1.00  0.00     0.033 C 
ATOM     29  C   UNL     1     161.104 175.970 154.545  1.00  0.00     0.118 C 
BRANCH  29  30
ATOM     30  O   UNL     1     159.801 175.911 155.085  1.00  0.00    -0.393 OA
ATOM     31  H   UNL     1     159.262 176.641 154.675  1.00  0.00     0.210 HD
ENDBRANCH  29  30
ENDBRANCH   9  11
ENDBRANCH   1   9
TORSDOF 7
ENDMDL
MODEL 3
REMARK VINA RESULT:    -6.625      8.077     12.152
REMARK INTER + INTRA:         -10.593
REMARK INTER:                  -9.171
REMARK INTRA:                  -1.422
REMARK UNBOUND:                -1.451
REMARK SMILES CC[C@@H](CC[C@H](C)[C@@H]1CC[C@@H]2[C@@H]3CC=C4C[C@H](O)CC[C@@]4(C)[C@H]3CC[C@@]21C)C(C)C
REMARK SMILES IDX 5 1 4 2 3 3 2 4 1 5 28 6 29 7 30 8 6 9 7 10 8 11 9 12 26 13
REMARK SMILES IDX 10 14 11 15 25 16 27 17 12 18 24 19 23 20 13 21 21 22 14 23
REMARK SMILES IDX 15 24 20 25 22 26 16 27 19 28 17 29 18 30
REMARK H PARENT 18 31
REMARK Flexibility Score: inf
ROOT
ATOM      1  C   UNL     1     174.589 172.124 151.478  1.00  0.00     0.004 C 
ENDROOT
BRANCH   1   2
ATOM      2  C   UNL     1     174.061 173.582 151.547  1.00  0.00     0.004 C 
BRANCH   2   3
ATOM      3  C   UNL     1     175.100 174.664 151.107  1.00  0.00    -0.009 C 
BRANCH   3   4
ATOM      4  C   UNL     1     176.552 174.231 151.487  1.00  0.00     0.000 C 
ATOM      5  C   UNL     1     177.471 173.958 150.294  1.00  0.00     0.004 C 
ENDBRANCH   3   4
BRANCH   3   6
ATOM      6  C   UNL     1     174.766 176.070 151.732  1.00  0.00    -0.014 C 
ATOM      7  C   UNL     1     175.553 176.338 153.027  1.00  0.00     0.007 C 
ATOM      8  C   UNL     1     175.026 177.238 150.765  1.00  0.00     0.007 C 
ENDBRANCH   3   6
ENDBRANCH   2   3
ENDBRANCH   1   2
BRANCH   1   9
ATOM      9  C   UNL     1     174.549 171.338 152.820  1.00  0.00    -0.011 C 
ATOM     10  C   UNL     1     174.636 172.319 154.011  1.00  0.00     0.008 C 
BRANCH   9  11
ATOM     11  C   UNL     1     175.722 170.294 152.849  1.00  0.00    -0.002 C 
ATOM     12  C   UNL     1     176.611 170.353 151.596  1.00  0.00     0.005 C 
ATOM     13  C   UNL     1     175.366 168.780 152.995  1.00  0.00    -0.026 C 
ATOM     14  C   UNL     1     177.179 168.950 151.367  1.00  0.00     0.005 C 
ATOM     15  C   UNL     1     176.679 168.098 152.545  1.00  0.00    -0.001 C 
ATOM     16  C   UNL     1     174.205 168.381 152.033  1.00  0.00     0.007 C 
ATOM     17  C   UNL     1     175.054 168.387 154.465  1.00  0.00     0.012 C 
ATOM     18  C   UNL     1     176.556 166.566 152.279  1.00  0.00     0.000 C 
ATOM     19  C   UNL     1     174.032 166.867 151.915  1.00  0.00     0.005 C 
ATOM     20  C   UNL     1     175.326 166.157 151.428  1.00  0.00     0.003 C 
ATOM     21  C   UNL     1     177.828 166.008 151.616  1.00  0.00     0.031 C 
ATOM     22  C   UNL     1     175.184 164.578 151.339  1.00  0.00    -0.008 C 
ATOM     23  C   UNL     1     177.731 164.523 151.424  1.00  0.00    -0.027 C 
ATOM     24  C   UNL     1     176.557 163.872 151.257  1.00  0.00    -0.065 C 
ATOM     25  C   UNL     1     174.447 163.999 152.583  1.00  0.00     0.014 C 
ATOM     26  C   UNL     1     174.364 164.245 150.060  1.00  0.00     0.016 C 
ATOM     27  C   UNL     1     176.574 162.360 151.296  1.00  0.00     0.063 C 
ATOM     28  C   UNL     1     174.455 162.460 152.673  1.00  0.00     0.033 C 
ATOM     29  C   UNL     1     175.883 161.890 152.590  1.00  0.00     0.118 C 
BRANCH  29  30
ATOM     30  O   UNL     1     175.847 160.481 152.657  1.00  0.00    -0.393 OA
ATOM     31  H   UNL     1     175.878 160.125 151.728  1.00  0.00     0.210 HD
ENDBRANCH  29  30
ENDBRANCH   9  11
ENDBRANCH   1   9
TORSDOF 7
ENDMDL
MODEL 4
REMARK VINA RESULT:    -6.568      6.290      9.336
REMARK INTER + INTRA:         -10.515
REMARK INTER:                  -8.264
REMARK INTRA:                  -2.251
REMARK UNBOUND:                -1.451
REMARK SMILES CC[C@@H](CC[C@H](C)[C@@H]1CC[C@@H]2[C@@H]3CC=C4C[C@H](O)CC[C@@]4(C)[C@H]3CC[C@@]21C)C(C)C
REMARK SMILES IDX 5 1 4 2 3 3 2 4 1 5 28 6 29 7 30 8 6 9 7 10 8 11 9 12 26 13
REMARK SMILES IDX 10 14 11 15 25 16 27 17 12 18 24 19 23 20 13 21 21 22 14 23
REMARK SMILES IDX 15 24 20 25 22 26 16 27 19 28 17 29 18 30
REMARK H PARENT 18 31
REMARK Flexibility Score: inf
ROOT
ATOM      1  C   UNL     1     174.026 174.315 150.845  1.00  0.00     0.004 C 
ENDROOT
BRANCH   1   2
ATOM      2  C   UNL     1     173.572 175.797 150.751  1.00  0.00     0.004 C 
BRANCH   2   3
ATOM      3  C   UNL     1     173.757 176.611 152.072  1.00  0.00    -0.009 C 
BRANCH   3   4
ATOM      4  C   UNL     1     172.379 176.903 152.747  1.00  0.00     0.000 C 
ATOM      5  C   UNL     1     172.185 176.243 154.115  1.00  0.00     0.004 C 
ENDBRANCH   3   4
BRANCH   3   6
ATOM      6  C   UNL     1     174.537 177.955 151.814  1.00  0.00    -0.014 C 
ATOM      7  C   UNL     1     175.740 178.125 152.759  1.00  0.00     0.007 C 
ATOM      8  C   UNL     1     175.041 178.092 150.368  1.00  0.00     0.007 C 
ENDBRANCH   3   6
ENDBRANCH   2   3
ENDBRANCH   1   2
BRANCH   1   9
ATOM      9  C   UNL     1     175.334 174.071 151.652  1.00  0.00    -0.011 C 
ATOM     10  C   UNL     1     176.417 173.462 150.733  1.00  0.00     0.008 C 
BRANCH   9  11
ATOM     11  C   UNL     1     175.026 173.136 152.875  1.00  0.00    -0.002 C 
ATOM     12  C   UNL     1     173.531 173.083 153.230  1.00  0.00     0.005 C 
ATOM     13  C   UNL     1     175.731 173.435 154.236  1.00  0.00    -0.026 C 
ATOM     14  C   UNL     1     173.422 172.813 154.733  1.00  0.00     0.005 C 
ATOM     15  C   UNL     1     174.865 172.627 155.231  1.00  0.00    -0.001 C 
ATOM     16  C   UNL     1     175.659 174.954 154.584  1.00  0.00     0.007 C 
ATOM     17  C   UNL     1     177.192 172.907 154.272  1.00  0.00     0.012 C 
ATOM     18  C   UNL     1     175.120 172.961 156.733  1.00  0.00     0.000 C 
ATOM     19  C   UNL     1     176.056 175.247 156.031  1.00  0.00     0.005 C 
ATOM     20  C   UNL     1     175.177 174.477 157.055  1.00  0.00     0.003 C 
ATOM     21  C   UNL     1     174.069 172.298 157.641  1.00  0.00     0.031 C 
ATOM     22  C   UNL     1     175.598 174.731 158.565  1.00  0.00    -0.008 C 
ATOM     23  C   UNL     1     174.358 172.566 159.089  1.00  0.00    -0.027 C 
ATOM     24  C   UNL     1     175.006 173.672 159.523  1.00  0.00    -0.065 C 
ATOM     25  C   UNL     1     177.145 174.691 158.742  1.00  0.00     0.014 C 
ATOM     26  C   UNL     1     175.074 176.137 158.975  1.00  0.00     0.016 C 
ATOM     27  C   UNL     1     175.431 173.720 160.974  1.00  0.00     0.063 C 
ATOM     28  C   UNL     1     177.623 174.720 160.207  1.00  0.00     0.033 C 
ATOM     29  C   UNL     1     176.965 173.608 161.044  1.00  0.00     0.118 C 
BRANCH  29  30
ATOM     30  O   UNL     1     177.413 173.679 162.381  1.00  0.00    -0.393 OA
ATOM     31  H   UNL     1     178.379 173.437 162.397  1.00  0.00     0.210 HD
ENDBRANCH  29  30
ENDBRANCH   9  11
ENDBRANCH   1   9
TORSDOF 7
ENDMDL
MODEL 5
REMARK VINA RESULT:    -6.540      3.183      9.199
REMARK INTER + INTRA:         -10.476
REMARK INTER:                  -9.065
REMARK INTRA:                  -1.411
REMARK UNBOUND:                -1.451
REMARK SMILES CC[C@@H](CC[C@H](C)[C@@H]1CC[C@@H]2[C@@H]3CC=C4C[C@H](O)CC[C@@]4(C)[C@H]3CC[C@@]21C)C(C)C
REMARK SMILES IDX 5 1 4 2 3 3 2 4 1 5 28 6 29 7 30 8 6 9 7 10 8 11 9 12 26 13
REMARK SMILES IDX 10 14 11 15 25 16 27 17 12 18 24 19 23 20 13 21 21 22 14 23
REMARK SMILES IDX 15 24 20 25 22 26 16 27 19 28 17 29 18 30
REMARK H PARENT 18 31
REMARK Flexibility Score: inf
ROOT
ATOM      1  C   UNL     1     172.577 175.221 153.356  1.00  0.00     0.004 C 
ENDROOT
BRANCH   1   2
ATOM      2  C   UNL     1     173.970 174.788 152.823  1.00  0.00     0.004 C 
BRANCH   2   3
ATOM      3  C   UNL     1     174.417 175.528 151.520  1.00  0.00    -0.009 C 
BRANCH   3   4
ATOM      4  C   UNL     1     175.872 175.125 151.121  1.00  0.00     0.000 C 
ATOM      5  C   UNL     1     176.163 173.624 151.194  1.00  0.00     0.004 C 
ENDBRANCH   3   4
BRANCH   3   6
ATOM      6  C   UNL     1     174.305 177.091 151.680  1.00  0.00    -0.014 C 
ATOM      7  C   UNL     1     175.447 177.676 152.530  1.00  0.00     0.007 C 
ATOM      8  C   UNL     1     174.281 177.834 150.334  1.00  0.00     0.007 C 
ENDBRANCH   3   6
ENDBRANCH   2   3
ENDBRANCH   1   2
BRANCH   1   9
ATOM      9  C   UNL     1     171.387 174.325 152.910  1.00  0.00    -0.011 C 
ATOM     10  C   UNL     1     171.912 172.974 152.375  1.00  0.00     0.008 C 
BRANCH   9  11
ATOM     11  C   UNL     1     170.540 175.082 151.825  1.00  0.00    -0.002 C 
ATOM     12  C   UNL     1     170.766 176.603 151.841  1.00  0.00     0.005 C 
ATOM     13  C   UNL     1     168.986 174.926 151.852  1.00  0.00    -0.026 C 
ATOM     14  C   UNL     1     169.475 177.266 151.352  1.00  0.00     0.005 C 
ATOM     15  C   UNL     1     168.529 176.114 150.974  1.00  0.00    -0.001 C 
ATOM     16  C   UNL     1     168.430 175.092 153.300  1.00  0.00     0.007 C 
ATOM     17  C   UNL     1     168.517 173.593 151.206  1.00  0.00     0.012 C 
ATOM     18  C   UNL     1     167.004 176.427 151.049  1.00  0.00     0.000 C 
ATOM     19  C   UNL     1     166.910 175.255 153.332  1.00  0.00     0.005 C 
ATOM     20  C   UNL     1     166.424 176.465 152.487  1.00  0.00     0.003 C 
ATOM     21  C   UNL     1     166.667 177.753 150.342  1.00  0.00     0.031 C 
ATOM     22  C   UNL     1     164.845 176.629 152.470  1.00  0.00    -0.008 C 
ATOM     23  C   UNL     1     165.190 178.016 150.359  1.00  0.00    -0.027 C 
ATOM     24  C   UNL     1     164.366 177.554 151.327  1.00  0.00    -0.065 C 
ATOM     25  C   UNL     1     164.130 175.259 152.276  1.00  0.00     0.014 C 
ATOM     26  C   UNL     1     164.414 177.240 153.833  1.00  0.00     0.016 C 
ATOM     27  C   UNL     1     162.875 177.696 151.115  1.00  0.00     0.063 C 
ATOM     28  C   UNL     1     162.610 175.357 152.039  1.00  0.00     0.033 C 
ATOM     29  C   UNL     1     162.275 176.300 150.869  1.00  0.00     0.118 C 
BRANCH  29  30
ATOM     30  O   UNL     1     160.876 176.377 150.695  1.00  0.00    -0.393 OA
ATOM     31  H   UNL     1     160.609 177.335 150.750  1.00  0.00     0.210 HD
ENDBRANCH  29  30
ENDBRANCH   9  11
ENDBRANCH   1   9
TORSDOF 7
ENDMDL
MODEL 6
REMARK VINA RESULT:    -6.497      7.541     10.095
REMARK INTER + INTRA:         -10.416
REMARK INTER:                  -8.683
REMARK INTRA:                  -1.733
REMARK UNBOUND:                -1.451
REMARK SMILES CC[C@@H](CC[C@H](C)[C@@H]1CC[C@@H]2[C@@H]3CC=C4C[C@H](O)CC[C@@]4(C)[C@H]3CC[C@@]21C)C(C)C
REMARK SMILES IDX 5 1 4 2 3 3 2 4 1 5 28 6 29 7 30 8 6 9 7 10 8 11 9 12 26 13
REMARK SMILES IDX 10 14 11 15 25 16 27 17 12 18 24 19 23 20 13 21 21 22 14 23
REMARK SMILES IDX 15 24 20 25 22 26 16 27 19 28 17 29 18 30
REMARK H PARENT 18 31
REMARK Flexibility Score: inf
ROOT
ATOM      1  C   UNL     1     173.803 173.349 151.843  1.00  0.00     0.004 C 
ENDROOT
BRANCH   1   2
ATOM      2  C   UNL     1     174.099 172.954 150.371  1.00  0.00     0.004 C 
BRANCH   2   3
ATOM      3  C   UNL     1     174.454 171.445 150.170  1.00  0.00    -0.009 C 
BRANCH   3   4
ATOM      4  C   UNL     1     173.909 170.580 151.351  1.00  0.00     0.000 C 
ATOM      5  C   UNL     1     172.877 169.523 150.947  1.00  0.00     0.004 C 
ENDBRANCH   3   4
BRANCH   3   6
ATOM      6  C   UNL     1     176.007 171.236 150.009  1.00  0.00    -0.014 C 
ATOM      7  C   UNL     1     176.778 172.568 149.995  1.00  0.00     0.007 C 
ATOM      8  C   UNL     1     176.613 170.345 151.105  1.00  0.00     0.007 C 
ENDBRANCH   3   6
ENDBRANCH   2   3
ENDBRANCH   1   2
BRANCH   1   9
ATOM      9  C   UNL     1     174.329 174.748 152.275  1.00  0.00    -0.011 C 
ATOM     10  C   UNL     1     174.743 175.565 151.031  1.00  0.00     0.008 C 
BRANCH   9  11
ATOM     11  C   UNL     1     175.530 174.569 153.271  1.00  0.00    -0.002 C 
ATOM     12  C   UNL     1     175.791 173.100 153.641  1.00  0.00     0.005 C 
ATOM     13  C   UNL     1     175.469 175.305 154.648  1.00  0.00    -0.026 C 
ATOM     14  C   UNL     1     176.387 173.077 155.051  1.00  0.00     0.005 C 
ATOM     15  C   UNL     1     176.546 174.551 155.462  1.00  0.00    -0.001 C 
ATOM     16  C   UNL     1     174.073 175.124 155.321  1.00  0.00     0.007 C 
ATOM     17  C   UNL     1     175.860 176.804 154.533  1.00  0.00     0.012 C 
ATOM     18  C   UNL     1     176.523 174.841 156.994  1.00  0.00     0.000 C 
ATOM     19  C   UNL     1     174.065 175.556 156.787  1.00  0.00     0.005 C 
ATOM     20  C   UNL     1     175.114 174.787 157.639  1.00  0.00     0.003 C 
ATOM     21  C   UNL     1     177.457 173.887 157.760  1.00  0.00     0.031 C 
ATOM     22  C   UNL     1     175.154 175.249 159.157  1.00  0.00    -0.008 C 
ATOM     23  C   UNL     1     177.483 174.215 159.224  1.00  0.00    -0.027 C 
ATOM     24  C   UNL     1     176.444 174.787 159.874  1.00  0.00    -0.065 C 
ATOM     25  C   UNL     1     175.093 176.800 159.285  1.00  0.00     0.014 C 
ATOM     26  C   UNL     1     173.922 174.630 159.877  1.00  0.00     0.016 C 
ATOM     27  C   UNL     1     176.672 175.268 161.290  1.00  0.00     0.063 C 
ATOM     28  C   UNL     1     175.338 177.336 160.709  1.00  0.00     0.033 C 
ATOM     29  C   UNL     1     176.659 176.807 161.298  1.00  0.00     0.118 C 
BRANCH  29  30
ATOM     30  O   UNL     1     176.838 177.305 162.607  1.00  0.00    -0.393 OA
ATOM     31  H   UNL     1     177.371 178.144 162.550  1.00  0.00     0.210 HD
ENDBRANCH  29  30
ENDBRANCH   9  11
ENDBRANCH   1   9
TORSDOF 7
ENDMDL
MODEL 7
REMARK VINA RESULT:    -6.490      3.411      9.521
REMARK INTER + INTRA:         -10.407
REMARK INTER:                  -9.016
REMARK INTRA:                  -1.391
REMARK UNBOUND:                -1.451
REMARK SMILES CC[C@@H](CC[C@H](C)[C@@H]1CC[C@@H]2[C@@H]3CC=C4C[C@H](O)CC[C@@]4(C)[C@H]3CC[C@@]21C)C(C)C
REMARK SMILES IDX 5 1 4 2 3 3 2 4 1 5 28 6 29 7 30 8 6 9 7 10 8 11 9 12 26 13
REMARK SMILES IDX 10 14 11 15 25 16 27 17 12 18 24 19 23 20 13 21 21 22 14 23
REMARK SMILES IDX 15 24 20 25 22 26 16 27 19 28 17 29 18 30
REMARK H PARENT 18 31
REMARK Flexibility Score: inf
ROOT
ATOM      1  C   UNL     1     171.124 177.715 152.517  1.00  0.00     0.004 C 
ENDROOT
BRANCH   1   2
ATOM      2  C   UNL     1     172.592 177.285 152.780  1.00  0.00     0.004 C 
BRANCH   2   3
ATOM      3  C   UNL     1     173.210 176.387 151.660  1.00  0.00    -0.009 C 
BRANCH   3   4
ATOM      4  C   UNL     1     173.200 174.883 152.079  1.00  0.00     0.000 C 
ATOM      5  C   UNL     1     172.001 174.083 151.563  1.00  0.00     0.004 C 
ENDBRANCH   3   4
BRANCH   3   6
ATOM      6  C   UNL     1     174.673 176.845 151.298  1.00  0.00    -0.014 C 
ATOM      7  C   UNL     1     175.575 175.664 150.899  1.00  0.00     0.007 C 
ATOM      8  C   UNL     1     174.717 177.883 150.164  1.00  0.00     0.007 C 
ENDBRANCH   3   6
ENDBRANCH   2   3
ENDBRANCH   1   2
BRANCH   1   9
ATOM      9  C   UNL     1     170.058 177.023 153.414  1.00  0.00    -0.011 C 
ATOM     10  C   UNL     1     170.752 176.169 154.499  1.00  0.00     0.008 C 
BRANCH   9  11
ATOM     11  C   UNL     1     169.106 176.153 152.519  1.00  0.00    -0.002 C 
ATOM     12  C   UNL     1     168.921 176.726 151.104  1.00  0.00     0.005 C 
ATOM     13  C   UNL     1     167.649 175.890 153.018  1.00  0.00    -0.026 C 
ATOM     14  C   UNL     1     167.532 176.308 150.614  1.00  0.00     0.005 C 
ATOM     15  C   UNL     1     166.947 175.418 151.723  1.00  0.00    -0.001 C 
ATOM     16  C   UNL     1     166.986 177.206 153.532  1.00  0.00     0.007 C 
ATOM     17  C   UNL     1     167.586 174.762 154.084  1.00  0.00     0.012 C 
ATOM     18  C   UNL     1     165.391 175.367 151.812  1.00  0.00     0.000 C 
ATOM     19  C   UNL     1     165.478 177.063 153.737  1.00  0.00     0.005 C 
ATOM     20  C   UNL     1     164.739 176.625 152.442  1.00  0.00     0.003 C 
ATOM     21  C   UNL     1     164.759 175.119 150.430  1.00  0.00     0.031 C 
ATOM     22  C   UNL     1     163.177 176.429 152.642  1.00  0.00    -0.008 C 
ATOM     23  C   UNL     1     163.266 175.003 150.531  1.00  0.00    -0.027 C 
ATOM     24  C   UNL     1     162.538 175.617 151.492  1.00  0.00    -0.065 C 
ATOM     25  C   UNL     1     162.861 175.669 153.965  1.00  0.00     0.014 C 
ATOM     26  C   UNL     1     162.522 177.838 152.695  1.00  0.00     0.016 C 
ATOM     27  C   UNL     1     161.077 175.246 151.619  1.00  0.00     0.063 C 
ATOM     28  C   UNL     1     161.385 175.255 154.129  1.00  0.00     0.033 C 
ATOM     29  C   UNL     1     160.881 174.446 152.920  1.00  0.00     0.118 C 
BRANCH  29  30
ATOM     30  O   UNL     1     159.524 174.102 153.099  1.00  0.00    -0.393 OA
ATOM     31  H   UNL     1     159.109 174.779 153.700  1.00  0.00     0.210 HD
ENDBRANCH  29  30
ENDBRANCH   9  11
ENDBRANCH   1   9
TORSDOF 7
ENDMDL
MODEL 8
REMARK VINA RESULT:    -6.453      1.314      2.419
REMARK INTER + INTRA:         -10.356
REMARK INTER:                  -8.937
REMARK INTRA:                  -1.419
REMARK UNBOUND:                -1.451
REMARK SMILES CC[C@@H](CC[C@H](C)[C@@H]1CC[C@@H]2[C@@H]3CC=C4C[C@H](O)CC[C@@]4(C)[C@H]3CC[C@@]21C)C(C)C
REMARK SMILES IDX 5 1 4 2 3 3 2 4 1 5 28 6 29 7 30 8 6 9 7 10 8 11 9 12 26 13
REMARK SMILES IDX 10 14 11 15 25 16 27 17 12 18 24 19 23 20 13 21 21 22 14 23
REMARK SMILES IDX 15 24 20 25 22 26 16 27 19 28 17 29 18 30
REMARK H PARENT 18 31
REMARK Flexibility Score: inf
ROOT
ATOM      1  C   UNL     1     164.623 177.620 151.734  1.00  0.00     0.004 C 
ENDROOT
BRANCH   1   2
ATOM      2  C   UNL     1     163.179 177.753 151.179  1.00  0.00     0.004 C 
BRANCH   2   3
ATOM      3  C   UNL     1     162.065 177.728 152.276  1.00  0.00    -0.009 C 
BRANCH   3   4
ATOM      4  C   UNL     1     162.408 176.697 153.397  1.00  0.00     0.000 C 
ATOM      5  C   UNL     1     162.572 177.302 154.794  1.00  0.00     0.004 C 
ENDBRANCH   3   4
BRANCH   3   6
ATOM      6  C   UNL     1     160.653 177.411 151.653  1.00  0.00    -0.014 C 
ATOM      7  C   UNL     1     160.641 177.566 150.121  1.00  0.00     0.007 C 
ATOM      8  C   UNL     1     160.146 176.001 151.994  1.00  0.00     0.007 C 
ENDBRANCH   3   6
ENDBRANCH   2   3
ENDBRANCH   1   2
BRANCH   1   9
ATOM      9  C   UNL     1     165.473 176.477 151.108  1.00  0.00    -0.011 C 
ATOM     10  C   UNL     1     164.547 175.420 150.466  1.00  0.00     0.008 C 
BRANCH   9  11
ATOM     11  C   UNL     1     166.390 175.842 152.214  1.00  0.00    -0.002 C 
ATOM     12  C   UNL     1     166.372 176.629 153.534  1.00  0.00     0.005 C 
ATOM     13  C   UNL     1     167.908 175.652 151.902  1.00  0.00    -0.026 C 
ATOM     14  C   UNL     1     167.729 176.424 154.213  1.00  0.00     0.005 C 
ATOM     15  C   UNL     1     168.502 175.443 153.315  1.00  0.00    -0.001 C 
ATOM     16  C   UNL     1     168.514 176.937 151.258  1.00  0.00     0.007 C 
ATOM     17  C   UNL     1     168.179 174.392 151.034  1.00  0.00     0.012 C 
ATOM     18  C   UNL     1     170.058 175.531 153.385  1.00  0.00     0.000 C 
ATOM     19  C   UNL     1     170.043 176.913 151.221  1.00  0.00     0.005 C 
ATOM     20  C   UNL     1     170.669 176.741 152.632  1.00  0.00     0.003 C 
ATOM     21  C   UNL     1     170.554 175.548 154.842  1.00  0.00     0.031 C 
ATOM     22  C   UNL     1     172.255 176.670 152.614  1.00  0.00    -0.008 C 
ATOM     23  C   UNL     1     172.053 175.564 154.903  1.00  0.00    -0.027 C 
ATOM     24  C   UNL     1     172.828 176.100 153.932  1.00  0.00    -0.065 C 
ATOM     25  C   UNL     1     172.773 175.760 151.461  1.00  0.00     0.014 C 
ATOM     26  C   UNL     1     172.794 178.113 152.407  1.00  0.00     0.016 C 
ATOM     27  C   UNL     1     174.320 175.857 154.003  1.00  0.00     0.063 C 
ATOM     28  C   UNL     1     174.287 175.472 151.504  1.00  0.00     0.033 C 
ATOM     29  C   UNL     1     174.721 174.900 152.866  1.00  0.00     0.118 C 
BRANCH  29  30
ATOM     30  O   UNL     1     176.113 174.666 152.872  1.00  0.00    -0.393 OA
ATOM     31  H   UNL     1     176.527 175.240 152.171  1.00  0.00     0.210 HD
ENDBRANCH  29  30
ENDBRANCH   9  11
ENDBRANCH   1   9
TORSDOF 7
ENDMDL
MODEL 9
REMARK VINA RESULT:    -6.437      6.575      9.116
REMARK INTER + INTRA:         -10.333
REMARK INTER:                  -8.213
REMARK INTRA:                  -2.120
REMARK UNBOUND:                -1.451
REMARK SMILES CC[C@@H](CC[C@H](C)[C@@H]1CC[C@@H]2[C@@H]3CC=C4C[C@H](O)CC[C@@]4(C)[C@H]3CC[C@@]21C)C(C)C
REMARK SMILES IDX 5 1 4 2 3 3 2 4 1 5 28 6 29 7 30 8 6 9 7 10 8 11 9 12 26 13
REMARK SMILES IDX 10 14 11 15 25 16 27 17 12 18 24 19 23 20 13 21 21 22 14 23
REMARK SMILES IDX 15 24 20 25 22 26 16 27 19 28 17 29 18 30
REMARK H PARENT 18 31
REMARK Flexibility Score: inf
ROOT
ATOM      1  C   UNL     1     173.636 177.719 152.316  1.00  0.00     0.004 C 
ENDROOT
BRANCH   1   2
ATOM      2  C   UNL     1     173.436 177.747 153.855  1.00  0.00     0.004 C 
BRANCH   2   3
ATOM      3  C   UNL     1     173.792 176.405 154.573  1.00  0.00    -0.009 C 
BRANCH   3   4
ATOM      4  C   UNL     1     172.511 175.719 155.144  1.00  0.00     0.000 C 
ATOM      5  C   UNL     1     172.136 174.398 154.466  1.00  0.00     0.004 C 
ENDBRANCH   3   4
BRANCH   3   6
ATOM      6  C   UNL     1     174.850 176.629 155.718  1.00  0.00    -0.014 C 
ATOM      7  C   UNL     1     174.390 177.681 156.743  1.00  0.00     0.007 C 
ATOM      8  C   UNL     1     175.198 175.340 156.480  1.00  0.00     0.007 C 
ENDBRANCH   3   6
ENDBRANCH   2   3
ENDBRANCH   1   2
BRANCH   1   9
ATOM      9  C   UNL     1     174.973 177.089 151.830  1.00  0.00    -0.011 C 
ATOM     10  C   UNL     1     175.781 178.125 151.016  1.00  0.00     0.008 C 
BRANCH   9  11
ATOM     11  C   UNL     1     174.668 175.804 150.982  1.00  0.00    -0.002 C 
ATOM     12  C   UNL     1     173.178 175.423 150.983  1.00  0.00     0.005 C 
ATOM     13  C   UNL     1     175.402 174.476 151.353  1.00  0.00    -0.026 C 
ATOM     14  C   UNL     1     173.090 173.904 150.812  1.00  0.00     0.005 C 
ATOM     15  C   UNL     1     174.537 173.418 150.629  1.00  0.00    -0.001 C 
ATOM     16  C   UNL     1     175.367 174.226 152.892  1.00  0.00     0.007 C 
ATOM     17  C   UNL     1     176.852 174.430 150.798  1.00  0.00     0.012 C 
ATOM     18  C   UNL     1     174.825 171.945 151.052  1.00  0.00     0.000 C 
ATOM     19  C   UNL     1     175.793 172.807 153.269  1.00  0.00     0.005 C 
ATOM     20  C   UNL     1     174.917 171.721 152.584  1.00  0.00     0.003 C 
ATOM     21  C   UNL     1     173.776 170.979 150.471  1.00  0.00     0.031 C 
ATOM     22  C   UNL     1     175.369 170.238 152.926  1.00  0.00    -0.008 C 
ATOM     23  C   UNL     1     174.095 169.556 150.825  1.00  0.00    -0.027 C 
ATOM     24  C   UNL     1     174.772 169.205 151.942  1.00  0.00    -0.065 C 
ATOM     25  C   UNL     1     176.917 170.084 152.865  1.00  0.00     0.014 C 
ATOM     26  C   UNL     1     174.880 169.911 154.366  1.00  0.00     0.016 C 
ATOM     27  C   UNL     1     175.223 167.767 152.074  1.00  0.00     0.063 C 
ATOM     28  C   UNL     1     177.421 168.631 152.978  1.00  0.00     0.033 C 
ATOM     29  C   UNL     1     176.755 167.714 151.936  1.00  0.00     0.118 C 
BRANCH  29  30
ATOM     30  O   UNL     1     177.228 166.391 152.082  1.00  0.00    -0.393 OA
ATOM     31  H   UNL     1     177.660 166.314 152.977  1.00  0.00     0.210 HD
ENDBRANCH  29  30
ENDBRANCH   9  11
ENDBRANCH   1   9
TORSDOF 7
ENDMDL
