MODEL 1
REMARK VINA RESULT:    -2.788      0.000      0.000
REMARK INTER + INTRA:          -3.503
REMARK INTER:                  -3.358
REMARK INTRA:                  -0.145
REMARK UNBOUND:                -0.145
REMARK SMILES CC[C@@H](C)[C@@H]([NH3+])C(=O)[O-]
REMARK SMILES IDX 3 1 4 2 5 3 6 4 7 8 8 9 9 10 2 11 1 12
REMARK H PARENT 6 5 6 6 6 7
REMARK Flexibility Score: inf
ROOT
ATOM      1  C   UNL     1      -1.035   7.976   2.093  1.00  0.00     0.050 C 
ATOM      2  C   UNL     1      -1.902   9.148   1.598  1.00  0.00     0.014 C 
ENDROOT
BRANCH   1   3
ATOM      3  C   UNL     1       0.304   8.503   2.715  1.00  0.00     0.230 C 
BRANCH   3   4
ATOM      4  N   UNL     1       0.441   8.166   4.140  1.00  0.00    -0.350 N 
ATOM      5  H   UNL     1       1.389   8.416   4.500  1.00  0.00     0.345 HD
ATOM      6  H   UNL     1      -0.274   8.695   4.693  1.00  0.00     0.345 HD
ATOM      7  H   UNL     1       0.270   7.147   4.294  1.00  0.00     0.345 HD
ENDBRANCH   3   4
BRANCH   3   8
ATOM      8  C   UNL     1       1.510   8.049   1.926  1.00  0.00     0.099 C 
ATOM      9  O   UNL     1       1.547   6.882   1.451  1.00  0.00    -0.544 OA
ATOM     10  O   UNL     1       2.573   8.912   1.684  1.00  0.00    -0.544 OA
ENDBRANCH   3   8
ENDBRANCH   1   3
BRANCH   1  11
ATOM     11  C   UNL     1      -1.883   7.068   3.020  1.00  0.00     0.006 C 
ATOM     12  C   UNL     1      -1.723   5.575   2.732  1.00  0.00     0.004 C 
ENDBRANCH   1  11
TORSDOF 4
ENDMDL
MODEL 2
REMARK VINA RESULT:    -2.738     10.780     11.704
REMARK INTER + INTRA:          -3.443
REMARK INTER:                  -3.355
REMARK INTRA:                  -0.088
REMARK UNBOUND:                -0.145
REMARK SMILES CC[C@@H](C)[C@@H]([NH3+])C(=O)[O-]
REMARK SMILES IDX 3 1 4 2 5 3 6 4 7 8 8 9 9 10 2 11 1 12
REMARK H PARENT 6 5 6 6 6 7
REMARK Flexibility Score: inf
ROOT
ATOM      1  C   UNL     1       3.543  10.890  -8.203  1.00  0.00     0.050 C 
ATOM      2  C   UNL     1       4.312  11.883  -9.091  1.00  0.00     0.014 C 
ENDROOT
BRANCH   1   3
ATOM      3  C   UNL     1       2.007  11.206  -8.223  1.00  0.00     0.230 C 
BRANCH   3   4
ATOM      4  N   UNL     1       1.204  10.092  -8.748  1.00  0.00    -0.350 N 
ATOM      5  H   UNL     1       1.466   9.187  -8.296  1.00  0.00     0.345 HD
ATOM      6  H   UNL     1       0.190  10.275  -8.562  1.00  0.00     0.345 HD
ATOM      7  H   UNL     1       1.325  10.009  -9.783  1.00  0.00     0.345 HD
ENDBRANCH   3   4
BRANCH   3   8
ATOM      8  C   UNL     1       1.505  11.653  -6.869  1.00  0.00     0.099 C 
ATOM      9  O   UNL     1       2.154  11.360  -5.831  1.00  0.00    -0.544 OA
ATOM     10  O   UNL     1       0.348  12.415  -6.752  1.00  0.00    -0.544 OA
ENDBRANCH   3   8
ENDBRANCH   1   3
BRANCH   1  11
ATOM     11  C   UNL     1       3.926   9.442  -8.602  1.00  0.00     0.006 C 
ATOM     12  C   UNL     1       5.209   9.351  -9.429  1.00  0.00     0.004 C 
ENDBRANCH   1  11
TORSDOF 4
ENDMDL
MODEL 3
REMARK VINA RESULT:    -2.721      3.021      3.670
REMARK INTER + INTRA:          -3.423
REMARK INTER:                  -3.335
REMARK INTRA:                  -0.088
REMARK UNBOUND:                -0.145
REMARK SMILES CC[C@@H](C)[C@@H]([NH3+])C(=O)[O-]
REMARK SMILES IDX 3 1 4 2 5 3 6 4 7 8 8 9 9 10 2 11 1 12
REMARK H PARENT 6 5 6 6 6 7
REMARK Flexibility Score: inf
ROOT
ATOM      1  C   UNL     1       1.702   5.564   2.814  1.00  0.00     0.050 C 
ATOM      2  C   UNL     1       0.555   5.591   3.838  1.00  0.00     0.014 C 
ENDROOT
BRANCH   1   3
ATOM      3  C   UNL     1       2.842   6.554   3.234  1.00  0.00     0.230 C 
BRANCH   3   4
ATOM      4  N   UNL     1       4.160   5.905   3.314  1.00  0.00    -0.350 N 
ATOM      5  H   UNL     1       4.240   5.311   4.169  1.00  0.00     0.345 HD
ATOM      6  H   UNL     1       4.300   5.297   2.473  1.00  0.00     0.345 HD
ATOM      7  H   UNL     1       4.921   6.620   3.317  1.00  0.00     0.345 HD
ENDBRANCH   3   4
BRANCH   3   8
ATOM      8  C   UNL     1       2.886   7.776   2.345  1.00  0.00     0.099 C 
ATOM      9  O   UNL     1       3.931   8.477   2.294  1.00  0.00    -0.544 OA
ATOM     10  O   UNL     1       1.797   8.124   1.554  1.00  0.00    -0.544 OA
ENDBRANCH   3   8
ENDBRANCH   1   3
BRANCH   1  11
ATOM     11  C   UNL     1       2.151   4.097   2.585  1.00  0.00     0.006 C 
ATOM     12  C   UNL     1       1.326   3.074   3.366  1.00  0.00     0.004 C 
ENDBRANCH   1  11
TORSDOF 4
ENDMDL
MODEL 4
REMARK VINA RESULT:    -2.705      3.139      3.832
REMARK INTER + INTRA:          -3.404
REMARK INTER:                  -3.249
REMARK INTRA:                  -0.155
REMARK UNBOUND:                -0.145
REMARK SMILES CC[C@@H](C)[C@@H]([NH3+])C(=O)[O-]
REMARK SMILES IDX 3 1 4 2 5 3 6 4 7 8 8 9 9 10 2 11 1 12
REMARK H PARENT 6 5 6 6 6 7
REMARK Flexibility Score: inf
ROOT
ATOM      1  C   UNL     1       2.179   5.901   3.754  1.00  0.00     0.050 C 
ATOM      2  C   UNL     1       1.749   6.067   5.222  1.00  0.00     0.014 C 
ENDROOT
BRANCH   1   3
ATOM      3  C   UNL     1       2.923   7.184   3.247  1.00  0.00     0.230 C 
BRANCH   3   4
ATOM      4  N   UNL     1       4.357   6.955   3.013  1.00  0.00    -0.350 N 
ATOM      5  H   UNL     1       4.617   5.958   3.190  1.00  0.00     0.345 HD
ATOM      6  H   UNL     1       4.589   7.187   2.019  1.00  0.00     0.345 HD
ATOM      7  H   UNL     1       4.932   7.576   3.626  1.00  0.00     0.345 HD
ENDBRANCH   3   4
BRANCH   3   8
ATOM      8  C   UNL     1       2.257   7.779   2.028  1.00  0.00     0.099 C 
ATOM      9  O   UNL     1       1.367   7.129   1.419  1.00  0.00    -0.544 OA
ATOM     10  O   UNL     1       2.588   9.054   1.584  1.00  0.00    -0.544 OA
ENDBRANCH   3   8
ENDBRANCH   1   3
BRANCH   1  11
ATOM     11  C   UNL     1       2.965   4.574   3.598  1.00  0.00     0.006 C 
ATOM     12  C   UNL     1       2.444   3.679   2.473  1.00  0.00     0.004 C 
ENDBRANCH   1  11
TORSDOF 4
ENDMDL
MODEL 5
REMARK VINA RESULT:    -2.702      1.948      2.429
REMARK INTER + INTRA:          -3.400
REMARK INTER:                  -3.320
REMARK INTRA:                  -0.080
REMARK UNBOUND:                -0.145
REMARK SMILES CC[C@@H](C)[C@@H]([NH3+])C(=O)[O-]
REMARK SMILES IDX 3 1 4 2 5 3 6 4 7 8 8 9 9 10 2 11 1 12
REMARK H PARENT 6 5 6 6 6 7
REMARK Flexibility Score: inf
ROOT
ATOM      1  C   UNL     1       0.720   7.413   2.991  1.00  0.00     0.050 C 
ATOM      2  C   UNL     1       0.233   8.024   4.316  1.00  0.00     0.014 C 
ENDROOT
BRANCH   1   3
ATOM      3  C   UNL     1       2.250   7.080   3.065  1.00  0.00     0.230 C 
BRANCH   3   4
ATOM      4  N   UNL     1       2.555   5.705   2.639  1.00  0.00    -0.350 N 
ATOM      5  H   UNL     1       2.142   5.497   1.702  1.00  0.00     0.345 HD
ATOM      6  H   UNL     1       3.593   5.582   2.579  1.00  0.00     0.345 HD
ATOM      7  H   UNL     1       2.195   5.017   3.337  1.00  0.00     0.345 HD
ENDBRANCH   3   4
BRANCH   3   8
ATOM      8  C   UNL     1       3.085   8.086   2.308  1.00  0.00     0.099 C 
ATOM      9  O   UNL     1       2.532   8.880   1.501  1.00  0.00    -0.544 OA
ATOM     10  O   UNL     1       4.458   8.175   2.512  1.00  0.00    -0.544 OA
ENDBRANCH   3   8
ENDBRANCH   1   3
BRANCH   1  11
ATOM     11  C   UNL     1      -0.198   6.224   2.607  1.00  0.00     0.006 C 
ATOM     12  C   UNL     1      -1.688   6.512   2.793  1.00  0.00     0.004 C 
ENDBRANCH   1  11
TORSDOF 4
ENDMDL
MODEL 6
REMARK VINA RESULT:    -2.688      2.343      2.921
REMARK INTER + INTRA:          -3.383
REMARK INTER:                  -3.233
REMARK INTRA:                  -0.151
REMARK UNBOUND:                -0.145
REMARK SMILES CC[C@@H](C)[C@@H]([NH3+])C(=O)[O-]
REMARK SMILES IDX 3 1 4 2 5 3 6 4 7 8 8 9 9 10 2 11 1 12
REMARK H PARENT 6 5 6 6 6 7
REMARK Flexibility Score: inf
ROOT
ATOM      1  C   UNL     1       0.586   6.063   3.886  1.00  0.00     0.050 C 
ATOM      2  C   UNL     1       1.003   5.887   5.357  1.00  0.00     0.014 C 
ENDROOT
BRANCH   1   3
ATOM      3  C   UNL     1       1.845   6.259   2.974  1.00  0.00     0.230 C 
BRANCH   3   4
ATOM      4  N   UNL     1       2.148   5.072   2.159  1.00  0.00    -0.350 N 
ATOM      5  H   UNL     1       2.366   4.244   2.758  1.00  0.00     0.345 HD
ATOM      6  H   UNL     1       1.320   4.840   1.561  1.00  0.00     0.345 HD
ATOM      7  H   UNL     1       2.955   5.260   1.523  1.00  0.00     0.345 HD
ENDBRANCH   3   4
BRANCH   3   8
ATOM      8  C   UNL     1       1.734   7.498   2.116  1.00  0.00     0.099 C 
ATOM      9  O   UNL     1       0.604   7.889   1.722  1.00  0.00    -0.544 OA
ATOM     10  O   UNL     1       2.862   8.238   1.780  1.00  0.00    -0.544 OA
ENDBRANCH   3   8
ENDBRANCH   1   3
BRANCH   1  11
ATOM     11  C   UNL     1      -0.353   4.899   3.477  1.00  0.00     0.006 C 
ATOM     12  C   UNL     1      -1.647   5.360   2.805  1.00  0.00     0.004 C 
ENDBRANCH   1  11
TORSDOF 4
ENDMDL
MODEL 7
REMARK VINA RESULT:    -2.675      3.166      4.961
REMARK INTER + INTRA:          -3.367
REMARK INTER:                  -3.283
REMARK INTRA:                  -0.085
REMARK UNBOUND:                -0.145
REMARK SMILES CC[C@@H](C)[C@@H]([NH3+])C(=O)[O-]
REMARK SMILES IDX 3 1 4 2 5 3 6 4 7 8 8 9 9 10 2 11 1 12
REMARK H PARENT 6 5 6 6 6 7
REMARK Flexibility Score: inf
ROOT
ATOM      1  C   UNL     1       3.351   9.917   2.874  1.00  0.00     0.050 C 
ATOM      2  C   UNL     1       2.508  10.922   2.069  1.00  0.00     0.014 C 
ENDROOT
BRANCH   1   3
ATOM      3  C   UNL     1       3.327   8.506   2.193  1.00  0.00     0.230 C 
BRANCH   3   4
ATOM      4  N   UNL     1       4.415   7.632   2.656  1.00  0.00    -0.350 N 
ATOM      5  H   UNL     1       4.052   6.855   3.253  1.00  0.00     0.345 HD
ATOM      6  H   UNL     1       4.903   7.214   1.829  1.00  0.00     0.345 HD
ATOM      7  H   UNL     1       5.122   8.180   3.196  1.00  0.00     0.345 HD
ENDBRANCH   3   4
BRANCH   3   8
ATOM      8  C   UNL     1       1.983   7.831   2.337  1.00  0.00     0.099 C 
ATOM      9  O   UNL     1       1.510   7.163   1.379  1.00  0.00    -0.544 OA
ATOM     10  O   UNL     1       1.268   7.907   3.527  1.00  0.00    -0.544 OA
ENDBRANCH   3   8
ENDBRANCH   1   3
BRANCH   1  11
ATOM     11  C   UNL     1       4.762  10.511   3.117  1.00  0.00     0.006 C 
ATOM     12  C   UNL     1       4.925  11.941   2.600  1.00  0.00     0.004 C 
ENDBRANCH   1  11
TORSDOF 4
ENDMDL
MODEL 8
REMARK VINA RESULT:    -2.630      1.743      2.704
REMARK INTER + INTRA:          -3.313
REMARK INTER:                  -3.241
REMARK INTRA:                  -0.072
REMARK UNBOUND:                -0.145
REMARK SMILES CC[C@@H](C)[C@@H]([NH3+])C(=O)[O-]
REMARK SMILES IDX 3 1 4 2 5 3 6 4 7 8 8 9 9 10 2 11 1 12
REMARK H PARENT 6 5 6 6 6 7
REMARK Flexibility Score: inf
ROOT
ATOM      1  C   UNL     1      -0.983   9.149   1.915  1.00  0.00     0.050 C 
ATOM      2  C   UNL     1      -0.440  10.242   2.852  1.00  0.00     0.014 C 
ENDROOT
BRANCH   1   3
ATOM      3  C   UNL     1      -0.909   7.743   2.605  1.00  0.00     0.230 C 
BRANCH   3   4
ATOM      4  N   UNL     1      -2.089   6.910   2.329  1.00  0.00    -0.350 N 
ATOM      5  H   UNL     1      -2.300   6.271   3.128  1.00  0.00     0.345 HD
ATOM      6  H   UNL     1      -2.920   7.526   2.168  1.00  0.00     0.345 HD
ATOM      7  H   UNL     1      -1.944   6.344   1.463  1.00  0.00     0.345 HD
ENDBRANCH   3   4
BRANCH   3   8
ATOM      8  C   UNL     1       0.370   7.013   2.264  1.00  0.00     0.099 C 
ATOM      9  O   UNL     1       0.543   5.831   2.665  1.00  0.00    -0.544 OA
ATOM     10  O   UNL     1       1.350   7.614   1.483  1.00  0.00    -0.544 OA
ENDBRANCH   3   8
ENDBRANCH   1   3
BRANCH   1  11
ATOM     11  C   UNL     1      -2.388   9.562   1.405  1.00  0.00     0.006 C 
ATOM     12  C   UNL     1      -2.406   9.996  -0.061  1.00  0.00     0.004 C 
ENDBRANCH   1  11
TORSDOF 4
ENDMDL
MODEL 9
REMARK VINA RESULT:    -2.597      2.089      2.834
REMARK INTER + INTRA:          -3.274
REMARK INTER:                  -3.125
REMARK INTRA:                  -0.148
REMARK UNBOUND:                -0.145
REMARK SMILES CC[C@@H](C)[C@@H]([NH3+])C(=O)[O-]
REMARK SMILES IDX 3 1 4 2 5 3 6 4 7 8 8 9 9 10 2 11 1 12
REMARK H PARENT 6 5 6 6 6 7
REMARK Flexibility Score: inf
ROOT
ATOM      1  C   UNL     1      -0.154   5.478   2.962  1.00  0.00     0.050 C 
ATOM      2  C   UNL     1      -1.615   5.066   3.213  1.00  0.00     0.014 C 
ENDROOT
BRANCH   1   3
ATOM      3  C   UNL     1       0.064   6.987   3.326  1.00  0.00     0.230 C 
BRANCH   3   4
ATOM      4  N   UNL     1       0.915   7.169   4.512  1.00  0.00    -0.350 N 
ATOM      5  H   UNL     1       0.589   6.578   5.309  1.00  0.00     0.345 HD
ATOM      6  H   UNL     1       1.900   6.898   4.279  1.00  0.00     0.345 HD
ATOM      7  H   UNL     1       0.925   8.171   4.806  1.00  0.00     0.345 HD
ENDBRANCH   3   4
BRANCH   3   8
ATOM      8  C   UNL     1       0.584   7.783   2.151  1.00  0.00     0.099 C 
ATOM      9  O   UNL     1       0.025   8.865   1.830  1.00  0.00    -0.544 OA
ATOM     10  O   UNL     1       1.695   7.355   1.433  1.00  0.00    -0.544 OA
ENDBRANCH   3   8
ENDBRANCH   1   3
BRANCH   1  11
ATOM     11  C   UNL     1       0.791   4.481   3.680  1.00  0.00     0.006 C 
ATOM     12  C   UNL     1       2.013   4.086   2.850  1.00  0.00     0.004 C 
ENDBRANCH   1  11
TORSDOF 4
ENDMDL
