MODEL 1
REMARK VINA RESULT:    -2.654      0.000      0.000
REMARK INTER + INTRA:          -2.887
REMARK INTER:                  -2.887
REMARK INTRA:                   0.000
REMARK UNBOUND:                 0.000
REMARK SMILES [NH3+]CC(=O)[O-]
REMARK SMILES IDX 2 1 1 2 3 6 4 7 5 8
REMARK H PARENT 1 3 1 4 1 5
REMARK Flexibility Score: inf
ROOT
ATOM      1  C   UNL     1      25.331  -5.023  16.798  1.00  0.00     0.312 C 
ENDROOT
BRANCH   1   2
ATOM      2  N   UNL     1      25.380  -5.839  15.587  1.00  0.00    -0.353 N 
ATOM      3  H   UNL     1      24.547  -5.640  14.986  1.00  0.00     0.344 HD
ATOM      4  H   UNL     1      26.248  -5.606  15.052  1.00  0.00     0.344 HD
ATOM      5  H   UNL     1      25.400  -6.854  15.839  1.00  0.00     0.344 HD
ENDBRANCH   1   2
BRANCH   1   6
ATOM      6  C   UNL     1      25.159  -5.886  18.010  1.00  0.00     0.096 C 
ATOM      7  O   UNL     1      25.865  -6.917  18.158  1.00  0.00    -0.544 OA
ATOM      8  O   UNL     1      24.252  -5.524  18.998  1.00  0.00    -0.544 OA
ENDBRANCH   1   6
TORSDOF 2
ENDMDL
MODEL 2
REMARK VINA RESULT:    -2.644      0.115      1.452
REMARK INTER + INTRA:          -2.876
REMARK INTER:                  -2.876
REMARK INTRA:                   0.000
REMARK UNBOUND:                 0.000
REMARK SMILES [NH3+]CC(=O)[O-]
REMARK SMILES IDX 2 1 1 2 3 6 4 7 5 8
REMARK H PARENT 1 3 1 4 1 5
REMARK Flexibility Score: inf
ROOT
ATOM      1  C   UNL     1      25.296  -4.961  16.801  1.00  0.00     0.312 C 
ENDROOT
BRANCH   1   2
ATOM      2  N   UNL     1      25.395  -5.823  15.625  1.00  0.00    -0.353 N 
ATOM      3  H   UNL     1      25.410  -6.828  15.916  1.00  0.00     0.344 HD
ATOM      4  H   UNL     1      24.564  -5.660  15.011  1.00  0.00     0.344 HD
ATOM      5  H   UNL     1      26.263  -5.597  15.087  1.00  0.00     0.344 HD
ENDBRANCH   1   2
BRANCH   1   6
ATOM      6  C   UNL     1      25.207  -5.782  18.051  1.00  0.00     0.096 C 
ATOM      7  O   UNL     1      24.420  -5.446  18.974  1.00  0.00    -0.544 OA
ATOM      8  O   UNL     1      25.957  -6.944  18.174  1.00  0.00    -0.544 OA
ENDBRANCH   1   6
TORSDOF 2
ENDMDL
MODEL 3
REMARK VINA RESULT:    -2.599      1.369      1.402
REMARK INTER + INTRA:          -2.827
REMARK INTER:                  -2.827
REMARK INTRA:                   0.000
REMARK UNBOUND:                 0.000
REMARK SMILES [NH3+]CC(=O)[O-]
REMARK SMILES IDX 2 1 1 2 3 6 4 7 5 8
REMARK H PARENT 1 3 1 4 1 5
REMARK Flexibility Score: inf
ROOT
ATOM      1  C   UNL     1      25.298  -6.511  16.847  1.00  0.00     0.312 C 
ENDROOT
BRANCH   1   2
ATOM      2  N   UNL     1      25.345  -6.072  15.454  1.00  0.00    -0.353 N 
ATOM      3  H   UNL     1      25.203  -5.038  15.397  1.00  0.00     0.344 HD
ATOM      4  H   UNL     1      26.282  -6.308  15.053  1.00  0.00     0.344 HD
ATOM      5  H   UNL     1      24.607  -6.562  14.898  1.00  0.00     0.344 HD
ENDBRANCH   1   2
BRANCH   1   6
ATOM      6  C   UNL     1      25.359  -5.336  17.773  1.00  0.00     0.096 C 
ATOM      7  O   UNL     1      26.119  -4.365  17.515  1.00  0.00    -0.544 OA
ATOM      8  O   UNL     1      24.539  -5.290  18.893  1.00  0.00    -0.544 OA
ENDBRANCH   1   6
TORSDOF 2
ENDMDL
MODEL 4
REMARK VINA RESULT:    -2.515     14.125     14.474
REMARK INTER + INTRA:          -2.736
REMARK INTER:                  -2.736
REMARK INTRA:                   0.000
REMARK UNBOUND:                 0.000
REMARK SMILES [NH3+]CC(=O)[O-]
REMARK SMILES IDX 2 1 1 2 3 6 4 7 5 8
REMARK H PARENT 1 3 1 4 1 5
REMARK Flexibility Score: inf
ROOT
ATOM      1  C   UNL     1      26.098   1.475   5.058  1.00  0.00     0.312 C 
ENDROOT
BRANCH   1   2
ATOM      2  N   UNL     1      26.194   2.275   3.839  1.00  0.00    -0.353 N 
ATOM      3  H   UNL     1      26.484   3.252   4.073  1.00  0.00     0.344 HD
ATOM      4  H   UNL     1      26.910   1.850   3.207  1.00  0.00     0.344 HD
ATOM      5  H   UNL     1      25.271   2.288   3.345  1.00  0.00     0.344 HD
ENDBRANCH   1   2
BRANCH   1   6
ATOM      6  C   UNL     1      27.459   1.071   5.533  1.00  0.00     0.096 C 
ATOM      7  O   UNL     1      28.341   1.944   5.745  1.00  0.00    -0.544 OA
ATOM      8  O   UNL     1      27.739  -0.266   5.788  1.00  0.00    -0.544 OA
ENDBRANCH   1   6
TORSDOF 2
ENDMDL
MODEL 5
REMARK VINA RESULT:    -2.514     14.096     14.295
REMARK INTER + INTRA:          -2.735
REMARK INTER:                  -2.735
REMARK INTRA:                   0.000
REMARK UNBOUND:                 0.000
REMARK SMILES [NH3+]CC(=O)[O-]
REMARK SMILES IDX 2 1 1 2 3 6 4 7 5 8
REMARK H PARENT 1 3 1 4 1 5
REMARK Flexibility Score: inf
ROOT
ATOM      1  C   UNL     1      26.345   1.637   5.268  1.00  0.00     0.312 C 
ENDROOT
BRANCH   1   2
ATOM      2  N   UNL     1      26.523   2.431   4.055  1.00  0.00    -0.353 N 
ATOM      3  H   UNL     1      27.213   1.967   3.419  1.00  0.00     0.344 HD
ATOM      4  H   UNL     1      25.606   2.510   3.560  1.00  0.00     0.344 HD
ATOM      5  H   UNL     1      26.859   3.391   4.301  1.00  0.00     0.344 HD
ENDBRANCH   1   2
BRANCH   1   6
ATOM      6  C   UNL     1      27.029   2.287   6.431  1.00  0.00     0.096 C 
ATOM      7  O   UNL     1      28.286   2.293   6.504  1.00  0.00    -0.544 OA
ATOM      8  O   UNL     1      26.280   2.929   7.408  1.00  0.00    -0.544 OA
ENDBRANCH   1   6
TORSDOF 2
ENDMDL
MODEL 6
REMARK VINA RESULT:    -2.511     13.782     14.167
REMARK INTER + INTRA:          -2.731
REMARK INTER:                  -2.731
REMARK INTRA:                   0.000
REMARK UNBOUND:                 0.000
REMARK SMILES [NH3+]CC(=O)[O-]
REMARK SMILES IDX 2 1 1 2 3 6 4 7 5 8
REMARK H PARENT 1 3 1 4 1 5
REMARK Flexibility Score: inf
ROOT
ATOM      1  C   UNL     1      26.844   2.366   5.701  1.00  0.00     0.312 C 
ENDROOT
BRANCH   1   2
ATOM      2  N   UNL     1      26.574   2.387   4.265  1.00  0.00    -0.353 N 
ATOM      3  H   UNL     1      26.438   1.412   3.910  1.00  0.00     0.344 HD
ATOM      4  H   UNL     1      25.702   2.937   4.089  1.00  0.00     0.344 HD
ATOM      5  H   UNL     1      27.369   2.840   3.757  1.00  0.00     0.344 HD
ENDBRANCH   1   2
BRANCH   1   6
ATOM      6  C   UNL     1      27.689   1.184   6.062  1.00  0.00     0.096 C 
ATOM      7  O   UNL     1      28.124   1.051   7.237  1.00  0.00    -0.544 OA
ATOM      8  O   UNL     1      27.954   0.204   5.115  1.00  0.00    -0.544 OA
ENDBRANCH   1   6
TORSDOF 2
ENDMDL
MODEL 7
REMARK VINA RESULT:    -2.366      6.711      7.062
REMARK INTER + INTRA:          -2.574
REMARK INTER:                  -2.574
REMARK INTRA:                   0.000
REMARK UNBOUND:                 0.000
REMARK SMILES [NH3+]CC(=O)[O-]
REMARK SMILES IDX 2 1 1 2 3 6 4 7 5 8
REMARK H PARENT 1 3 1 4 1 5
REMARK Flexibility Score: inf
ROOT
ATOM      1  C   UNL     1      26.808 -12.357  15.218  1.00  0.00     0.312 C 
ENDROOT
BRANCH   1   2
ATOM      2  N   UNL     1      28.037 -12.774  15.891  1.00  0.00    -0.353 N 
ATOM      3  H   UNL     1      28.102 -13.818  15.906  1.00  0.00     0.344 HD
ATOM      4  H   UNL     1      28.859 -12.390  15.370  1.00  0.00     0.344 HD
ATOM      5  H   UNL     1      28.053 -12.404  16.869  1.00  0.00     0.344 HD
ENDBRANCH   1   2
BRANCH   1   6
ATOM      6  C   UNL     1      25.635 -12.471  16.141  1.00  0.00     0.096 C 
ATOM      7  O   UNL     1      24.933 -13.516  16.147  1.00  0.00    -0.544 OA
ATOM      8  O   UNL     1      25.348 -11.443  17.030  1.00  0.00    -0.544 OA
ENDBRANCH   1   6
TORSDOF 2
ENDMDL
MODEL 8
REMARK VINA RESULT:    -2.332      2.217      2.639
REMARK INTER + INTRA:          -2.536
REMARK INTER:                  -2.536
REMARK INTRA:                   0.000
REMARK UNBOUND:                 0.000
REMARK SMILES [NH3+]CC(=O)[O-]
REMARK SMILES IDX 2 1 1 2 3 6 4 7 5 8
REMARK H PARENT 1 3 1 4 1 5
REMARK Flexibility Score: inf
ROOT
ATOM      1  C   UNL     1      25.093  -6.539  16.416  1.00  0.00     0.312 C 
ENDROOT
BRANCH   1   2
ATOM      2  N   UNL     1      25.564  -6.774  15.053  1.00  0.00    -0.353 N 
ATOM      3  H   UNL     1      24.754  -6.796  14.391  1.00  0.00     0.344 HD
ATOM      4  H   UNL     1      26.208  -5.998  14.775  1.00  0.00     0.344 HD
ATOM      5  H   UNL     1      26.086  -7.680  15.004  1.00  0.00     0.344 HD
ENDBRANCH   1   2
BRANCH   1   6
ATOM      6  C   UNL     1      24.220  -7.666  16.874  1.00  0.00     0.096 C 
ATOM      7  O   UNL     1      23.031  -7.444  17.225  1.00  0.00    -0.544 OA
ATOM      8  O   UNL     1      24.703  -8.968  16.866  1.00  0.00    -0.544 OA
ENDBRANCH   1   6
TORSDOF 2
ENDMDL
MODEL 9
REMARK VINA RESULT:    -2.314     12.853     13.188
REMARK INTER + INTRA:          -2.516
REMARK INTER:                  -2.516
REMARK INTRA:                   0.000
REMARK UNBOUND:                 0.000
REMARK SMILES [NH3+]CC(=O)[O-]
REMARK SMILES IDX 2 1 1 2 3 6 4 7 5 8
REMARK H PARENT 1 3 1 4 1 5
REMARK Flexibility Score: inf
ROOT
ATOM      1  C   UNL     1      27.818   0.058   7.466  1.00  0.00     0.312 C 
ENDROOT
BRANCH   1   2
ATOM      2  N   UNL     1      29.061  -0.034   8.228  1.00  0.00    -0.353 N 
ATOM      3  H   UNL     1      29.064   0.674   8.998  1.00  0.00     0.344 HD
ATOM      4  H   UNL     1      29.135  -0.990   8.647  1.00  0.00     0.344 HD
ATOM      5  H   UNL     1      29.881   0.124   7.598  1.00  0.00     0.344 HD
ENDBRANCH   1   2
BRANCH   1   6
ATOM      6  C   UNL     1      27.914   1.131   6.426  1.00  0.00     0.096 C 
ATOM      7  O   UNL     1      27.943   0.829   5.204  1.00  0.00    -0.544 OA
ATOM      8  O   UNL     1      27.923   2.467   6.805  1.00  0.00    -0.544 OA
ENDBRANCH   1   6
TORSDOF 2
ENDMDL
