MODEL 1
REMARK VINA RESULT:    -4.549      0.000      0.000
REMARK INTER + INTRA:         -10.442
REMARK INTER:                  -8.007
REMARK INTRA:                  -2.435
REMARK UNBOUND:                -2.435
REMARK SMILES CCCCCCCCCCCCCCC(=O)[O-]
REMARK SMILES IDX 9 1 10 2 11 3 12 4 13 5 14 6 15 7 16 8 17 9 8 10 7 11 6 12
REMARK SMILES IDX 5 13 4 14 3 15 2 16 1 17
REMARK H PARENT
REMARK Flexibility Score: inf
ROOT
ATOM      1  C   UNL     1     179.643 180.653 181.876  1.00  0.00     0.000 C 
ENDROOT
BRANCH   1   2
ATOM      2  C   UNL     1     180.499 179.735 180.984  1.00  0.00     0.000 C 
BRANCH   2   3
ATOM      3  C   UNL     1     181.995 179.689 181.341  1.00  0.00     0.000 C 
BRANCH   3   4
ATOM      4  C   UNL     1     182.350 180.567 182.552  1.00  0.00     0.000 C 
BRANCH   4   5
ATOM      5  C   UNL     1     183.854 180.545 182.884  1.00  0.00     0.006 C 
BRANCH   5   6
ATOM      6  C   UNL     1     184.775 180.745 181.670  1.00  0.00     0.053 C 
BRANCH   6   7
ATOM      7  C   UNL     1     186.077 181.380 182.052  1.00  0.00     0.041 C 
ATOM      8  O   UNL     1     186.841 180.813 182.877  1.00  0.00    -0.550 OA
ATOM      9  O   UNL     1     186.461 182.582 181.472  1.00  0.00    -0.550 OA
ENDBRANCH   6   7
ENDBRANCH   5   6
ENDBRANCH   4   5
ENDBRANCH   3   4
ENDBRANCH   2   3
ENDBRANCH   1   2
BRANCH   1  10
ATOM     10  C   UNL     1     178.704 181.566 181.067  1.00  0.00     0.000 C 
BRANCH  10  11
ATOM     11  C   UNL     1     179.022 183.057 181.253  1.00  0.00    -0.000 C 
BRANCH  11  12
ATOM     12  C   UNL     1     179.892 183.324 182.494  1.00  0.00    -0.000 C 
BRANCH  12  13
ATOM     13  C   UNL     1     181.229 183.997 182.144  1.00  0.00    -0.000 C 
BRANCH  13  14
ATOM     14  C   UNL     1     181.524 183.984 180.637  1.00  0.00    -0.000 C 
BRANCH  14  15
ATOM     15  C   UNL     1     182.992 183.631 180.368  1.00  0.00    -0.000 C 
BRANCH  15  16
ATOM     16  C   UNL     1     183.117 182.647 179.200  1.00  0.00    -0.003 C 
ATOM     17  C   UNL     1     181.746 182.284 178.637  1.00  0.00     0.004 C 
ENDBRANCH  15  16
ENDBRANCH  14  15
ENDBRANCH  13  14
ENDBRANCH  12  13
ENDBRANCH  11  12
ENDBRANCH  10  11
ENDBRANCH   1  10
TORSDOF 13
ENDMDL
MODEL 2
REMARK VINA RESULT:    -4.474      3.114      5.280
REMARK INTER + INTRA:         -10.309
REMARK INTER:                  -7.966
REMARK INTRA:                  -2.343
REMARK UNBOUND:                -2.435
REMARK SMILES CCCCCCCCCCCCCCC(=O)[O-]
REMARK SMILES IDX 9 1 10 2 11 3 12 4 13 5 14 6 15 7 16 8 17 9 8 10 7 11 6 12
REMARK SMILES IDX 5 13 4 14 3 15 2 16 1 17
REMARK H PARENT
REMARK Flexibility Score: inf
ROOT
ATOM      1  C   UNL     1     182.436 181.754 178.811  1.00  0.00     0.000 C 
ENDROOT
BRANCH   1   2
ATOM      2  C   UNL     1     182.843 183.112 179.413  1.00  0.00     0.000 C 
BRANCH   2   3
ATOM      3  C   UNL     1     181.755 183.806 180.253  1.00  0.00     0.000 C 
BRANCH   3   4
ATOM      4  C   UNL     1     182.041 183.756 181.763  1.00  0.00     0.000 C 
BRANCH   4   5
ATOM      5  C   UNL     1     180.768 183.920 182.616  1.00  0.00     0.006 C 
BRANCH   5   6
ATOM      6  C   UNL     1     179.866 182.677 182.654  1.00  0.00     0.053 C 
BRANCH   6   7
ATOM      7  C   UNL     1     178.499 182.959 182.109  1.00  0.00     0.041 C 
ATOM      8  O   UNL     1     177.542 183.200 182.890  1.00  0.00    -0.550 OA
ATOM      9  O   UNL     1     178.291 182.987 180.736  1.00  0.00    -0.550 OA
ENDBRANCH   6   7
ENDBRANCH   5   6
ENDBRANCH   4   5
ENDBRANCH   3   4
ENDBRANCH   2   3
ENDBRANCH   1   2
BRANCH   1  10
ATOM     10  C   UNL     1     181.036 181.298 179.259  1.00  0.00     0.000 C 
BRANCH  10  11
ATOM     11  C   UNL     1     181.085 180.224 180.356  1.00  0.00    -0.000 C 
BRANCH  11  12
ATOM     12  C   UNL     1     182.523 179.899 180.798  1.00  0.00    -0.000 C 
BRANCH  12  13
ATOM     13  C   UNL     1     182.758 180.175 182.292  1.00  0.00    -0.000 C 
BRANCH  13  14
ATOM     14  C   UNL     1     184.208 180.581 182.599  1.00  0.00    -0.000 C 
BRANCH  14  15
ATOM     15  C   UNL     1     184.976 180.891 181.309  1.00  0.00    -0.000 C 
BRANCH  15  16
ATOM     16  C   UNL     1     186.141 181.850 181.580  1.00  0.00    -0.003 C 
ATOM     17  C   UNL     1     185.635 183.246 181.931  1.00  0.00     0.004 C 
ENDBRANCH  15  16
ENDBRANCH  14  15
ENDBRANCH  13  14
ENDBRANCH  12  13
ENDBRANCH  11  12
ENDBRANCH  10  11
ENDBRANCH   1  10
TORSDOF 13
ENDMDL
MODEL 3
REMARK VINA RESULT:    -4.453      1.062      3.155
REMARK INTER + INTRA:         -10.273
REMARK INTER:                  -8.212
REMARK INTRA:                  -2.061
REMARK UNBOUND:                -2.435
REMARK SMILES CCCCCCCCCCCCCCC(=O)[O-]
REMARK SMILES IDX 9 1 10 2 11 3 12 4 13 5 14 6 15 7 16 8 17 9 8 10 7 11 6 12
REMARK SMILES IDX 5 13 4 14 3 15 2 16 1 17
REMARK H PARENT
REMARK Flexibility Score: inf
ROOT
ATOM      1  C   UNL     1     181.658 182.293 179.280  1.00  0.00     0.000 C 
ENDROOT
BRANCH   1   2
ATOM      2  C   UNL     1     181.673 180.789 179.609  1.00  0.00     0.000 C 
BRANCH   2   3
ATOM      3  C   UNL     1     181.312 180.435 181.063  1.00  0.00     0.000 C 
BRANCH   3   4
ATOM      4  C   UNL     1     182.444 179.702 181.801  1.00  0.00     0.000 C 
BRANCH   4   5
ATOM      5  C   UNL     1     183.182 180.605 182.807  1.00  0.00     0.006 C 
BRANCH   5   6
ATOM      6  C   UNL     1     184.712 180.457 182.790  1.00  0.00     0.053 C 
BRANCH   6   7
ATOM      7  C   UNL     1     185.348 181.329 181.751  1.00  0.00     0.041 C 
ATOM      8  O   UNL     1     185.566 180.881 180.595  1.00  0.00    -0.550 OA
ATOM      9  O   UNL     1     185.671 182.645 182.052  1.00  0.00    -0.550 OA
ENDBRANCH   6   7
ENDBRANCH   5   6
ENDBRANCH   4   5
ENDBRANCH   3   4
ENDBRANCH   2   3
ENDBRANCH   1   2
BRANCH   1  10
ATOM     10  C   UNL     1     182.997 182.986 179.589  1.00  0.00     0.000 C 
BRANCH  10  11
ATOM     11  C   UNL     1     182.856 184.115 180.621  1.00  0.00    -0.000 C 
BRANCH  11  12
ATOM     12  C   UNL     1     181.405 184.299 181.099  1.00  0.00    -0.000 C 
BRANCH  12  13
ATOM     13  C   UNL     1     181.207 183.876 182.563  1.00  0.00    -0.000 C 
BRANCH  13  14
ATOM     14  C   UNL     1     179.737 183.587 182.904  1.00  0.00    -0.000 C 
BRANCH  14  15
ATOM     15  C   UNL     1     178.979 183.072 181.675  1.00  0.00    -0.000 C 
BRANCH  15  16
ATOM     16  C   UNL     1     177.631 182.461 182.076  1.00  0.00    -0.003 C 
ATOM     17  C   UNL     1     177.652 180.942 181.937  1.00  0.00     0.004 C 
ENDBRANCH  15  16
ENDBRANCH  14  15
ENDBRANCH  13  14
ENDBRANCH  12  13
ENDBRANCH  11  12
ENDBRANCH  10  11
ENDBRANCH   1  10
TORSDOF 13
ENDMDL
MODEL 4
REMARK VINA RESULT:    -4.422      1.170      2.328
REMARK INTER + INTRA:         -10.219
REMARK INTER:                  -7.716
REMARK INTRA:                  -2.503
REMARK UNBOUND:                -2.435
REMARK SMILES CCCCCCCCCCCCCCC(=O)[O-]
REMARK SMILES IDX 9 1 10 2 11 3 12 4 13 5 14 6 15 7 16 8 17 9 8 10 7 11 6 12
REMARK SMILES IDX 5 13 4 14 3 15 2 16 1 17
REMARK H PARENT
REMARK Flexibility Score: inf
ROOT
ATOM      1  C   UNL     1     179.348 183.532 182.993  1.00  0.00     0.000 C 
ENDROOT
BRANCH   1   2
ATOM      2  C   UNL     1     180.811 183.375 183.447  1.00  0.00     0.000 C 
BRANCH   2   3
ATOM      3  C   UNL     1     181.345 181.931 183.442  1.00  0.00     0.000 C 
BRANCH   3   4
ATOM      4  C   UNL     1     182.868 181.856 183.250  1.00  0.00     0.000 C 
BRANCH   4   5
ATOM      5  C   UNL     1     183.328 180.513 182.653  1.00  0.00     0.006 C 
BRANCH   5   6
ATOM      6  C   UNL     1     184.403 180.637 181.562  1.00  0.00     0.053 C 
BRANCH   6   7
ATOM      7  C   UNL     1     185.682 181.204 182.098  1.00  0.00     0.041 C 
ATOM      8  O   UNL     1     186.328 180.585 182.983  1.00  0.00    -0.550 OA
ATOM      9  O   UNL     1     186.177 182.400 181.595  1.00  0.00    -0.550 OA
ENDBRANCH   6   7
ENDBRANCH   5   6
ENDBRANCH   4   5
ENDBRANCH   3   4
ENDBRANCH   2   3
ENDBRANCH   1   2
BRANCH   1  10
ATOM     10  C   UNL     1     178.866 182.363 182.116  1.00  0.00     0.000 C 
BRANCH  10  11
ATOM     11  C   UNL     1     179.149 182.586 180.622  1.00  0.00    -0.000 C 
BRANCH  11  12
ATOM     12  C   UNL     1     179.943 181.428 179.994  1.00  0.00    -0.000 C 
BRANCH  12  13
ATOM     13  C   UNL     1     181.401 181.808 179.688  1.00  0.00    -0.000 C 
BRANCH  13  14
ATOM     14  C   UNL     1     181.666 183.313 179.841  1.00  0.00    -0.000 C 
BRANCH  14  15
ATOM     15  C   UNL     1     183.157 183.587 180.076  1.00  0.00    -0.000 C 
BRANCH  15  16
ATOM     16  C   UNL     1     183.356 184.770 181.029  1.00  0.00    -0.003 C 
ATOM     17  C   UNL     1     182.101 185.634 181.104  1.00  0.00     0.004 C 
ENDBRANCH  15  16
ENDBRANCH  14  15
ENDBRANCH  13  14
ENDBRANCH  12  13
ENDBRANCH  11  12
ENDBRANCH  10  11
ENDBRANCH   1  10
TORSDOF 13
ENDMDL
MODEL 5
REMARK VINA RESULT:    -4.336      2.997      5.567
REMARK INTER + INTRA:         -10.067
REMARK INTER:                  -8.031
REMARK INTRA:                  -2.036
REMARK UNBOUND:                -2.435
REMARK SMILES CCCCCCCCCCCCCCC(=O)[O-]
REMARK SMILES IDX 9 1 10 2 11 3 12 4 13 5 14 6 15 7 16 8 17 9 8 10 7 11 6 12
REMARK SMILES IDX 5 13 4 14 3 15 2 16 1 17
REMARK H PARENT
REMARK Flexibility Score: inf
ROOT
ATOM      1  C   UNL     1     184.782 183.510 181.932  1.00  0.00     0.000 C 
ENDROOT
BRANCH   1   2
ATOM      2  C   UNL     1     183.850 183.831 180.749  1.00  0.00     0.000 C 
BRANCH   2   3
ATOM      3  C   UNL     1     182.795 184.917 181.026  1.00  0.00     0.000 C 
BRANCH   3   4
ATOM      4  C   UNL     1     181.363 184.360 181.088  1.00  0.00     0.000 C 
BRANCH   4   5
ATOM      5  C   UNL     1     181.117 183.486 182.332  1.00  0.00     0.006 C 
BRANCH   5   6
ATOM      6  C   UNL     1     179.665 183.493 182.837  1.00  0.00     0.053 C 
BRANCH   6   7
ATOM      7  C   UNL     1     178.788 182.583 182.033  1.00  0.00     0.041 C 
ATOM      8  O   UNL     1     178.854 181.336 182.192  1.00  0.00    -0.550 OA
ATOM      9  O   UNL     1     177.876 183.114 181.131  1.00  0.00    -0.550 OA
ENDBRANCH   6   7
ENDBRANCH   5   6
ENDBRANCH   4   5
ENDBRANCH   3   4
ENDBRANCH   2   3
ENDBRANCH   1   2
BRANCH   1  10
ATOM     10  C   UNL     1     185.840 182.447 181.587  1.00  0.00     0.000 C 
BRANCH  10  11
ATOM     11  C   UNL     1     185.273 181.019 181.601  1.00  0.00    -0.000 C 
BRANCH  11  12
ATOM     12  C   UNL     1     184.164 180.836 182.652  1.00  0.00    -0.000 C 
BRANCH  12  13
ATOM     13  C   UNL     1     182.928 180.117 182.087  1.00  0.00    -0.000 C 
BRANCH  13  14
ATOM     14  C   UNL     1     182.685 180.430 180.604  1.00  0.00    -0.000 C 
BRANCH  14  15
ATOM     15  C   UNL     1     181.203 180.273 180.245  1.00  0.00    -0.000 C 
BRANCH  15  16
ATOM     16  C   UNL     1     180.791 181.269 179.154  1.00  0.00    -0.003 C 
ATOM     17  C   UNL     1     182.010 181.802 178.408  1.00  0.00     0.004 C 
ENDBRANCH  15  16
ENDBRANCH  14  15
ENDBRANCH  13  14
ENDBRANCH  12  13
ENDBRANCH  11  12
ENDBRANCH  10  11
ENDBRANCH   1  10
TORSDOF 13
ENDMDL
MODEL 6
REMARK VINA RESULT:    -4.287      1.029      3.143
REMARK INTER + INTRA:          -9.980
REMARK INTER:                  -7.606
REMARK INTRA:                  -2.374
REMARK UNBOUND:                -2.435
REMARK SMILES CCCCCCCCCCCCCCC(=O)[O-]
REMARK SMILES IDX 9 1 10 2 11 3 12 4 13 5 14 6 15 7 16 8 17 9 8 10 7 11 6 12
REMARK SMILES IDX 5 13 4 14 3 15 2 16 1 17
REMARK H PARENT
REMARK Flexibility Score: inf
ROOT
ATOM      1  C   UNL     1     180.988 180.050 181.061  1.00  0.00     0.000 C 
ENDROOT
BRANCH   1   2
ATOM      2  C   UNL     1     181.073 180.577 179.617  1.00  0.00     0.000 C 
BRANCH   2   3
ATOM      3  C   UNL     1     181.503 182.050 179.484  1.00  0.00     0.000 C 
BRANCH   3   4
ATOM      4  C   UNL     1     182.947 182.210 178.978  1.00  0.00     0.000 C 
BRANCH   4   5
ATOM      5  C   UNL     1     183.929 182.607 180.096  1.00  0.00     0.006 C 
BRANCH   5   6
ATOM      6  C   UNL     1     185.133 181.664 180.248  1.00  0.00     0.053 C 
BRANCH   6   7
ATOM      7  C   UNL     1     185.890 181.920 181.515  1.00  0.00     0.041 C 
ATOM      8  O   UNL     1     186.100 180.982 182.329  1.00  0.00    -0.550 OA
ATOM      9  O   UNL     1     186.390 183.187 181.782  1.00  0.00    -0.550 OA
ENDBRANCH   6   7
ENDBRANCH   5   6
ENDBRANCH   4   5
ENDBRANCH   3   4
ENDBRANCH   2   3
ENDBRANCH   1   2
BRANCH   1  10
ATOM     10  C   UNL     1     182.367 179.723 181.661  1.00  0.00     0.000 C 
BRANCH  10  11
ATOM     11  C   UNL     1     182.680 180.554 182.915  1.00  0.00    -0.000 C 
BRANCH  11  12
ATOM     12  C   UNL     1     181.572 181.571 183.239  1.00  0.00    -0.000 C 
BRANCH  12  13
ATOM     13  C   UNL     1     182.016 183.024 183.002  1.00  0.00    -0.000 C 
BRANCH  13  14
ATOM     14  C   UNL     1     180.911 183.887 182.374  1.00  0.00    -0.000 C 
BRANCH  14  15
ATOM     15  C   UNL     1     179.521 183.375 182.773  1.00  0.00    -0.000 C 
BRANCH  15  16
ATOM     16  C   UNL     1     178.674 183.058 181.535  1.00  0.00    -0.003 C 
ATOM     17  C   UNL     1     177.838 181.800 181.748  1.00  0.00     0.004 C 
ENDBRANCH  15  16
ENDBRANCH  14  15
ENDBRANCH  13  14
ENDBRANCH  12  13
ENDBRANCH  11  12
ENDBRANCH  10  11
ENDBRANCH   1  10
TORSDOF 13
ENDMDL
MODEL 7
REMARK VINA RESULT:    -4.249      3.291      5.618
REMARK INTER + INTRA:          -9.913
REMARK INTER:                  -7.962
REMARK INTRA:                  -1.951
REMARK UNBOUND:                -2.435
REMARK SMILES CCCCCCCCCCCCCCC(=O)[O-]
REMARK SMILES IDX 9 1 10 2 11 3 12 4 13 5 14 6 15 7 16 8 17 9 8 10 7 11 6 12
REMARK SMILES IDX 5 13 4 14 3 15 2 16 1 17
REMARK H PARENT
REMARK Flexibility Score: inf
ROOT
ATOM      1  C   UNL     1     182.580 183.377 180.444  1.00  0.00     0.000 C 
ENDROOT
BRANCH   1   2
ATOM      2  C   UNL     1     181.294 184.059 180.946  1.00  0.00     0.000 C 
BRANCH   2   3
ATOM      3  C   UNL     1     180.927 183.762 182.411  1.00  0.00     0.000 C 
BRANCH   3   4
ATOM      4  C   UNL     1     179.420 183.535 182.617  1.00  0.00     0.000 C 
BRANCH   4   5
ATOM      5  C   UNL     1     178.787 182.685 181.499  1.00  0.00     0.006 C 
BRANCH   5   6
ATOM      6  C   UNL     1     177.504 181.947 181.912  1.00  0.00     0.053 C 
BRANCH   6   7
ATOM      7  C   UNL     1     177.744 180.485 182.134  1.00  0.00     0.041 C 
ATOM      8  O   UNL     1     178.910 180.016 182.063  1.00  0.00    -0.550 OA
ATOM      9  O   UNL     1     176.684 179.647 182.453  1.00  0.00    -0.550 OA
ENDBRANCH   6   7
ENDBRANCH   5   6
ENDBRANCH   4   5
ENDBRANCH   3   4
ENDBRANCH   2   3
ENDBRANCH   1   2
BRANCH   1  10
ATOM     10  C   UNL     1     182.317 182.353 179.326  1.00  0.00     0.000 C 
BRANCH  10  11
ATOM     11  C   UNL     1     181.603 181.091 179.833  1.00  0.00    -0.000 C 
BRANCH  11  12
ATOM     12  C   UNL     1     182.533 180.175 180.648  1.00  0.00    -0.000 C 
BRANCH  12  13
ATOM     13  C   UNL     1     182.194 180.172 182.148  1.00  0.00    -0.000 C 
BRANCH  13  14
ATOM     14  C   UNL     1     183.251 180.894 182.997  1.00  0.00    -0.000 C 
BRANCH  14  15
ATOM     15  C   UNL     1     184.667 180.482 182.578  1.00  0.00    -0.000 C 
BRANCH  15  16
ATOM     16  C   UNL     1     185.482 181.697 182.121  1.00  0.00    -0.003 C 
ATOM     17  C   UNL     1     185.801 181.616 180.631  1.00  0.00     0.004 C 
ENDBRANCH  15  16
ENDBRANCH  14  15
ENDBRANCH  13  14
ENDBRANCH  12  13
ENDBRANCH  11  12
ENDBRANCH  10  11
ENDBRANCH   1  10
TORSDOF 13
ENDMDL
MODEL 8
REMARK VINA RESULT:    -4.248      0.964      1.639
REMARK INTER + INTRA:          -9.912
REMARK INTER:                  -7.706
REMARK INTRA:                  -2.206
REMARK UNBOUND:                -2.435
REMARK SMILES CCCCCCCCCCCCCCC(=O)[O-]
REMARK SMILES IDX 9 1 10 2 11 3 12 4 13 5 14 6 15 7 16 8 17 9 8 10 7 11 6 12
REMARK SMILES IDX 5 13 4 14 3 15 2 16 1 17
REMARK H PARENT
REMARK Flexibility Score: inf
ROOT
ATOM      1  C   UNL     1     180.752 180.064 180.633  1.00  0.00     0.000 C 
ENDROOT
BRANCH   1   2
ATOM      2  C   UNL     1     182.208 179.854 181.089  1.00  0.00     0.000 C 
BRANCH   2   3
ATOM      3  C   UNL     1     182.485 180.193 182.565  1.00  0.00     0.000 C 
BRANCH   3   4
ATOM      4  C   UNL     1     183.961 180.522 182.838  1.00  0.00     0.000 C 
BRANCH   4   5
ATOM      5  C   UNL     1     184.734 180.896 181.559  1.00  0.00     0.006 C 
BRANCH   5   6
ATOM      6  C   UNL     1     186.149 181.443 181.809  1.00  0.00     0.053 C 
BRANCH   6   7
ATOM      7  C   UNL     1     186.189 182.940 181.753  1.00  0.00     0.041 C 
ATOM      8  O   UNL     1     185.183 183.614 182.097  1.00  0.00    -0.550 OA
ATOM      9  O   UNL     1     187.348 183.590 181.351  1.00  0.00    -0.550 OA
ENDBRANCH   6   7
ENDBRANCH   5   6
ENDBRANCH   4   5
ENDBRANCH   3   4
ENDBRANCH   2   3
ENDBRANCH   1   2
BRANCH   1  10
ATOM     10  C   UNL     1     179.787 180.308 181.807  1.00  0.00     0.000 C 
BRANCH  10  11
ATOM     11  C   UNL     1     178.747 181.398 181.503  1.00  0.00    -0.000 C 
BRANCH  11  12
ATOM     12  C   UNL     1     179.394 182.761 181.199  1.00  0.00    -0.000 C 
BRANCH  12  13
ATOM     13  C   UNL     1     180.299 183.252 182.340  1.00  0.00    -0.000 C 
BRANCH  13  14
ATOM     14  C   UNL     1     181.637 183.815 181.837  1.00  0.00    -0.000 C 
BRANCH  14  15
ATOM     15  C   UNL     1     181.642 183.932 180.307  1.00  0.00    -0.000 C 
BRANCH  15  16
ATOM     16  C   UNL     1     182.802 183.136 179.698  1.00  0.00    -0.003 C 
ATOM     17  C   UNL     1     182.371 182.427 178.418  1.00  0.00     0.004 C 
ENDBRANCH  15  16
ENDBRANCH  14  15
ENDBRANCH  13  14
ENDBRANCH  12  13
ENDBRANCH  11  12
ENDBRANCH  10  11
ENDBRANCH   1  10
TORSDOF 13
ENDMDL
MODEL 9
REMARK VINA RESULT:    -4.246      0.991      3.559
REMARK INTER + INTRA:          -9.908
REMARK INTER:                  -7.570
REMARK INTRA:                  -2.339
REMARK UNBOUND:                -2.435
REMARK SMILES CCCCCCCCCCCCCCC(=O)[O-]
REMARK SMILES IDX 9 1 10 2 11 3 12 4 13 5 14 6 15 7 16 8 17 9 8 10 7 11 6 12
REMARK SMILES IDX 5 13 4 14 3 15 2 16 1 17
REMARK H PARENT
REMARK Flexibility Score: inf
ROOT
ATOM      1  C   UNL     1     181.475 184.119 181.003  1.00  0.00     0.000 C 
ENDROOT
BRANCH   1   2
ATOM      2  C   UNL     1     181.422 183.648 182.468  1.00  0.00     0.000 C 
BRANCH   2   3
ATOM      3  C   UNL     1     182.675 182.899 182.959  1.00  0.00     0.000 C 
BRANCH   3   4
ATOM      4  C   UNL     1     182.347 181.548 183.615  1.00  0.00     0.000 C 
BRANCH   4   5
ATOM      5  C   UNL     1     183.505 180.538 183.509  1.00  0.00     0.006 C 
BRANCH   5   6
ATOM      6  C   UNL     1     184.219 180.532 182.148  1.00  0.00     0.053 C 
BRANCH   6   7
ATOM      7  C   UNL     1     185.619 181.056 182.247  1.00  0.00     0.041 C 
ATOM      8  O   UNL     1     186.424 180.560 183.078  1.00  0.00    -0.550 OA
ATOM      9  O   UNL     1     186.043 182.071 181.399  1.00  0.00    -0.550 OA
ENDBRANCH   6   7
ENDBRANCH   5   6
ENDBRANCH   4   5
ENDBRANCH   3   4
ENDBRANCH   2   3
ENDBRANCH   1   2
BRANCH   1  10
ATOM     10  C   UNL     1     182.703 183.580 180.246  1.00  0.00     0.000 C 
BRANCH  10  11
ATOM     11  C   UNL     1     182.320 182.687 179.056  1.00  0.00    -0.000 C 
BRANCH  11  12
ATOM     12  C   UNL     1     182.115 181.217 179.464  1.00  0.00    -0.000 C 
BRANCH  12  13
ATOM     13  C   UNL     1     180.636 180.874 179.710  1.00  0.00    -0.000 C 
BRANCH  13  14
ATOM     14  C   UNL     1     180.412 180.132 181.036  1.00  0.00    -0.000 C 
BRANCH  14  15
ATOM     15  C   UNL     1     179.239 180.739 181.814  1.00  0.00    -0.000 C 
BRANCH  15  16
ATOM     16  C   UNL     1     178.551 181.842 181.000  1.00  0.00    -0.003 C 
ATOM     17  C   UNL     1     177.803 182.812 181.910  1.00  0.00     0.004 C 
ENDBRANCH  15  16
ENDBRANCH  14  15
ENDBRANCH  13  14
ENDBRANCH  12  13
ENDBRANCH  11  12
ENDBRANCH  10  11
ENDBRANCH   1  10
TORSDOF 13
ENDMDL
