MODEL 1
REMARK VINA RESULT:    -5.268      0.000      0.000
REMARK INTER + INTRA:          -7.372
REMARK INTER:                  -7.270
REMARK INTRA:                  -0.102
REMARK UNBOUND:                -0.102
REMARK SMILES OC[C@@H](O)C(O)[C@H](O)CO
REMARK SMILES IDX 5 1 7 2 9 3 10 4 8 6 3 8 2 9 1 10 4 12 6 14
REMARK H PARENT 10 5 8 7 1 11 4 13 6 15
REMARK Flexibility Score: inf
ROOT
ATOM      1  C   UNL     1      27.551   7.458  19.557  1.00  0.00     0.176 C 
ENDROOT
BRANCH   1   2
ATOM      2  C   UNL     1      26.379   6.646  20.184  1.00  0.00     0.171 C 
BRANCH   2   3
ATOM      3  C   UNL     1      25.216   6.431  19.197  1.00  0.00     0.190 C 
BRANCH   3   4
ATOM      4  O   UNL     1      23.985   6.703  19.814  1.00  0.00    -0.394 OA
ATOM      5  H   UNL     1      23.282   6.599  19.121  1.00  0.00     0.210 HD
ENDBRANCH   3   4
ENDBRANCH   2   3
BRANCH   2   6
ATOM      6  O   UNL     1      26.820   5.408  20.684  1.00  0.00    -0.388 OA
ATOM      7  H   UNL     1      27.449   5.587  21.431  1.00  0.00     0.211 HD
ENDBRANCH   2   6
ENDBRANCH   1   2
BRANCH   1   8
ATOM      8  C   UNL     1      27.700   8.879  20.165  1.00  0.00     0.171 C 
BRANCH   8   9
ATOM      9  C   UNL     1      27.310   8.969  21.654  1.00  0.00     0.190 C 
BRANCH   9  10
ATOM     10  O   UNL     1      27.684  10.213  22.182  1.00  0.00    -0.394 OA
ATOM     11  H   UNL     1      26.880  10.794  22.148  1.00  0.00     0.210 HD
ENDBRANCH   9  10
ENDBRANCH   8   9
BRANCH   8  12
ATOM     12  O   UNL     1      29.014   9.343  19.973  1.00  0.00    -0.388 OA
ATOM     13  H   UNL     1      29.624   8.732  20.465  1.00  0.00     0.211 HD
ENDBRANCH   8  12
ENDBRANCH   1   8
BRANCH   1  14
ATOM     14  O   UNL     1      28.764   6.755  19.672  1.00  0.00    -0.388 OA
ATOM     15  H   UNL     1      28.821   6.140  18.896  1.00  0.00     0.211 HD
ENDBRANCH   1  14
TORSDOF 9
ENDMDL
MODEL 2
REMARK VINA RESULT:    -4.695      1.324      2.055
REMARK INTER + INTRA:          -6.581
REMARK INTER:                  -6.347
REMARK INTRA:                  -0.234
REMARK UNBOUND:                -0.102
REMARK SMILES OC[C@@H](O)C(O)[C@H](O)CO
REMARK SMILES IDX 5 1 7 2 9 3 10 4 8 6 3 8 2 9 1 10 4 12 6 14
REMARK H PARENT 10 5 8 7 1 11 4 13 6 15
REMARK Flexibility Score: inf
ROOT
ATOM      1  C   UNL     1      27.033   6.937  20.219  1.00  0.00     0.176 C 
ENDROOT
BRANCH   1   2
ATOM      2  C   UNL     1      26.121   6.412  19.071  1.00  0.00     0.171 C 
BRANCH   2   3
ATOM      3  C   UNL     1      26.868   5.468  18.109  1.00  0.00     0.190 C 
BRANCH   3   4
ATOM      4  O   UNL     1      27.903   4.796  18.776  1.00  0.00    -0.394 OA
ATOM      5  H   UNL     1      28.222   4.077  18.170  1.00  0.00     0.210 HD
ENDBRANCH   3   4
ENDBRANCH   2   3
BRANCH   2   6
ATOM      6  O   UNL     1      24.975   5.773  19.576  1.00  0.00    -0.388 OA
ATOM      7  H   UNL     1      24.511   5.332  18.817  1.00  0.00     0.211 HD
ENDBRANCH   2   6
ENDBRANCH   1   2
BRANCH   1   8
ATOM      8  C   UNL     1      26.870   8.460  20.476  1.00  0.00     0.171 C 
BRANCH   8   9
ATOM      9  C   UNL     1      27.159   8.884  21.931  1.00  0.00     0.190 C 
BRANCH   9  10
ATOM     10  O   UNL     1      27.749  10.157  21.959  1.00  0.00    -0.394 OA
ATOM     11  H   UNL     1      28.213  10.278  21.091  1.00  0.00     0.210 HD
ENDBRANCH   9  10
ENDBRANCH   8   9
BRANCH   8  12
ATOM     12  O   UNL     1      27.683   9.183  19.584  1.00  0.00    -0.388 OA
ATOM     13  H   UNL     1      27.948   8.567  18.851  1.00  0.00     0.211 HD
ENDBRANCH   8  12
ENDBRANCH   1   8
BRANCH   1  14
ATOM     14  O   UNL     1      26.805   6.220  21.408  1.00  0.00    -0.388 OA
ATOM     15  H   UNL     1      26.873   5.256  21.186  1.00  0.00     0.211 HD
ENDBRANCH   1  14
TORSDOF 9
ENDMDL
MODEL 3
REMARK VINA RESULT:    -4.484      1.257      4.098
REMARK INTER + INTRA:          -6.290
REMARK INTER:                  -6.024
REMARK INTRA:                  -0.266
REMARK UNBOUND:                -0.102
REMARK SMILES OC[C@@H](O)C(O)[C@H](O)CO
REMARK SMILES IDX 5 1 7 2 9 3 10 4 8 6 3 8 2 9 1 10 4 12 6 14
REMARK H PARENT 10 5 8 7 1 11 4 13 6 15
REMARK Flexibility Score: inf
ROOT
ATOM      1  C   UNL     1      27.750   7.534  20.157  1.00  0.00     0.176 C 
ENDROOT
BRANCH   1   2
ATOM      2  C   UNL     1      27.607   9.075  19.989  1.00  0.00     0.171 C 
BRANCH   2   3
ATOM      3  C   UNL     1      28.018   9.849  21.256  1.00  0.00     0.190 C 
BRANCH   3   4
ATOM      4  O   UNL     1      27.319   9.374  22.376  1.00  0.00    -0.394 OA
ATOM      5  H   UNL     1      27.961   9.350  23.132  1.00  0.00     0.210 HD
ENDBRANCH   3   4
ENDBRANCH   2   3
BRANCH   2   6
ATOM      6  O   UNL     1      28.339   9.542  18.883  1.00  0.00    -0.388 OA
ATOM      7  H   UNL     1      27.846  10.311  18.493  1.00  0.00     0.211 HD
ENDBRANCH   2   6
ENDBRANCH   1   2
BRANCH   1   8
ATOM      8  C   UNL     1      26.627   6.737  19.439  1.00  0.00     0.171 C 
BRANCH   8   9
ATOM      9  C   UNL     1      27.144   5.745  18.377  1.00  0.00     0.190 C 
BRANCH   9  10
ATOM     10  O   UNL     1      27.914   4.741  18.982  1.00  0.00    -0.394 OA
ATOM     11  H   UNL     1      28.653   4.527  18.355  1.00  0.00     0.210 HD
ENDBRANCH   9  10
ENDBRANCH   8   9
BRANCH   8  12
ATOM     12  O   UNL     1      25.835   6.069  20.390  1.00  0.00    -0.388 OA
ATOM     13  H   UNL     1      25.779   5.115  20.119  1.00  0.00     0.211 HD
ENDBRANCH   8  12
ENDBRANCH   1   8
BRANCH   1  14
ATOM     14  O   UNL     1      29.011   7.097  19.713  1.00  0.00    -0.388 OA
ATOM     15  H   UNL     1      28.958   7.003  18.727  1.00  0.00     0.211 HD
ENDBRANCH   1  14
TORSDOF 9
ENDMDL
MODEL 4
REMARK VINA RESULT:    -4.476      1.396      4.042
REMARK INTER + INTRA:          -6.279
REMARK INTER:                  -5.922
REMARK INTRA:                  -0.357
REMARK UNBOUND:                -0.102
REMARK SMILES OC[C@@H](O)C(O)[C@H](O)CO
REMARK SMILES IDX 5 1 7 2 9 3 10 4 8 6 3 8 2 9 1 10 4 12 6 14
REMARK H PARENT 10 5 8 7 1 11 4 13 6 15
REMARK Flexibility Score: inf
ROOT
ATOM      1  C   UNL     1      26.946   7.834  20.530  1.00  0.00     0.176 C 
ENDROOT
BRANCH   1   2
ATOM      2  C   UNL     1      28.178   8.767  20.714  1.00  0.00     0.171 C 
BRANCH   2   3
ATOM      3  C   UNL     1      28.833   9.152  19.373  1.00  0.00     0.190 C 
BRANCH   3   4
ATOM      4  O   UNL     1      28.472  10.456  19.000  1.00  0.00    -0.394 OA
ATOM      5  H   UNL     1      28.937  10.654  18.146  1.00  0.00     0.210 HD
ENDBRANCH   3   4
ENDBRANCH   2   3
BRANCH   2   6
ATOM      6  O   UNL     1      27.842   9.928  21.433  1.00  0.00    -0.388 OA
ATOM      7  H   UNL     1      27.421   9.646  22.287  1.00  0.00     0.211 HD
ENDBRANCH   2   6
ENDBRANCH   1   2
BRANCH   1   8
ATOM      8  C   UNL     1      26.894   7.164  19.130  1.00  0.00     0.171 C 
BRANCH   8   9
ATOM      9  C   UNL     1      27.391   5.703  19.114  1.00  0.00     0.190 C 
BRANCH   9  10
ATOM     10  O   UNL     1      28.768   5.654  19.381  1.00  0.00    -0.394 OA
ATOM     11  H   UNL     1      29.057   6.584  19.571  1.00  0.00     0.210 HD
ENDBRANCH   9  10
ENDBRANCH   8   9
BRANCH   8  12
ATOM     12  O   UNL     1      25.588   7.242  18.614  1.00  0.00    -0.388 OA
ATOM     13  H   UNL     1      24.967   6.908  19.313  1.00  0.00     0.211 HD
ENDBRANCH   8  12
ENDBRANCH   1   8
BRANCH   1  14
ATOM     14  O   UNL     1      26.908   6.851  21.536  1.00  0.00    -0.388 OA
ATOM     15  H   UNL     1      27.848   6.619  21.754  1.00  0.00     0.211 HD
ENDBRANCH   1  14
TORSDOF 9
ENDMDL
MODEL 5
REMARK VINA RESULT:    -4.112     13.326     14.166
REMARK INTER + INTRA:          -5.777
REMARK INTER:                  -5.221
REMARK INTRA:                  -0.556
REMARK UNBOUND:                -0.102
REMARK SMILES OC[C@@H](O)C(O)[C@H](O)CO
REMARK SMILES IDX 5 1 7 2 9 3 10 4 8 6 3 8 2 9 1 10 4 12 6 14
REMARK H PARENT 10 5 8 7 1 11 4 13 6 15
REMARK Flexibility Score: inf
ROOT
ATOM      1  C   UNL     1      15.242  14.956  25.546  1.00  0.00     0.176 C 
ENDROOT
BRANCH   1   2
ATOM      2  C   UNL     1      14.924  13.709  24.671  1.00  0.00     0.171 C 
BRANCH   2   3
ATOM      3  C   UNL     1      13.626  13.873  23.857  1.00  0.00     0.190 C 
BRANCH   3   4
ATOM      4  O   UNL     1      13.776  14.869  22.879  1.00  0.00    -0.394 OA
ATOM      5  H   UNL     1      14.315  14.476  22.144  1.00  0.00     0.210 HD
ENDBRANCH   3   4
ENDBRANCH   2   3
BRANCH   2   6
ATOM      6  O   UNL     1      15.992  13.396  23.812  1.00  0.00    -0.388 OA
ATOM      7  H   UNL     1      16.625  14.162  23.819  1.00  0.00     0.211 HD
ENDBRANCH   2   6
ENDBRANCH   1   2
BRANCH   1   8
ATOM      8  C   UNL     1      16.539  14.796  26.385  1.00  0.00     0.171 C 
BRANCH   8   9
ATOM      9  C   UNL     1      16.611  13.476  27.181  1.00  0.00     0.190 C 
BRANCH   9  10
ATOM     10  O   UNL     1      17.341  12.515  26.465  1.00  0.00    -0.394 OA
ATOM     11  H   UNL     1      18.199  12.386  26.948  1.00  0.00     0.210 HD
ENDBRANCH   9  10
ENDBRANCH   8   9
BRANCH   8  12
ATOM     12  O   UNL     1      17.664  14.928  25.552  1.00  0.00    -0.388 OA
ATOM     13  H   UNL     1      18.450  15.106  26.133  1.00  0.00     0.211 HD
ENDBRANCH   8  12
ENDBRANCH   1   8
BRANCH   1  14
ATOM     14  O   UNL     1      15.322  16.116  24.754  1.00  0.00    -0.388 OA
ATOM     15  H   UNL     1      15.311  16.893  25.371  1.00  0.00     0.211 HD
ENDBRANCH   1  14
TORSDOF 9
ENDMDL
MODEL 6
REMARK VINA RESULT:    -4.098     10.193     11.290
REMARK INTER + INTRA:          -5.757
REMARK INTER:                  -5.477
REMARK INTRA:                  -0.280
REMARK UNBOUND:                -0.102
REMARK SMILES OC[C@@H](O)C(O)[C@H](O)CO
REMARK SMILES IDX 5 1 7 2 9 3 10 4 8 6 3 8 2 9 1 10 4 12 6 14
REMARK H PARENT 10 5 8 7 1 11 4 13 6 15
REMARK Flexibility Score: inf
ROOT
ATOM      1  C   UNL     1      17.721   0.928  20.515  1.00  0.00     0.176 C 
ENDROOT
BRANCH   1   2
ATOM      2  C   UNL     1      17.162   2.026  19.564  1.00  0.00     0.171 C 
BRANCH   2   3
ATOM      3  C   UNL     1      17.423   1.710  18.079  1.00  0.00     0.190 C 
BRANCH   3   4
ATOM      4  O   UNL     1      18.750   1.297  17.885  1.00  0.00    -0.394 OA
ATOM      5  H   UNL     1      18.725   0.504  17.288  1.00  0.00     0.210 HD
ENDBRANCH   3   4
ENDBRANCH   2   3
BRANCH   2   6
ATOM      6  O   UNL     1      15.788   2.239  19.775  1.00  0.00    -0.388 OA
ATOM      7  H   UNL     1      15.507   3.005  19.208  1.00  0.00     0.211 HD
ENDBRANCH   2   6
ENDBRANCH   1   2
BRANCH   1   8
ATOM      8  C   UNL     1      18.946   1.404  21.341  1.00  0.00     0.171 C 
BRANCH   8   9
ATOM      9  C   UNL     1      18.964   0.885  22.794  1.00  0.00     0.190 C 
BRANCH   9  10
ATOM     10  O   UNL     1      20.282   0.802  23.265  1.00  0.00    -0.394 OA
ATOM     11  H   UNL     1      20.230   0.701  24.251  1.00  0.00     0.210 HD
ENDBRANCH   9  10
ENDBRANCH   8   9
BRANCH   8  12
ATOM     12  O   UNL     1      20.135   1.047  20.678  1.00  0.00    -0.388 OA
ATOM     13  H   UNL     1      20.066   1.370  19.741  1.00  0.00     0.211 HD
ENDBRANCH   8  12
ENDBRANCH   1   8
BRANCH   1  14
ATOM     14  O   UNL     1      16.715   0.452  21.376  1.00  0.00    -0.388 OA
ATOM     15  H   UNL     1      17.152  -0.150  22.033  1.00  0.00     0.211 HD
ENDBRANCH   1  14
TORSDOF 9
ENDMDL
MODEL 7
REMARK VINA RESULT:    -3.961     11.099     13.077
REMARK INTER + INTRA:          -5.568
REMARK INTER:                  -5.080
REMARK INTRA:                  -0.488
REMARK UNBOUND:                -0.102
REMARK SMILES OC[C@@H](O)C(O)[C@H](O)CO
REMARK SMILES IDX 5 1 7 2 9 3 10 4 8 6 3 8 2 9 1 10 4 12 6 14
REMARK H PARENT 10 5 8 7 1 11 4 13 6 15
REMARK Flexibility Score: inf
ROOT
ATOM      1  C   UNL     1      14.719   6.548  18.995  1.00  0.00     0.176 C 
ENDROOT
BRANCH   1   2
ATOM      2  C   UNL     1      13.269   6.889  18.541  1.00  0.00     0.171 C 
BRANCH   2   3
ATOM      3  C   UNL     1      12.258   6.834  19.702  1.00  0.00     0.190 C 
BRANCH   3   4
ATOM      4  O   UNL     1      12.718   7.584  20.796  1.00  0.00    -0.394 OA
ATOM      5  H   UNL     1      13.247   6.970  21.368  1.00  0.00     0.210 HD
ENDBRANCH   3   4
ENDBRANCH   2   3
BRANCH   2   6
ATOM      6  O   UNL     1      13.209   8.145  17.911  1.00  0.00    -0.388 OA
ATOM      7  H   UNL     1      14.139   8.473  17.793  1.00  0.00     0.211 HD
ENDBRANCH   2   6
ENDBRANCH   1   2
BRANCH   1   8
ATOM      8  C   UNL     1      15.595   5.972  17.850  1.00  0.00     0.171 C 
BRANCH   8   9
ATOM      9  C   UNL     1      16.222   4.599  18.169  1.00  0.00     0.190 C 
BRANCH   9  10
ATOM     10  O   UNL     1      17.576   4.585  17.804  1.00  0.00    -0.394 OA
ATOM     11  H   UNL     1      18.102   4.602  18.646  1.00  0.00     0.210 HD
ENDBRANCH   9  10
ENDBRANCH   8   9
BRANCH   8  12
ATOM     12  O   UNL     1      14.842   5.902  16.663  1.00  0.00    -0.388 OA
ATOM     13  H   UNL     1      15.241   5.193  16.094  1.00  0.00     0.211 HD
ENDBRANCH   8  12
ENDBRANCH   1   8
BRANCH   1  14
ATOM     14  O   UNL     1      15.345   7.675  19.559  1.00  0.00    -0.388 OA
ATOM     15  H   UNL     1      16.324   7.538  19.476  1.00  0.00     0.211 HD
ENDBRANCH   1  14
TORSDOF 9
ENDMDL
MODEL 8
REMARK VINA RESULT:    -3.936     12.377     13.756
REMARK INTER + INTRA:          -5.534
REMARK INTER:                  -5.125
REMARK INTRA:                  -0.409
REMARK UNBOUND:                -0.102
REMARK SMILES OC[C@@H](O)C(O)[C@H](O)CO
REMARK SMILES IDX 5 1 7 2 9 3 10 4 8 6 3 8 2 9 1 10 4 12 6 14
REMARK H PARENT 10 5 8 7 1 11 4 13 6 15
REMARK Flexibility Score: inf
ROOT
ATOM      1  C   UNL     1      16.691  13.474  24.916  1.00  0.00     0.176 C 
ENDROOT
BRANCH   1   2
ATOM      2  C   UNL     1      16.572  14.933  25.445  1.00  0.00     0.171 C 
BRANCH   2   3
ATOM      3  C   UNL     1      15.116  15.438  25.461  1.00  0.00     0.190 C 
BRANCH   3   4
ATOM      4  O   UNL     1      14.857  16.239  24.339  1.00  0.00    -0.394 OA
ATOM      5  H   UNL     1      15.637  16.843  24.225  1.00  0.00     0.210 HD
ENDBRANCH   3   4
ENDBRANCH   2   3
BRANCH   2   6
ATOM      6  O   UNL     1      17.139  15.063  26.725  1.00  0.00    -0.388 OA
ATOM      7  H   UNL     1      17.536  15.971  26.792  1.00  0.00     0.211 HD
ENDBRANCH   2   6
ENDBRANCH   1   2
BRANCH   1   8
ATOM      8  C   UNL     1      16.211  12.413  25.943  1.00  0.00     0.171 C 
BRANCH   8   9
ATOM      9  C   UNL     1      16.054  10.995  25.354  1.00  0.00     0.190 C 
BRANCH   9  10
ATOM     10  O   UNL     1      16.940  10.106  25.980  1.00  0.00    -0.394 OA
ATOM     11  H   UNL     1      16.574   9.925  26.885  1.00  0.00     0.210 HD
ENDBRANCH   9  10
ENDBRANCH   8   9
BRANCH   8  12
ATOM     12  O   UNL     1      17.084  12.390  27.046  1.00  0.00    -0.388 OA
ATOM     13  H   UNL     1      16.582  12.725  27.835  1.00  0.00     0.211 HD
ENDBRANCH   8  12
ENDBRANCH   1   8
BRANCH   1  14
ATOM     14  O   UNL     1      15.992  13.322  23.705  1.00  0.00    -0.388 OA
ATOM     15  H   UNL     1      16.136  14.150  23.177  1.00  0.00     0.211 HD
ENDBRANCH   1  14
TORSDOF 9
ENDMDL
MODEL 9
REMARK VINA RESULT:    -3.907     12.869     13.894
REMARK INTER + INTRA:          -5.493
REMARK INTER:                  -4.533
REMARK INTRA:                  -0.960
REMARK UNBOUND:                -0.102
REMARK SMILES OC[C@@H](O)C(O)[C@H](O)CO
REMARK SMILES IDX 5 1 7 2 9 3 10 4 8 6 3 8 2 9 1 10 4 12 6 14
REMARK H PARENT 10 5 8 7 1 11 4 13 6 15
REMARK Flexibility Score: inf
ROOT
ATOM      1  C   UNL     1      15.167  13.496  24.528  1.00  0.00     0.176 C 
ENDROOT
BRANCH   1   2
ATOM      2  C   UNL     1      14.691  12.341  25.456  1.00  0.00     0.171 C 
BRANCH   2   3
ATOM      3  C   UNL     1      15.695  11.173  25.509  1.00  0.00     0.190 C 
BRANCH   3   4
ATOM      4  O   UNL     1      16.835  11.531  26.244  1.00  0.00    -0.394 OA
ATOM      5  H   UNL     1      17.340  12.188  25.698  1.00  0.00     0.210 HD
ENDBRANCH   3   4
ENDBRANCH   2   3
BRANCH   2   6
ATOM      6  O   UNL     1      14.425  12.803  26.758  1.00  0.00    -0.388 OA
ATOM      7  H   UNL     1      15.236  13.272  27.087  1.00  0.00     0.211 HD
ENDBRANCH   2   6
ENDBRANCH   1   2
BRANCH   1   8
ATOM      8  C   UNL     1      15.342  14.845  25.277  1.00  0.00     0.171 C 
BRANCH   8   9
ATOM      9  C   UNL     1      16.793  15.137  25.713  1.00  0.00     0.190 C 
BRANCH   9  10
ATOM     10  O   UNL     1      17.146  14.327  26.803  1.00  0.00    -0.394 OA
ATOM     11  H   UNL     1      16.973  14.858  27.624  1.00  0.00     0.210 HD
ENDBRANCH   9  10
ENDBRANCH   8   9
BRANCH   8  12
ATOM     12  O   UNL     1      14.848  15.897  24.483  1.00  0.00    -0.388 OA
ATOM     13  H   UNL     1      14.428  16.561  25.091  1.00  0.00     0.211 HD
ENDBRANCH   8  12
ENDBRANCH   1   8
BRANCH   1  14
ATOM     14  O   UNL     1      16.363  13.151  23.872  1.00  0.00    -0.388 OA
ATOM     15  H   UNL     1      17.042  13.828  24.127  1.00  0.00     0.211 HD
ENDBRANCH   1  14
TORSDOF 9
ENDMDL
