MODEL 1
REMARK VINA RESULT:    -5.111      0.000      0.000
REMARK INTER + INTRA:          -9.492
REMARK INTER:                  -7.800
REMARK INTRA:                  -1.691
REMARK UNBOUND:                -1.691
REMARK SMILES OC[C@@H]1O[C@H](O[C@]2(CO)O[C@H](CO)[C@H](O)[C@H]2O)[C@@H](O)[C@@H](O)[C@@H]1O
REMARK SMILES IDX 6 1 5 2 3 3 22 4 4 5 20 6 18 7 2 8 1 9 23 11 21 13 19 15
REMARK SMILES IDX 7 17 16 18 10 19 14 20 11 21 8 22 9 23 17 25 15 27 12 29
REMARK SMILES IDX 13 30
REMARK H PARENT 1 10 23 12 21 14 19 16 9 24 17 26 15 28 13 31
REMARK Flexibility Score: inf
ROOT
ATOM      1  O   UNL     1      96.773  84.665  80.320  1.00  0.00    -0.313 OA
ENDROOT
BRANCH   1   2
ATOM      2  C   UNL     1      97.339  84.995  79.058  1.00  0.00     0.285 C 
ATOM      3  C   UNL     1      95.490  84.269  77.715  1.00  0.00     0.178 C 
ATOM      4  C   UNL     1      95.110  85.730  77.365  1.00  0.00     0.177 C 
ATOM      5  O   UNL     1      96.870  84.118  78.039  1.00  0.00    -0.341 OA
ATOM      6  C   UNL     1      95.575  86.698  78.458  1.00  0.00     0.179 C 
ATOM      7  C   UNL     1      97.070  86.474  78.735  1.00  0.00     0.202 C 
BRANCH   3   8
ATOM      8  C   UNL     1      94.571  83.598  78.762  1.00  0.00     0.191 C 
BRANCH   8   9
ATOM      9  O   UNL     1      95.061  82.335  79.125  1.00  0.00    -0.394 OA
ATOM     10  H   UNL     1      94.274  81.785  79.379  1.00  0.00     0.210 HD
ENDBRANCH   8   9
ENDBRANCH   3   8
BRANCH   4  11
ATOM     11  O   UNL     1      93.723  85.841  77.174  1.00  0.00    -0.387 OA
ATOM     12  H   UNL     1      93.431  85.031  76.679  1.00  0.00     0.211 HD
ENDBRANCH   4  11
BRANCH   6  13
ATOM     13  O   UNL     1      95.350  88.021  78.044  1.00  0.00    -0.387 OA
ATOM     14  H   UNL     1      94.704  88.417  78.687  1.00  0.00     0.211 HD
ENDBRANCH   6  13
BRANCH   7  15
ATOM     15  O   UNL     1      97.839  86.849  77.618  1.00  0.00    -0.385 OA
ATOM     16  H   UNL     1      98.776  86.585  77.809  1.00  0.00     0.211 HD
ENDBRANCH   7  15
ENDBRANCH   1   2
BRANCH   1  17
ATOM     17  C   UNL     1      97.646  83.937  81.184  1.00  0.00     0.224 C 
ATOM     18  C   UNL     1      98.181  82.734  80.392  1.00  0.00     0.208 C 
ATOM     19  O   UNL     1      98.776  84.706  81.573  1.00  0.00    -0.337 OA
ATOM     20  C   UNL     1      99.528  82.492  81.016  1.00  0.00     0.180 C 
ATOM     21  C   UNL     1      99.930  83.892  81.498  1.00  0.00     0.179 C 
BRANCH  17  22
ATOM     22  C   UNL     1      96.868  83.476  82.448  1.00  0.00     0.225 C 
BRANCH  22  23
ATOM     23  O   UNL     1      95.582  83.020  82.132  1.00  0.00    -0.391 OA
ATOM     24  H   UNL     1      95.692  82.281  81.477  1.00  0.00     0.210 HD
ENDBRANCH  22  23
ENDBRANCH  17  22
BRANCH  18  25
ATOM     25  O   UNL     1      97.366  81.594  80.491  1.00  0.00    -0.385 OA
ATOM     26  H   UNL     1      96.683  81.800  81.183  1.00  0.00     0.211 HD
ENDBRANCH  18  25
BRANCH  20  27
ATOM     27  O   UNL     1     100.434  81.949  80.088  1.00  0.00    -0.387 OA
ATOM     28  H   UNL     1     100.499  80.981  80.293  1.00  0.00     0.211 HD
ENDBRANCH  20  27
BRANCH  21  29
ATOM     29  C   UNL     1     100.968  84.582  80.595  1.00  0.00     0.191 C 
BRANCH  29  30
ATOM     30  O   UNL     1     102.248  84.062  80.832  1.00  0.00    -0.394 OA
ATOM     31  H   UNL     1     102.751  84.759  81.330  1.00  0.00     0.210 HD
ENDBRANCH  29  30
ENDBRANCH  21  29
ENDBRANCH   1  17
TORSDOF 13
ENDMDL
MODEL 2
REMARK VINA RESULT:    -4.786      2.389      4.295
REMARK INTER + INTRA:          -8.995
REMARK INTER:                  -7.725
REMARK INTRA:                  -1.270
REMARK UNBOUND:                -1.691
REMARK SMILES OC[C@@H]1O[C@H](O[C@]2(CO)O[C@H](CO)[C@H](O)[C@H]2O)[C@@H](O)[C@@H](O)[C@@H]1O
REMARK SMILES IDX 6 1 5 2 3 3 22 4 4 5 20 6 18 7 2 8 1 9 23 11 21 13 19 15
REMARK SMILES IDX 7 17 16 18 10 19 14 20 11 21 8 22 9 23 17 25 15 27 12 29
REMARK SMILES IDX 13 30
REMARK H PARENT 1 10 23 12 21 14 19 16 9 24 17 26 15 28 13 31
REMARK Flexibility Score: inf
ROOT
ATOM      1  O   UNL     1      99.344  84.538  81.667  1.00  0.00    -0.313 OA
ENDROOT
BRANCH   1   2
ATOM      2  C   UNL     1      98.270  85.051  80.887  1.00  0.00     0.285 C 
ATOM      3  C   UNL     1      97.919  83.090  79.553  1.00  0.00     0.178 C 
ATOM      4  C   UNL     1      96.585  82.779  80.277  1.00  0.00     0.177 C 
ATOM      5  O   UNL     1      98.258  84.474  79.585  1.00  0.00    -0.341 OA
ATOM      6  C   UNL     1      96.577  83.362  81.694  1.00  0.00     0.179 C 
ATOM      7  C   UNL     1      96.941  84.853  81.635  1.00  0.00     0.202 C 
BRANCH   3   8
ATOM      8  C   UNL     1      99.105  82.193  79.976  1.00  0.00     0.191 C 
BRANCH   8   9
ATOM      9  O   UNL     1      98.913  81.681  81.268  1.00  0.00    -0.394 OA
ATOM     10  H   UNL     1      99.557  82.150  81.861  1.00  0.00     0.210 HD
ENDBRANCH   8   9
ENDBRANCH   3   8
BRANCH   4  11
ATOM     11  O   UNL     1      96.364  81.393  80.319  1.00  0.00    -0.387 OA
ATOM     12  H   UNL     1      97.256  80.955  80.320  1.00  0.00     0.211 HD
ENDBRANCH   4  11
BRANCH   6  13
ATOM     13  O   UNL     1      95.306  83.193  82.267  1.00  0.00    -0.387 OA
ATOM     14  H   UNL     1      95.152  82.214  82.339  1.00  0.00     0.211 HD
ENDBRANCH   6  13
BRANCH   7  15
ATOM     15  O   UNL     1      95.931  85.580  80.978  1.00  0.00    -0.385 OA
ATOM     16  H   UNL     1      96.305  85.873  80.107  1.00  0.00     0.211 HD
ENDBRANCH   7  15
ENDBRANCH   1   2
BRANCH   1  17
ATOM     17  C   UNL     1     100.533  85.326  81.623  1.00  0.00     0.224 C 
ATOM     18  C   UNL     1     101.485  84.669  80.611  1.00  0.00     0.208 C 
ATOM     19  O   UNL     1     100.284  86.643  81.153  1.00  0.00    -0.337 OA
ATOM     20  C   UNL     1     102.283  85.833  80.093  1.00  0.00     0.180 C 
ATOM     21  C   UNL     1     101.302  87.004  80.240  1.00  0.00     0.179 C 
BRANCH  17  22
ATOM     22  C   UNL     1     101.174  85.389  83.037  1.00  0.00     0.225 C 
BRANCH  22  23
ATOM     23  O   UNL     1     100.970  84.202  83.755  1.00  0.00    -0.391 OA
ATOM     24  H   UNL     1     100.351  83.644  83.216  1.00  0.00     0.210 HD
ENDBRANCH  22  23
ENDBRANCH  17  22
BRANCH  18  25
ATOM     25  O   UNL     1     102.322  83.697  81.183  1.00  0.00    -0.385 OA
ATOM     26  H   UNL     1     101.914  82.817  80.969  1.00  0.00     0.211 HD
ENDBRANCH  18  25
BRANCH  20  27
ATOM     27  O   UNL     1     102.695  85.625  78.766  1.00  0.00    -0.387 OA
ATOM     28  H   UNL     1     102.111  86.190  78.197  1.00  0.00     0.211 HD
ENDBRANCH  20  27
BRANCH  21  29
ATOM     29  C   UNL     1     100.650  87.435  78.913  1.00  0.00     0.191 C 
BRANCH  29  30
ATOM     30  O   UNL     1     101.558  88.167  78.136  1.00  0.00    -0.394 OA
ATOM     31  H   UNL     1     102.400  88.222  78.659  1.00  0.00     0.210 HD
ENDBRANCH  29  30
ENDBRANCH  21  29
ENDBRANCH   1  17
TORSDOF 13
ENDMDL
MODEL 3
REMARK VINA RESULT:    -4.785      2.113      5.762
REMARK INTER + INTRA:          -8.994
REMARK INTER:                  -7.535
REMARK INTRA:                  -1.459
REMARK UNBOUND:                -1.691
REMARK SMILES OC[C@@H]1O[C@H](O[C@]2(CO)O[C@H](CO)[C@H](O)[C@H]2O)[C@@H](O)[C@@H](O)[C@@H]1O
REMARK SMILES IDX 6 1 5 2 3 3 22 4 4 5 20 6 18 7 2 8 1 9 23 11 21 13 19 15
REMARK SMILES IDX 7 17 16 18 10 19 14 20 11 21 8 22 9 23 17 25 15 27 12 29
REMARK SMILES IDX 13 30
REMARK H PARENT 1 10 23 12 21 14 19 16 9 24 17 26 15 28 13 31
REMARK Flexibility Score: inf
ROOT
ATOM      1  O   UNL     1      98.306  82.833  81.555  1.00  0.00    -0.313 OA
ENDROOT
BRANCH   1   2
ATOM      2  C   UNL     1      99.024  83.949  82.068  1.00  0.00     0.285 C 
ATOM      3  C   UNL     1      97.663  84.300  84.010  1.00  0.00     0.178 C 
ATOM      4  C   UNL     1      98.785  83.785  84.947  1.00  0.00     0.177 C 
ATOM      5  O   UNL     1      98.164  84.829  82.785  1.00  0.00    -0.341 OA
ATOM      6  C   UNL     1      99.712  82.810  84.213  1.00  0.00     0.179 C 
ATOM      7  C   UNL     1     100.212  83.463  82.914  1.00  0.00     0.202 C 
BRANCH   3   8
ATOM      8  C   UNL     1      96.505  83.302  83.781  1.00  0.00     0.191 C 
BRANCH   8   9
ATOM      9  O   UNL     1      95.568  83.818  82.875  1.00  0.00    -0.394 OA
ATOM     10  H   UNL     1      95.366  83.092  82.227  1.00  0.00     0.210 HD
ENDBRANCH   8   9
ENDBRANCH   3   8
BRANCH   4  11
ATOM     11  O   UNL     1      98.229  83.168  86.080  1.00  0.00    -0.387 OA
ATOM     12  H   UNL     1      97.542  82.528  85.756  1.00  0.00     0.211 HD
ENDBRANCH   4  11
BRANCH   6  13
ATOM     13  O   UNL     1     100.797  82.478  85.040  1.00  0.00    -0.387 OA
ATOM     14  H   UNL     1     100.555  82.765  85.960  1.00  0.00     0.211 HD
ENDBRANCH   6  13
BRANCH   7  15
ATOM     15  O   UNL     1     101.050  84.555  83.204  1.00  0.00    -0.385 OA
ATOM     16  H   UNL     1     100.514  85.378  83.056  1.00  0.00     0.211 HD
ENDBRANCH   7  15
ENDBRANCH   1   2
BRANCH   1  17
ATOM     17  C   UNL     1      97.994  82.921  80.166  1.00  0.00     0.224 C 
ATOM     18  C   UNL     1      96.520  82.518  79.998  1.00  0.00     0.208 C 
ATOM     19  O   UNL     1      98.113  84.248  79.674  1.00  0.00    -0.337 OA
ATOM     20  C   UNL     1      96.095  83.295  78.783  1.00  0.00     0.180 C 
ATOM     21  C   UNL     1      97.009  84.527  78.835  1.00  0.00     0.179 C 
BRANCH  17  22
ATOM     22  C   UNL     1      98.929  81.979  79.357  1.00  0.00     0.225 C 
BRANCH  22  23
ATOM     23  O   UNL     1     100.101  81.676  80.063  1.00  0.00    -0.391 OA
ATOM     24  H   UNL     1     100.780  81.407  79.390  1.00  0.00     0.210 HD
ENDBRANCH  22  23
ENDBRANCH  17  22
BRANCH  18  25
ATOM     25  O   UNL     1      96.338  81.139  79.805  1.00  0.00    -0.385 OA
ATOM     26  H   UNL     1      95.478  81.036  79.318  1.00  0.00     0.211 HD
ENDBRANCH  18  25
BRANCH  20  27
ATOM     27  O   UNL     1      94.729  83.622  78.833  1.00  0.00    -0.387 OA
ATOM     28  H   UNL     1      94.661  84.585  78.605  1.00  0.00     0.211 HD
ENDBRANCH  20  27
BRANCH  21  29
ATOM     29  C   UNL     1      96.305  85.797  79.344  1.00  0.00     0.191 C 
BRANCH  29  30
ATOM     30  O   UNL     1      96.102  85.724  80.729  1.00  0.00    -0.394 OA
ATOM     31  H   UNL     1      95.656  84.855  80.906  1.00  0.00     0.210 HD
ENDBRANCH  29  30
ENDBRANCH  21  29
ENDBRANCH   1  17
TORSDOF 13
ENDMDL
MODEL 4
REMARK VINA RESULT:    -4.755      2.942      4.834
REMARK INTER + INTRA:          -8.949
REMARK INTER:                  -7.670
REMARK INTRA:                  -1.279
REMARK UNBOUND:                -1.691
REMARK SMILES OC[C@@H]1O[C@H](O[C@]2(CO)O[C@H](CO)[C@H](O)[C@H]2O)[C@@H](O)[C@@H](O)[C@@H]1O
REMARK SMILES IDX 6 1 5 2 3 3 22 4 4 5 20 6 18 7 2 8 1 9 23 11 21 13 19 15
REMARK SMILES IDX 7 17 16 18 10 19 14 20 11 21 8 22 9 23 17 25 15 27 12 29
REMARK SMILES IDX 13 30
REMARK H PARENT 1 10 23 12 21 14 19 16 9 24 17 26 15 28 13 31
REMARK Flexibility Score: inf
ROOT
ATOM      1  O   UNL     1      92.835  85.250  79.170  1.00  0.00    -0.313 OA
ENDROOT
BRANCH   1   2
ATOM      2  C   UNL     1      93.153  84.273  78.186  1.00  0.00     0.285 C 
ATOM      3  C   UNL     1      91.007  83.205  78.135  1.00  0.00     0.178 C 
ATOM      4  C   UNL     1      90.698  83.789  76.733  1.00  0.00     0.177 C 
ATOM      5  O   UNL     1      92.404  83.078  78.387  1.00  0.00    -0.341 OA
ATOM      6  C   UNL     1      91.467  85.093  76.497  1.00  0.00     0.179 C 
ATOM      7  C   UNL     1      92.960  84.863  76.780  1.00  0.00     0.202 C 
BRANCH   3   8
ATOM      8  C   UNL     1      90.269  83.903  79.300  1.00  0.00     0.191 C 
BRANCH   8   9
ATOM      9  O   UNL     1      90.797  83.509  80.538  1.00  0.00    -0.394 OA
ATOM     10  H   UNL     1      91.620  82.986  80.346  1.00  0.00     0.210 HD
ENDBRANCH   8   9
ENDBRANCH   3   8
BRANCH   4  11
ATOM     11  O   UNL     1      89.318  84.004  76.588  1.00  0.00    -0.387 OA
ATOM     12  H   UNL     1      88.931  84.046  77.502  1.00  0.00     0.211 HD
ENDBRANCH   4  11
BRANCH   6  13
ATOM     13  O   UNL     1      91.283  85.516  75.171  1.00  0.00    -0.387 OA
ATOM     14  H   UNL     1      90.309  85.455  74.984  1.00  0.00     0.211 HD
ENDBRANCH   6  13
BRANCH   7  15
ATOM     15  O   UNL     1      93.511  83.983  75.830  1.00  0.00    -0.385 OA
ATOM     16  H   UNL     1      92.789  83.766  75.184  1.00  0.00     0.211 HD
ENDBRANCH   7  15
ENDBRANCH   1   2
BRANCH   1  17
ATOM     17  C   UNL     1      93.910  85.569  80.052  1.00  0.00     0.224 C 
ATOM     18  C   UNL     1      94.081  84.386  81.018  1.00  0.00     0.208 C 
ATOM     19  O   UNL     1      95.143  85.714  79.362  1.00  0.00    -0.337 OA
ATOM     20  C   UNL     1      95.544  84.437  81.357  1.00  0.00     0.180 C 
ATOM     21  C   UNL     1      96.159  85.063  80.099  1.00  0.00     0.179 C 
BRANCH  17  22
ATOM     22  C   UNL     1      93.585  86.880  80.823  1.00  0.00     0.225 C 
BRANCH  22  23
ATOM     23  O   UNL     1      92.931  87.814  80.009  1.00  0.00    -0.391 OA
ATOM     24  H   UNL     1      93.430  87.846  79.151  1.00  0.00     0.210 HD
ENDBRANCH  22  23
ENDBRANCH  17  22
BRANCH  18  25
ATOM     25  O   UNL     1      93.290  84.491  82.174  1.00  0.00    -0.385 OA
ATOM     26  H   UNL     1      92.415  84.075  81.952  1.00  0.00     0.211 HD
ENDBRANCH  18  25
BRANCH  20  27
ATOM     27  O   UNL     1      96.052  83.156  81.638  1.00  0.00    -0.387 OA
ATOM     28  H   UNL     1      95.698  82.552  80.935  1.00  0.00     0.211 HD
ENDBRANCH  20  27
BRANCH  21  29
ATOM     29  C   UNL     1      96.863  84.045  79.183  1.00  0.00     0.191 C 
BRANCH  29  30
ATOM     30  O   UNL     1      96.672  84.383  77.836  1.00  0.00    -0.394 OA
ATOM     31  H   UNL     1      95.875  83.877  77.526  1.00  0.00     0.210 HD
ENDBRANCH  29  30
ENDBRANCH  21  29
ENDBRANCH   1  17
TORSDOF 13
ENDMDL
MODEL 5
REMARK VINA RESULT:    -4.707      1.718      2.419
REMARK INTER + INTRA:          -8.874
REMARK INTER:                  -7.180
REMARK INTRA:                  -1.694
REMARK UNBOUND:                -1.691
REMARK SMILES OC[C@@H]1O[C@H](O[C@]2(CO)O[C@H](CO)[C@H](O)[C@H]2O)[C@@H](O)[C@@H](O)[C@@H]1O
REMARK SMILES IDX 6 1 5 2 3 3 22 4 4 5 20 6 18 7 2 8 1 9 23 11 21 13 19 15
REMARK SMILES IDX 7 17 16 18 10 19 14 20 11 21 8 22 9 23 17 25 15 27 12 29
REMARK SMILES IDX 13 30
REMARK H PARENT 1 10 23 12 21 14 19 16 9 24 17 26 15 28 13 31
REMARK Flexibility Score: inf
ROOT
ATOM      1  O   UNL     1      96.982  85.020  81.130  1.00  0.00    -0.313 OA
ENDROOT
BRANCH   1   2
ATOM      2  C   UNL     1      96.798  84.042  80.114  1.00  0.00     0.285 C 
ATOM      3  C   UNL     1      94.411  84.217  79.974  1.00  0.00     0.178 C 
ATOM      4  C   UNL     1      94.496  84.911  78.591  1.00  0.00     0.177 C 
ATOM      5  O   UNL     1      95.539  83.390  80.250  1.00  0.00    -0.341 OA
ATOM      6  C   UNL     1      95.830  85.648  78.425  1.00  0.00     0.179 C 
ATOM      7  C   UNL     1      96.987  84.683  78.729  1.00  0.00     0.202 C 
BRANCH   3   8
ATOM      8  C   UNL     1      94.085  85.165  81.151  1.00  0.00     0.191 C 
BRANCH   8   9
ATOM      9  O   UNL     1      94.335  84.541  82.382  1.00  0.00    -0.394 OA
ATOM     10  H   UNL     1      93.496  84.603  82.911  1.00  0.00     0.210 HD
ENDBRANCH   8   9
ENDBRANCH   3   8
BRANCH   4  11
ATOM     11  O   UNL     1      93.423  85.803  78.426  1.00  0.00    -0.387 OA
ATOM     12  H   UNL     1      93.317  85.953  77.450  1.00  0.00     0.211 HD
ENDBRANCH   4  11
BRANCH   6  13
ATOM     13  O   UNL     1      95.938  86.138  77.114  1.00  0.00    -0.387 OA
ATOM     14  H   UNL     1      95.021  86.391  76.826  1.00  0.00     0.211 HD
ENDBRANCH   6  13
BRANCH   7  15
ATOM     15  O   UNL     1      97.050  83.669  77.756  1.00  0.00    -0.385 OA
ATOM     16  H   UNL     1      97.656  83.993  77.039  1.00  0.00     0.211 HD
ENDBRANCH   7  15
ENDBRANCH   1   2
BRANCH   1  17
ATOM     17  C   UNL     1      97.970  84.681  82.103  1.00  0.00     0.224 C 
ATOM     18  C   UNL     1      97.669  83.253  82.586  1.00  0.00     0.208 C 
ATOM     19  O   UNL     1      99.278  84.658  81.550  1.00  0.00    -0.337 OA
ATOM     20  C   UNL     1      99.027  82.734  82.968  1.00  0.00     0.180 C 
ATOM     21  C   UNL     1      99.961  83.519  82.038  1.00  0.00     0.179 C 
BRANCH  17  22
ATOM     22  C   UNL     1      97.918  85.694  83.280  1.00  0.00     0.225 C 
BRANCH  22  23
ATOM     23  O   UNL     1      96.600  85.997  83.649  1.00  0.00    -0.391 OA
ATOM     24  H   UNL     1      96.608  86.166  84.628  1.00  0.00     0.210 HD
ENDBRANCH  22  23
ENDBRANCH  17  22
BRANCH  18  25
ATOM     25  O   UNL     1      96.785  83.209  83.677  1.00  0.00    -0.385 OA
ATOM     26  H   UNL     1      96.249  82.380  83.567  1.00  0.00     0.211 HD
ENDBRANCH  18  25
BRANCH  20  27
ATOM     27  O   UNL     1      99.116  81.342  82.789  1.00  0.00    -0.387 OA
ATOM     28  H   UNL     1      99.427  80.966  83.652  1.00  0.00     0.211 HD
ENDBRANCH  20  27
BRANCH  21  29
ATOM     29  C   UNL     1     100.475  82.698  80.842  1.00  0.00     0.191 C 
BRANCH  29  30
ATOM     30  O   UNL     1      99.414  82.041  80.205  1.00  0.00    -0.394 OA
ATOM     31  H   UNL     1      99.002  81.442  80.882  1.00  0.00     0.210 HD
ENDBRANCH  29  30
ENDBRANCH  21  29
ENDBRANCH   1  17
TORSDOF 13
ENDMDL
MODEL 6
REMARK VINA RESULT:    -4.613      1.878      2.652
REMARK INTER + INTRA:          -8.731
REMARK INTER:                  -7.192
REMARK INTRA:                  -1.539
REMARK UNBOUND:                -1.691
REMARK SMILES OC[C@@H]1O[C@H](O[C@]2(CO)O[C@H](CO)[C@H](O)[C@H]2O)[C@@H](O)[C@@H](O)[C@@H]1O
REMARK SMILES IDX 6 1 5 2 3 3 22 4 4 5 20 6 18 7 2 8 1 9 23 11 21 13 19 15
REMARK SMILES IDX 7 17 16 18 10 19 14 20 11 21 8 22 9 23 17 25 15 27 12 29
REMARK SMILES IDX 13 30
REMARK H PARENT 1 10 23 12 21 14 19 16 9 24 17 26 15 28 13 31
REMARK Flexibility Score: inf
ROOT
ATOM      1  O   UNL     1      97.962  83.667  81.166  1.00  0.00    -0.313 OA
ENDROOT
BRANCH   1   2
ATOM      2  C   UNL     1      97.621  84.849  80.452  1.00  0.00     0.285 C 
ATOM      3  C   UNL     1      96.512  83.771  78.620  1.00  0.00     0.178 C 
ATOM      4  C   UNL     1      95.127  84.267  79.106  1.00  0.00     0.177 C 
ATOM      5  O   UNL     1      97.583  84.609  79.049  1.00  0.00    -0.341 OA
ATOM      6  C   UNL     1      95.127  84.506  80.620  1.00  0.00     0.179 C 
ATOM      7  C   UNL     1      96.301  85.425  80.991  1.00  0.00     0.202 C 
BRANCH   3   8
ATOM      8  C   UNL     1      96.797  82.278  78.901  1.00  0.00     0.191 C 
BRANCH   8   9
ATOM      9  O   UNL     1      98.094  81.929  78.499  1.00  0.00    -0.394 OA
ATOM     10  H   UNL     1      98.650  82.749  78.582  1.00  0.00     0.210 HD
ENDBRANCH   8   9
ENDBRANCH   3   8
BRANCH   4  11
ATOM     11  O   UNL     1      94.129  83.341  78.759  1.00  0.00    -0.387 OA
ATOM     12  H   UNL     1      93.328  83.864  78.488  1.00  0.00     0.211 HD
ENDBRANCH   4  11
BRANCH   6  13
ATOM     13  O   UNL     1      93.910  85.093  81.004  1.00  0.00    -0.387 OA
ATOM     14  H   UNL     1      93.865  85.036  81.995  1.00  0.00     0.211 HD
ENDBRANCH   6  13
BRANCH   7  15
ATOM     15  O   UNL     1      96.107  86.712  80.457  1.00  0.00    -0.385 OA
ATOM     16  H   UNL     1      96.177  87.352  81.212  1.00  0.00     0.211 HD
ENDBRANCH   7  15
ENDBRANCH   1   2
BRANCH   1  17
ATOM     17  C   UNL     1      99.277  83.671  81.720  1.00  0.00     0.224 C 
ATOM     18  C   UNL     1     100.263  83.425  80.567  1.00  0.00     0.208 C 
ATOM     19  O   UNL     1      99.615  84.929  82.285  1.00  0.00    -0.337 OA
ATOM     20  C   UNL     1     101.504  84.139  81.027  1.00  0.00     0.180 C 
ATOM     21  C   UNL     1     100.938  85.259  81.911  1.00  0.00     0.179 C 
BRANCH  17  22
ATOM     22  C   UNL     1      99.393  82.563  82.804  1.00  0.00     0.225 C 
BRANCH  22  23
ATOM     23  O   UNL     1      98.860  81.344  82.363  1.00  0.00    -0.391 OA
ATOM     24  H   UNL     1      98.211  81.559  81.643  1.00  0.00     0.210 HD
ENDBRANCH  22  23
ENDBRANCH  17  22
BRANCH  18  25
ATOM     25  O   UNL     1     100.520  82.064  80.334  1.00  0.00    -0.385 OA
ATOM     26  H   UNL     1     101.488  81.928  80.513  1.00  0.00     0.211 HD
ENDBRANCH  18  25
BRANCH  20  27
ATOM     27  O   UNL     1     102.253  84.622  79.940  1.00  0.00    -0.387 OA
ATOM     28  H   UNL     1     102.615  85.503  80.217  1.00  0.00     0.211 HD
ENDBRANCH  20  27
BRANCH  21  29
ATOM     29  C   UNL     1     100.934  86.640  81.231  1.00  0.00     0.191 C 
BRANCH  29  30
ATOM     30  O   UNL     1     102.214  87.210  81.271  1.00  0.00    -0.394 OA
ATOM     31  H   UNL     1     102.831  86.552  80.856  1.00  0.00     0.210 HD
ENDBRANCH  29  30
ENDBRANCH  21  29
ENDBRANCH   1  17
TORSDOF 13
ENDMDL
MODEL 7
REMARK VINA RESULT:    -4.602      1.840      4.300
REMARK INTER + INTRA:          -8.715
REMARK INTER:                  -7.629
REMARK INTRA:                  -1.085
REMARK UNBOUND:                -1.691
REMARK SMILES OC[C@@H]1O[C@H](O[C@]2(CO)O[C@H](CO)[C@H](O)[C@H]2O)[C@@H](O)[C@@H](O)[C@@H]1O
REMARK SMILES IDX 6 1 5 2 3 3 22 4 4 5 20 6 18 7 2 8 1 9 23 11 21 13 19 15
REMARK SMILES IDX 7 17 16 18 10 19 14 20 11 21 8 22 9 23 17 25 15 27 12 29
REMARK SMILES IDX 13 30
REMARK H PARENT 1 10 23 12 21 14 19 16 9 24 17 26 15 28 13 31
REMARK Flexibility Score: inf
ROOT
ATOM      1  O   UNL     1      98.980  84.628  80.770  1.00  0.00    -0.313 OA
ENDROOT
BRANCH   1   2
ATOM      2  C   UNL     1      97.649  84.431  81.230  1.00  0.00     0.285 C 
ATOM      3  C   UNL     1      96.550  85.549  79.416  1.00  0.00     0.178 C 
ATOM      4  C   UNL     1      96.019  84.208  78.849  1.00  0.00     0.177 C 
ATOM      5  O   UNL     1      96.800  85.498  80.818  1.00  0.00    -0.341 OA
ATOM      6  C   UNL     1      96.928  83.042  79.250  1.00  0.00     0.179 C 
ATOM      7  C   UNL     1      97.134  83.056  80.773  1.00  0.00     0.202 C 
BRANCH   3   8
ATOM      8  C   UNL     1      97.741  86.151  78.636  1.00  0.00     0.191 C 
BRANCH   8   9
ATOM      9  O   UNL     1      97.306  86.773  77.456  1.00  0.00    -0.394 OA
ATOM     10  H   UNL     1      96.930  86.059  76.877  1.00  0.00     0.210 HD
ENDBRANCH   8   9
ENDBRANCH   3   8
BRANCH   4  11
ATOM     11  O   UNL     1      95.906  84.280  77.451  1.00  0.00    -0.387 OA
ATOM     12  H   UNL     1      96.250  85.171  77.176  1.00  0.00     0.211 HD
ENDBRANCH   4  11
BRANCH   6  13
ATOM     13  O   UNL     1      96.343  81.829  78.850  1.00  0.00    -0.387 OA
ATOM     14  H   UNL     1      96.349  81.232  79.644  1.00  0.00     0.211 HD
ENDBRANCH   6  13
BRANCH   7  15
ATOM     15  O   UNL     1      95.927  82.772  81.436  1.00  0.00    -0.385 OA
ATOM     16  H   UNL     1      95.191  83.012  80.814  1.00  0.00     0.211 HD
ENDBRANCH   7  15
ENDBRANCH   1   2
BRANCH   1  17
ATOM     17  C   UNL     1      99.977  84.509  81.785  1.00  0.00     0.224 C 
ATOM     18  C   UNL     1      99.472  85.273  83.019  1.00  0.00     0.208 C 
ATOM     19  O   UNL     1     100.169  83.161  82.190  1.00  0.00    -0.337 OA
ATOM     20  C   UNL     1     100.119  84.537  84.159  1.00  0.00     0.180 C 
ATOM     21  C   UNL     1     100.268  83.116  83.600  1.00  0.00     0.179 C 
BRANCH  17  22
ATOM     22  C   UNL     1     101.321  85.097  81.272  1.00  0.00     0.225 C 
BRANCH  22  23
ATOM     23  O   UNL     1     102.271  84.094  81.032  1.00  0.00    -0.391 OA
ATOM     24  H   UNL     1     102.943  84.156  81.761  1.00  0.00     0.210 HD
ENDBRANCH  22  23
ENDBRANCH  17  22
BRANCH  18  25
ATOM     25  O   UNL     1      99.835  86.630  83.021  1.00  0.00    -0.385 OA
ATOM     26  H   UNL     1     100.497  86.740  83.754  1.00  0.00     0.211 HD
ENDBRANCH  18  25
BRANCH  20  27
ATOM     27  O   UNL     1      99.329  84.591  85.321  1.00  0.00    -0.387 OA
ATOM     28  H   UNL     1      98.958  85.509  85.366  1.00  0.00     0.211 HD
ENDBRANCH  20  27
BRANCH  21  29
ATOM     29  C   UNL     1      99.222  82.126  84.141  1.00  0.00     0.191 C 
BRANCH  29  30
ATOM     30  O   UNL     1      98.933  81.145  83.183  1.00  0.00    -0.394 OA
ATOM     31  H   UNL     1      99.298  81.474  82.320  1.00  0.00     0.210 HD
ENDBRANCH  29  30
ENDBRANCH  21  29
ENDBRANCH   1  17
TORSDOF 13
ENDMDL
MODEL 8
REMARK VINA RESULT:    -4.581      1.767      6.153
REMARK INTER + INTRA:          -8.683
REMARK INTER:                  -7.057
REMARK INTRA:                  -1.625
REMARK UNBOUND:                -1.691
REMARK SMILES OC[C@@H]1O[C@H](O[C@]2(CO)O[C@H](CO)[C@H](O)[C@H]2O)[C@@H](O)[C@@H](O)[C@@H]1O
REMARK SMILES IDX 6 1 5 2 3 3 22 4 4 5 20 6 18 7 2 8 1 9 23 11 21 13 19 15
REMARK SMILES IDX 7 17 16 18 10 19 14 20 11 21 8 22 9 23 17 25 15 27 12 29
REMARK SMILES IDX 13 30
REMARK H PARENT 1 10 23 12 21 14 19 16 9 24 17 26 15 28 13 31
REMARK Flexibility Score: inf
ROOT
ATOM      1  O   UNL     1      95.620  85.253  79.826  1.00  0.00    -0.313 OA
ENDROOT
BRANCH   1   2
ATOM      2  C   UNL     1      96.099  83.949  79.521  1.00  0.00     0.285 C 
ATOM      3  C   UNL     1      98.437  84.468  79.630  1.00  0.00     0.178 C 
ATOM      4  C   UNL     1      98.600  83.674  80.952  1.00  0.00     0.177 C 
ATOM      5  O   UNL     1      97.346  84.006  78.837  1.00  0.00    -0.341 OA
ATOM      6  C   UNL     1      97.279  83.619  81.728  1.00  0.00     0.179 C 
ATOM      7  C   UNL     1      96.165  83.103  80.804  1.00  0.00     0.202 C 
BRANCH   3   8
ATOM      8  C   UNL     1      98.421  86.004  79.800  1.00  0.00     0.191 C 
BRANCH   8   9
ATOM      9  O   UNL     1      98.021  86.636  78.613  1.00  0.00    -0.394 OA
ATOM     10  H   UNL     1      98.470  87.523  78.595  1.00  0.00     0.210 HD
ENDBRANCH   8   9
ENDBRANCH   3   8
BRANCH   4  11
ATOM     11  O   UNL     1      99.607  84.248  81.744  1.00  0.00    -0.387 OA
ATOM     12  H   UNL     1     100.129  84.856  81.157  1.00  0.00     0.211 HD
ENDBRANCH   4  11
BRANCH   6  13
ATOM     13  O   UNL     1      97.420  82.773  82.839  1.00  0.00    -0.387 OA
ATOM     14  H   UNL     1      96.705  83.022  83.482  1.00  0.00     0.211 HD
ENDBRANCH   6  13
BRANCH   7  15
ATOM     15  O   UNL     1      96.397  81.759  80.458  1.00  0.00    -0.385 OA
ATOM     16  H   UNL     1      95.756  81.210  80.981  1.00  0.00     0.211 HD
ENDBRANCH   7  15
ENDBRANCH   1   2
BRANCH   1  17
ATOM     17  C   UNL     1      94.501  85.667  79.042  1.00  0.00     0.224 C 
ATOM     18  C   UNL     1      94.811  85.321  77.577  1.00  0.00     0.208 C 
ATOM     19  O   UNL     1      93.317  84.962  79.386  1.00  0.00    -0.337 OA
ATOM     20  C   UNL     1      93.447  85.088  76.990  1.00  0.00     0.180 C 
ATOM     21  C   UNL     1      92.641  84.596  78.199  1.00  0.00     0.179 C 
BRANCH  17  22
ATOM     22  C   UNL     1      94.271  87.194  79.222  1.00  0.00     0.225 C 
BRANCH  22  23
ATOM     23  O   UNL     1      95.480  87.899  79.286  1.00  0.00    -0.391 OA
ATOM     24  H   UNL     1      95.585  88.203  80.226  1.00  0.00     0.210 HD
ENDBRANCH  22  23
ENDBRANCH  17  22
BRANCH  18  25
ATOM     25  O   UNL     1      95.487  86.346  76.894  1.00  0.00    -0.385 OA
ATOM     26  H   UNL     1      95.235  86.256  75.938  1.00  0.00     0.211 HD
ENDBRANCH  18  25
BRANCH  20  27
ATOM     27  O   UNL     1      93.491  84.153  75.941  1.00  0.00    -0.387 OA
ATOM     28  H   UNL     1      94.348  83.662  76.037  1.00  0.00     0.211 HD
ENDBRANCH  20  27
BRANCH  21  29
ATOM     29  C   UNL     1      92.407  83.074  78.208  1.00  0.00     0.191 C 
BRANCH  29  30
ATOM     30  O   UNL     1      91.129  82.777  78.702  1.00  0.00    -0.394 OA
ATOM     31  H   UNL     1      90.656  82.279  77.985  1.00  0.00     0.210 HD
ENDBRANCH  29  30
ENDBRANCH  21  29
ENDBRANCH   1  17
TORSDOF 13
ENDMDL
MODEL 9
REMARK VINA RESULT:    -4.503      1.832      5.437
REMARK INTER + INTRA:          -8.563
REMARK INTER:                  -7.052
REMARK INTRA:                  -1.511
REMARK UNBOUND:                -1.691
REMARK SMILES OC[C@@H]1O[C@H](O[C@]2(CO)O[C@H](CO)[C@H](O)[C@H]2O)[C@@H](O)[C@@H](O)[C@@H]1O
REMARK SMILES IDX 6 1 5 2 3 3 22 4 4 5 20 6 18 7 2 8 1 9 23 11 21 13 19 15
REMARK SMILES IDX 7 17 16 18 10 19 14 20 11 21 8 22 9 23 17 25 15 27 12 29
REMARK SMILES IDX 13 30
REMARK H PARENT 1 10 23 12 21 14 19 16 9 24 17 26 15 28 13 31
REMARK Flexibility Score: inf
ROOT
ATOM      1  O   UNL     1      97.913  84.178  79.818  1.00  0.00    -0.313 OA
ENDROOT
BRANCH   1   2
ATOM      2  C   UNL     1      98.233  85.062  80.885  1.00  0.00     0.285 C 
ATOM      3  C   UNL     1      99.956  83.716  81.868  1.00  0.00     0.178 C 
ATOM      4  C   UNL     1     101.058  84.696  81.392  1.00  0.00     0.177 C 
ATOM      5  O   UNL     1      98.686  84.345  82.029  1.00  0.00    -0.341 OA
ATOM      6  C   UNL     1     100.611  85.464  80.143  1.00  0.00     0.179 C 
ATOM      7  C   UNL     1      99.245  86.116  80.407  1.00  0.00     0.202 C 
BRANCH   3   8
ATOM      8  C   UNL     1      99.857  82.410  81.047  1.00  0.00     0.191 C 
BRANCH   8   9
ATOM      9  O   UNL     1      98.730  81.664  81.424  1.00  0.00    -0.394 OA
ATOM     10  H   UNL     1      98.395  81.216  80.602  1.00  0.00     0.210 HD
ENDBRANCH   8   9
ENDBRANCH   3   8
BRANCH   4  11
ATOM     11  O   UNL     1     102.251  84.001  81.136  1.00  0.00    -0.387 OA
ATOM     12  H   UNL     1     102.147  83.560  80.252  1.00  0.00     0.211 HD
ENDBRANCH   4  11
BRANCH   6  13
ATOM     13  O   UNL     1     101.565  86.444  79.826  1.00  0.00    -0.387 OA
ATOM     14  H   UNL     1     102.439  86.114  80.165  1.00  0.00     0.211 HD
ENDBRANCH   6  13
BRANCH   7  15
ATOM     15  O   UNL     1      99.361  87.122  81.384  1.00  0.00    -0.385 OA
ATOM     16  H   UNL     1     100.066  86.830  82.018  1.00  0.00     0.211 HD
ENDBRANCH   7  15
ENDBRANCH   1   2
BRANCH   1  17
ATOM     17  C   UNL     1      96.521  83.891  79.687  1.00  0.00     0.224 C 
ATOM     18  C   UNL     1      95.890  84.028  81.081  1.00  0.00     0.208 C 
ATOM     19  O   UNL     1      95.859  84.825  78.846  1.00  0.00    -0.337 OA
ATOM     20  C   UNL     1      94.476  84.438  80.773  1.00  0.00     0.180 C 
ATOM     21  C   UNL     1      94.627  85.184  79.440  1.00  0.00     0.179 C 
BRANCH  17  22
ATOM     22  C   UNL     1      96.332  82.455  79.123  1.00  0.00     0.225 C 
BRANCH  22  23
ATOM     23  O   UNL     1      97.489  81.989  78.484  1.00  0.00    -0.391 OA
ATOM     24  H   UNL     1      97.462  80.998  78.530  1.00  0.00     0.210 HD
ENDBRANCH  22  23
ENDBRANCH  17  22
BRANCH  18  25
ATOM     25  O   UNL     1      95.919  82.837  81.826  1.00  0.00    -0.385 OA
ATOM     26  H   UNL     1      96.837  82.470  81.728  1.00  0.00     0.211 HD
ENDBRANCH  18  25
BRANCH  20  27
ATOM     27  O   UNL     1      93.939  85.241  81.794  1.00  0.00    -0.387 OA
ATOM     28  H   UNL     1      94.267  84.863  82.651  1.00  0.00     0.211 HD
ENDBRANCH  20  27
BRANCH  21  29
ATOM     29  C   UNL     1      94.569  86.716  79.579  1.00  0.00     0.191 C 
BRANCH  29  30
ATOM     30  O   UNL     1      93.239  87.150  79.668  1.00  0.00    -0.394 OA
ATOM     31  H   UNL     1      92.707  86.374  79.986  1.00  0.00     0.210 HD
ENDBRANCH  29  30
ENDBRANCH  21  29
ENDBRANCH   1  17
TORSDOF 13
ENDMDL
