MODEL 1
REMARK VINA RESULT:    -5.534      0.000      0.000
REMARK INTER + INTRA:          -5.696
REMARK INTER:                  -5.696
REMARK INTRA:                   0.000
REMARK UNBOUND:                 0.000
REMARK SMILES Oc1ccc2[nH]ccc2c1
REMARK SMILES IDX 3 1 4 2 5 3 9 4 8 5 7 6 6 7 10 8 2 9 1 11
REMARK H PARENT 6 10 1 12
REMARK Flexibility Score: inf
ROOT
ATOM      1  C   UNL     1      75.264  34.955  56.514  1.00  0.00     0.048 A 
ATOM      2  C   UNL     1      76.383  34.578  57.279  1.00  0.00     0.030 A 
ATOM      3  C   UNL     1      76.295  33.406  58.028  1.00  0.00     0.046 A 
ATOM      4  C   UNL     1      75.164  32.635  58.027  1.00  0.00     0.003 A 
ATOM      5  C   UNL     1      75.397  31.560  58.857  1.00  0.00     0.028 A 
ATOM      6  C   UNL     1      76.694  31.742  59.330  1.00  0.00     0.083 A 
ATOM      7  N   UNL     1      77.238  32.870  58.819  1.00  0.00    -0.361 N 
ATOM      8  C   UNL     1      74.039  32.979  57.281  1.00  0.00     0.056 A 
ATOM      9  C   UNL     1      74.092  34.159  56.513  1.00  0.00     0.116 A 
ATOM     10  H   UNL     1      78.195  33.244  59.006  1.00  0.00     0.166 HD
ENDROOT
BRANCH   9  11
ATOM     11  O   UNL     1      72.985  34.531  55.755  1.00  0.00    -0.508 OA
ATOM     12  H   UNL     1      72.103  34.035  55.828  1.00  0.00     0.293 HD
ENDBRANCH   9  11
TORSDOF 1
ENDMDL
MODEL 2
REMARK VINA RESULT:    -5.323     11.175     12.151
REMARK INTER + INTRA:          -5.478
REMARK INTER:                  -5.478
REMARK INTRA:                   0.000
REMARK UNBOUND:                 0.000
REMARK SMILES Oc1ccc2[nH]ccc2c1
REMARK SMILES IDX 3 1 4 2 5 3 9 4 8 5 7 6 6 7 10 8 2 9 1 11
REMARK H PARENT 6 10 1 12
REMARK Flexibility Score: inf
ROOT
ATOM      1  C   UNL     1      66.116  24.471  56.799  1.00  0.00     0.048 A 
ATOM      2  C   UNL     1      67.252  25.294  56.679  1.00  0.00     0.030 A 
ATOM      3  C   UNL     1      68.465  24.804  57.161  1.00  0.00     0.046 A 
ATOM      4  C   UNL     1      68.564  23.564  57.733  1.00  0.00     0.003 A 
ATOM      5  C   UNL     1      69.880  23.383  58.099  1.00  0.00     0.028 A 
ATOM      6  C   UNL     1      70.526  24.556  57.719  1.00  0.00     0.083 A 
ATOM      7  N   UNL     1      69.658  25.420  57.146  1.00  0.00    -0.361 N 
ATOM      8  C   UNL     1      67.460  22.724  57.866  1.00  0.00     0.056 A 
ATOM      9  C   UNL     1      66.218  23.188  57.391  1.00  0.00     0.116 A 
ATOM     10  H   UNL     1      69.875  26.370  56.771  1.00  0.00     0.166 HD
ENDROOT
BRANCH   9  11
ATOM     11  O   UNL     1      65.094  22.373  57.508  1.00  0.00    -0.508 OA
ATOM     12  H   UNL     1      65.057  21.458  57.074  1.00  0.00     0.293 HD
ENDBRANCH   9  11
TORSDOF 1
ENDMDL
MODEL 3
REMARK VINA RESULT:    -5.172     10.645     11.720
REMARK INTER + INTRA:          -5.324
REMARK INTER:                  -5.324
REMARK INTRA:                   0.000
REMARK UNBOUND:                 0.000
REMARK SMILES Oc1ccc2[nH]ccc2c1
REMARK SMILES IDX 3 1 4 2 5 3 9 4 8 5 7 6 6 7 10 8 2 9 1 11
REMARK H PARENT 6 10 1 12
REMARK Flexibility Score: inf
ROOT
ATOM      1  C   UNL     1      66.717  23.396  57.840  1.00  0.00     0.048 A 
ATOM      2  C   UNL     1      67.857  22.737  58.336  1.00  0.00     0.030 A 
ATOM      3  C   UNL     1      69.101  23.317  58.093  1.00  0.00     0.046 A 
ATOM      4  C   UNL     1      69.225  24.490  57.398  1.00  0.00     0.003 A 
ATOM      5  C   UNL     1      70.568  24.790  57.332  1.00  0.00     0.028 A 
ATOM      6  C   UNL     1      71.205  23.754  58.010  1.00  0.00     0.083 A 
ATOM      7  N   UNL     1      70.304  22.858  58.474  1.00  0.00    -0.361 N 
ATOM      8  C   UNL     1      68.117  25.168  56.894  1.00  0.00     0.056 A 
ATOM      9  C   UNL     1      66.844  24.609  57.120  1.00  0.00     0.116 A 
ATOM     10  H   UNL     1      70.508  21.988  59.015  1.00  0.00     0.166 HD
ENDROOT
BRANCH   9  11
ATOM     11  O   UNL     1      65.716  25.262  56.630  1.00  0.00    -0.508 OA
ATOM     12  H   UNL     1      64.870  25.344  57.184  1.00  0.00     0.293 HD
ENDBRANCH   9  11
TORSDOF 1
ENDMDL
MODEL 4
REMARK VINA RESULT:    -5.002      2.183      3.457
REMARK INTER + INTRA:          -5.148
REMARK INTER:                  -5.148
REMARK INTRA:                   0.000
REMARK UNBOUND:                 0.000
REMARK SMILES Oc1ccc2[nH]ccc2c1
REMARK SMILES IDX 3 1 4 2 5 3 9 4 8 5 7 6 6 7 10 8 2 9 1 11
REMARK H PARENT 6 10 1 12
REMARK Flexibility Score: inf
ROOT
ATOM      1  C   UNL     1      76.512  31.946  59.001  1.00  0.00     0.048 A 
ATOM      2  C   UNL     1      76.883  33.185  58.447  1.00  0.00     0.030 A 
ATOM      3  C   UNL     1      75.985  33.806  57.581  1.00  0.00     0.046 A 
ATOM      4  C   UNL     1      74.776  33.242  57.270  1.00  0.00     0.003 A 
ATOM      5  C   UNL     1      74.133  34.096  56.401  1.00  0.00     0.028 A 
ATOM      6  C   UNL     1      75.010  35.162  56.225  1.00  0.00     0.083 A 
ATOM      7  N   UNL     1      76.139  34.981  56.949  1.00  0.00    -0.361 N 
ATOM      8  C   UNL     1      74.378  32.017  57.801  1.00  0.00     0.056 A 
ATOM      9  C   UNL     1      75.262  31.361  58.680  1.00  0.00     0.116 A 
ATOM     10  H   UNL     1      76.960  35.625  57.001  1.00  0.00     0.166 HD
ENDROOT
BRANCH   9  11
ATOM     11  O   UNL     1      74.894  30.134  59.229  1.00  0.00    -0.508 OA
ATOM     12  H   UNL     1      74.546  30.063  60.179  1.00  0.00     0.293 HD
ENDBRANCH   9  11
TORSDOF 1
ENDMDL
MODEL 5
REMARK VINA RESULT:    -4.928      1.482      2.182
REMARK INTER + INTRA:          -5.072
REMARK INTER:                  -5.072
REMARK INTRA:                   0.000
REMARK UNBOUND:                 0.000
REMARK SMILES Oc1ccc2[nH]ccc2c1
REMARK SMILES IDX 3 1 4 2 5 3 9 4 8 5 7 6 6 7 10 8 2 9 1 11
REMARK H PARENT 6 10 1 12
REMARK Flexibility Score: inf
ROOT
ATOM      1  C   UNL     1      74.200  33.986  56.553  1.00  0.00     0.048 A 
ATOM      2  C   UNL     1      73.861  32.787  57.208  1.00  0.00     0.030 A 
ATOM      3  C   UNL     1      74.816  32.208  58.041  1.00  0.00     0.046 A 
ATOM      4  C   UNL     1      76.048  32.776  58.228  1.00  0.00     0.003 A 
ATOM      5  C   UNL     1      76.747  31.968  59.098  1.00  0.00     0.028 A 
ATOM      6  C   UNL     1      75.878  30.924  59.401  1.00  0.00     0.083 A 
ATOM      7  N   UNL     1      74.700  31.076  58.754  1.00  0.00    -0.361 N 
ATOM      8  C   UNL     1      76.415  33.962  57.596  1.00  0.00     0.056 A 
ATOM      9  C   UNL     1      75.474  34.575  56.745  1.00  0.00     0.116 A 
ATOM     10  H   UNL     1      73.873  30.439  58.801  1.00  0.00     0.166 HD
ENDROOT
BRANCH   9  11
ATOM     11  O   UNL     1      75.809  35.761  56.098  1.00  0.00    -0.508 OA
ATOM     12  H   UNL     1      76.705  35.878  55.638  1.00  0.00     0.293 HD
ENDBRANCH   9  11
TORSDOF 1
ENDMDL
MODEL 6
REMARK VINA RESULT:    -4.904      2.633      4.099
REMARK INTER + INTRA:          -5.047
REMARK INTER:                  -5.047
REMARK INTRA:                   0.000
REMARK UNBOUND:                 0.000
REMARK SMILES Oc1ccc2[nH]ccc2c1
REMARK SMILES IDX 3 1 4 2 5 3 9 4 8 5 7 6 6 7 10 8 2 9 1 11
REMARK H PARENT 6 10 1 12
REMARK Flexibility Score: inf
ROOT
ATOM      1  C   UNL     1      75.801  31.404  58.995  1.00  0.00     0.048 A 
ATOM      2  C   UNL     1      74.710  31.707  58.159  1.00  0.00     0.030 A 
ATOM      3  C   UNL     1      74.725  32.928  57.486  1.00  0.00     0.046 A 
ATOM      4  C   UNL     1      75.762  33.812  57.622  1.00  0.00     0.003 A 
ATOM      5  C   UNL     1      75.476  34.907  56.836  1.00  0.00     0.028 A 
ATOM      6  C   UNL     1      74.247  34.620  56.248  1.00  0.00     0.083 A 
ATOM      7  N   UNL     1      73.793  33.410  56.648  1.00  0.00    -0.361 N 
ATOM      8  C   UNL     1      76.857  33.543  58.440  1.00  0.00     0.056 A 
ATOM      9  C   UNL     1      76.874  32.318  59.137  1.00  0.00     0.116 A 
ATOM     10  H   UNL     1      72.901  32.950  56.361  1.00  0.00     0.166 HD
ENDROOT
BRANCH   9  11
ATOM     11  O   UNL     1      77.953  32.017  59.963  1.00  0.00    -0.508 OA
ATOM     12  H   UNL     1      78.641  32.720  60.211  1.00  0.00     0.293 HD
ENDBRANCH   9  11
TORSDOF 1
ENDMDL
MODEL 7
REMARK VINA RESULT:    -4.808     11.801     12.816
REMARK INTER + INTRA:          -4.949
REMARK INTER:                  -4.949
REMARK INTRA:                   0.000
REMARK UNBOUND:                 0.000
REMARK SMILES Oc1ccc2[nH]ccc2c1
REMARK SMILES IDX 3 1 4 2 5 3 9 4 8 5 7 6 6 7 10 8 2 9 1 11
REMARK H PARENT 6 10 1 12
REMARK Flexibility Score: inf
ROOT
ATOM      1  C   UNL     1      67.729  25.200  56.598  1.00  0.00     0.048 A 
ATOM      2  C   UNL     1      66.477  24.595  56.815  1.00  0.00     0.030 A 
ATOM      3  C   UNL     1      66.417  23.520  57.701  1.00  0.00     0.046 A 
ATOM      4  C   UNL     1      67.532  23.058  58.347  1.00  0.00     0.003 A 
ATOM      5  C   UNL     1      67.141  22.002  59.141  1.00  0.00     0.028 A 
ATOM      6  C   UNL     1      65.771  21.876  58.927  1.00  0.00     0.083 A 
ATOM      7  N   UNL     1      65.334  22.807  58.047  1.00  0.00    -0.361 N 
ATOM      8  C   UNL     1      68.786  23.634  58.156  1.00  0.00     0.056 A 
ATOM      9  C   UNL     1      68.883  24.722  57.266  1.00  0.00     0.116 A 
ATOM     10  H   UNL     1      64.354  22.938  57.710  1.00  0.00     0.166 HD
ENDROOT
BRANCH   9  11
ATOM     11  O   UNL     1      70.122  25.321  57.052  1.00  0.00    -0.508 OA
ATOM     12  H   UNL     1      70.968  24.949  57.469  1.00  0.00     0.293 HD
ENDBRANCH   9  11
TORSDOF 1
ENDMDL
MODEL 8
REMARK VINA RESULT:    -4.790      7.423      8.538
REMARK INTER + INTRA:          -4.930
REMARK INTER:                  -4.930
REMARK INTRA:                   0.000
REMARK UNBOUND:                 0.000
REMARK SMILES Oc1ccc2[nH]ccc2c1
REMARK SMILES IDX 3 1 4 2 5 3 9 4 8 5 7 6 6 7 10 8 2 9 1 11
REMARK H PARENT 6 10 1 12
REMARK Flexibility Score: inf
ROOT
ATOM      1  C   UNL     1      73.015  34.982  48.186  1.00  0.00     0.048 A 
ATOM      2  C   UNL     1      74.387  34.957  47.875  1.00  0.00     0.030 A 
ATOM      3  C   UNL     1      75.295  34.930  48.933  1.00  0.00     0.046 A 
ATOM      4  C   UNL     1      74.879  34.926  50.238  1.00  0.00     0.003 A 
ATOM      5  C   UNL     1      76.006  34.897  51.029  1.00  0.00     0.028 A 
ATOM      6  C   UNL     1      77.075  34.885  50.137  1.00  0.00     0.083 A 
ATOM      7  N   UNL     1      76.635  34.905  48.858  1.00  0.00    -0.361 N 
ATOM      8  C   UNL     1      73.529  34.950  50.580  1.00  0.00     0.056 A 
ATOM      9  C   UNL     1      72.584  34.978  49.536  1.00  0.00     0.116 A 
ATOM     10  H   UNL     1      77.221  34.901  47.994  1.00  0.00     0.166 HD
ENDROOT
BRANCH   9  11
ATOM     11  O   UNL     1      71.226  35.002  49.844  1.00  0.00    -0.508 OA
ATOM     12  H   UNL     1      70.521  35.084  49.120  1.00  0.00     0.293 HD
ENDBRANCH   9  11
TORSDOF 1
ENDMDL
MODEL 9
REMARK VINA RESULT:    -4.490      8.038      9.365
REMARK INTER + INTRA:          -4.621
REMARK INTER:                  -4.621
REMARK INTRA:                   0.000
REMARK UNBOUND:                 0.000
REMARK SMILES Oc1ccc2[nH]ccc2c1
REMARK SMILES IDX 3 1 4 2 5 3 9 4 8 5 7 6 6 7 10 8 2 9 1 11
REMARK H PARENT 6 10 1 12
REMARK Flexibility Score: inf
ROOT
ATOM      1  C   UNL     1      77.209  34.991  50.173  1.00  0.00     0.048 A 
ATOM      2  C   UNL     1      75.909  35.016  50.711  1.00  0.00     0.030 A 
ATOM      3  C   UNL     1      74.836  35.014  49.821  1.00  0.00     0.046 A 
ATOM      4  C   UNL     1      75.025  34.989  48.465  1.00  0.00     0.003 A 
ATOM      5  C   UNL     1      73.781  34.994  47.875  1.00  0.00     0.028 A 
ATOM      6  C   UNL     1      72.878  35.024  48.934  1.00  0.00     0.083 A 
ATOM      7  N   UNL     1      73.527  35.035  50.120  1.00  0.00    -0.361 N 
ATOM      8  C   UNL     1      76.299  34.963  47.900  1.00  0.00     0.056 A 
ATOM      9  C   UNL     1      77.406  34.964  48.770  1.00  0.00     0.116 A 
ATOM     10  H   UNL     1      73.095  35.057  51.071  1.00  0.00     0.166 HD
ENDROOT
BRANCH   9  11
ATOM     11  O   UNL     1      78.693  34.940  48.238  1.00  0.00    -0.508 OA
ATOM     12  H   UNL     1      79.508  34.819  48.830  1.00  0.00     0.293 HD
ENDBRANCH   9  11
TORSDOF 1
ENDMDL
