MODEL 1
REMARK VINA RESULT:    -7.975      0.000      0.000
REMARK INTER + INTRA:          -9.996
REMARK INTER:                  -9.606
REMARK INTRA:                  -0.390
REMARK UNBOUND:                -0.390
REMARK SMILES O=c1c(O)c(-c2ccc(O)cc2O)oc2cc(O)cc(O)c12
REMARK SMILES IDX 5 1 3 2 2 3 1 4 22 5 20 6 19 7 17 8 16 9 15 10 14 11 6 12
REMARK SMILES IDX 8 13 7 14 9 15 11 16 12 17 10 18 13 20 4 22 21 24 18 26
REMARK H PARENT 10 19 13 21 4 23 21 25 18 27
REMARK Flexibility Score: inf
ROOT
ATOM      1  C   UNL     1      19.620   6.580  76.189  1.00  0.00     0.184 A 
ATOM      2  C   UNL     1      19.182   7.575  75.299  1.00  0.00     0.208 A 
ATOM      3  C   UNL     1      18.490   8.686  75.806  1.00  0.00     0.238 A 
ATOM      4  O   UNL     1      18.150   9.601  75.011  1.00  0.00    -0.285 OA
ATOM      5  C   UNL     1      18.226   8.778  77.195  1.00  0.00     0.111 A 
ATOM      6  C   UNL     1      17.498   9.839  77.813  1.00  0.00     0.134 A 
ATOM      7  C   UNL     1      17.408   9.892  79.209  1.00  0.00     0.093 A 
ATOM      8  C   UNL     1      17.964   8.887  80.005  1.00  0.00     0.123 A 
ATOM      9  C   UNL     1      18.624   7.818  79.408  1.00  0.00     0.094 A 
ATOM     10  C   UNL     1      18.763   7.755  78.019  1.00  0.00     0.146 A 
ATOM     11  O   UNL     1      19.410   6.723  77.493  1.00  0.00    -0.451 OA
ENDROOT
BRANCH   1  12
ATOM     12  C   UNL     1      20.334   5.371  75.719  1.00  0.00     0.063 A 
ATOM     13  C   UNL     1      22.416   4.212  75.219  1.00  0.00     0.047 A 
ATOM     14  C   UNL     1      21.741   5.341  75.689  1.00  0.00     0.020 A 
ATOM     15  C   UNL     1      21.698   3.100  74.764  1.00  0.00     0.119 A 
ATOM     16  C   UNL     1      20.300   3.125  74.777  1.00  0.00     0.093 A 
ATOM     17  C   UNL     1      19.614   4.254  75.248  1.00  0.00     0.130 A 
BRANCH  15  18
ATOM     18  O   UNL     1      22.361   1.969  74.293  1.00  0.00    -0.508 OA
ATOM     19  H   UNL     1      23.343   1.996  74.047  1.00  0.00     0.293 HD
ENDBRANCH  15  18
BRANCH  17  20
ATOM     20  O   UNL     1      18.218   4.262  75.263  1.00  0.00    -0.507 OA
ATOM     21  H   UNL     1      17.694   4.080  76.111  1.00  0.00     0.293 HD
ENDBRANCH  17  20
ENDBRANCH   1  12
BRANCH   2  22
ATOM     22  O   UNL     1      19.466   7.469  73.935  1.00  0.00    -0.502 OA
ATOM     23  H   UNL     1      19.293   6.621  73.408  1.00  0.00     0.293 HD
ENDBRANCH   2  22
BRANCH   6  24
ATOM     24  O   UNL     1      16.828  10.842  77.106  1.00  0.00    -0.507 OA
ATOM     25  H   UNL     1      15.854  10.809  76.847  1.00  0.00     0.293 HD
ENDBRANCH   6  24
BRANCH   8  26
ATOM     26  O   UNL     1      17.855   8.940  81.394  1.00  0.00    -0.508 OA
ATOM     27  H   UNL     1      18.674   8.970  81.989  1.00  0.00     0.293 HD
ENDBRANCH   8  26
TORSDOF 6
ENDMDL
MODEL 2
REMARK VINA RESULT:    -7.924      2.860      7.806
REMARK INTER + INTRA:          -9.934
REMARK INTER:                  -9.538
REMARK INTRA:                  -0.397
REMARK UNBOUND:                -0.390
REMARK SMILES O=c1c(O)c(-c2ccc(O)cc2O)oc2cc(O)cc(O)c12
REMARK SMILES IDX 5 1 3 2 2 3 1 4 22 5 20 6 19 7 17 8 16 9 15 10 14 11 6 12
REMARK SMILES IDX 8 13 7 14 9 15 11 16 12 17 10 18 13 20 4 22 21 24 18 26
REMARK H PARENT 10 19 13 21 4 23 21 25 18 27
REMARK Flexibility Score: inf
ROOT
ATOM      1  C   UNL     1      17.120   9.537  79.487  1.00  0.00     0.184 A 
ATOM      2  C   UNL     1      18.159   8.783  80.058  1.00  0.00     0.208 A 
ATOM      3  C   UNL     1      19.123   8.205  79.217  1.00  0.00     0.238 A 
ATOM      4  O   UNL     1      20.082   7.579  79.738  1.00  0.00    -0.285 OA
ATOM      5  C   UNL     1      19.024   8.372  77.813  1.00  0.00     0.111 A 
ATOM      6  C   UNL     1      19.922   7.798  76.864  1.00  0.00     0.134 A 
ATOM      7  C   UNL     1      19.803   8.135  75.510  1.00  0.00     0.093 A 
ATOM      8  C   UNL     1      18.778   8.973  75.064  1.00  0.00     0.123 A 
ATOM      9  C   UNL     1      17.862   9.490  75.975  1.00  0.00     0.094 A 
ATOM     10  C   UNL     1      17.976   9.202  77.338  1.00  0.00     0.146 A 
ATOM     11  O   UNL     1      17.088   9.726  78.173  1.00  0.00    -0.451 OA
ENDROOT
BRANCH   1  12
ATOM     12  C   UNL     1      16.057  10.153  80.314  1.00  0.00     0.063 A 
ATOM     13  C   UNL     1      15.368  11.759  82.010  1.00  0.00     0.047 A 
ATOM     14  C   UNL     1      16.365  11.195  81.209  1.00  0.00     0.020 A 
ATOM     15  C   UNL     1      14.054  11.284  81.937  1.00  0.00     0.119 A 
ATOM     16  C   UNL     1      13.741  10.239  81.062  1.00  0.00     0.093 A 
ATOM     17  C   UNL     1      14.735   9.669  80.253  1.00  0.00     0.130 A 
BRANCH  15  18
ATOM     18  O   UNL     1      13.053  11.838  82.732  1.00  0.00    -0.508 OA
ATOM     19  H   UNL     1      12.158  11.378  82.852  1.00  0.00     0.293 HD
ENDBRANCH  15  18
BRANCH  17  20
ATOM     20  O   UNL     1      14.406   8.632  79.378  1.00  0.00    -0.507 OA
ATOM     21  H   UNL     1      15.103   8.192  78.789  1.00  0.00     0.293 HD
ENDBRANCH  17  20
ENDBRANCH   1  12
BRANCH   2  22
ATOM     22  O   UNL     1      18.243   8.643  81.446  1.00  0.00    -0.502 OA
ATOM     23  H   UNL     1      17.568   8.110  81.981  1.00  0.00     0.293 HD
ENDBRANCH   2  22
BRANCH   6  24
ATOM     24  O   UNL     1      20.923   6.879  77.192  1.00  0.00    -0.507 OA
ATOM     25  H   UNL     1      21.313   6.758  78.114  1.00  0.00     0.293 HD
ENDBRANCH   6  24
BRANCH   8  26
ATOM     26  O   UNL     1      18.657   9.290  73.712  1.00  0.00    -0.508 OA
ATOM     27  H   UNL     1      19.128  10.093  73.312  1.00  0.00     0.293 HD
ENDBRANCH   8  26
TORSDOF 6
ENDMDL
MODEL 3
REMARK VINA RESULT:    -7.858      4.759      9.822
REMARK INTER + INTRA:          -9.855
REMARK INTER:                  -9.441
REMARK INTRA:                  -0.414
REMARK UNBOUND:                -0.390
REMARK SMILES O=c1c(O)c(-c2ccc(O)cc2O)oc2cc(O)cc(O)c12
REMARK SMILES IDX 5 1 3 2 2 3 1 4 22 5 20 6 19 7 17 8 16 9 15 10 14 11 6 12
REMARK SMILES IDX 8 13 7 14 9 15 11 16 12 17 10 18 13 20 4 22 21 24 18 26
REMARK H PARENT 10 19 13 21 4 23 21 25 18 27
REMARK Flexibility Score: inf
ROOT
ATOM      1  C   UNL     1      14.173  10.114  81.564  1.00  0.00     0.184 A 
ATOM      2  C   UNL     1      15.135   9.495  82.379  1.00  0.00     0.208 A 
ATOM      3  C   UNL     1      16.345   9.074  81.806  1.00  0.00     0.238 A 
ATOM      4  O   UNL     1      17.225   8.573  82.552  1.00  0.00    -0.285 OA
ATOM      5  C   UNL     1      16.569   9.260  80.419  1.00  0.00     0.111 A 
ATOM      6  C   UNL     1      17.742   8.836  79.724  1.00  0.00     0.134 A 
ATOM      7  C   UNL     1      17.911   9.185  78.379  1.00  0.00     0.093 A 
ATOM      8  C   UNL     1      16.920   9.886  77.687  1.00  0.00     0.123 A 
ATOM      9  C   UNL     1      15.747  10.252  78.341  1.00  0.00     0.094 A 
ATOM     10  C   UNL     1      15.565   9.950  79.693  1.00  0.00     0.146 A 
ATOM     11  O   UNL     1      14.436  10.328  80.280  1.00  0.00    -0.451 OA
ENDROOT
BRANCH   1  12
ATOM     12  C   UNL     1      12.866  10.561  82.099  1.00  0.00     0.063 A 
ATOM     13  C   UNL     1      11.565  12.063  83.506  1.00  0.00     0.047 A 
ATOM     14  C   UNL     1      12.793  11.658  82.978  1.00  0.00     0.020 A 
ATOM     15  C   UNL     1      10.393  11.373  83.173  1.00  0.00     0.119 A 
ATOM     16  C   UNL     1      10.457  10.273  82.312  1.00  0.00     0.093 A 
ATOM     17  C   UNL     1      11.686   9.861  81.776  1.00  0.00     0.130 A 
BRANCH  15  18
ATOM     18  O   UNL     1       9.163  11.767  83.694  1.00  0.00    -0.508 OA
ATOM     19  H   UNL     1       8.305  11.653  83.168  1.00  0.00     0.293 HD
ENDBRANCH  15  18
BRANCH  17  20
ATOM     20  O   UNL     1      11.734   8.766  80.912  1.00  0.00    -0.507 OA
ATOM     21  H   UNL     1      10.892   8.287  80.613  1.00  0.00     0.293 HD
ENDBRANCH  17  20
ENDBRANCH   1  12
BRANCH   2  22
ATOM     22  O   UNL     1      14.897   9.336  83.747  1.00  0.00    -0.502 OA
ATOM     23  H   UNL     1      15.036  10.086  84.414  1.00  0.00     0.293 HD
ENDBRANCH   2  22
BRANCH   6  24
ATOM     24  O   UNL     1      18.749   8.053  80.297  1.00  0.00    -0.507 OA
ATOM     25  H   UNL     1      18.913   7.081  80.084  1.00  0.00     0.293 HD
ENDBRANCH   6  24
BRANCH   8  26
ATOM     26  O   UNL     1      17.090  10.215  76.344  1.00  0.00    -0.508 OA
ATOM     27  H   UNL     1      18.011  10.339  75.940  1.00  0.00     0.293 HD
ENDBRANCH   8  26
TORSDOF 6
ENDMDL
MODEL 4
REMARK VINA RESULT:    -7.718      2.119      6.899
REMARK INTER + INTRA:          -9.687
REMARK INTER:                  -9.426
REMARK INTRA:                  -0.261
REMARK UNBOUND:                -0.390
REMARK SMILES O=c1c(O)c(-c2ccc(O)cc2O)oc2cc(O)cc(O)c12
REMARK SMILES IDX 5 1 3 2 2 3 1 4 22 5 20 6 19 7 17 8 16 9 15 10 14 11 6 12
REMARK SMILES IDX 8 13 7 14 9 15 11 16 12 17 10 18 13 20 4 22 21 24 18 26
REMARK H PARENT 10 19 13 21 4 23 21 25 18 27
REMARK Flexibility Score: inf
ROOT
ATOM      1  C   UNL     1      17.832   7.902  78.503  1.00  0.00     0.184 A 
ATOM      2  C   UNL     1      18.483   8.176  77.289  1.00  0.00     0.208 A 
ATOM      3  C   UNL     1      18.950   7.107  76.510  1.00  0.00     0.238 A 
ATOM      4  O   UNL     1      19.483   7.356  75.397  1.00  0.00    -0.285 OA
ATOM      5  C   UNL     1      18.777   5.776  76.964  1.00  0.00     0.111 A 
ATOM      6  C   UNL     1      19.246   4.617  76.275  1.00  0.00     0.134 A 
ATOM      7  C   UNL     1      18.906   3.346  76.754  1.00  0.00     0.093 A 
ATOM      8  C   UNL     1      18.171   3.192  77.931  1.00  0.00     0.123 A 
ATOM      9  C   UNL     1      17.760   4.316  78.642  1.00  0.00     0.094 A 
ATOM     10  C   UNL     1      18.052   5.599  78.171  1.00  0.00     0.146 A 
ATOM     11  O   UNL     1      17.631   6.643  78.874  1.00  0.00    -0.451 OA
ENDROOT
BRANCH   1  12
ATOM     12  C   UNL     1      17.336   8.984  79.385  1.00  0.00     0.063 A 
ATOM     13  C   UNL     1      16.031  11.015  79.703  1.00  0.00     0.047 A 
ATOM     14  C   UNL     1      16.478   9.978  78.880  1.00  0.00     0.020 A 
ATOM     15  C   UNL     1      16.443  11.080  81.040  1.00  0.00     0.119 A 
ATOM     16  C   UNL     1      17.307  10.105  81.547  1.00  0.00     0.093 A 
ATOM     17  C   UNL     1      17.758   9.059  80.728  1.00  0.00     0.130 A 
BRANCH  15  18
ATOM     18  O   UNL     1      16.005  12.109  81.869  1.00  0.00    -0.508 OA
ATOM     19  H   UNL     1      16.466  12.312  82.749  1.00  0.00     0.293 HD
ENDBRANCH  15  18
BRANCH  17  20
ATOM     20  O   UNL     1      18.614   8.088  81.250  1.00  0.00    -0.507 OA
ATOM     21  H   UNL     1      19.288   7.604  80.668  1.00  0.00     0.293 HD
ENDBRANCH  17  20
ENDBRANCH   1  12
BRANCH   2  22
ATOM     22  O   UNL     1      18.630   9.496  76.855  1.00  0.00    -0.502 OA
ATOM     23  H   UNL     1      19.225   9.749  76.075  1.00  0.00     0.293 HD
ENDBRANCH   2  22
BRANCH   6  24
ATOM     24  O   UNL     1      20.064   4.659  75.142  1.00  0.00    -0.507 OA
ATOM     25  H   UNL     1      20.985   4.253  75.082  1.00  0.00     0.293 HD
ENDBRANCH   6  24
BRANCH   8  26
ATOM     26  O   UNL     1      17.852   1.922  78.409  1.00  0.00    -0.508 OA
ATOM     27  H   UNL     1      17.927   1.691  79.393  1.00  0.00     0.293 HD
ENDBRANCH   8  26
TORSDOF 6
ENDMDL
MODEL 5
REMARK VINA RESULT:    -7.713      3.962      6.990
REMARK INTER + INTRA:          -9.681
REMARK INTER:                  -9.465
REMARK INTRA:                  -0.216
REMARK UNBOUND:                -0.390
REMARK SMILES O=c1c(O)c(-c2ccc(O)cc2O)oc2cc(O)cc(O)c12
REMARK SMILES IDX 5 1 3 2 2 3 1 4 22 5 20 6 19 7 17 8 16 9 15 10 14 11 6 12
REMARK SMILES IDX 8 13 7 14 9 15 11 16 12 17 10 18 13 20 4 22 21 24 18 26
REMARK H PARENT 10 19 13 21 4 23 21 25 18 27
REMARK Flexibility Score: inf
ROOT
ATOM      1  C   UNL     1      17.650   4.878  79.963  1.00  0.00     0.184 A 
ATOM      2  C   UNL     1      18.305   6.103  80.168  1.00  0.00     0.208 A 
ATOM      3  C   UNL     1      19.193   6.574  79.188  1.00  0.00     0.238 A 
ATOM      4  O   UNL     1      19.734   7.698  79.351  1.00  0.00    -0.285 OA
ATOM      5  C   UNL     1      19.430   5.802  78.023  1.00  0.00     0.111 A 
ATOM      6  C   UNL     1      20.339   6.162  76.983  1.00  0.00     0.134 A 
ATOM      7  C   UNL     1      20.397   5.386  75.819  1.00  0.00     0.093 A 
ATOM      8  C   UNL     1      19.626   4.229  75.685  1.00  0.00     0.123 A 
ATOM      9  C   UNL     1      18.781   3.838  76.719  1.00  0.00     0.094 A 
ATOM     10  C   UNL     1      18.673   4.610  77.878  1.00  0.00     0.146 A 
ATOM     11  O   UNL     1      17.846   4.206  78.834  1.00  0.00    -0.451 OA
ENDROOT
BRANCH   1  12
ATOM     12  C   UNL     1      16.719   4.313  80.967  1.00  0.00     0.063 A 
ATOM     13  C   UNL     1      14.821   4.578  82.469  1.00  0.00     0.047 A 
ATOM     14  C   UNL     1      15.683   5.100  81.501  1.00  0.00     0.020 A 
ATOM     15  C   UNL     1      14.988   3.265  82.924  1.00  0.00     0.119 A 
ATOM     16  C   UNL     1      16.024   2.478  82.411  1.00  0.00     0.093 A 
ATOM     17  C   UNL     1      16.892   2.995  81.437  1.00  0.00     0.130 A 
BRANCH  15  18
ATOM     18  O   UNL     1      14.136   2.733  83.890  1.00  0.00    -0.508 OA
ATOM     19  H   UNL     1      13.844   3.276  84.694  1.00  0.00     0.293 HD
ENDBRANCH  15  18
BRANCH  17  20
ATOM     20  O   UNL     1      17.917   2.196  80.928  1.00  0.00    -0.507 OA
ATOM     21  H   UNL     1      17.820   1.706  80.046  1.00  0.00     0.293 HD
ENDBRANCH  17  20
ENDBRANCH   1  12
BRANCH   2  22
ATOM     22  O   UNL     1      18.046   6.853  81.318  1.00  0.00    -0.502 OA
ATOM     23  H   UNL     1      18.458   6.631  82.217  1.00  0.00     0.293 HD
ENDBRANCH   2  22
BRANCH   6  24
ATOM     24  O   UNL     1      21.218   7.246  77.055  1.00  0.00    -0.507 OA
ATOM     25  H   UNL     1      20.970   8.168  77.381  1.00  0.00     0.293 HD
ENDBRANCH   6  24
BRANCH   8  26
ATOM     26  O   UNL     1      19.703   3.454  74.529  1.00  0.00    -0.508 OA
ATOM     27  H   UNL     1      18.914   3.362  73.899  1.00  0.00     0.293 HD
ENDBRANCH   8  26
TORSDOF 6
ENDMDL
MODEL 6
REMARK VINA RESULT:    -7.659      2.436      7.195
REMARK INTER + INTRA:          -9.616
REMARK INTER:                  -9.143
REMARK INTRA:                  -0.473
REMARK UNBOUND:                -0.390
REMARK SMILES O=c1c(O)c(-c2ccc(O)cc2O)oc2cc(O)cc(O)c12
REMARK SMILES IDX 5 1 3 2 2 3 1 4 22 5 20 6 19 7 17 8 16 9 15 10 14 11 6 12
REMARK SMILES IDX 8 13 7 14 9 15 11 16 12 17 10 18 13 20 4 22 21 24 18 26
REMARK H PARENT 10 19 13 21 4 23 21 25 18 27
REMARK Flexibility Score: inf
ROOT
ATOM      1  C   UNL     1      17.286   8.508  78.681  1.00  0.00     0.184 A 
ATOM      2  C   UNL     1      16.353   7.522  78.322  1.00  0.00     0.208 A 
ATOM      3  C   UNL     1      16.621   6.699  77.217  1.00  0.00     0.238 A 
ATOM      4  O   UNL     1      15.808   5.781  76.935  1.00  0.00    -0.285 OA
ATOM      5  C   UNL     1      17.811   6.888  76.471  1.00  0.00     0.111 A 
ATOM      6  C   UNL     1      18.166   6.139  75.308  1.00  0.00     0.134 A 
ATOM      7  C   UNL     1      19.426   6.325  74.727  1.00  0.00     0.093 A 
ATOM      8  C   UNL     1      20.316   7.278  75.226  1.00  0.00     0.123 A 
ATOM      9  C   UNL     1      19.955   8.054  76.323  1.00  0.00     0.094 A 
ATOM     10  C   UNL     1      18.719   7.867  76.948  1.00  0.00     0.146 A 
ATOM     11  O   UNL     1      18.420   8.621  77.999  1.00  0.00    -0.451 OA
ENDROOT
BRANCH   1  12
ATOM     12  C   UNL     1      17.055   9.425  79.821  1.00  0.00     0.063 A 
ATOM     13  C   UNL     1      16.059  11.453  80.729  1.00  0.00     0.047 A 
ATOM     14  C   UNL     1      16.255  10.572  79.662  1.00  0.00     0.020 A 
ATOM     15  C   UNL     1      16.666  11.207  81.966  1.00  0.00     0.119 A 
ATOM     16  C   UNL     1      17.475  10.078  82.129  1.00  0.00     0.093 A 
ATOM     17  C   UNL     1      17.675   9.187  81.064  1.00  0.00     0.130 A 
BRANCH  15  18
ATOM     18  O   UNL     1      16.479  12.078  83.036  1.00  0.00    -0.508 OA
ATOM     19  H   UNL     1      16.274  11.736  83.967  1.00  0.00     0.293 HD
ENDBRANCH  15  18
BRANCH  17  20
ATOM     20  O   UNL     1      18.478   8.060  81.244  1.00  0.00    -0.507 OA
ATOM     21  H   UNL     1      19.088   7.965  82.048  1.00  0.00     0.293 HD
ENDBRANCH  17  20
ENDBRANCH   1  12
BRANCH   2  22
ATOM     22  O   UNL     1      15.193   7.345  79.081  1.00  0.00    -0.502 OA
ATOM     23  H   UNL     1      15.161   7.529  80.077  1.00  0.00     0.293 HD
ENDBRANCH   2  22
BRANCH   6  24
ATOM     24  O   UNL     1      17.314   5.228  74.676  1.00  0.00    -0.507 OA
ATOM     25  H   UNL     1      16.530   5.483  74.094  1.00  0.00     0.293 HD
ENDBRANCH   6  24
BRANCH   8  26
ATOM     26  O   UNL     1      21.562   7.467  74.630  1.00  0.00    -0.508 OA
ATOM     27  H   UNL     1      22.422   7.378  75.159  1.00  0.00     0.293 HD
ENDBRANCH   8  26
TORSDOF 6
ENDMDL
MODEL 7
REMARK VINA RESULT:    -7.599      2.773      7.643
REMARK INTER + INTRA:          -9.544
REMARK INTER:                  -9.146
REMARK INTRA:                  -0.398
REMARK UNBOUND:                -0.390
REMARK SMILES O=c1c(O)c(-c2ccc(O)cc2O)oc2cc(O)cc(O)c12
REMARK SMILES IDX 5 1 3 2 2 3 1 4 22 5 20 6 19 7 17 8 16 9 15 10 14 11 6 12
REMARK SMILES IDX 8 13 7 14 9 15 11 16 12 17 10 18 13 20 4 22 21 24 18 26
REMARK H PARENT 10 19 13 21 4 23 21 25 18 27
REMARK Flexibility Score: inf
ROOT
ATOM      1  C   UNL     1      17.315   7.045  79.696  1.00  0.00     0.184 A 
ATOM      2  C   UNL     1      17.280   5.945  80.570  1.00  0.00     0.208 A 
ATOM      3  C   UNL     1      17.575   4.667  80.070  1.00  0.00     0.238 A 
ATOM      4  O   UNL     1      17.598   3.695  80.868  1.00  0.00    -0.285 OA
ATOM      5  C   UNL     1      17.883   4.502  78.696  1.00  0.00     0.111 A 
ATOM      6  C   UNL     1      18.159   3.248  78.073  1.00  0.00     0.134 A 
ATOM      7  C   UNL     1      18.576   3.220  76.736  1.00  0.00     0.093 A 
ATOM      8  C   UNL     1      18.663   4.393  75.983  1.00  0.00     0.123 A 
ATOM      9  C   UNL     1      18.338   5.615  76.566  1.00  0.00     0.094 A 
ATOM     10  C   UNL     1      17.954   5.681  77.908  1.00  0.00     0.146 A 
ATOM     11  O   UNL     1      17.665   6.867  78.427  1.00  0.00    -0.451 OA
ENDROOT
BRANCH   1  12
ATOM     12  C   UNL     1      16.990   8.416  80.153  1.00  0.00     0.063 A 
ATOM     13  C   UNL     1      17.513  10.364  81.517  1.00  0.00     0.047 A 
ATOM     14  C   UNL     1      17.832   9.081  81.063  1.00  0.00     0.020 A 
ATOM     15  C   UNL     1      16.344  10.996  81.076  1.00  0.00     0.119 A 
ATOM     16  C   UNL     1      15.494  10.337  80.182  1.00  0.00     0.093 A 
ATOM     17  C   UNL     1      15.808   9.050  79.720  1.00  0.00     0.130 A 
BRANCH  15  18
ATOM     18  O   UNL     1      16.016  12.274  81.522  1.00  0.00    -0.508 OA
ATOM     19  H   UNL     1      15.051  12.568  81.619  1.00  0.00     0.293 HD
ENDBRANCH  15  18
BRANCH  17  20
ATOM     20  O   UNL     1      14.954   8.408  78.822  1.00  0.00    -0.507 OA
ATOM     21  H   UNL     1      14.730   7.424  78.913  1.00  0.00     0.293 HD
ENDBRANCH  17  20
ENDBRANCH   1  12
BRANCH   2  22
ATOM     22  O   UNL     1      16.987   6.134  81.923  1.00  0.00    -0.502 OA
ATOM     23  H   UNL     1      17.061   5.388  82.605  1.00  0.00     0.293 HD
ENDBRANCH   2  22
BRANCH   6  24
ATOM     24  O   UNL     1      18.015   2.012  78.708  1.00  0.00    -0.507 OA
ATOM     25  H   UNL     1      17.487   1.234  78.340  1.00  0.00     0.293 HD
ENDBRANCH   6  24
BRANCH   8  26
ATOM     26  O   UNL     1      19.063   4.353  74.649  1.00  0.00    -0.508 OA
ATOM     27  H   UNL     1      19.641   5.082  74.246  1.00  0.00     0.293 HD
ENDBRANCH   8  26
TORSDOF 6
ENDMDL
MODEL 8
REMARK VINA RESULT:    -7.576      1.881      3.303
REMARK INTER + INTRA:          -9.516
REMARK INTER:                  -9.031
REMARK INTRA:                  -0.485
REMARK UNBOUND:                -0.390
REMARK SMILES O=c1c(O)c(-c2ccc(O)cc2O)oc2cc(O)cc(O)c12
REMARK SMILES IDX 5 1 3 2 2 3 1 4 22 5 20 6 19 7 17 8 16 9 15 10 14 11 6 12
REMARK SMILES IDX 8 13 7 14 9 15 11 16 12 17 10 18 13 20 4 22 21 24 18 26
REMARK H PARENT 10 19 13 21 4 23 21 25 18 27
REMARK Flexibility Score: inf
ROOT
ATOM      1  C   UNL     1      17.828   7.992  77.870  1.00  0.00     0.184 A 
ATOM      2  C   UNL     1      17.466   9.276  77.430  1.00  0.00     0.208 A 
ATOM      3  C   UNL     1      17.005  10.213  78.368  1.00  0.00     0.238 A 
ATOM      4  O   UNL     1      16.736  11.378  77.977  1.00  0.00    -0.285 OA
ATOM      5  C   UNL     1      16.893   9.847  79.732  1.00  0.00     0.111 A 
ATOM      6  C   UNL     1      16.400  10.703  80.763  1.00  0.00     0.134 A 
ATOM      7  C   UNL     1      16.454  10.279  82.096  1.00  0.00     0.093 A 
ATOM      8  C   UNL     1      16.921   9.005  82.429  1.00  0.00     0.123 A 
ATOM      9  C   UNL     1      17.349   8.141  81.424  1.00  0.00     0.094 A 
ATOM     10  C   UNL     1      17.342   8.549  80.088  1.00  0.00     0.146 A 
ATOM     11  O   UNL     1      17.769   7.698  79.164  1.00  0.00    -0.451 OA
ENDROOT
BRANCH   1  12
ATOM     12  C   UNL     1      18.299   6.948  76.930  1.00  0.00     0.063 A 
ATOM     13  C   UNL     1      17.822   5.240  75.263  1.00  0.00     0.047 A 
ATOM     14  C   UNL     1      17.382   6.244  76.129  1.00  0.00     0.020 A 
ATOM     15  C   UNL     1      19.182   4.918  75.192  1.00  0.00     0.119 A 
ATOM     16  C   UNL     1      20.100   5.602  75.994  1.00  0.00     0.093 A 
ATOM     17  C   UNL     1      19.667   6.613  76.865  1.00  0.00     0.130 A 
BRANCH  15  18
ATOM     18  O   UNL     1      19.632   3.918  74.332  1.00  0.00    -0.508 OA
ATOM     19  H   UNL     1      19.685   2.950  74.629  1.00  0.00     0.293 HD
ENDBRANCH  15  18
BRANCH  17  20
ATOM     20  O   UNL     1      20.595   7.293  77.655  1.00  0.00    -0.507 OA
ATOM     21  H   UNL     1      21.593   7.204  77.498  1.00  0.00     0.293 HD
ENDBRANCH  17  20
ENDBRANCH   1  12
BRANCH   2  22
ATOM     22  O   UNL     1      17.598   9.618  76.082  1.00  0.00    -0.502 OA
ATOM     23  H   UNL     1      17.303  10.516  75.717  1.00  0.00     0.293 HD
ENDBRANCH   2  22
BRANCH   6  24
ATOM     24  O   UNL     1      15.828  11.957  80.530  1.00  0.00    -0.507 OA
ATOM     25  H   UNL     1      16.338  12.828  80.512  1.00  0.00     0.293 HD
ENDBRANCH   6  24
BRANCH   8  26
ATOM     26  O   UNL     1      16.955   8.586  83.757  1.00  0.00    -0.508 OA
ATOM     27  H   UNL     1      16.296   7.904  84.115  1.00  0.00     0.293 HD
ENDBRANCH   8  26
TORSDOF 6
ENDMDL
MODEL 9
REMARK VINA RESULT:    -7.550      6.000      9.942
REMARK INTER + INTRA:          -9.485
REMARK INTER:                  -9.009
REMARK INTRA:                  -0.476
REMARK UNBOUND:                -0.390
REMARK SMILES O=c1c(O)c(-c2ccc(O)cc2O)oc2cc(O)cc(O)c12
REMARK SMILES IDX 5 1 3 2 2 3 1 4 22 5 20 6 19 7 17 8 16 9 15 10 14 11 6 12
REMARK SMILES IDX 8 13 7 14 9 15 11 16 12 17 10 18 13 20 4 22 21 24 18 26
REMARK H PARENT 10 19 13 21 4 23 21 25 18 27
REMARK Flexibility Score: inf
ROOT
ATOM      1  C   UNL     1      13.740   8.358  81.932  1.00  0.00     0.184 A 
ATOM      2  C   UNL     1      14.838   8.562  81.080  1.00  0.00     0.208 A 
ATOM      3  C   UNL     1      15.743   7.510  80.871  1.00  0.00     0.238 A 
ATOM      4  O   UNL     1      16.693   7.680  80.063  1.00  0.00    -0.285 OA
ATOM      5  C   UNL     1      15.550   6.273  81.535  1.00  0.00     0.111 A 
ATOM      6  C   UNL     1      16.427   5.151  81.428  1.00  0.00     0.134 A 
ATOM      7  C   UNL     1      16.069   3.937  82.027  1.00  0.00     0.093 A 
ATOM      8  C   UNL     1      14.899   3.823  82.782  1.00  0.00     0.123 A 
ATOM      9  C   UNL     1      14.068   4.928  82.940  1.00  0.00     0.094 A 
ATOM     10  C   UNL     1      14.379   6.144  82.325  1.00  0.00     0.146 A 
ATOM     11  O   UNL     1      13.552   7.168  82.492  1.00  0.00    -0.451 OA
ENDROOT
BRANCH   1  12
ATOM     12  C   UNL     1      12.760   9.432  82.214  1.00  0.00     0.063 A 
ATOM     13  C   UNL     1      12.103  11.411  83.472  1.00  0.00     0.047 A 
ATOM     14  C   UNL     1      13.038  10.413  83.184  1.00  0.00     0.020 A 
ATOM     15  C   UNL     1      10.874  11.437  82.803  1.00  0.00     0.119 A 
ATOM     16  C   UNL     1      10.582  10.459  81.848  1.00  0.00     0.093 A 
ATOM     17  C   UNL     1      11.516   9.455  81.552  1.00  0.00     0.130 A 
BRANCH  15  18
ATOM     18  O   UNL     1       9.933  12.427  83.082  1.00  0.00    -0.508 OA
ATOM     19  H   UNL     1       8.948  12.209  83.174  1.00  0.00     0.293 HD
ENDBRANCH  15  18
BRANCH  17  20
ATOM     20  O   UNL     1      11.215   8.489  80.590  1.00  0.00    -0.507 OA
ATOM     21  H   UNL     1      11.917   7.845  80.244  1.00  0.00     0.293 HD
ENDBRANCH  17  20
ENDBRANCH   1  12
BRANCH   2  22
ATOM     22  O   UNL     1      15.000   9.786  80.426  1.00  0.00    -0.502 OA
ATOM     23  H   UNL     1      15.077  10.664  80.927  1.00  0.00     0.293 HD
ENDBRANCH   2  22
BRANCH   6  24
ATOM     24  O   UNL     1      17.663   5.184  80.776  1.00  0.00    -0.507 OA
ATOM     25  H   UNL     1      18.402   4.512  80.910  1.00  0.00     0.293 HD
ENDBRANCH   6  24
BRANCH   8  26
ATOM     26  O   UNL     1      14.559   2.615  83.388  1.00  0.00    -0.508 OA
ATOM     27  H   UNL     1      13.962   1.939  82.926  1.00  0.00     0.293 HD
ENDBRANCH   8  26
TORSDOF 6
ENDMDL
