MODEL 1
REMARK VINA RESULT:    -4.291      0.000      0.000
REMARK INTER + INTRA:         -10.247
REMARK INTER:                  -7.803
REMARK INTRA:                  -2.445
REMARK UNBOUND:                -2.445
REMARK SMILES CCCCCCCCCCCCCC[C@H](C)C(=O)[O-]
REMARK SMILES IDX 9 1 10 2 11 3 12 4 13 5 14 6 15 7 16 8 17 9 18 10 19 11 8 12
REMARK SMILES IDX 7 13 6 14 5 15 4 16 3 17 2 18 1 19
REMARK H PARENT
REMARK Flexibility Score: inf
ROOT
ATOM      1  C   UNL     1       6.241 -15.989  24.102  1.00  0.00     0.000 C 
ENDROOT
BRANCH   1   2
ATOM      2  C   UNL     1       7.319 -15.010  23.620  1.00  0.00     0.000 C 
BRANCH   2   3
ATOM      3  C   UNL     1       8.358 -14.751  24.719  1.00  0.00     0.000 C 
BRANCH   3   4
ATOM      4  C   UNL     1       9.776 -14.713  24.137  1.00  0.00     0.000 C 
BRANCH   4   5
ATOM      5  C   UNL     1      10.671 -15.770  24.803  1.00  0.00     0.001 C 
BRANCH   5   6
ATOM      6  C   UNL     1      10.533 -17.162  24.158  1.00  0.00     0.009 C 
BRANCH   6   7
ATOM      7  C   UNL     1      10.308 -18.309  25.168  1.00  0.00     0.032 C 
ATOM      8  C   UNL     1       9.837 -17.754  26.516  1.00  0.00     0.014 C 
BRANCH   7   9
ATOM      9  C   UNL     1      11.555 -19.132  25.360  1.00  0.00     0.044 C 
ATOM     10  O   UNL     1      11.800 -20.109  24.604  1.00  0.00    -0.550 OA
ATOM     11  O   UNL     1      12.441 -18.817  26.383  1.00  0.00    -0.550 OA
ENDBRANCH   7   9
ENDBRANCH   6   7
ENDBRANCH   5   6
ENDBRANCH   4   5
ENDBRANCH   3   4
ENDBRANCH   2   3
ENDBRANCH   1   2
BRANCH   1  12
ATOM     12  C   UNL     1       6.829 -17.387  24.328  1.00  0.00     0.000 C 
BRANCH  12  13
ATOM     13  C   UNL     1       7.142 -18.075  22.991  1.00  0.00    -0.000 C 
BRANCH  13  14
ATOM     14  C   UNL     1       6.843 -19.584  23.011  1.00  0.00    -0.000 C 
BRANCH  14  15
ATOM     15  C   UNL     1       8.084 -20.497  23.076  1.00  0.00    -0.000 C 
BRANCH  15  16
ATOM     16  C   UNL     1       8.316 -21.186  24.433  1.00  0.00    -0.000 C 
BRANCH  16  17
ATOM     17  C   UNL     1       7.182 -20.929  25.436  1.00  0.00    -0.000 C 
BRANCH  17  18
ATOM     18  C   UNL     1       7.715 -20.899  26.872  1.00  0.00    -0.003 C 
ATOM     19  C   UNL     1       6.589 -21.099  27.883  1.00  0.00     0.004 C 
ENDBRANCH  17  18
ENDBRANCH  16  17
ENDBRANCH  15  16
ENDBRANCH  14  15
ENDBRANCH  13  14
ENDBRANCH  12  13
ENDBRANCH   1  12
TORSDOF 14
ENDMDL
MODEL 2
REMARK VINA RESULT:    -4.289      2.533      4.295
REMARK INTER + INTRA:         -10.244
REMARK INTER:                  -7.222
REMARK INTRA:                  -3.022
REMARK UNBOUND:                -2.445
REMARK SMILES CCCCCCCCCCCCCC[C@H](C)C(=O)[O-]
REMARK SMILES IDX 9 1 10 2 11 3 12 4 13 5 14 6 15 7 16 8 17 9 18 10 19 11 8 12
REMARK SMILES IDX 7 13 6 14 5 15 4 16 3 17 2 18 1 19
REMARK H PARENT
REMARK Flexibility Score: inf
ROOT
ATOM      1  C   UNL     1       9.738 -14.766  24.180  1.00  0.00     0.000 C 
ENDROOT
BRANCH   1   2
ATOM      2  C   UNL     1       8.402 -14.471  24.873  1.00  0.00     0.000 C 
BRANCH   2   3
ATOM      3  C   UNL     1       7.220 -14.807  23.956  1.00  0.00     0.000 C 
BRANCH   3   4
ATOM      4  C   UNL     1       6.395 -15.968  24.525  1.00  0.00     0.000 C 
BRANCH   4   5
ATOM      5  C   UNL     1       6.761 -17.292  23.835  1.00  0.00     0.001 C 
BRANCH   5   6
ATOM      6  C   UNL     1       7.517 -17.086  22.509  1.00  0.00     0.009 C 
BRANCH   6   7
ATOM      7  C   UNL     1       8.268 -18.339  22.005  1.00  0.00     0.032 C 
ATOM      8  C   UNL     1       9.768 -18.053  21.886  1.00  0.00     0.014 C 
BRANCH   7   9
ATOM      9  C   UNL     1       7.730 -18.814  20.682  1.00  0.00     0.044 C 
ATOM     10  O   UNL     1       7.326 -17.989  19.821  1.00  0.00    -0.550 OA
ATOM     11  O   UNL     1       7.672 -20.175  20.406  1.00  0.00    -0.550 OA
ENDBRANCH   7   9
ENDBRANCH   6   7
ENDBRANCH   5   6
ENDBRANCH   4   5
ENDBRANCH   3   4
ENDBRANCH   2   3
ENDBRANCH   1   2
BRANCH   1  12
ATOM     12  C   UNL     1      10.492 -15.893  24.894  1.00  0.00     0.000 C 
BRANCH  12  13
ATOM     13  C   UNL     1       9.804 -16.264  26.216  1.00  0.00    -0.000 C 
BRANCH  13  14
ATOM     14  C   UNL     1       9.477 -17.764  26.320  1.00  0.00    -0.000 C 
BRANCH  14  15
ATOM     15  C   UNL     1      10.441 -18.698  25.561  1.00  0.00    -0.000 C 
BRANCH  15  16
ATOM     16  C   UNL     1       9.817 -20.013  25.060  1.00  0.00    -0.000 C 
BRANCH  16  17
ATOM     17  C   UNL     1       8.348 -20.174  25.477  1.00  0.00    -0.000 C 
BRANCH  17  18
ATOM     18  C   UNL     1       7.576 -21.015  24.454  1.00  0.00    -0.003 C 
ATOM     19  C   UNL     1       8.524 -21.681  23.460  1.00  0.00     0.004 C 
ENDBRANCH  17  18
ENDBRANCH  16  17
ENDBRANCH  15  16
ENDBRANCH  14  15
ENDBRANCH  13  14
ENDBRANCH  12  13
ENDBRANCH   1  12
TORSDOF 14
ENDMDL
MODEL 3
REMARK VINA RESULT:    -4.280      2.273      4.208
REMARK INTER + INTRA:         -10.228
REMARK INTER:                  -7.456
REMARK INTRA:                  -2.773
REMARK UNBOUND:                -2.445
REMARK SMILES CCCCCCCCCCCCCC[C@H](C)C(=O)[O-]
REMARK SMILES IDX 9 1 10 2 11 3 12 4 13 5 14 6 15 7 16 8 17 9 18 10 19 11 8 12
REMARK SMILES IDX 7 13 6 14 5 15 4 16 3 17 2 18 1 19
REMARK H PARENT
REMARK Flexibility Score: inf
ROOT
ATOM      1  C   UNL     1       7.202 -14.950  23.853  1.00  0.00     0.000 C 
ENDROOT
BRANCH   1   2
ATOM      2  C   UNL     1       6.277 -16.056  24.376  1.00  0.00     0.000 C 
BRANCH   2   3
ATOM      3  C   UNL     1       6.727 -17.433  23.872  1.00  0.00     0.000 C 
BRANCH   3   4
ATOM      4  C   UNL     1       7.584 -17.303  22.607  1.00  0.00     0.000 C 
BRANCH   4   5
ATOM      5  C   UNL     1       8.485 -18.535  22.424  1.00  0.00     0.001 C 
BRANCH   5   6
ATOM      6  C   UNL     1       7.714 -19.863  22.548  1.00  0.00     0.009 C 
BRANCH   6   7
ATOM      7  C   UNL     1       8.613 -21.119  22.567  1.00  0.00     0.032 C 
ATOM      8  C   UNL     1      10.035 -20.754  23.005  1.00  0.00     0.014 C 
BRANCH   7   9
ATOM      9  C   UNL     1       8.648 -21.797  21.223  1.00  0.00     0.044 C 
ATOM     10  O   UNL     1       7.892 -22.773  20.979  1.00  0.00    -0.550 OA
ATOM     11  O   UNL     1       9.525 -21.346  20.244  1.00  0.00    -0.550 OA
ENDBRANCH   7   9
ENDBRANCH   6   7
ENDBRANCH   5   6
ENDBRANCH   4   5
ENDBRANCH   3   4
ENDBRANCH   2   3
ENDBRANCH   1   2
BRANCH   1  12
ATOM     12  C   UNL     1       8.274 -14.593  24.889  1.00  0.00     0.000 C 
BRANCH  12  13
ATOM     13  C   UNL     1       9.683 -14.746  24.298  1.00  0.00    -0.000 C 
BRANCH  13  14
ATOM     14  C   UNL     1      10.472 -15.909  24.927  1.00  0.00    -0.000 C 
BRANCH  14  15
ATOM     15  C   UNL     1       9.734 -16.671  26.046  1.00  0.00    -0.000 C 
BRANCH  15  16
ATOM     16  C   UNL     1       9.768 -18.205  25.923  1.00  0.00    -0.000 C 
BRANCH  16  17
ATOM     17  C   UNL     1       8.574 -18.886  26.608  1.00  0.00    -0.000 C 
BRANCH  17  18
ATOM     18  C   UNL     1       8.563 -20.392  26.323  1.00  0.00    -0.003 C 
ATOM     19  C   UNL     1       7.144 -20.898  26.080  1.00  0.00     0.004 C 
ENDBRANCH  17  18
ENDBRANCH  16  17
ENDBRANCH  15  16
ENDBRANCH  14  15
ENDBRANCH  13  14
ENDBRANCH  12  13
ENDBRANCH   1  12
TORSDOF 14
ENDMDL
MODEL 4
REMARK VINA RESULT:    -4.258      2.936      4.913
REMARK INTER + INTRA:         -10.188
REMARK INTER:                  -7.959
REMARK INTRA:                  -2.229
REMARK UNBOUND:                -2.445
REMARK SMILES CCCCCCCCCCCCCC[C@H](C)C(=O)[O-]
REMARK SMILES IDX 9 1 10 2 11 3 12 4 13 5 14 6 15 7 16 8 17 9 18 10 19 11 8 12
REMARK SMILES IDX 7 13 6 14 5 15 4 16 3 17 2 18 1 19
REMARK H PARENT
REMARK Flexibility Score: inf
ROOT
ATOM      1  C   UNL     1       8.246 -21.917  20.243  1.00  0.00     0.000 C 
ENDROOT
BRANCH   1   2
ATOM      2  C   UNL     1       9.030 -20.611  20.419  1.00  0.00     0.000 C 
BRANCH   2   3
ATOM      3  C   UNL     1       8.083 -19.410  20.528  1.00  0.00     0.000 C 
BRANCH   3   4
ATOM      4  C   UNL     1       7.441 -19.341  21.919  1.00  0.00     0.000 C 
BRANCH   4   5
ATOM      5  C   UNL     1       7.772 -18.009  22.611  1.00  0.00     0.001 C 
BRANCH   5   6
ATOM      6  C   UNL     1       6.836 -17.701  23.795  1.00  0.00     0.009 C 
BRANCH   6   7
ATOM      7  C   UNL     1       7.446 -16.761  24.858  1.00  0.00     0.032 C 
ATOM      8  C   UNL     1       6.801 -17.008  26.226  1.00  0.00     0.014 C 
BRANCH   7   9
ATOM      9  C   UNL     1       7.293 -15.313  24.473  1.00  0.00     0.044 C 
ATOM     10  O   UNL     1       6.370 -14.951  23.698  1.00  0.00    -0.550 OA
ATOM     11  O   UNL     1       8.180 -14.367  24.972  1.00  0.00    -0.550 OA
ENDBRANCH   7   9
ENDBRANCH   6   7
ENDBRANCH   5   6
ENDBRANCH   4   5
ENDBRANCH   3   4
ENDBRANCH   2   3
ENDBRANCH   1   2
BRANCH   1  12
ATOM     12  C   UNL     1       8.561 -22.905  21.372  1.00  0.00     0.000 C 
BRANCH  12  13
ATOM     13  C   UNL     1      10.032 -22.798  21.801  1.00  0.00    -0.000 C 
BRANCH  13  14
ATOM     14  C   UNL     1      10.200 -22.618  23.321  1.00  0.00    -0.000 C 
BRANCH  14  15
ATOM     15  C   UNL     1       9.115 -21.758  24.002  1.00  0.00    -0.000 C 
BRANCH  15  16
ATOM     16  C   UNL     1       9.642 -20.538  24.778  1.00  0.00    -0.000 C 
BRANCH  16  17
ATOM     17  C   UNL     1       8.733 -20.136  25.949  1.00  0.00    -0.000 C 
BRANCH  17  18
ATOM     18  C   UNL     1       7.350 -20.782  25.816  1.00  0.00    -0.003 C 
ATOM     19  C   UNL     1       6.700 -20.982  27.183  1.00  0.00     0.004 C 
ENDBRANCH  17  18
ENDBRANCH  16  17
ENDBRANCH  15  16
ENDBRANCH  14  15
ENDBRANCH  13  14
ENDBRANCH  12  13
ENDBRANCH   1  12
TORSDOF 14
ENDMDL
MODEL 5
REMARK VINA RESULT:    -4.201      2.766      3.920
REMARK INTER + INTRA:         -10.085
REMARK INTER:                  -8.056
REMARK INTRA:                  -2.029
REMARK UNBOUND:                -2.445
REMARK SMILES CCCCCCCCCCCCCC[C@H](C)C(=O)[O-]
REMARK SMILES IDX 9 1 10 2 11 3 12 4 13 5 14 6 15 7 16 8 17 9 18 10 19 11 8 12
REMARK SMILES IDX 7 13 6 14 5 15 4 16 3 17 2 18 1 19
REMARK H PARENT
REMARK Flexibility Score: inf
ROOT
ATOM      1  C   UNL     1       7.231 -15.051  19.085  1.00  0.00     0.000 C 
ENDROOT
BRANCH   1   2
ATOM      2  C   UNL     1       6.355 -13.945  19.687  1.00  0.00     0.000 C 
BRANCH   2   3
ATOM      3  C   UNL     1       5.798 -14.367  21.053  1.00  0.00     0.000 C 
BRANCH   3   4
ATOM      4  C   UNL     1       6.399 -13.515  22.178  1.00  0.00     0.000 C 
BRANCH   4   5
ATOM      5  C   UNL     1       6.645 -14.362  23.436  1.00  0.00     0.001 C 
BRANCH   5   6
ATOM      6  C   UNL     1       7.992 -15.109  23.399  1.00  0.00     0.009 C 
BRANCH   6   7
ATOM      7  C   UNL     1       8.003 -16.436  24.190  1.00  0.00     0.032 C 
ATOM      8  C   UNL     1       6.615 -17.085  24.169  1.00  0.00     0.014 C 
BRANCH   7   9
ATOM      9  C   UNL     1       8.451 -16.230  25.613  1.00  0.00     0.044 C 
ATOM     10  O   UNL     1       7.646 -15.803  26.482  1.00  0.00    -0.550 OA
ATOM     11  O   UNL     1       9.764 -16.509  25.972  1.00  0.00    -0.550 OA
ENDBRANCH   7   9
ENDBRANCH   6   7
ENDBRANCH   5   6
ENDBRANCH   4   5
ENDBRANCH   3   4
ENDBRANCH   2   3
ENDBRANCH   1   2
BRANCH   1  12
ATOM     12  C   UNL     1       7.119 -16.346  19.898  1.00  0.00     0.000 C 
BRANCH  12  13
ATOM     13  C   UNL     1       8.498 -16.992  20.095  1.00  0.00    -0.000 C 
BRANCH  13  14
ATOM     14  C   UNL     1       8.453 -18.232  21.007  1.00  0.00    -0.000 C 
BRANCH  14  15
ATOM     15  C   UNL     1       7.593 -19.399  20.481  1.00  0.00    -0.000 C 
BRANCH  15  16
ATOM     16  C   UNL     1       7.573 -20.650  21.378  1.00  0.00    -0.000 C 
BRANCH  16  17
ATOM     17  C   UNL     1       6.997 -20.374  22.775  1.00  0.00    -0.000 C 
BRANCH  17  18
ATOM     18  C   UNL     1       7.941 -20.888  23.869  1.00  0.00    -0.003 C 
ATOM     19  C   UNL     1       7.297 -20.779  25.249  1.00  0.00     0.004 C 
ENDBRANCH  17  18
ENDBRANCH  16  17
ENDBRANCH  15  16
ENDBRANCH  14  15
ENDBRANCH  13  14
ENDBRANCH  12  13
ENDBRANCH   1  12
TORSDOF 14
ENDMDL
MODEL 6
REMARK VINA RESULT:    -4.185      2.698      5.956
REMARK INTER + INTRA:         -10.055
REMARK INTER:                  -7.810
REMARK INTRA:                  -2.244
REMARK UNBOUND:                -2.445
REMARK SMILES CCCCCCCCCCCCCC[C@H](C)C(=O)[O-]
REMARK SMILES IDX 9 1 10 2 11 3 12 4 13 5 14 6 15 7 16 8 17 9 18 10 19 11 8 12
REMARK SMILES IDX 7 13 6 14 5 15 4 16 3 17 2 18 1 19
REMARK H PARENT
REMARK Flexibility Score: inf
ROOT
ATOM      1  C   UNL     1       7.877 -20.428  26.747  1.00  0.00     0.000 C 
ENDROOT
BRANCH   1   2
ATOM      2  C   UNL     1       7.372 -21.131  25.481  1.00  0.00     0.000 C 
BRANCH   2   3
ATOM      3  C   UNL     1       8.471 -21.198  24.413  1.00  0.00     0.000 C 
BRANCH   3   4
ATOM      4  C   UNL     1       8.258 -20.127  23.337  1.00  0.00     0.000 C 
BRANCH   4   5
ATOM      5  C   UNL     1       6.809 -20.140  22.828  1.00  0.00     0.001 C 
BRANCH   5   6
ATOM      6  C   UNL     1       6.710 -20.376  21.309  1.00  0.00     0.009 C 
BRANCH   6   7
ATOM      7  C   UNL     1       7.978 -19.977  20.521  1.00  0.00     0.032 C 
ATOM      8  C   UNL     1       7.681 -18.800  19.586  1.00  0.00     0.014 C 
BRANCH   7   9
ATOM      9  C   UNL     1       8.527 -21.135  19.729  1.00  0.00     0.044 C 
ATOM     10  O   UNL     1       8.790 -22.229  20.294  1.00  0.00    -0.550 OA
ATOM     11  O   UNL     1       8.751 -20.995  18.365  1.00  0.00    -0.550 OA
ENDBRANCH   7   9
ENDBRANCH   6   7
ENDBRANCH   5   6
ENDBRANCH   4   5
ENDBRANCH   3   4
ENDBRANCH   2   3
ENDBRANCH   1   2
BRANCH   1  12
ATOM     12  C   UNL     1       7.116 -19.119  26.990  1.00  0.00     0.000 C 
BRANCH  12  13
ATOM     13  C   UNL     1       7.768 -17.955  26.230  1.00  0.00    -0.000 C 
BRANCH  13  14
ATOM     14  C   UNL     1       6.755 -16.876  25.806  1.00  0.00    -0.000 C 
BRANCH  14  15
ATOM     15  C   UNL     1       6.378 -16.884  24.311  1.00  0.00    -0.000 C 
BRANCH  15  16
ATOM     16  C   UNL     1       7.088 -15.821  23.453  1.00  0.00    -0.000 C 
BRANCH  16  17
ATOM     17  C   UNL     1       8.224 -16.403  22.599  1.00  0.00    -0.000 C 
BRANCH  17  18
ATOM     18  C   UNL     1       9.588 -16.140  23.246  1.00  0.00    -0.003 C 
ATOM     19  C   UNL     1       9.556 -14.879  24.107  1.00  0.00     0.004 C 
ENDBRANCH  17  18
ENDBRANCH  16  17
ENDBRANCH  15  16
ENDBRANCH  14  15
ENDBRANCH  13  14
ENDBRANCH  12  13
ENDBRANCH   1  12
TORSDOF 14
ENDMDL
MODEL 7
REMARK VINA RESULT:    -4.152      2.448      5.400
REMARK INTER + INTRA:          -9.996
REMARK INTER:                  -7.492
REMARK INTRA:                  -2.504
REMARK UNBOUND:                -2.445
REMARK SMILES CCCCCCCCCCCCCC[C@H](C)C(=O)[O-]
REMARK SMILES IDX 9 1 10 2 11 3 12 4 13 5 14 6 15 7 16 8 17 9 18 10 19 11 8 12
REMARK SMILES IDX 7 13 6 14 5 15 4 16 3 17 2 18 1 19
REMARK H PARENT
REMARK Flexibility Score: inf
ROOT
ATOM      1  C   UNL     1       8.312 -17.128  26.155  1.00  0.00     0.000 C 
ENDROOT
BRANCH   1   2
ATOM      2  C   UNL     1       8.757 -18.549  25.788  1.00  0.00     0.000 C 
BRANCH   2   3
ATOM      3  C   UNL     1       8.012 -19.593  26.629  1.00  0.00     0.000 C 
BRANCH   3   4
ATOM      4  C   UNL     1       7.490 -20.737  25.751  1.00  0.00     0.000 C 
BRANCH   4   5
ATOM      5  C   UNL     1       7.417 -20.308  24.277  1.00  0.00     0.001 C 
BRANCH   5   6
ATOM      6  C   UNL     1       8.253 -21.209  23.349  1.00  0.00     0.009 C 
BRANCH   6   7
ATOM      7  C   UNL     1       8.200 -20.808  21.858  1.00  0.00     0.032 C 
ATOM      8  C   UNL     1       6.781 -20.385  21.466  1.00  0.00     0.014 C 
BRANCH   7   9
ATOM      9  C   UNL     1       8.667 -21.927  20.966  1.00  0.00     0.044 C 
ATOM     10  O   UNL     1       8.474 -21.877  19.723  1.00  0.00    -0.550 OA
ATOM     11  O   UNL     1       9.311 -23.028  21.516  1.00  0.00    -0.550 OA
ENDBRANCH   7   9
ENDBRANCH   6   7
ENDBRANCH   5   6
ENDBRANCH   4   5
ENDBRANCH   3   4
ENDBRANCH   2   3
ENDBRANCH   1   2
BRANCH   1  12
ATOM     12  C   UNL     1       6.790 -16.980  26.040  1.00  0.00     0.000 C 
BRANCH  12  13
ATOM     13  C   UNL     1       6.366 -16.774  24.579  1.00  0.00    -0.000 C 
BRANCH  13  14
ATOM     14  C   UNL     1       6.853 -15.434  23.999  1.00  0.00    -0.000 C 
BRANCH  14  15
ATOM     15  C   UNL     1       7.693 -15.545  22.710  1.00  0.00    -0.000 C 
BRANCH  15  16
ATOM     16  C   UNL     1       8.166 -16.967  22.360  1.00  0.00    -0.000 C 
BRANCH  16  17
ATOM     17  C   UNL     1       9.676 -17.161  22.559  1.00  0.00    -0.000 C 
BRANCH  17  18
ATOM     18  C   UNL     1      10.362 -15.829  22.882  1.00  0.00    -0.003 C 
ATOM     19  C   UNL     1      11.164 -15.920  24.178  1.00  0.00     0.004 C 
ENDBRANCH  17  18
ENDBRANCH  16  17
ENDBRANCH  15  16
ENDBRANCH  14  15
ENDBRANCH  13  14
ENDBRANCH  12  13
ENDBRANCH   1  12
TORSDOF 14
ENDMDL
MODEL 8
REMARK VINA RESULT:    -4.136      2.473      4.462
REMARK INTER + INTRA:          -9.966
REMARK INTER:                  -7.220
REMARK INTRA:                  -2.746
REMARK UNBOUND:                -2.445
REMARK SMILES CCCCCCCCCCCCCC[C@H](C)C(=O)[O-]
REMARK SMILES IDX 9 1 10 2 11 3 12 4 13 5 14 6 15 7 16 8 17 9 18 10 19 11 8 12
REMARK SMILES IDX 7 13 6 14 5 15 4 16 3 17 2 18 1 19
REMARK H PARENT
REMARK Flexibility Score: inf
ROOT
ATOM      1  C   UNL     1       7.398 -20.582  21.607  1.00  0.00     0.000 C 
ENDROOT
BRANCH   1   2
ATOM      2  C   UNL     1       7.723 -19.528  20.541  1.00  0.00     0.000 C 
BRANCH   2   3
ATOM      3  C   UNL     1       8.528 -18.369  21.141  1.00  0.00     0.000 C 
BRANCH   3   4
ATOM      4  C   UNL     1       7.888 -17.018  20.796  1.00  0.00     0.000 C 
BRANCH   4   5
ATOM      5  C   UNL     1       7.503 -16.252  22.070  1.00  0.00     0.001 C 
BRANCH   5   6
ATOM      6  C   UNL     1       8.330 -16.677  23.298  1.00  0.00     0.009 C 
BRANCH   6   7
ATOM      7  C   UNL     1       7.599 -16.502  24.647  1.00  0.00     0.032 C 
ATOM      8  C   UNL     1       6.090 -16.358  24.426  1.00  0.00     0.014 C 
BRANCH   7   9
ATOM      9  C   UNL     1       8.121 -15.314  25.411  1.00  0.00     0.044 C 
ATOM     10  O   UNL     1       8.671 -14.356  24.807  1.00  0.00    -0.550 OA
ATOM     11  O   UNL     1       7.999 -15.273  26.795  1.00  0.00    -0.550 OA
ENDBRANCH   7   9
ENDBRANCH   6   7
ENDBRANCH   5   6
ENDBRANCH   4   5
ENDBRANCH   3   4
ENDBRANCH   2   3
ENDBRANCH   1   2
BRANCH   1  12
ATOM     12  C   UNL     1       6.435 -20.021  22.661  1.00  0.00     0.000 C 
BRANCH  12  13
ATOM     13  C   UNL     1       7.029 -20.149  24.071  1.00  0.00    -0.000 C 
BRANCH  13  14
ATOM     14  C   UNL     1       8.371 -20.903  24.089  1.00  0.00    -0.000 C 
BRANCH  14  15
ATOM     15  C   UNL     1       9.500 -20.210  24.879  1.00  0.00    -0.000 C 
BRANCH  15  16
ATOM     16  C   UNL     1       9.062 -19.544  26.195  1.00  0.00    -0.000 C 
BRANCH  16  17
ATOM     17  C   UNL     1      10.013 -18.424  26.644  1.00  0.00    -0.000 C 
BRANCH  17  18
ATOM     18  C   UNL     1      11.133 -18.212  25.619  1.00  0.00    -0.003 C 
ATOM     19  C   UNL     1      11.438 -16.728  25.434  1.00  0.00     0.004 C 
ENDBRANCH  17  18
ENDBRANCH  16  17
ENDBRANCH  15  16
ENDBRANCH  14  15
ENDBRANCH  13  14
ENDBRANCH  12  13
ENDBRANCH   1  12
TORSDOF 14
ENDMDL
MODEL 9
REMARK VINA RESULT:    -4.122      2.523      4.227
REMARK INTER + INTRA:          -9.940
REMARK INTER:                  -7.047
REMARK INTRA:                  -2.893
REMARK UNBOUND:                -2.445
REMARK SMILES CCCCCCCCCCCCCC[C@H](C)C(=O)[O-]
REMARK SMILES IDX 9 1 10 2 11 3 12 4 13 5 14 6 15 7 16 8 17 9 18 10 19 11 8 12
REMARK SMILES IDX 7 13 6 14 5 15 4 16 3 17 2 18 1 19
REMARK H PARENT
REMARK Flexibility Score: inf
ROOT
ATOM      1  C   UNL     1       9.827 -14.932  24.007  1.00  0.00     0.000 C 
ENDROOT
BRANCH   1   2
ATOM      2  C   UNL     1      10.600 -15.962  24.841  1.00  0.00     0.000 C 
BRANCH   2   3
ATOM      3  C   UNL     1      11.116 -17.107  23.961  1.00  0.00     0.000 C 
BRANCH   3   4
ATOM      4  C   UNL     1       9.953 -17.885  23.332  1.00  0.00     0.000 C 
BRANCH   4   5
ATOM      5  C   UNL     1      10.234 -19.395  23.341  1.00  0.00     0.001 C 
BRANCH   5   6
ATOM      6  C   UNL     1       9.016 -20.232  22.906  1.00  0.00     0.009 C 
BRANCH   6   7
ATOM      7  C   UNL     1       7.835 -19.399  22.360  1.00  0.00     0.032 C 
ATOM      8  C   UNL     1       6.515 -19.870  22.980  1.00  0.00     0.014 C 
BRANCH   7   9
ATOM      9  C   UNL     1       7.751 -19.472  20.858  1.00  0.00     0.044 C 
ATOM     10  O   UNL     1       7.911 -20.568  20.261  1.00  0.00    -0.550 OA
ATOM     11  O   UNL     1       7.500 -18.320  20.123  1.00  0.00    -0.550 OA
ENDBRANCH   7   9
ENDBRANCH   6   7
ENDBRANCH   5   6
ENDBRANCH   4   5
ENDBRANCH   3   4
ENDBRANCH   2   3
ENDBRANCH   1   2
BRANCH   1  12
ATOM     12  C   UNL     1       8.475 -14.605  24.652  1.00  0.00     0.000 C 
BRANCH  12  13
ATOM     13  C   UNL     1       7.316 -15.151  23.806  1.00  0.00    -0.000 C 
BRANCH  13  14
ATOM     14  C   UNL     1       6.494 -16.225  24.541  1.00  0.00    -0.000 C 
BRANCH  14  15
ATOM     15  C   UNL     1       7.076 -16.682  25.895  1.00  0.00    -0.000 C 
BRANCH  15  16
ATOM     16  C   UNL     1       7.240 -18.204  26.055  1.00  0.00    -0.000 C 
BRANCH  16  17
ATOM     17  C   UNL     1       8.606 -18.600  26.634  1.00  0.00    -0.000 C 
BRANCH  17  18
ATOM     18  C   UNL     1       8.776 -20.123  26.647  1.00  0.00    -0.003 C 
ATOM     19  C   UNL     1       7.427 -20.830  26.545  1.00  0.00     0.004 C 
ENDBRANCH  17  18
ENDBRANCH  16  17
ENDBRANCH  15  16
ENDBRANCH  14  15
ENDBRANCH  13  14
ENDBRANCH  12  13
ENDBRANCH   1  12
TORSDOF 14
ENDMDL
