MODEL 1
REMARK VINA RESULT:    -3.217      0.000      0.000
REMARK INTER + INTRA:          -4.443
REMARK INTER:                  -4.252
REMARK INTRA:                  -0.191
REMARK UNBOUND:                -0.191
REMARK SMILES C=C[C@H](O)CCCCC
REMARK SMILES IDX 6 1 7 2 8 3 9 4 5 5 3 6 2 7 1 8 4 9
REMARK H PARENT 4 10
REMARK Flexibility Score: inf
ROOT
ATOM      1  C   UNL     1       1.665   2.843  -4.444  1.00  0.00     0.003 C 
ENDROOT
BRANCH   1   2
ATOM      2  C   UNL     1       2.926   2.116  -3.963  1.00  0.00    -0.000 C 
BRANCH   2   3
ATOM      3  C   UNL     1       2.575   0.755  -3.348  1.00  0.00    -0.003 C 
ATOM      4  C   UNL     1       3.831  -0.069  -3.081  1.00  0.00     0.004 C 
ENDBRANCH   2   3
ENDBRANCH   1   2
BRANCH   1   5
ATOM      5  C   UNL     1       0.403   2.017  -4.146  1.00  0.00     0.036 C 
BRANCH   5   6
ATOM      6  C   UNL     1      -0.821   2.517  -4.935  1.00  0.00     0.136 C 
BRANCH   6   7
ATOM      7  C   UNL     1      -1.278   3.871  -4.449  1.00  0.00    -0.004 C 
ATOM      8  C   UNL     1      -2.578   4.159  -4.331  1.00  0.00     0.007 C 
ENDBRANCH   6   7
BRANCH   6   9
ATOM      9  O   UNL     1      -1.879   1.606  -4.784  1.00  0.00    -0.389 OA
ATOM     10  H   UNL     1      -2.640   2.111  -4.393  1.00  0.00     0.211 HD
ENDBRANCH   6   9
ENDBRANCH   5   6
ENDBRANCH   1   5
TORSDOF 6
ENDMDL
MODEL 2
REMARK VINA RESULT:    -3.094      1.332      2.054
REMARK INTER + INTRA:          -4.280
REMARK INTER:                  -4.046
REMARK INTRA:                  -0.234
REMARK UNBOUND:                -0.191
REMARK SMILES C=C[C@H](O)CCCCC
REMARK SMILES IDX 6 1 7 2 8 3 9 4 5 5 3 6 2 7 1 8 4 9
REMARK H PARENT 4 10
REMARK Flexibility Score: inf
ROOT
ATOM      1  C   UNL     1       0.008   2.613  -6.076  1.00  0.00     0.003 C 
ENDROOT
BRANCH   1   2
ATOM      2  C   UNL     1       1.203   2.557  -5.116  1.00  0.00    -0.000 C 
BRANCH   2   3
ATOM      3  C   UNL     1       0.877   1.709  -3.881  1.00  0.00    -0.003 C 
ATOM      4  C   UNL     1       2.098   0.923  -3.414  1.00  0.00     0.004 C 
ENDBRANCH   2   3
ENDBRANCH   1   2
BRANCH   1   5
ATOM      5  C   UNL     1      -1.321   2.572  -5.306  1.00  0.00     0.036 C 
BRANCH   5   6
ATOM      6  C   UNL     1      -2.513   3.016  -6.175  1.00  0.00     0.136 C 
BRANCH   6   7
ATOM      7  C   UNL     1      -3.310   4.109  -5.505  1.00  0.00    -0.004 C 
ATOM      8  C   UNL     1      -2.898   4.662  -4.360  1.00  0.00     0.007 C 
ENDBRANCH   6   7
BRANCH   6   9
ATOM      9  O   UNL     1      -3.359   1.920  -6.403  1.00  0.00    -0.389 OA
ATOM     10  H   UNL     1      -4.184   2.277  -6.826  1.00  0.00     0.211 HD
ENDBRANCH   6   9
ENDBRANCH   5   6
ENDBRANCH   1   5
TORSDOF 6
ENDMDL
MODEL 3
REMARK VINA RESULT:    -3.090      2.499      4.955
REMARK INTER + INTRA:          -4.274
REMARK INTER:                  -3.691
REMARK INTRA:                  -0.583
REMARK UNBOUND:                -0.191
REMARK SMILES C=C[C@H](O)CCCCC
REMARK SMILES IDX 6 1 7 2 8 3 9 4 5 5 3 6 2 7 1 8 4 9
REMARK H PARENT 4 10
REMARK Flexibility Score: inf
ROOT
ATOM      1  C   UNL     1      -2.267   4.105  -4.396  1.00  0.00     0.003 C 
ENDROOT
BRANCH   1   2
ATOM      2  C   UNL     1      -3.123   4.041  -5.667  1.00  0.00    -0.000 C 
BRANCH   2   3
ATOM      3  C   UNL     1      -3.074   2.643  -6.294  1.00  0.00    -0.003 C 
ATOM      4  C   UNL     1      -3.020   2.723  -7.816  1.00  0.00     0.004 C 
ENDBRANCH   2   3
ENDBRANCH   1   2
BRANCH   1   5
ATOM      5  C   UNL     1      -0.809   4.457  -4.729  1.00  0.00     0.036 C 
BRANCH   5   6
ATOM      6  C   UNL     1       0.163   3.317  -4.372  1.00  0.00     0.136 C 
BRANCH   6   7
ATOM      7  C   UNL     1       0.528   2.500  -5.587  1.00  0.00    -0.004 C 
ATOM      8  C   UNL     1       0.837   3.087  -6.747  1.00  0.00     0.007 C 
ENDBRANCH   6   7
BRANCH   6   9
ATOM      9  O   UNL     1      -0.436   2.470  -3.426  1.00  0.00    -0.389 OA
ATOM     10  H   UNL     1       0.132   1.657  -3.368  1.00  0.00     0.211 HD
ENDBRANCH   6   9
ENDBRANCH   5   6
ENDBRANCH   1   5
TORSDOF 6
ENDMDL
MODEL 4
REMARK VINA RESULT:    -3.051      1.189      1.225
REMARK INTER + INTRA:          -4.223
REMARK INTER:                  -4.024
REMARK INTRA:                  -0.199
REMARK UNBOUND:                -0.191
REMARK SMILES C=C[C@H](O)CCCCC
REMARK SMILES IDX 6 1 7 2 8 3 9 4 5 5 3 6 2 7 1 8 4 9
REMARK H PARENT 4 10
REMARK Flexibility Score: inf
ROOT
ATOM      1  C   UNL     1       1.238   3.345  -4.816  1.00  0.00     0.003 C 
ENDROOT
BRANCH   1   2
ATOM      2  C   UNL     1       2.473   2.514  -4.447  1.00  0.00    -0.000 C 
BRANCH   2   3
ATOM      3  C   UNL     1       2.083   1.291  -3.608  1.00  0.00    -0.003 C 
ATOM      4  C   UNL     1       3.319   0.552  -3.103  1.00  0.00     0.004 C 
ENDBRANCH   2   3
ENDBRANCH   1   2
BRANCH   1   5
ATOM      5  C   UNL     1       0.188   2.483  -5.535  1.00  0.00     0.036 C 
BRANCH   5   6
ATOM      6  C   UNL     1      -1.115   2.355  -4.725  1.00  0.00     0.136 C 
BRANCH   6   7
ATOM      7  C   UNL     1      -2.304   2.864  -5.503  1.00  0.00    -0.004 C 
ATOM      8  C   UNL     1      -2.774   4.100  -5.316  1.00  0.00     0.007 C 
ENDBRANCH   6   7
BRANCH   6   9
ATOM      9  O   UNL     1      -1.005   3.099  -3.539  1.00  0.00    -0.389 OA
ATOM     10  H   UNL     1      -0.035   3.251  -3.384  1.00  0.00     0.211 HD
ENDBRANCH   6   9
ENDBRANCH   5   6
ENDBRANCH   1   5
TORSDOF 6
ENDMDL
MODEL 5
REMARK VINA RESULT:    -3.045      1.869      4.614
REMARK INTER + INTRA:          -4.214
REMARK INTER:                  -3.707
REMARK INTRA:                  -0.507
REMARK UNBOUND:                -0.191
REMARK SMILES C=C[C@H](O)CCCCC
REMARK SMILES IDX 6 1 7 2 8 3 9 4 5 5 3 6 2 7 1 8 4 9
REMARK H PARENT 4 10
REMARK Flexibility Score: inf
ROOT
ATOM      1  C   UNL     1       0.037   2.533  -6.575  1.00  0.00     0.003 C 
ENDROOT
BRANCH   1   2
ATOM      2  C   UNL     1      -1.276   3.321  -6.645  1.00  0.00    -0.000 C 
BRANCH   2   3
ATOM      3  C   UNL     1      -2.233   2.897  -5.524  1.00  0.00    -0.003 C 
ATOM      4  C   UNL     1      -2.321   3.968  -4.441  1.00  0.00     0.004 C 
ENDBRANCH   2   3
ENDBRANCH   1   2
BRANCH   1   5
ATOM      5  C   UNL     1       1.206   3.444  -6.169  1.00  0.00     0.036 C 
BRANCH   5   6
ATOM      6  C   UNL     1       1.608   3.255  -4.694  1.00  0.00     0.136 C 
BRANCH   6   7
ATOM      7  C   UNL     1       1.094   1.947  -4.144  1.00  0.00    -0.004 C 
ATOM      8  C   UNL     1       1.904   1.104  -3.496  1.00  0.00     0.007 C 
ENDBRANCH   6   7
BRANCH   6   9
ATOM      9  O   UNL     1       1.079   4.304  -3.926  1.00  0.00    -0.389 OA
ATOM     10  H   UNL     1       1.756   5.030  -3.926  1.00  0.00     0.211 HD
ENDBRANCH   6   9
ENDBRANCH   5   6
ENDBRANCH   1   5
TORSDOF 6
ENDMDL
MODEL 6
REMARK VINA RESULT:    -3.041      2.576      5.536
REMARK INTER + INTRA:          -4.210
REMARK INTER:                  -4.053
REMARK INTRA:                  -0.158
REMARK UNBOUND:                -0.191
REMARK SMILES C=C[C@H](O)CCCCC
REMARK SMILES IDX 6 1 7 2 8 3 9 4 5 5 3 6 2 7 1 8 4 9
REMARK H PARENT 4 10
REMARK Flexibility Score: inf
ROOT
ATOM      1  C   UNL     1       1.857   1.907  -4.109  1.00  0.00     0.003 C 
ENDROOT
BRANCH   1   2
ATOM      2  C   UNL     1       0.345   1.877  -3.857  1.00  0.00    -0.000 C 
BRANCH   2   3
ATOM      3  C   UNL     1      -0.427   2.381  -5.082  1.00  0.00    -0.003 C 
ATOM      4  C   UNL     1       0.514   2.659  -6.251  1.00  0.00     0.004 C 
ENDBRANCH   2   3
ENDBRANCH   1   2
BRANCH   1   5
ATOM      5  C   UNL     1       2.563   0.761  -3.366  1.00  0.00     0.036 C 
BRANCH   5   6
ATOM      6  C   UNL     1       4.049   1.065  -3.103  1.00  0.00     0.136 C 
BRANCH   6   7
ATOM      7  C   UNL     1       4.831  -0.195  -2.821  1.00  0.00    -0.004 C 
ATOM      8  C   UNL     1       5.252  -0.983  -3.815  1.00  0.00     0.007 C 
ENDBRANCH   6   7
BRANCH   6   9
ATOM      9  O   UNL     1       4.164   1.920  -1.995  1.00  0.00    -0.389 OA
ATOM     10  H   UNL     1       3.291   2.386  -1.900  1.00  0.00     0.211 HD
ENDBRANCH   6   9
ENDBRANCH   5   6
ENDBRANCH   1   5
TORSDOF 6
ENDMDL
MODEL 7
REMARK VINA RESULT:    -2.932     12.259     12.676
REMARK INTER + INTRA:          -4.066
REMARK INTER:                  -3.563
REMARK INTRA:                  -0.502
REMARK UNBOUND:                -0.191
REMARK SMILES C=C[C@H](O)CCCCC
REMARK SMILES IDX 6 1 7 2 8 3 9 4 5 5 3 6 2 7 1 8 4 9
REMARK H PARENT 4 10
REMARK Flexibility Score: inf
ROOT
ATOM      1  C   UNL     1      -2.227   1.611   9.415  1.00  0.00     0.003 C 
ENDROOT
BRANCH   1   2
ATOM      2  C   UNL     1      -1.064   2.467   9.930  1.00  0.00    -0.000 C 
BRANCH   2   3
ATOM      3  C   UNL     1       0.204   2.229   9.100  1.00  0.00    -0.003 C 
ATOM      4  C   UNL     1       0.830   3.549   8.660  1.00  0.00     0.004 C 
ENDBRANCH   2   3
ENDBRANCH   1   2
BRANCH   1   5
ATOM      5  C   UNL     1      -3.133   2.420   8.473  1.00  0.00     0.036 C 
BRANCH   5   6
ATOM      6  C   UNL     1      -3.066   1.913   7.021  1.00  0.00     0.136 C 
BRANCH   6   7
ATOM      7  C   UNL     1      -2.256   0.644   6.914  1.00  0.00    -0.004 C 
ATOM      8  C   UNL     1      -1.267   0.529   6.022  1.00  0.00     0.007 C 
ENDBRANCH   6   7
BRANCH   6   9
ATOM      9  O   UNL     1      -2.473   2.893   6.209  1.00  0.00    -0.389 OA
ATOM     10  H   UNL     1      -2.293   3.678   6.791  1.00  0.00     0.211 HD
ENDBRANCH   6   9
ENDBRANCH   5   6
ENDBRANCH   1   5
TORSDOF 6
ENDMDL
MODEL 8
REMARK VINA RESULT:    -2.884     12.013     12.435
REMARK INTER + INTRA:          -4.001
REMARK INTER:                  -3.414
REMARK INTRA:                  -0.588
REMARK UNBOUND:                -0.191
REMARK SMILES C=C[C@H](O)CCCCC
REMARK SMILES IDX 6 1 7 2 8 3 9 4 5 5 3 6 2 7 1 8 4 9
REMARK H PARENT 4 10
REMARK Flexibility Score: inf
ROOT
ATOM      1  C   UNL     1       0.423   0.737   8.464  1.00  0.00     0.003 C 
ENDROOT
BRANCH   1   2
ATOM      2  C   UNL     1      -0.236   1.006   9.822  1.00  0.00    -0.000 C 
BRANCH   2   3
ATOM      3  C   UNL     1      -0.511   2.503  10.013  1.00  0.00    -0.003 C 
ATOM      4  C   UNL     1       0.408   3.348   9.137  1.00  0.00     0.004 C 
ENDBRANCH   2   3
ENDBRANCH   1   2
BRANCH   1   5
ATOM      5  C   UNL     1      -0.559   0.048   7.502  1.00  0.00     0.036 C 
BRANCH   5   6
ATOM      6  C   UNL     1      -1.261   1.052   6.569  1.00  0.00     0.136 C 
BRANCH   6   7
ATOM      7  C   UNL     1      -2.683   1.311   7.003  1.00  0.00    -0.004 C 
ATOM      8  C   UNL     1      -3.116   2.552   7.246  1.00  0.00     0.007 C 
ENDBRANCH   6   7
BRANCH   6   9
ATOM      9  O   UNL     1      -1.278   0.542   5.261  1.00  0.00    -0.389 OA
ATOM     10  H   UNL     1      -0.795  -0.326   5.284  1.00  0.00     0.211 HD
ENDBRANCH   6   9
ENDBRANCH   5   6
ENDBRANCH   1   5
TORSDOF 6
ENDMDL
MODEL 9
REMARK VINA RESULT:    -2.851      1.957      3.103
REMARK INTER + INTRA:          -3.959
REMARK INTER:                  -3.457
REMARK INTRA:                  -0.501
REMARK UNBOUND:                -0.191
REMARK SMILES C=C[C@H](O)CCCCC
REMARK SMILES IDX 6 1 7 2 8 3 9 4 5 5 3 6 2 7 1 8 4 9
REMARK H PARENT 4 10
REMARK Flexibility Score: inf
ROOT
ATOM      1  C   UNL     1      -0.884   3.443  -4.230  1.00  0.00     0.003 C 
ENDROOT
BRANCH   1   2
ATOM      2  C   UNL     1      -0.210   2.066  -4.274  1.00  0.00    -0.000 C 
BRANCH   2   3
ATOM      3  C   UNL     1       1.309   2.202  -4.434  1.00  0.00    -0.003 C 
ATOM      4  C   UNL     1       1.663   2.985  -5.695  1.00  0.00     0.004 C 
ENDBRANCH   2   3
ENDBRANCH   1   2
BRANCH   1   5
ATOM      5  C   UNL     1      -2.270   3.400  -4.892  1.00  0.00     0.036 C 
BRANCH   5   6
ATOM      6  C   UNL     1      -2.230   2.752  -6.288  1.00  0.00     0.136 C 
BRANCH   6   7
ATOM      7  C   UNL     1      -2.200   3.793  -7.381  1.00  0.00    -0.004 C 
ATOM      8  C   UNL     1      -1.070   4.073  -8.037  1.00  0.00     0.007 C 
ENDBRANCH   6   7
BRANCH   6   9
ATOM      9  O   UNL     1      -3.368   1.949  -6.465  1.00  0.00    -0.389 OA
ATOM     10  H   UNL     1      -3.189   1.090  -5.999  1.00  0.00     0.211 HD
ENDBRANCH   6   9
ENDBRANCH   5   6
ENDBRANCH   1   5
TORSDOF 6
ENDMDL
