MODEL 1
REMARK VINA RESULT:    -4.231      0.000      0.000
REMARK INTER + INTRA:          -9.979
REMARK INTER:                  -7.694
REMARK INTRA:                  -2.285
REMARK UNBOUND:                -2.285
REMARK SMILES CCCCCCCCCCCCCC[C@@H](C)C(=O)[O-]
REMARK SMILES IDX 9 1 10 2 11 3 12 4 13 5 14 6 15 7 16 8 17 9 18 10 19 11 8 12
REMARK SMILES IDX 7 13 6 14 5 15 4 16 3 17 2 18 1 19
REMARK H PARENT
REMARK Flexibility Score: inf
ROOT
ATOM      1  C   UNL     1      19.196  10.143   6.040  1.00  0.00     0.000 C 
ENDROOT
BRANCH   1   2
ATOM      2  C   UNL     1      20.037  10.396   7.304  1.00  0.00     0.000 C 
BRANCH   2   3
ATOM      3  C   UNL     1      20.507   9.130   8.044  1.00  0.00     0.000 C 
BRANCH   3   4
ATOM      4  C   UNL     1      20.802   7.956   7.095  1.00  0.00     0.000 C 
BRANCH   4   5
ATOM      5  C   UNL     1      20.834   6.602   7.823  1.00  0.00     0.001 C 
BRANCH   5   6
ATOM      6  C   UNL     1      22.165   5.854   7.632  1.00  0.00     0.009 C 
BRANCH   6   7
ATOM      7  C   UNL     1      23.035   6.466   6.514  1.00  0.00     0.032 C 
ATOM      8  C   UNL     1      24.420   6.891   7.022  1.00  0.00     0.014 C 
BRANCH   7   9
ATOM      9  C   UNL     1      23.187   5.485   5.384  1.00  0.00     0.044 C 
ATOM     10  O   UNL     1      22.923   5.826   4.200  1.00  0.00    -0.550 OA
ATOM     11  O   UNL     1      23.626   4.192   5.642  1.00  0.00    -0.550 OA
ENDBRANCH   7   9
ENDBRANCH   6   7
ENDBRANCH   5   6
ENDBRANCH   4   5
ENDBRANCH   3   4
ENDBRANCH   2   3
ENDBRANCH   1   2
BRANCH   1  12
ATOM     12  C   UNL     1      17.747  10.641   6.172  1.00  0.00     0.000 C 
BRANCH  12  13
ATOM     13  C   UNL     1      16.727   9.491   6.157  1.00  0.00    -0.000 C 
BRANCH  13  14
ATOM     14  C   UNL     1      16.991   8.457   7.266  1.00  0.00    -0.000 C 
BRANCH  14  15
ATOM     15  C   UNL     1      16.601   7.025   6.856  1.00  0.00    -0.000 C 
BRANCH  15  16
ATOM     16  C   UNL     1      17.707   6.221   6.149  1.00  0.00    -0.000 C 
BRANCH  16  17
ATOM     17  C   UNL     1      17.642   6.333   4.616  1.00  0.00    -0.000 C 
BRANCH  17  18
ATOM     18  C   UNL     1      18.888   7.009   4.021  1.00  0.00    -0.003 C 
ATOM     19  C   UNL     1      18.544   8.139   3.051  1.00  0.00     0.004 C 
ENDBRANCH  17  18
ENDBRANCH  16  17
ENDBRANCH  15  16
ENDBRANCH  14  15
ENDBRANCH  13  14
ENDBRANCH  12  13
ENDBRANCH   1  12
TORSDOF 14
ENDMDL
MODEL 2
REMARK VINA RESULT:    -4.225      1.487      1.853
REMARK INTER + INTRA:          -9.969
REMARK INTER:                  -7.943
REMARK INTRA:                  -2.027
REMARK UNBOUND:                -2.285
REMARK SMILES CCCCCCCCCCCCCC[C@@H](C)C(=O)[O-]
REMARK SMILES IDX 9 1 10 2 11 3 12 4 13 5 14 6 15 7 16 8 17 9 18 10 19 11 8 12
REMARK SMILES IDX 7 13 6 14 5 15 4 16 3 17 2 18 1 19
REMARK H PARENT
REMARK Flexibility Score: inf
ROOT
ATOM      1  C   UNL     1      18.515  10.691   5.986  1.00  0.00     0.000 C 
ENDROOT
BRANCH   1   2
ATOM      2  C   UNL     1      19.758  10.781   6.888  1.00  0.00     0.000 C 
BRANCH   2   3
ATOM      3  C   UNL     1      19.853   9.705   7.986  1.00  0.00     0.000 C 
BRANCH   3   4
ATOM      4  C   UNL     1      21.260   9.598   8.599  1.00  0.00     0.000 C 
BRANCH   4   5
ATOM      5  C   UNL     1      21.833   8.173   8.514  1.00  0.00     0.001 C 
BRANCH   5   6
ATOM      6  C   UNL     1      21.274   7.376   7.322  1.00  0.00     0.009 C 
BRANCH   6   7
ATOM      7  C   UNL     1      22.160   6.169   6.947  1.00  0.00     0.032 C 
ATOM      8  C   UNL     1      23.468   6.597   6.267  1.00  0.00     0.014 C 
BRANCH   7   9
ATOM      9  C   UNL     1      22.468   5.356   8.174  1.00  0.00     0.044 C 
ATOM     10  O   UNL     1      21.545   4.770   8.802  1.00  0.00    -0.550 OA
ATOM     11  O   UNL     1      23.778   5.243   8.622  1.00  0.00    -0.550 OA
ENDBRANCH   7   9
ENDBRANCH   6   7
ENDBRANCH   5   6
ENDBRANCH   4   5
ENDBRANCH   3   4
ENDBRANCH   2   3
ENDBRANCH   1   2
BRANCH   1  12
ATOM     12  C   UNL     1      17.343   9.948   6.650  1.00  0.00     0.000 C 
BRANCH  12  13
ATOM     13  C   UNL     1      16.212   9.629   5.658  1.00  0.00    -0.000 C 
BRANCH  13  14
ATOM     14  C   UNL     1      15.954   8.117   5.529  1.00  0.00    -0.000 C 
BRANCH  14  15
ATOM     15  C   UNL     1      16.603   7.299   6.660  1.00  0.00    -0.000 C 
BRANCH  15  16
ATOM     16  C   UNL     1      17.705   6.320   6.214  1.00  0.00    -0.000 C 
BRANCH  16  17
ATOM     17  C   UNL     1      17.847   6.235   4.685  1.00  0.00    -0.000 C 
BRANCH  17  18
ATOM     18  C   UNL     1      19.060   7.022   4.161  1.00  0.00    -0.003 C 
ATOM     19  C   UNL     1      18.670   8.130   3.183  1.00  0.00     0.004 C 
ENDBRANCH  17  18
ENDBRANCH  16  17
ENDBRANCH  15  16
ENDBRANCH  14  15
ENDBRANCH  13  14
ENDBRANCH  12  13
ENDBRANCH   1  12
TORSDOF 14
ENDMDL
MODEL 3
REMARK VINA RESULT:    -4.115      1.523      2.798
REMARK INTER + INTRA:          -9.768
REMARK INTER:                  -8.045
REMARK INTRA:                  -1.723
REMARK UNBOUND:                -2.285
REMARK SMILES CCCCCCCCCCCCCC[C@@H](C)C(=O)[O-]
REMARK SMILES IDX 9 1 10 2 11 3 12 4 13 5 14 6 15 7 16 8 17 9 18 10 19 11 8 12
REMARK SMILES IDX 7 13 6 14 5 15 4 16 3 17 2 18 1 19
REMARK H PARENT
REMARK Flexibility Score: inf
ROOT
ATOM      1  C   UNL     1      20.286   9.312   7.229  1.00  0.00     0.000 C 
ENDROOT
BRANCH   1   2
ATOM      2  C   UNL     1      21.131   9.024   8.482  1.00  0.00     0.000 C 
BRANCH   2   3
ATOM      3  C   UNL     1      22.050   7.792   8.387  1.00  0.00     0.000 C 
BRANCH   3   4
ATOM      4  C   UNL     1      21.795   6.952   7.124  1.00  0.00     0.000 C 
BRANCH   4   5
ATOM      5  C   UNL     1      23.085   6.341   6.552  1.00  0.00     0.001 C 
BRANCH   5   6
ATOM      6  C   UNL     1      22.937   5.901   5.084  1.00  0.00     0.009 C 
BRANCH   6   7
ATOM      7  C   UNL     1      24.095   4.994   4.616  1.00  0.00     0.032 C 
ATOM      8  C   UNL     1      24.010   3.585   5.220  1.00  0.00     0.014 C 
BRANCH   7   9
ATOM      9  C   UNL     1      24.103   4.904   3.115  1.00  0.00     0.044 C 
ATOM     10  O   UNL     1      25.020   5.453   2.446  1.00  0.00    -0.550 OA
ATOM     11  O   UNL     1      23.098   4.209   2.455  1.00  0.00    -0.550 OA
ENDBRANCH   7   9
ENDBRANCH   6   7
ENDBRANCH   5   6
ENDBRANCH   4   5
ENDBRANCH   3   4
ENDBRANCH   2   3
ENDBRANCH   1   2
BRANCH   1  12
ATOM     12  C   UNL     1      19.578  10.676   7.282  1.00  0.00     0.000 C 
BRANCH  12  13
ATOM     13  C   UNL     1      18.485  10.813   6.210  1.00  0.00    -0.000 C 
BRANCH  13  14
ATOM     14  C   UNL     1      18.832  10.055   4.917  1.00  0.00    -0.000 C 
BRANCH  14  15
ATOM     15  C   UNL     1      17.685   9.155   4.423  1.00  0.00    -0.000 C 
BRANCH  15  16
ATOM     16  C   UNL     1      17.134   8.162   5.463  1.00  0.00    -0.000 C 
BRANCH  16  17
ATOM     17  C   UNL     1      17.971   6.875   5.563  1.00  0.00    -0.000 C 
BRANCH  17  18
ATOM     18  C   UNL     1      18.056   6.338   7.001  1.00  0.00    -0.003 C 
ATOM     19  C   UNL     1      17.368   7.251   8.017  1.00  0.00     0.004 C 
ENDBRANCH  17  18
ENDBRANCH  16  17
ENDBRANCH  15  16
ENDBRANCH  14  15
ENDBRANCH  13  14
ENDBRANCH  12  13
ENDBRANCH   1  12
TORSDOF 14
ENDMDL
MODEL 4
REMARK VINA RESULT:    -4.107      2.387      5.443
REMARK INTER + INTRA:          -9.754
REMARK INTER:                  -8.238
REMARK INTRA:                  -1.516
REMARK UNBOUND:                -2.285
REMARK SMILES CCCCCCCCCCCCCC[C@@H](C)C(=O)[O-]
REMARK SMILES IDX 9 1 10 2 11 3 12 4 13 5 14 6 15 7 16 8 17 9 18 10 19 11 8 12
REMARK SMILES IDX 7 13 6 14 5 15 4 16 3 17 2 18 1 19
REMARK H PARENT
REMARK Flexibility Score: inf
ROOT
ATOM      1  C   UNL     1      19.811  10.196   8.353  1.00  0.00     0.000 C 
ENDROOT
BRANCH   1   2
ATOM      2  C   UNL     1      19.876  10.913   6.992  1.00  0.00     0.000 C 
BRANCH   2   3
ATOM      3  C   UNL     1      18.624  10.761   6.108  1.00  0.00     0.000 C 
BRANCH   3   4
ATOM      4  C   UNL     1      18.756   9.631   5.073  1.00  0.00     0.000 C 
BRANCH   4   5
ATOM      5  C   UNL     1      17.399   9.205   4.488  1.00  0.00     0.001 C 
BRANCH   5   6
ATOM      6  C   UNL     1      16.330   8.973   5.572  1.00  0.00     0.009 C 
BRANCH   6   7
ATOM      7  C   UNL     1      16.155   7.480   5.924  1.00  0.00     0.032 C 
ATOM      8  C   UNL     1      16.370   6.567   4.709  1.00  0.00     0.014 C 
BRANCH   7   9
ATOM      9  C   UNL     1      17.107   7.097   7.023  1.00  0.00     0.044 C 
ATOM     10  O   UNL     1      17.273   7.851   8.019  1.00  0.00    -0.550 OA
ATOM     11  O   UNL     1      17.809   5.900   6.947  1.00  0.00    -0.550 OA
ENDBRANCH   7   9
ENDBRANCH   6   7
ENDBRANCH   5   6
ENDBRANCH   4   5
ENDBRANCH   3   4
ENDBRANCH   2   3
ENDBRANCH   1   2
BRANCH   1  12
ATOM     12  C   UNL     1      21.198   9.943   8.966  1.00  0.00     0.000 C 
BRANCH  12  13
ATOM     13  C   UNL     1      21.824   8.626   8.479  1.00  0.00    -0.000 C 
BRANCH  13  14
ATOM     14  C   UNL     1      20.781   7.663   7.886  1.00  0.00    -0.000 C 
BRANCH  14  15
ATOM     15  C   UNL     1      21.248   7.007   6.574  1.00  0.00    -0.000 C 
BRANCH  15  16
ATOM     16  C   UNL     1      22.400   5.996   6.719  1.00  0.00    -0.000 C 
BRANCH  16  17
ATOM     17  C   UNL     1      23.503   6.190   5.665  1.00  0.00    -0.000 C 
BRANCH  17  18
ATOM     18  C   UNL     1      23.713   4.939   4.796  1.00  0.00    -0.003 C 
ATOM     19  C   UNL     1      23.404   5.184   3.319  1.00  0.00     0.004 C 
ENDBRANCH  17  18
ENDBRANCH  16  17
ENDBRANCH  15  16
ENDBRANCH  14  15
ENDBRANCH  13  14
ENDBRANCH  12  13
ENDBRANCH   1  12
TORSDOF 14
ENDMDL
MODEL 5
REMARK VINA RESULT:    -4.103      1.286      2.408
REMARK INTER + INTRA:          -9.747
REMARK INTER:                  -7.852
REMARK INTRA:                  -1.895
REMARK UNBOUND:                -2.285
REMARK SMILES CCCCCCCCCCCCCC[C@@H](C)C(=O)[O-]
REMARK SMILES IDX 9 1 10 2 11 3 12 4 13 5 14 6 15 7 16 8 17 9 18 10 19 11 8 12
REMARK SMILES IDX 7 13 6 14 5 15 4 16 3 17 2 18 1 19
REMARK H PARENT
REMARK Flexibility Score: inf
ROOT
ATOM      1  C   UNL     1      19.996  10.718   7.492  1.00  0.00     0.000 C 
ENDROOT
BRANCH   1   2
ATOM      2  C   UNL     1      20.678   9.410   7.932  1.00  0.00     0.000 C 
BRANCH   2   3
ATOM      3  C   UNL     1      20.445   8.203   7.005  1.00  0.00     0.000 C 
BRANCH   3   4
ATOM      4  C   UNL     1      21.178   6.936   7.477  1.00  0.00     0.000 C 
BRANCH   4   5
ATOM      5  C   UNL     1      22.619   7.224   7.933  1.00  0.00     0.001 C 
BRANCH   5   6
ATOM      6  C   UNL     1      23.674   6.649   6.970  1.00  0.00     0.009 C 
BRANCH   6   7
ATOM      7  C   UNL     1      23.143   5.452   6.153  1.00  0.00     0.032 C 
ATOM      8  C   UNL     1      23.203   5.709   4.640  1.00  0.00     0.014 C 
BRANCH   7   9
ATOM      9  C   UNL     1      23.924   4.212   6.489  1.00  0.00     0.044 C 
ATOM     10  O   UNL     1      23.454   3.071   6.235  1.00  0.00    -0.550 OA
ATOM     11  O   UNL     1      25.176   4.320   7.082  1.00  0.00    -0.550 OA
ENDBRANCH   7   9
ENDBRANCH   6   7
ENDBRANCH   5   6
ENDBRANCH   4   5
ENDBRANCH   3   4
ENDBRANCH   2   3
ENDBRANCH   1   2
BRANCH   1  12
ATOM     12  C   UNL     1      19.212  10.574   6.177  1.00  0.00     0.000 C 
BRANCH  12  13
ATOM     13  C   UNL     1      17.729  10.945   6.332  1.00  0.00    -0.000 C 
BRANCH  13  14
ATOM     14  C   UNL     1      16.789   9.847   5.803  1.00  0.00    -0.000 C 
BRANCH  14  15
ATOM     15  C   UNL     1      17.317   9.172   4.524  1.00  0.00    -0.000 C 
BRANCH  15  16
ATOM     16  C   UNL     1      17.638   7.672   4.658  1.00  0.00    -0.000 C 
BRANCH  16  17
ATOM     17  C   UNL     1      16.689   6.940   5.622  1.00  0.00    -0.000 C 
BRANCH  17  18
ATOM     18  C   UNL     1      17.433   6.283   6.796  1.00  0.00    -0.003 C 
ATOM     19  C   UNL     1      17.245   7.035   8.114  1.00  0.00     0.004 C 
ENDBRANCH  17  18
ENDBRANCH  16  17
ENDBRANCH  15  16
ENDBRANCH  14  15
ENDBRANCH  13  14
ENDBRANCH  12  13
ENDBRANCH   1  12
TORSDOF 14
ENDMDL
MODEL 6
REMARK VINA RESULT:    -3.967      1.793      2.907
REMARK INTER + INTRA:          -9.499
REMARK INTER:                  -7.316
REMARK INTRA:                  -2.183
REMARK UNBOUND:                -2.285
REMARK SMILES CCCCCCCCCCCCCC[C@@H](C)C(=O)[O-]
REMARK SMILES IDX 9 1 10 2 11 3 12 4 13 5 14 6 15 7 16 8 17 9 18 10 19 11 8 12
REMARK SMILES IDX 7 13 6 14 5 15 4 16 3 17 2 18 1 19
REMARK H PARENT
REMARK Flexibility Score: inf
ROOT
ATOM      1  C   UNL     1      18.813  10.322   5.059  1.00  0.00     0.000 C 
ENDROOT
BRANCH   1   2
ATOM      2  C   UNL     1      18.194  10.932   6.330  1.00  0.00     0.000 C 
BRANCH   2   3
ATOM      3  C   UNL     1      18.827  10.472   7.656  1.00  0.00     0.000 C 
BRANCH   3   4
ATOM      4  C   UNL     1      20.336  10.765   7.731  1.00  0.00     0.000 C 
BRANCH   4   5
ATOM      5  C   UNL     1      21.121   9.638   8.423  1.00  0.00     0.001 C 
BRANCH   5   6
ATOM      6  C   UNL     1      21.004   8.291   7.687  1.00  0.00     0.009 C 
BRANCH   6   7
ATOM      7  C   UNL     1      21.887   7.191   8.316  1.00  0.00     0.032 C 
ATOM      8  C   UNL     1      21.328   5.784   8.065  1.00  0.00     0.014 C 
BRANCH   7   9
ATOM      9  C   UNL     1      23.288   7.286   7.778  1.00  0.00     0.044 C 
ATOM     10  O   UNL     1      23.585   6.765   6.670  1.00  0.00    -0.550 OA
ATOM     11  O   UNL     1      24.266   7.956   8.503  1.00  0.00    -0.550 OA
ENDBRANCH   7   9
ENDBRANCH   6   7
ENDBRANCH   5   6
ENDBRANCH   4   5
ENDBRANCH   3   4
ENDBRANCH   2   3
ENDBRANCH   1   2
BRANCH   1  12
ATOM     12  C   UNL     1      17.774  10.039   3.961  1.00  0.00     0.000 C 
BRANCH  12  13
ATOM     13  C   UNL     1      16.429   9.563   4.533  1.00  0.00    -0.000 C 
BRANCH  13  14
ATOM     14  C   UNL     1      15.877   8.333   3.791  1.00  0.00    -0.000 C 
BRANCH  14  15
ATOM     15  C   UNL     1      16.206   7.007   4.501  1.00  0.00    -0.000 C 
BRANCH  15  16
ATOM     16  C   UNL     1      17.666   6.536   4.370  1.00  0.00    -0.000 C 
BRANCH  16  17
ATOM     17  C   UNL     1      18.466   6.698   5.673  1.00  0.00    -0.000 C 
BRANCH  17  18
ATOM     18  C   UNL     1      17.693   6.197   6.905  1.00  0.00    -0.003 C 
ATOM     19  C   UNL     1      17.432   7.300   7.931  1.00  0.00     0.004 C 
ENDBRANCH  17  18
ENDBRANCH  16  17
ENDBRANCH  15  16
ENDBRANCH  14  15
ENDBRANCH  13  14
ENDBRANCH  12  13
ENDBRANCH   1  12
TORSDOF 14
ENDMDL
MODEL 7
REMARK VINA RESULT:    -3.938      2.602      5.906
REMARK INTER + INTRA:          -9.447
REMARK INTER:                  -8.283
REMARK INTRA:                  -1.164
REMARK UNBOUND:                -2.285
REMARK SMILES CCCCCCCCCCCCCC[C@@H](C)C(=O)[O-]
REMARK SMILES IDX 9 1 10 2 11 3 12 4 13 5 14 6 15 7 16 8 17 9 18 10 19 11 8 12
REMARK SMILES IDX 7 13 6 14 5 15 4 16 3 17 2 18 1 19
REMARK H PARENT
REMARK Flexibility Score: inf
ROOT
ATOM      1  C   UNL     1      20.205   8.823   8.035  1.00  0.00     0.000 C 
ENDROOT
BRANCH   1   2
ATOM      2  C   UNL     1      20.332  10.304   7.635  1.00  0.00     0.000 C 
BRANCH   2   3
ATOM      3  C   UNL     1      19.020  10.983   7.201  1.00  0.00     0.000 C 
BRANCH   3   4
ATOM      4  C   UNL     1      18.829  10.993   5.674  1.00  0.00     0.000 C 
BRANCH   4   5
ATOM      5  C   UNL     1      17.952   9.830   5.182  1.00  0.00     0.001 C 
BRANCH   5   6
ATOM      6  C   UNL     1      16.954   9.343   6.248  1.00  0.00     0.009 C 
BRANCH   6   7
ATOM      7  C   UNL     1      16.250   8.029   5.847  1.00  0.00     0.032 C 
ATOM      8  C   UNL     1      16.087   7.898   4.326  1.00  0.00     0.014 C 
BRANCH   7   9
ATOM      9  C   UNL     1      17.018   6.851   6.379  1.00  0.00     0.044 C 
ATOM     10  O   UNL     1      17.391   5.928   5.606  1.00  0.00    -0.550 OA
ATOM     11  O   UNL     1      17.325   6.777   7.732  1.00  0.00    -0.550 OA
ENDBRANCH   7   9
ENDBRANCH   6   7
ENDBRANCH   5   6
ENDBRANCH   4   5
ENDBRANCH   3   4
ENDBRANCH   2   3
ENDBRANCH   1   2
BRANCH   1  12
ATOM     12  C   UNL     1      20.679   7.861   6.933  1.00  0.00     0.000 C 
BRANCH  12  13
ATOM     13  C   UNL     1      21.598   6.754   7.475  1.00  0.00    -0.000 C 
BRANCH  13  14
ATOM     14  C   UNL     1      22.889   6.606   6.651  1.00  0.00    -0.000 C 
BRANCH  14  15
ATOM     15  C   UNL     1      22.644   6.006   5.255  1.00  0.00    -0.000 C 
BRANCH  15  16
ATOM     16  C   UNL     1      23.679   4.962   4.798  1.00  0.00    -0.000 C 
BRANCH  16  17
ATOM     17  C   UNL     1      23.608   4.670   3.289  1.00  0.00    -0.000 C 
BRANCH  17  18
ATOM     18  C   UNL     1      24.847   5.175   2.533  1.00  0.00    -0.003 C 
ATOM     19  C   UNL     1      25.565   4.067   1.763  1.00  0.00     0.004 C 
ENDBRANCH  17  18
ENDBRANCH  16  17
ENDBRANCH  15  16
ENDBRANCH  14  15
ENDBRANCH  13  14
ENDBRANCH  12  13
ENDBRANCH   1  12
TORSDOF 14
ENDMDL
MODEL 8
REMARK VINA RESULT:    -3.907      2.649      5.763
REMARK INTER + INTRA:          -9.390
REMARK INTER:                  -8.020
REMARK INTRA:                  -1.370
REMARK UNBOUND:                -2.285
REMARK SMILES CCCCCCCCCCCCCC[C@@H](C)C(=O)[O-]
REMARK SMILES IDX 9 1 10 2 11 3 12 4 13 5 14 6 15 7 16 8 17 9 18 10 19 11 8 12
REMARK SMILES IDX 7 13 6 14 5 15 4 16 3 17 2 18 1 19
REMARK H PARENT
REMARK Flexibility Score: inf
ROOT
ATOM      1  C   UNL     1      20.321   9.788   7.604  1.00  0.00     0.000 C 
ENDROOT
BRANCH   1   2
ATOM      2  C   UNL     1      19.177  10.723   7.174  1.00  0.00     0.000 C 
BRANCH   2   3
ATOM      3  C   UNL     1      18.899  10.769   5.661  1.00  0.00     0.000 C 
BRANCH   3   4
ATOM      4  C   UNL     1      17.414  10.560   5.318  1.00  0.00     0.000 C 
BRANCH   4   5
ATOM      5  C   UNL     1      16.721   9.577   6.277  1.00  0.00     0.001 C 
BRANCH   5   6
ATOM      6  C   UNL     1      16.139   8.349   5.553  1.00  0.00     0.009 C 
BRANCH   6   7
ATOM      7  C   UNL     1      17.208   7.562   4.765  1.00  0.00     0.032 C 
ATOM      8  C   UNL     1      17.548   6.220   5.428  1.00  0.00     0.014 C 
BRANCH   7   9
ATOM      9  C   UNL     1      16.740   7.329   3.355  1.00  0.00     0.044 C 
ATOM     10  O   UNL     1      16.304   6.200   3.004  1.00  0.00    -0.550 OA
ATOM     11  O   UNL     1      16.781   8.364   2.430  1.00  0.00    -0.550 OA
ENDBRANCH   7   9
ENDBRANCH   6   7
ENDBRANCH   5   6
ENDBRANCH   4   5
ENDBRANCH   3   4
ENDBRANCH   2   3
ENDBRANCH   1   2
BRANCH   1  12
ATOM     12  C   UNL     1      20.130   8.342   7.118  1.00  0.00     0.000 C 
BRANCH  12  13
ATOM     13  C   UNL     1      21.225   7.397   7.638  1.00  0.00    -0.000 C 
BRANCH  13  14
ATOM     14  C   UNL     1      21.917   6.618   6.505  1.00  0.00    -0.000 C 
BRANCH  14  15
ATOM     15  C   UNL     1      23.422   6.409   6.754  1.00  0.00    -0.000 C 
BRANCH  15  16
ATOM     16  C   UNL     1      24.217   5.868   5.551  1.00  0.00    -0.000 C 
BRANCH  16  17
ATOM     17  C   UNL     1      23.316   5.459   4.373  1.00  0.00    -0.000 C 
BRANCH  17  18
ATOM     18  C   UNL     1      23.862   4.242   3.609  1.00  0.00    -0.003 C 
ATOM     19  C   UNL     1      23.269   4.108   2.206  1.00  0.00     0.004 C 
ENDBRANCH  17  18
ENDBRANCH  16  17
ENDBRANCH  15  16
ENDBRANCH  14  15
ENDBRANCH  13  14
ENDBRANCH  12  13
ENDBRANCH   1  12
TORSDOF 14
ENDMDL
MODEL 9
REMARK VINA RESULT:    -3.876     13.113     16.373
REMARK INTER + INTRA:          -9.334
REMARK INTER:                  -7.258
REMARK INTRA:                  -2.076
REMARK UNBOUND:                -2.285
REMARK SMILES CCCCCCCCCCCCCC[C@@H](C)C(=O)[O-]
REMARK SMILES IDX 9 1 10 2 11 3 12 4 13 5 14 6 15 7 16 8 17 9 18 10 19 11 8 12
REMARK SMILES IDX 7 13 6 14 5 15 4 16 3 17 2 18 1 19
REMARK H PARENT
REMARK Flexibility Score: inf
ROOT
ATOM      1  C   UNL     1      23.520  -8.397   2.356  1.00  0.00     0.000 C 
ENDROOT
BRANCH   1   2
ATOM      2  C   UNL     1      22.044  -8.067   2.642  1.00  0.00     0.000 C 
BRANCH   2   3
ATOM      3  C   UNL     1      21.807  -6.874   3.586  1.00  0.00     0.000 C 
BRANCH   3   4
ATOM      4  C   UNL     1      20.781  -5.869   3.034  1.00  0.00     0.000 C 
BRANCH   4   5
ATOM      5  C   UNL     1      21.416  -4.842   2.081  1.00  0.00     0.001 C 
BRANCH   5   6
ATOM      6  C   UNL     1      22.913  -4.617   2.358  1.00  0.00     0.009 C 
BRANCH   6   7
ATOM      7  C   UNL     1      23.766  -4.642   1.071  1.00  0.00     0.032 C 
ATOM      8  C   UNL     1      23.180  -5.578   0.004  1.00  0.00     0.014 C 
BRANCH   7   9
ATOM      9  C   UNL     1      23.894  -3.252   0.513  1.00  0.00     0.044 C 
ATOM     10  O   UNL     1      23.132  -2.860  -0.411  1.00  0.00    -0.550 OA
ATOM     11  O   UNL     1      24.857  -2.387   1.018  1.00  0.00    -0.550 OA
ENDBRANCH   7   9
ENDBRANCH   6   7
ENDBRANCH   5   6
ENDBRANCH   4   5
ENDBRANCH   3   4
ENDBRANCH   2   3
ENDBRANCH   1   2
BRANCH   1  12
ATOM     12  C   UNL     1      24.469  -7.913   3.466  1.00  0.00     0.000 C 
BRANCH  12  13
ATOM     13  C   UNL     1      25.915  -7.748   2.972  1.00  0.00    -0.000 C 
BRANCH  13  14
ATOM     14  C   UNL     1      26.129  -8.345   1.570  1.00  0.00    -0.000 C 
BRANCH  14  15
ATOM     15  C   UNL     1      26.464  -7.281   0.509  1.00  0.00    -0.000 C 
BRANCH  15  16
ATOM     16  C   UNL     1      26.274  -7.727  -0.952  1.00  0.00    -0.000 C 
BRANCH  16  17
ATOM     17  C   UNL     1      27.192  -8.896  -1.345  1.00  0.00    -0.000 C 
BRANCH  17  18
ATOM     18  C   UNL     1      28.354  -8.455  -2.250  1.00  0.00    -0.003 C 
ATOM     19  C   UNL     1      27.979  -7.295  -3.173  1.00  0.00     0.004 C 
ENDBRANCH  17  18
ENDBRANCH  16  17
ENDBRANCH  15  16
ENDBRANCH  14  15
ENDBRANCH  13  14
ENDBRANCH  12  13
ENDBRANCH   1  12
TORSDOF 14
ENDMDL
