MODEL 1
REMARK VINA RESULT:    -4.502      0.000      0.000
REMARK INTER + INTRA:         -10.341
REMARK INTER:                  -8.450
REMARK INTRA:                  -1.892
REMARK UNBOUND:                -1.892
REMARK SMILES CCCCCCCCC=CCCCCCCCC(=O)[O-]
REMARK SMILES IDX 10 1 9 2 11 3 12 4 13 5 14 6 15 7 16 8 17 9 18 10 19 11
REMARK SMILES IDX 20 12 8 13 7 14 6 15 5 16 4 17 3 18 2 19 1 20
REMARK H PARENT
REMARK Flexibility Score: inf
ROOT
ATOM      1  C   UNL     1       9.182   6.148  20.633  1.00  0.00    -0.031 C 
ATOM      2  C   UNL     1       7.911   6.570  20.561  1.00  0.00    -0.031 C 
ENDROOT
BRANCH   1   3
ATOM      3  C   UNL     1       9.690   5.030  19.763  1.00  0.00     0.027 C 
BRANCH   3   4
ATOM      4  C   UNL     1      10.363   3.914  20.581  1.00  0.00     0.004 C 
BRANCH   4   5
ATOM      5  C   UNL     1       9.540   3.438  21.794  1.00  0.00     0.000 C 
BRANCH   5   6
ATOM      6  C   UNL     1       8.430   2.420  21.467  1.00  0.00     0.000 C 
BRANCH   6   7
ATOM      7  C   UNL     1       7.023   3.047  21.360  1.00  0.00     0.000 C 
BRANCH   7   8
ATOM      8  C   UNL     1       6.527   3.131  19.905  1.00  0.00     0.006 C 
BRANCH   8   9
ATOM      9  C   UNL     1       7.028   1.960  19.051  1.00  0.00     0.053 C 
BRANCH   9  10
ATOM     10  C   UNL     1       6.730   2.165  17.596  1.00  0.00     0.041 C 
ATOM     11  O   UNL     1       5.565   2.466  17.222  1.00  0.00    -0.550 OA
ATOM     12  O   UNL     1       7.732   1.990  16.648  1.00  0.00    -0.550 OA
ENDBRANCH   9  10
ENDBRANCH   8   9
ENDBRANCH   7   8
ENDBRANCH   6   7
ENDBRANCH   5   6
ENDBRANCH   4   5
ENDBRANCH   3   4
ENDBRANCH   1   3
BRANCH   2  13
ATOM     13  C   UNL     1       7.396   7.690  21.423  1.00  0.00     0.027 C 
BRANCH  13  14
ATOM     14  C   UNL     1       7.861   9.071  20.933  1.00  0.00     0.004 C 
BRANCH  14  15
ATOM     15  C   UNL     1       6.859   9.802  20.020  1.00  0.00     0.000 C 
BRANCH  15  16
ATOM     16  C   UNL     1       7.177   9.626  18.528  1.00  0.00     0.000 C 
BRANCH  16  17
ATOM     17  C   UNL     1       8.688   9.481  18.299  1.00  0.00    -0.000 C 
BRANCH  17  18
ATOM     18  C   UNL     1       9.056   9.325  16.813  1.00  0.00    -0.000 C 
BRANCH  18  19
ATOM     19  C   UNL     1       8.249  10.248  15.876  1.00  0.00    -0.003 C 
ATOM     20  C   UNL     1       7.471   9.467  14.815  1.00  0.00     0.004 C 
ENDBRANCH  18  19
ENDBRANCH  17  18
ENDBRANCH  16  17
ENDBRANCH  15  16
ENDBRANCH  14  15
ENDBRANCH  13  14
ENDBRANCH   2  13
TORSDOF 15
ENDMDL
MODEL 2
REMARK VINA RESULT:    -4.387      2.048      4.101
REMARK INTER + INTRA:         -10.126
REMARK INTER:                  -8.088
REMARK INTRA:                  -2.039
REMARK UNBOUND:                -1.892
REMARK SMILES CCCCCCCCC=CCCCCCCCC(=O)[O-]
REMARK SMILES IDX 10 1 9 2 11 3 12 4 13 5 14 6 15 7 16 8 17 9 18 10 19 11
REMARK SMILES IDX 20 12 8 13 7 14 6 15 5 16 4 17 3 18 2 19 1 20
REMARK H PARENT
REMARK Flexibility Score: inf
ROOT
ATOM      1  C   UNL     1       5.161   8.248  18.432  1.00  0.00    -0.031 C 
ATOM      2  C   UNL     1       4.960   8.195  17.107  1.00  0.00    -0.031 C 
ENDROOT
BRANCH   1   3
ATOM      3  C   UNL     1       4.876   7.068  19.319  1.00  0.00     0.027 C 
BRANCH   3   4
ATOM      4  C   UNL     1       5.814   7.013  20.538  1.00  0.00     0.004 C 
BRANCH   4   5
ATOM      5  C   UNL     1       6.712   5.762  20.586  1.00  0.00     0.000 C 
BRANCH   5   6
ATOM      6  C   UNL     1       6.197   4.626  21.491  1.00  0.00     0.000 C 
BRANCH   6   7
ATOM      7  C   UNL     1       5.970   3.292  20.748  1.00  0.00     0.000 C 
BRANCH   7   8
ATOM      8  C   UNL     1       6.379   3.367  19.267  1.00  0.00     0.006 C 
BRANCH   8   9
ATOM      9  C   UNL     1       7.500   2.380  18.921  1.00  0.00     0.053 C 
BRANCH   9  10
ATOM     10  C   UNL     1       8.800   2.768  19.558  1.00  0.00     0.041 C 
ATOM     11  O   UNL     1       9.354   2.001  20.390  1.00  0.00    -0.550 OA
ATOM     12  O   UNL     1       9.384   3.993  19.258  1.00  0.00    -0.550 OA
ENDBRANCH   9  10
ENDBRANCH   8   9
ENDBRANCH   7   8
ENDBRANCH   6   7
ENDBRANCH   5   6
ENDBRANCH   4   5
ENDBRANCH   3   4
ENDBRANCH   1   3
BRANCH   2  13
ATOM     13  C   UNL     1       5.247   9.369  16.212  1.00  0.00     0.027 C 
BRANCH  13  14
ATOM     14  C   UNL     1       6.611   9.255  15.512  1.00  0.00     0.004 C 
BRANCH  14  15
ATOM     15  C   UNL     1       7.712  10.161  16.096  1.00  0.00     0.000 C 
BRANCH  15  16
ATOM     16  C   UNL     1       8.982   9.383  16.473  1.00  0.00     0.000 C 
BRANCH  16  17
ATOM     17  C   UNL     1       9.007   9.062  17.974  1.00  0.00    -0.000 C 
BRANCH  17  18
ATOM     18  C   UNL     1       8.095   9.986  18.799  1.00  0.00    -0.000 C 
BRANCH  18  19
ATOM     19  C   UNL     1       8.256   9.813  20.324  1.00  0.00    -0.003 C 
ATOM     20  C   UNL     1       7.201  10.589  21.115  1.00  0.00     0.004 C 
ENDBRANCH  18  19
ENDBRANCH  17  18
ENDBRANCH  16  17
ENDBRANCH  15  16
ENDBRANCH  14  15
ENDBRANCH  13  14
ENDBRANCH   2  13
TORSDOF 15
ENDMDL
MODEL 3
REMARK VINA RESULT:    -4.324      6.845     11.171
REMARK INTER + INTRA:         -10.008
REMARK INTER:                  -8.901
REMARK INTRA:                  -1.107
REMARK UNBOUND:                -1.892
REMARK SMILES CCCCCCCCC=CCCCCCCCC(=O)[O-]
REMARK SMILES IDX 10 1 9 2 11 3 12 4 13 5 14 6 15 7 16 8 17 9 18 10 19 11
REMARK SMILES IDX 20 12 8 13 7 14 6 15 5 16 4 17 3 18 2 19 1 20
REMARK H PARENT
REMARK Flexibility Score: inf
ROOT
ATOM      1  C   UNL     1       7.603   9.048  10.593  1.00  0.00    -0.031 C 
ATOM      2  C   UNL     1       7.377  10.315  10.217  1.00  0.00    -0.031 C 
ENDROOT
BRANCH   1   3
ATOM      3  C   UNL     1       7.886   7.967   9.586  1.00  0.00     0.027 C 
BRANCH   3   4
ATOM      4  C   UNL     1       7.513   8.391   8.154  1.00  0.00     0.004 C 
BRANCH   4   5
ATOM      5  C   UNL     1       8.725   8.689   7.250  1.00  0.00     0.000 C 
BRANCH   5   6
ATOM      6  C   UNL     1      10.042   8.017   7.685  1.00  0.00     0.000 C 
BRANCH   6   7
ATOM      7  C   UNL     1      11.014   7.738   6.519  1.00  0.00     0.000 C 
BRANCH   7   8
ATOM      8  C   UNL     1      12.360   7.167   6.999  1.00  0.00     0.006 C 
BRANCH   8   9
ATOM      9  C   UNL     1      12.779   7.732   8.362  1.00  0.00     0.053 C 
BRANCH   9  10
ATOM     10  C   UNL     1      13.797   8.823   8.225  1.00  0.00     0.041 C 
ATOM     11  O   UNL     1      14.082   9.287   7.089  1.00  0.00    -0.550 OA
ATOM     12  O   UNL     1      14.458   9.304   9.350  1.00  0.00    -0.550 OA
ENDBRANCH   9  10
ENDBRANCH   8   9
ENDBRANCH   7   8
ENDBRANCH   6   7
ENDBRANCH   5   6
ENDBRANCH   4   5
ENDBRANCH   3   4
ENDBRANCH   1   3
BRANCH   2  13
ATOM     13  C   UNL     1       7.098  11.404  11.217  1.00  0.00     0.027 C 
BRANCH  13  14
ATOM     14  C   UNL     1       8.089  11.391  12.392  1.00  0.00     0.004 C 
BRANCH  14  15
ATOM     15  C   UNL     1       7.457  11.091  13.764  1.00  0.00     0.000 C 
BRANCH  15  16
ATOM     16  C   UNL     1       7.719   9.653  14.237  1.00  0.00     0.000 C 
BRANCH  16  17
ATOM     17  C   UNL     1       6.732   9.245  15.338  1.00  0.00    -0.000 C 
BRANCH  17  18
ATOM     18  C   UNL     1       7.282   9.485  16.755  1.00  0.00    -0.000 C 
BRANCH  18  19
ATOM     19  C   UNL     1       8.818   9.374  16.849  1.00  0.00    -0.003 C 
ATOM     20  C   UNL     1       9.299   9.114  18.278  1.00  0.00     0.004 C 
ENDBRANCH  18  19
ENDBRANCH  17  18
ENDBRANCH  16  17
ENDBRANCH  15  16
ENDBRANCH  14  15
ENDBRANCH  13  14
ENDBRANCH   2  13
TORSDOF 15
ENDMDL
MODEL 4
REMARK VINA RESULT:    -4.309      2.426      6.708
REMARK INTER + INTRA:          -9.980
REMARK INTER:                  -8.350
REMARK INTRA:                  -1.630
REMARK UNBOUND:                -1.892
REMARK SMILES CCCCCCCCC=CCCCCCCCC(=O)[O-]
REMARK SMILES IDX 10 1 9 2 11 3 12 4 13 5 14 6 15 7 16 8 17 9 18 10 19 11
REMARK SMILES IDX 20 12 8 13 7 14 6 15 5 16 4 17 3 18 2 19 1 20
REMARK H PARENT
REMARK Flexibility Score: inf
ROOT
ATOM      1  C   UNL     1       8.991   6.509  21.453  1.00  0.00    -0.031 C 
ATOM      2  C   UNL     1       9.426   5.845  20.372  1.00  0.00    -0.031 C 
ENDROOT
BRANCH   1   3
ATOM      3  C   UNL     1       8.189   7.775  21.328  1.00  0.00     0.027 C 
BRANCH   3   4
ATOM      4  C   UNL     1       7.024   7.633  20.333  1.00  0.00     0.004 C 
BRANCH   4   5
ATOM      5  C   UNL     1       7.107   8.586  19.125  1.00  0.00     0.000 C 
BRANCH   5   6
ATOM      6  C   UNL     1       8.481   9.252  18.915  1.00  0.00     0.000 C 
BRANCH   6   7
ATOM      7  C   UNL     1       9.059   9.054  17.498  1.00  0.00     0.000 C 
BRANCH   7   8
ATOM      8  C   UNL     1       8.437  10.016  16.470  1.00  0.00     0.006 C 
BRANCH   8   9
ATOM      9  C   UNL     1       7.665   9.273  15.372  1.00  0.00     0.053 C 
BRANCH   9  10
ATOM     10  C   UNL     1       6.183   9.358  15.579  1.00  0.00     0.041 C 
ATOM     11  O   UNL     1       5.514   8.317  15.818  1.00  0.00    -0.550 OA
ATOM     12  O   UNL     1       5.534  10.583  15.476  1.00  0.00    -0.550 OA
ENDBRANCH   9  10
ENDBRANCH   8   9
ENDBRANCH   7   8
ENDBRANCH   6   7
ENDBRANCH   5   6
ENDBRANCH   4   5
ENDBRANCH   3   4
ENDBRANCH   1   3
BRANCH   2  13
ATOM     13  C   UNL     1      10.224   4.576  20.486  1.00  0.00     0.027 C 
BRANCH  13  14
ATOM     14  C   UNL     1      10.363   4.097  21.941  1.00  0.00     0.004 C 
BRANCH  14  15
ATOM     15  C   UNL     1       9.224   3.183  22.430  1.00  0.00     0.000 C 
BRANCH  15  16
ATOM     16  C   UNL     1       8.572   2.386  21.290  1.00  0.00     0.000 C 
BRANCH  16  17
ATOM     17  C   UNL     1       7.127   2.845  21.051  1.00  0.00    -0.000 C 
BRANCH  17  18
ATOM     18  C   UNL     1       6.862   3.253  19.591  1.00  0.00    -0.000 C 
BRANCH  18  19
ATOM     19  C   UNL     1       6.619   2.055  18.649  1.00  0.00    -0.003 C 
ATOM     20  C   UNL     1       5.732   2.420  17.457  1.00  0.00     0.004 C 
ENDBRANCH  18  19
ENDBRANCH  17  18
ENDBRANCH  16  17
ENDBRANCH  15  16
ENDBRANCH  14  15
ENDBRANCH  13  14
ENDBRANCH   2  13
TORSDOF 15
ENDMDL
MODEL 5
REMARK VINA RESULT:    -4.309      1.469      2.241
REMARK INTER + INTRA:          -9.980
REMARK INTER:                  -7.962
REMARK INTRA:                  -2.018
REMARK UNBOUND:                -1.892
REMARK SMILES CCCCCCCCC=CCCCCCCCC(=O)[O-]
REMARK SMILES IDX 10 1 9 2 11 3 12 4 13 5 14 6 15 7 16 8 17 9 18 10 19 11
REMARK SMILES IDX 20 12 8 13 7 14 6 15 5 16 4 17 3 18 2 19 1 20
REMARK H PARENT
REMARK Flexibility Score: inf
ROOT
ATOM      1  C   UNL     1       7.986   6.383  20.381  1.00  0.00    -0.031 C 
ATOM      2  C   UNL     1       6.682   6.351  20.691  1.00  0.00    -0.031 C 
ENDROOT
BRANCH   1   3
ATOM      3  C   UNL     1       9.045   6.057  21.399  1.00  0.00     0.027 C 
BRANCH   3   4
ATOM      4  C   UNL     1       8.501   5.192  22.550  1.00  0.00     0.004 C 
BRANCH   4   5
ATOM      5  C   UNL     1       8.781   3.684  22.390  1.00  0.00     0.000 C 
BRANCH   5   6
ATOM      6  C   UNL     1       9.833   3.327  21.322  1.00  0.00     0.000 C 
BRANCH   6   7
ATOM      7  C   UNL     1       9.320   2.347  20.246  1.00  0.00     0.000 C 
BRANCH   7   8
ATOM      8  C   UNL     1       8.593   3.065  19.096  1.00  0.00     0.006 C 
BRANCH   8   9
ATOM      9  C   UNL     1       7.106   2.695  19.026  1.00  0.00     0.053 C 
BRANCH   9  10
ATOM     10  C   UNL     1       6.720   2.194  17.667  1.00  0.00     0.041 C 
ATOM     11  O   UNL     1       7.599   2.018  16.781  1.00  0.00    -0.550 OA
ATOM     12  O   UNL     1       5.384   1.952  17.367  1.00  0.00    -0.550 OA
ENDBRANCH   9  10
ENDBRANCH   8   9
ENDBRANCH   7   8
ENDBRANCH   6   7
ENDBRANCH   5   6
ENDBRANCH   4   5
ENDBRANCH   3   4
ENDBRANCH   1   3
BRANCH   2  13
ATOM     13  C   UNL     1       5.616   6.670  19.679  1.00  0.00     0.027 C 
BRANCH  13  14
ATOM     14  C   UNL     1       5.089   8.108  19.814  1.00  0.00     0.004 C 
BRANCH  14  15
ATOM     15  C   UNL     1       5.633   9.095  18.765  1.00  0.00     0.000 C 
BRANCH  15  16
ATOM     16  C   UNL     1       5.099   8.814  17.352  1.00  0.00     0.000 C 
BRANCH  16  17
ATOM     17  C   UNL     1       6.116   9.234  16.283  1.00  0.00    -0.000 C 
BRANCH  17  18
ATOM     18  C   UNL     1       7.299  10.029  16.862  1.00  0.00    -0.000 C 
BRANCH  18  19
ATOM     19  C   UNL     1       8.657   9.310  16.720  1.00  0.00    -0.003 C 
ATOM     20  C   UNL     1       9.331   9.062  18.071  1.00  0.00     0.004 C 
ENDBRANCH  18  19
ENDBRANCH  17  18
ENDBRANCH  16  17
ENDBRANCH  15  16
ENDBRANCH  14  15
ENDBRANCH  13  14
ENDBRANCH   2  13
TORSDOF 15
ENDMDL
MODEL 6
REMARK VINA RESULT:    -4.304      1.412      1.990
REMARK INTER + INTRA:          -9.971
REMARK INTER:                  -8.288
REMARK INTRA:                  -1.683
REMARK UNBOUND:                -1.892
REMARK SMILES CCCCCCCCC=CCCCCCCCC(=O)[O-]
REMARK SMILES IDX 10 1 9 2 11 3 12 4 13 5 14 6 15 7 16 8 17 9 18 10 19 11
REMARK SMILES IDX 20 12 8 13 7 14 6 15 5 16 4 17 3 18 2 19 1 20
REMARK H PARENT
REMARK Flexibility Score: inf
ROOT
ATOM      1  C   UNL     1       8.488   5.752  22.427  1.00  0.00    -0.031 C 
ATOM      2  C   UNL     1       9.356   6.105  21.467  1.00  0.00    -0.031 C 
ENDROOT
BRANCH   1   3
ATOM      3  C   UNL     1       8.942   5.053  23.679  1.00  0.00     0.027 C 
BRANCH   3   4
ATOM      4  C   UNL     1       8.653   3.542  23.641  1.00  0.00     0.004 C 
BRANCH   4   5
ATOM      5  C   UNL     1       9.712   2.717  22.882  1.00  0.00     0.000 C 
BRANCH   5   6
ATOM      6  C   UNL     1       9.181   1.944  21.659  1.00  0.00     0.000 C 
BRANCH   6   7
ATOM      7  C   UNL     1       9.546   2.591  20.307  1.00  0.00     0.000 C 
BRANCH   7   8
ATOM      8  C   UNL     1       8.333   3.240  19.618  1.00  0.00     0.006 C 
BRANCH   8   9
ATOM      9  C   UNL     1       7.796   2.389  18.461  1.00  0.00     0.053 C 
BRANCH   9  10
ATOM     10  C   UNL     1       6.307   2.231  18.529  1.00  0.00     0.041 C 
ATOM     11  O   UNL     1       5.722   2.195  19.644  1.00  0.00    -0.550 OA
ATOM     12  O   UNL     1       5.568   2.091  17.360  1.00  0.00    -0.550 OA
ENDBRANCH   9  10
ENDBRANCH   8   9
ENDBRANCH   7   8
ENDBRANCH   6   7
ENDBRANCH   5   6
ENDBRANCH   4   5
ENDBRANCH   3   4
ENDBRANCH   1   3
BRANCH   2  13
ATOM     13  C   UNL     1       8.912   6.809  20.214  1.00  0.00     0.027 C 
BRANCH  13  14
ATOM     14  C   UNL     1       7.471   7.336  20.314  1.00  0.00     0.004 C 
BRANCH  14  15
ATOM     15  C   UNL     1       7.113   8.431  19.292  1.00  0.00     0.000 C 
BRANCH  15  16
ATOM     16  C   UNL     1       8.276   9.398  19.026  1.00  0.00     0.000 C 
BRANCH  16  17
ATOM     17  C   UNL     1       8.093  10.129  17.690  1.00  0.00    -0.000 C 
BRANCH  17  18
ATOM     18  C   UNL     1       8.758   9.398  16.511  1.00  0.00    -0.000 C 
BRANCH  18  19
ATOM     19  C   UNL     1       7.837   9.236  15.284  1.00  0.00    -0.003 C 
ATOM     20  C   UNL     1       6.356   9.196  15.667  1.00  0.00     0.004 C 
ENDBRANCH  18  19
ENDBRANCH  17  18
ENDBRANCH  16  17
ENDBRANCH  15  16
ENDBRANCH  14  15
ENDBRANCH  13  14
ENDBRANCH   2  13
TORSDOF 15
ENDMDL
MODEL 7
REMARK VINA RESULT:    -4.298      2.631      6.943
REMARK INTER + INTRA:          -9.959
REMARK INTER:                  -7.720
REMARK INTRA:                  -2.240
REMARK UNBOUND:                -1.892
REMARK SMILES CCCCCCCCC=CCCCCCCCC(=O)[O-]
REMARK SMILES IDX 10 1 9 2 11 3 12 4 13 5 14 6 15 7 16 8 17 9 18 10 19 11
REMARK SMILES IDX 20 12 8 13 7 14 6 15 5 16 4 17 3 18 2 19 1 20
REMARK H PARENT
REMARK Flexibility Score: inf
ROOT
ATOM      1  C   UNL     1       8.511   6.477  21.828  1.00  0.00    -0.031 C 
ATOM      2  C   UNL     1       9.381   5.800  21.064  1.00  0.00    -0.031 C 
ENDROOT
BRANCH   1   3
ATOM      3  C   UNL     1       7.892   7.766  21.361  1.00  0.00     0.027 C 
BRANCH   3   4
ATOM      4  C   UNL     1       7.010   7.573  20.115  1.00  0.00     0.004 C 
BRANCH   4   5
ATOM      5  C   UNL     1       6.789   8.859  19.295  1.00  0.00     0.000 C 
BRANCH   5   6
ATOM      6  C   UNL     1       8.067   9.662  18.986  1.00  0.00     0.000 C 
BRANCH   6   7
ATOM      7  C   UNL     1       9.099   8.888  18.139  1.00  0.00     0.000 C 
BRANCH   7   8
ATOM      8  C   UNL     1       9.199   9.422  16.699  1.00  0.00     0.006 C 
BRANCH   8   9
ATOM      9  C   UNL     1       8.087  10.427  16.374  1.00  0.00     0.053 C 
BRANCH   9  10
ATOM     10  C   UNL     1       7.106   9.873  15.385  1.00  0.00     0.041 C 
ATOM     11  O   UNL     1       5.870  10.052  15.548  1.00  0.00    -0.550 OA
ATOM     12  O   UNL     1       7.556   9.129  14.300  1.00  0.00    -0.550 OA
ENDBRANCH   9  10
ENDBRANCH   8   9
ENDBRANCH   7   8
ENDBRANCH   6   7
ENDBRANCH   5   6
ENDBRANCH   4   5
ENDBRANCH   3   4
ENDBRANCH   1   3
BRANCH   2  13
ATOM     13  C   UNL     1      10.001   4.507  21.520  1.00  0.00     0.027 C 
BRANCH  13  14
ATOM     14  C   UNL     1      10.100   3.471  20.388  1.00  0.00     0.004 C 
BRANCH  14  15
ATOM     15  C   UNL     1       8.992   3.571  19.324  1.00  0.00     0.000 C 
BRANCH  15  16
ATOM     16  C   UNL     1       7.790   2.666  19.633  1.00  0.00     0.000 C 
BRANCH  16  17
ATOM     17  C   UNL     1       6.477   3.459  19.598  1.00  0.00    -0.000 C 
BRANCH  17  18
ATOM     18  C   UNL     1       6.037   3.951  20.988  1.00  0.00    -0.000 C 
BRANCH  18  19
ATOM     19  C   UNL     1       6.205   2.894  22.099  1.00  0.00    -0.003 C 
ATOM     20  C   UNL     1       6.925   3.449  23.330  1.00  0.00     0.004 C 
ENDBRANCH  18  19
ENDBRANCH  17  18
ENDBRANCH  16  17
ENDBRANCH  15  16
ENDBRANCH  14  15
ENDBRANCH  13  14
ENDBRANCH   2  13
TORSDOF 15
ENDMDL
MODEL 8
REMARK VINA RESULT:    -4.250      9.951     14.199
REMARK INTER + INTRA:          -9.868
REMARK INTER:                  -8.111
REMARK INTRA:                  -1.758
REMARK UNBOUND:                -1.892
REMARK SMILES CCCCCCCCC=CCCCCCCCC(=O)[O-]
REMARK SMILES IDX 10 1 9 2 11 3 12 4 13 5 14 6 15 7 16 8 17 9 18 10 19 11
REMARK SMILES IDX 20 12 8 13 7 14 6 15 5 16 4 17 3 18 2 19 1 20
REMARK H PARENT
REMARK Flexibility Score: inf
ROOT
ATOM      1  C   UNL     1      12.731   5.841   5.029  1.00  0.00    -0.031 C 
ATOM      2  C   UNL     1      12.020   6.960   4.827  1.00  0.00    -0.031 C 
ENDROOT
BRANCH   1   3
ATOM      3  C   UNL     1      14.062   5.869   5.728  1.00  0.00     0.027 C 
BRANCH   3   4
ATOM      4  C   UNL     1      14.635   7.294   5.834  1.00  0.00     0.004 C 
BRANCH   4   5
ATOM      5  C   UNL     1      14.982   7.728   7.271  1.00  0.00     0.000 C 
BRANCH   5   6
ATOM      6  C   UNL     1      13.769   8.083   8.154  1.00  0.00     0.000 C 
BRANCH   6   7
ATOM      7  C   UNL     1      13.012   9.346   7.692  1.00  0.00     0.000 C 
BRANCH   7   8
ATOM      8  C   UNL     1      13.896  10.605   7.719  1.00  0.00     0.006 C 
BRANCH   8   9
ATOM      9  C   UNL     1      13.873  11.304   9.084  1.00  0.00     0.053 C 
BRANCH   9  10
ATOM     10  C   UNL     1      15.068  10.946   9.914  1.00  0.00     0.041 C 
ATOM     11  O   UNL     1      16.216  11.345   9.580  1.00  0.00    -0.550 OA
ATOM     12  O   UNL     1      14.920  10.143  11.039  1.00  0.00    -0.550 OA
ENDBRANCH   9  10
ENDBRANCH   8   9
ENDBRANCH   7   8
ENDBRANCH   6   7
ENDBRANCH   5   6
ENDBRANCH   4   5
ENDBRANCH   3   4
ENDBRANCH   1   3
BRANCH   2  13
ATOM     13  C   UNL     1      10.685   6.940   4.134  1.00  0.00     0.027 C 
BRANCH  13  14
ATOM     14  C   UNL     1       9.618   7.750   4.890  1.00  0.00     0.004 C 
BRANCH  14  15
ATOM     15  C   UNL     1      10.102   9.109   5.428  1.00  0.00     0.000 C 
BRANCH  15  16
ATOM     16  C   UNL     1       9.274   9.603   6.624  1.00  0.00     0.000 C 
BRANCH  16  17
ATOM     17  C   UNL     1       9.315   8.593   7.779  1.00  0.00    -0.000 C 
BRANCH  17  18
ATOM     18  C   UNL     1       7.955   8.430   8.480  1.00  0.00    -0.000 C 
BRANCH  18  19
ATOM     19  C   UNL     1       7.969   7.395   9.625  1.00  0.00    -0.003 C 
ATOM     20  C   UNL     1       7.501   7.989  10.955  1.00  0.00     0.004 C 
ENDBRANCH  18  19
ENDBRANCH  17  18
ENDBRANCH  16  17
ENDBRANCH  15  16
ENDBRANCH  14  15
ENDBRANCH  13  14
ENDBRANCH   2  13
TORSDOF 15
ENDMDL
MODEL 9
REMARK VINA RESULT:    -4.192      6.104     10.328
REMARK INTER + INTRA:          -9.760
REMARK INTER:                  -8.314
REMARK INTRA:                  -1.447
REMARK UNBOUND:                -1.892
REMARK SMILES CCCCCCCCC=CCCCCCCCC(=O)[O-]
REMARK SMILES IDX 10 1 9 2 11 3 12 4 13 5 14 6 15 7 16 8 17 9 18 10 19 11
REMARK SMILES IDX 20 12 8 13 7 14 6 15 5 16 4 17 3 18 2 19 1 20
REMARK H PARENT
REMARK Flexibility Score: inf
ROOT
ATOM      1  C   UNL     1       7.884  10.744  12.367  1.00  0.00    -0.031 C 
ATOM      2  C   UNL     1       7.506  11.361  13.496  1.00  0.00    -0.031 C 
ENDROOT
BRANCH   1   3
ATOM      3  C   UNL     1       7.636  11.355  11.016  1.00  0.00     0.027 C 
BRANCH   3   4
ATOM      4  C   UNL     1       7.521  10.294   9.907  1.00  0.00     0.004 C 
BRANCH   4   5
ATOM      5  C   UNL     1       7.533   8.842  10.421  1.00  0.00     0.000 C 
BRANCH   5   6
ATOM      6  C   UNL     1       8.197   7.822   9.476  1.00  0.00     0.000 C 
BRANCH   6   7
ATOM      7  C   UNL     1       8.457   8.367   8.056  1.00  0.00     0.000 C 
BRANCH   7   8
ATOM      8  C   UNL     1       9.942   8.288   7.658  1.00  0.00     0.006 C 
BRANCH   8   9
ATOM      9  C   UNL     1      10.508   9.652   7.246  1.00  0.00     0.053 C 
BRANCH   9  10
ATOM     10  C   UNL     1      11.948   9.559   6.841  1.00  0.00     0.041 C 
ATOM     11  O   UNL     1      12.260   9.448   5.625  1.00  0.00    -0.550 OA
ATOM     12  O   UNL     1      12.945   9.562   7.809  1.00  0.00    -0.550 OA
ENDBRANCH   9  10
ENDBRANCH   8   9
ENDBRANCH   7   8
ENDBRANCH   6   7
ENDBRANCH   5   6
ENDBRANCH   4   5
ENDBRANCH   3   4
ENDBRANCH   1   3
BRANCH   2  13
ATOM     13  C   UNL     1       7.754  10.759  14.852  1.00  0.00     0.027 C 
BRANCH  13  14
ATOM     14  C   UNL     1       7.299   9.292  14.937  1.00  0.00     0.004 C 
BRANCH  14  15
ATOM     15  C   UNL     1       6.124   9.037  15.899  1.00  0.00     0.000 C 
BRANCH  15  16
ATOM     16  C   UNL     1       5.585  10.328  16.534  1.00  0.00     0.000 C 
BRANCH  16  17
ATOM     17  C   UNL     1       5.878  10.367  18.040  1.00  0.00    -0.000 C 
BRANCH  17  18
ATOM     18  C   UNL     1       6.708   9.163  18.519  1.00  0.00    -0.000 C 
BRANCH  18  19
ATOM     19  C   UNL     1       8.118   9.544  19.018  1.00  0.00    -0.003 C 
ATOM     20  C   UNL     1       9.221   9.075  18.066  1.00  0.00     0.004 C 
ENDBRANCH  18  19
ENDBRANCH  17  18
ENDBRANCH  16  17
ENDBRANCH  15  16
ENDBRANCH  14  15
ENDBRANCH  13  14
ENDBRANCH   2  13
TORSDOF 15
ENDMDL
