MODEL 1
REMARK VINA RESULT:    -4.067      0.000      0.000
REMARK INTER + INTRA:          -4.722
REMARK INTER:                  -4.661
REMARK INTRA:                  -0.060
REMARK UNBOUND:                -0.060
REMARK SMILES CC(C)[C@H]([NH3+])C(=O)[O-]
REMARK SMILES IDX 4 1 5 2 6 6 7 7 8 8 2 9 1 10 3 11
REMARK H PARENT 5 3 5 4 5 5
REMARK Flexibility Score: inf
ROOT
ATOM      1  C   UNL     1       1.956  51.867  35.271  1.00  0.00     0.230 C 
ENDROOT
BRANCH   1   2
ATOM      2  N   UNL     1       2.635  51.713  33.975  1.00  0.00    -0.350 N 
ATOM      3  H   UNL     1       2.461  52.553  33.376  1.00  0.00     0.345 HD
ATOM      4  H   UNL     1       2.252  50.886  33.464  1.00  0.00     0.345 HD
ATOM      5  H   UNL     1       3.666  51.598  34.108  1.00  0.00     0.345 HD
ENDBRANCH   1   2
BRANCH   1   6
ATOM      6  C   UNL     1       2.060  50.574  36.043  1.00  0.00     0.099 C 
ATOM      7  O   UNL     1       1.610  49.506  35.552  1.00  0.00    -0.544 OA
ATOM      8  O   UNL     1       2.653  50.554  37.299  1.00  0.00    -0.544 OA
ENDBRANCH   1   6
BRANCH   1   9
ATOM      9  C   UNL     1       0.464  52.287  35.098  1.00  0.00     0.047 C 
ATOM     10  C   UNL     1      -0.266  52.319  36.452  1.00  0.00     0.014 C 
ATOM     11  C   UNL     1       0.332  53.663  34.423  1.00  0.00     0.014 C 
ENDBRANCH   1   9
TORSDOF 3
ENDMDL
MODEL 2
REMARK VINA RESULT:    -4.016      2.438      3.211
REMARK INTER + INTRA:          -4.663
REMARK INTER:                  -4.618
REMARK INTRA:                  -0.045
REMARK UNBOUND:                -0.060
REMARK SMILES CC(C)[C@H]([NH3+])C(=O)[O-]
REMARK SMILES IDX 4 1 5 2 6 6 7 7 8 8 2 9 1 10 3 11
REMARK H PARENT 5 3 5 4 5 5
REMARK Flexibility Score: inf
ROOT
ATOM      1  C   UNL     1       1.063  51.542  35.081  1.00  0.00     0.230 C 
ENDROOT
BRANCH   1   2
ATOM      2  N   UNL     1       2.277  51.511  34.252  1.00  0.00    -0.350 N 
ATOM      3  H   UNL     1       2.642  52.482  34.111  1.00  0.00     0.345 HD
ATOM      4  H   UNL     1       2.057  51.126  33.305  1.00  0.00     0.345 HD
ATOM      5  H   UNL     1       3.020  50.930  34.704  1.00  0.00     0.345 HD
ENDBRANCH   1   2
BRANCH   1   6
ATOM      6  C   UNL     1       0.417  52.902  34.966  1.00  0.00     0.099 C 
ATOM      7  O   UNL     1       0.952  53.799  34.262  1.00  0.00    -0.544 OA
ATOM      8  O   UNL     1      -0.771  53.172  35.634  1.00  0.00    -0.544 OA
ENDBRANCH   1   6
BRANCH   1   9
ATOM      9  C   UNL     1       1.370  51.203  36.572  1.00  0.00     0.047 C 
ATOM     10  C   UNL     1       0.400  50.138  37.112  1.00  0.00     0.014 C 
ATOM     11  C   UNL     1       2.814  50.711  36.761  1.00  0.00     0.014 C 
ENDBRANCH   1   9
TORSDOF 3
ENDMDL
MODEL 3
REMARK VINA RESULT:    -3.962      2.468      3.273
REMARK INTER + INTRA:          -4.602
REMARK INTER:                  -4.554
REMARK INTRA:                  -0.048
REMARK UNBOUND:                -0.060
REMARK SMILES CC(C)[C@H]([NH3+])C(=O)[O-]
REMARK SMILES IDX 4 1 5 2 6 6 7 7 8 8 2 9 1 10 3 11
REMARK H PARENT 5 3 5 4 5 5
REMARK Flexibility Score: inf
ROOT
ATOM      1  C   UNL     1       0.726  51.242  35.511  1.00  0.00     0.230 C 
ENDROOT
BRANCH   1   2
ATOM      2  N   UNL     1       1.856  51.103  34.579  1.00  0.00    -0.350 N 
ATOM      3  H   UNL     1       1.532  50.669  33.684  1.00  0.00     0.345 HD
ATOM      4  H   UNL     1       2.580  50.468  34.984  1.00  0.00     0.345 HD
ATOM      5  H   UNL     1       2.282  52.035  34.372  1.00  0.00     0.345 HD
ENDBRANCH   1   2
BRANCH   1   6
ATOM      6  C   UNL     1       0.116  52.613  35.352  1.00  0.00     0.099 C 
ATOM      7  O   UNL     1      -0.908  52.932  36.011  1.00  0.00    -0.544 OA
ATOM      8  O   UNL     1       0.682  53.533  34.477  1.00  0.00    -0.544 OA
ENDBRANCH   1   6
BRANCH   1   9
ATOM      9  C   UNL     1       1.159  51.000  36.989  1.00  0.00     0.047 C 
ATOM     10  C   UNL     1       0.382  49.828  37.613  1.00  0.00     0.014 C 
ATOM     11  C   UNL     1       2.668  50.723  37.105  1.00  0.00     0.014 C 
ENDBRANCH   1   9
TORSDOF 3
ENDMDL
MODEL 4
REMARK VINA RESULT:    -3.959     14.649     15.158
REMARK INTER + INTRA:          -4.598
REMARK INTER:                  -4.551
REMARK INTRA:                  -0.048
REMARK UNBOUND:                -0.060
REMARK SMILES CC(C)[C@H]([NH3+])C(=O)[O-]
REMARK SMILES IDX 4 1 5 2 6 6 7 7 8 8 2 9 1 10 3 11
REMARK H PARENT 5 3 5 4 5 5
REMARK Flexibility Score: inf
ROOT
ATOM      1  C   UNL     1      -0.785  41.446  25.725  1.00  0.00     0.230 C 
ENDROOT
BRANCH   1   2
ATOM      2  N   UNL     1      -1.939  42.355  25.808  1.00  0.00    -0.350 N 
ATOM      3  H   UNL     1      -2.413  42.421  24.877  1.00  0.00     0.345 HD
ATOM      4  H   UNL     1      -1.621  43.319  26.059  1.00  0.00     0.345 HD
ATOM      5  H   UNL     1      -2.628  42.016  26.517  1.00  0.00     0.345 HD
ENDBRANCH   1   2
BRANCH   1   6
ATOM      6  C   UNL     1      -0.119  41.610  24.380  1.00  0.00     0.099 C 
ATOM      7  O   UNL     1       0.925  40.961  24.107  1.00  0.00    -0.544 OA
ATOM      8  O   UNL     1      -0.655  42.476  23.434  1.00  0.00    -0.544 OA
ENDBRANCH   1   6
BRANCH   1   9
ATOM      9  C   UNL     1      -1.199  39.961  25.957  1.00  0.00     0.047 C 
ATOM     10  C   UNL     1      -0.397  39.333  27.110  1.00  0.00     0.014 C 
ATOM     11  C   UNL     1      -2.702  39.825  26.257  1.00  0.00     0.014 C 
ENDBRANCH   1   9
TORSDOF 3
ENDMDL
MODEL 5
REMARK VINA RESULT:    -3.952      2.142      3.260
REMARK INTER + INTRA:          -4.590
REMARK INTER:                  -4.519
REMARK INTRA:                  -0.071
REMARK UNBOUND:                -0.060
REMARK SMILES CC(C)[C@H]([NH3+])C(=O)[O-]
REMARK SMILES IDX 4 1 5 2 6 6 7 7 8 8 2 9 1 10 3 11
REMARK H PARENT 5 3 5 4 5 5
REMARK Flexibility Score: inf
ROOT
ATOM      1  C   UNL     1       1.573  50.580  35.165  1.00  0.00     0.230 C 
ENDROOT
BRANCH   1   2
ATOM      2  N   UNL     1       3.012  50.657  34.871  1.00  0.00    -0.350 N 
ATOM      3  H   UNL     1       3.436  51.480  35.360  1.00  0.00     0.345 HD
ATOM      4  H   UNL     1       3.164  50.797  33.847  1.00  0.00     0.345 HD
ATOM      5  H   UNL     1       3.501  49.787  35.183  1.00  0.00     0.345 HD
ENDBRANCH   1   2
BRANCH   1   6
ATOM      6  C   UNL     1       0.971  51.960  35.063  1.00  0.00     0.099 C 
ATOM      7  O   UNL     1       1.642  52.910  34.581  1.00  0.00    -0.544 OA
ATOM      8  O   UNL     1      -0.328  52.191  35.499  1.00  0.00    -0.544 OA
ENDBRANCH   1   6
BRANCH   1   9
ATOM      9  C   UNL     1       1.299  49.962  36.570  1.00  0.00     0.047 C 
ATOM     10  C   UNL     1       1.553  48.445  36.570  1.00  0.00     0.014 C 
ATOM     11  C   UNL     1       2.163  50.617  37.661  1.00  0.00     0.014 C 
ENDBRANCH   1   9
TORSDOF 3
ENDMDL
MODEL 6
REMARK VINA RESULT:    -3.949     14.105     14.677
REMARK INTER + INTRA:          -4.586
REMARK INTER:                  -4.518
REMARK INTRA:                  -0.068
REMARK UNBOUND:                -0.060
REMARK SMILES CC(C)[C@H]([NH3+])C(=O)[O-]
REMARK SMILES IDX 4 1 5 2 6 6 7 7 8 8 2 9 1 10 3 11
REMARK H PARENT 5 3 5 4 5 5
REMARK Flexibility Score: inf
ROOT
ATOM      1  C   UNL     1      -1.927  41.626  25.216  1.00  0.00     0.230 C 
ENDROOT
BRANCH   1   2
ATOM      2  N   UNL     1      -2.648  42.906  25.286  1.00  0.00    -0.350 N 
ATOM      3  H   UNL     1      -2.721  43.225  26.281  1.00  0.00     0.345 HD
ATOM      4  H   UNL     1      -3.624  42.790  24.929  1.00  0.00     0.345 HD
ATOM      5  H   UNL     1      -2.155  43.641  24.728  1.00  0.00     0.345 HD
ENDBRANCH   1   2
BRANCH   1   6
ATOM      6  C   UNL     1      -2.010  40.935  26.555  1.00  0.00     0.099 C 
ATOM      7  O   UNL     1      -2.553  39.803  26.651  1.00  0.00    -0.544 OA
ATOM      8  O   UNL     1      -1.486  41.542  27.690  1.00  0.00    -0.544 OA
ENDBRANCH   1   6
BRANCH   1   9
ATOM      9  C   UNL     1      -0.440  41.821  24.788  1.00  0.00     0.047 C 
ATOM     10  C   UNL     1       0.309  40.477  24.750  1.00  0.00     0.014 C 
ATOM     11  C   UNL     1      -0.325  42.500  23.413  1.00  0.00     0.014 C 
ENDBRANCH   1   9
TORSDOF 3
ENDMDL
MODEL 7
REMARK VINA RESULT:    -3.788     13.947     14.376
REMARK INTER + INTRA:          -4.402
REMARK INTER:                  -4.352
REMARK INTRA:                  -0.050
REMARK UNBOUND:                -0.060
REMARK SMILES CC(C)[C@H]([NH3+])C(=O)[O-]
REMARK SMILES IDX 4 1 5 2 6 6 7 7 8 8 2 9 1 10 3 11
REMARK H PARENT 5 3 5 4 5 5
REMARK Flexibility Score: inf
ROOT
ATOM      1  C   UNL     1      -0.519  41.200  26.525  1.00  0.00     0.230 C 
ENDROOT
BRANCH   1   2
ATOM      2  N   UNL     1      -0.554  42.483  27.244  1.00  0.00    -0.350 N 
ATOM      3  H   UNL     1      -1.473  42.597  27.733  1.00  0.00     0.345 HD
ATOM      4  H   UNL     1      -0.465  43.277  26.570  1.00  0.00     0.345 HD
ATOM      5  H   UNL     1       0.216  42.534  27.950  1.00  0.00     0.345 HD
ENDBRANCH   1   2
BRANCH   1   6
ATOM      6  C   UNL     1       0.647  41.199  25.567  1.00  0.00     0.099 C 
ATOM      7  O   UNL     1       0.516  41.679  24.410  1.00  0.00    -0.544 OA
ATOM      8  O   UNL     1       1.872  40.670  25.956  1.00  0.00    -0.544 OA
ENDBRANCH   1   6
BRANCH   1   9
ATOM      9  C   UNL     1      -1.854  40.922  25.769  1.00  0.00     0.047 C 
ATOM     10  C   UNL     1      -2.623  39.753  26.408  1.00  0.00     0.014 C 
ATOM     11  C   UNL     1      -2.762  42.164  25.736  1.00  0.00     0.014 C 
ENDBRANCH   1   9
TORSDOF 3
ENDMDL
MODEL 8
REMARK VINA RESULT:    -3.769     13.468     14.225
REMARK INTER + INTRA:          -4.380
REMARK INTER:                  -4.313
REMARK INTRA:                  -0.068
REMARK UNBOUND:                -0.060
REMARK SMILES CC(C)[C@H]([NH3+])C(=O)[O-]
REMARK SMILES IDX 4 1 5 2 6 6 7 7 8 8 2 9 1 10 3 11
REMARK H PARENT 5 3 5 4 5 5
REMARK Flexibility Score: inf
ROOT
ATOM      1  C   UNL     1      -1.609  42.017  26.838  1.00  0.00     0.230 C 
ENDROOT
BRANCH   1   2
ATOM      2  N   UNL     1      -2.031  41.980  28.248  1.00  0.00    -0.350 N 
ATOM      3  H   UNL     1      -2.748  42.721  28.428  1.00  0.00     0.345 HD
ATOM      4  H   UNL     1      -1.217  42.181  28.872  1.00  0.00     0.345 HD
ATOM      5  H   UNL     1      -2.437  41.048  28.488  1.00  0.00     0.345 HD
ENDBRANCH   1   2
BRANCH   1   6
ATOM      6  C   UNL     1      -2.657  41.342  25.988  1.00  0.00     0.099 C 
ATOM      7  O   UNL     1      -3.014  40.161  26.242  1.00  0.00    -0.544 OA
ATOM      8  O   UNL     1      -3.236  42.019  24.922  1.00  0.00    -0.544 OA
ENDBRANCH   1   6
BRANCH   1   9
ATOM      9  C   UNL     1      -0.216  41.347  26.632  1.00  0.00     0.047 C 
ATOM     10  C   UNL     1       0.193  41.359  25.149  1.00  0.00     0.014 C 
ATOM     11  C   UNL     1       0.879  42.037  27.462  1.00  0.00     0.014 C 
ENDBRANCH   1   9
TORSDOF 3
ENDMDL
MODEL 9
REMARK VINA RESULT:    -3.754      2.076      2.484
REMARK INTER + INTRA:          -4.363
REMARK INTER:                  -4.301
REMARK INTRA:                  -0.062
REMARK UNBOUND:                -0.060
REMARK SMILES CC(C)[C@H]([NH3+])C(=O)[O-]
REMARK SMILES IDX 4 1 5 2 6 6 7 7 8 8 2 9 1 10 3 11
REMARK H PARENT 5 3 5 4 5 5
REMARK Flexibility Score: inf
ROOT
ATOM      1  C   UNL     1       1.512  50.190  34.951  1.00  0.00     0.230 C 
ENDROOT
BRANCH   1   2
ATOM      2  N   UNL     1       1.898  48.770  34.957  1.00  0.00    -0.350 N 
ATOM      3  H   UNL     1       1.147  48.191  34.513  1.00  0.00     0.345 HD
ATOM      4  H   UNL     1       2.007  48.431  35.939  1.00  0.00     0.345 HD
ATOM      5  H   UNL     1       2.791  48.627  34.434  1.00  0.00     0.345 HD
ENDBRANCH   1   2
BRANCH   1   6
ATOM      6  C   UNL     1       2.593  51.001  35.621  1.00  0.00     0.099 C 
ATOM      7  O   UNL     1       2.963  50.720  36.792  1.00  0.00    -0.544 OA
ATOM      8  O   UNL     1       3.189  52.063  34.951  1.00  0.00    -0.544 OA
ENDBRANCH   1   6
BRANCH   1   9
ATOM      9  C   UNL     1       0.137  50.420  35.650  1.00  0.00     0.047 C 
ATOM     10  C   UNL     1      -0.205  51.919  35.725  1.00  0.00     0.014 C 
ATOM     11  C   UNL     1      -1.003  49.679  34.930  1.00  0.00     0.014 C 
ENDBRANCH   1   9
TORSDOF 3
ENDMDL
