MODEL 1
REMARK VINA RESULT:    -4.235      0.000      0.000
REMARK INTER + INTRA:          -6.813
REMARK INTER:                  -6.463
REMARK INTRA:                  -0.350
REMARK UNBOUND:                -0.350
REMARK SMILES O=C([O-])CCCCCCCCC(=O)[O-]
REMARK SMILES IDX 7 1 6 2 5 3 4 4 2 5 1 6 3 7 8 8 9 9 10 10 11 11 12 12 13 13
REMARK SMILES IDX 14 14
REMARK H PARENT
REMARK Flexibility Score: inf
ROOT
ATOM      1  C   UNL     1       2.870  -7.147   5.047  1.00  0.00     0.000 C 
ENDROOT
BRANCH   1   2
ATOM      2  C   UNL     1       2.628  -8.458   4.283  1.00  0.00     0.000 C 
BRANCH   2   3
ATOM      3  C   UNL     1       1.137  -8.844   4.220  1.00  0.00     0.006 C 
BRANCH   3   4
ATOM      4  C   UNL     1       0.168  -7.683   4.495  1.00  0.00     0.053 C 
BRANCH   4   5
ATOM      5  C   UNL     1      -1.263  -8.098   4.342  1.00  0.00     0.041 C 
ATOM      6  O   UNL     1      -1.930  -7.717   3.345  1.00  0.00    -0.550 OA
ATOM      7  O   UNL     1      -1.868  -8.879   5.319  1.00  0.00    -0.550 OA
ENDBRANCH   4   5
ENDBRANCH   3   4
ENDBRANCH   2   3
ENDBRANCH   1   2
BRANCH   1   8
ATOM      8  C   UNL     1       4.344  -6.704   5.022  1.00  0.00     0.000 C 
BRANCH   8   9
ATOM      9  C   UNL     1       5.332  -7.735   4.441  1.00  0.00     0.000 C 
BRANCH   9  10
ATOM     10  C   UNL     1       6.725  -7.180   4.082  1.00  0.00     0.006 C 
BRANCH  10  11
ATOM     11  C   UNL     1       6.796  -5.646   4.011  1.00  0.00     0.053 C 
BRANCH  11  12
ATOM     12  C   UNL     1       7.890  -5.181   3.099  1.00  0.00     0.041 C 
ATOM     13  O   UNL     1       8.083  -5.755   1.996  1.00  0.00    -0.550 OA
ATOM     14  O   UNL     1       8.675  -4.092   3.455  1.00  0.00    -0.550 OA
ENDBRANCH  11  12
ENDBRANCH  10  11
ENDBRANCH   9  10
ENDBRANCH   8   9
ENDBRANCH   1   8
TORSDOF 9
ENDMDL
MODEL 2
REMARK VINA RESULT:    -4.080      0.909      7.738
REMARK INTER + INTRA:          -6.576
REMARK INTER:                  -6.252
REMARK INTRA:                  -0.324
REMARK UNBOUND:                -0.350
REMARK SMILES O=C([O-])CCCCCCCCC(=O)[O-]
REMARK SMILES IDX 7 1 6 2 5 3 4 4 2 5 1 6 3 7 8 8 9 9 10 10 11 11 12 12 13 13
REMARK SMILES IDX 14 14
REMARK H PARENT
REMARK Flexibility Score: inf
ROOT
ATOM      1  C   UNL     1       4.642  -8.989   3.439  1.00  0.00     0.000 C 
ENDROOT
BRANCH   1   2
ATOM      2  C   UNL     1       5.511  -8.113   4.356  1.00  0.00     0.000 C 
BRANCH   2   3
ATOM      3  C   UNL     1       6.484  -7.214   3.572  1.00  0.00     0.006 C 
BRANCH   3   4
ATOM      4  C   UNL     1       6.743  -5.843   4.217  1.00  0.00     0.053 C 
BRANCH   4   5
ATOM      5  C   UNL     1       7.738  -5.036   3.442  1.00  0.00     0.041 C 
ATOM      6  O   UNL     1       8.069  -3.888   3.837  1.00  0.00    -0.550 OA
ATOM      7  O   UNL     1       8.275  -5.540   2.264  1.00  0.00    -0.550 OA
ENDBRANCH   4   5
ENDBRANCH   3   4
ENDBRANCH   2   3
ENDBRANCH   1   2
BRANCH   1   8
ATOM      8  C   UNL     1       3.168  -9.041   3.882  1.00  0.00     0.000 C 
BRANCH   8   9
ATOM      9  C   UNL     1       2.617  -7.735   4.489  1.00  0.00     0.000 C 
BRANCH   9  10
ATOM     10  C   UNL     1       1.254  -7.865   5.198  1.00  0.00     0.006 C 
BRANCH  10  11
ATOM     11  C   UNL     1       0.178  -8.590   4.374  1.00  0.00     0.053 C 
BRANCH  11  12
ATOM     12  C   UNL     1      -1.122  -7.846   4.378  1.00  0.00     0.041 C 
ATOM     13  O   UNL     1      -1.857  -7.846   3.356  1.00  0.00    -0.550 OA
ATOM     14  O   UNL     1      -1.538  -7.179   5.524  1.00  0.00    -0.550 OA
ENDBRANCH  11  12
ENDBRANCH  10  11
ENDBRANCH   9  10
ENDBRANCH   8   9
ENDBRANCH   1   8
TORSDOF 9
ENDMDL
MODEL 3
REMARK VINA RESULT:    -4.070     13.789     15.512
REMARK INTER + INTRA:          -6.561
REMARK INTER:                  -6.168
REMARK INTRA:                  -0.394
REMARK UNBOUND:                -0.350
REMARK SMILES O=C([O-])CCCCCCCCC(=O)[O-]
REMARK SMILES IDX 7 1 6 2 5 3 4 4 2 5 1 6 3 7 8 8 9 9 10 10 11 11 12 12 13 13
REMARK SMILES IDX 14 14
REMARK H PARENT
REMARK Flexibility Score: inf
ROOT
ATOM      1  C   UNL     1       3.698   7.756   6.454  1.00  0.00     0.000 C 
ENDROOT
BRANCH   1   2
ATOM      2  C   UNL     1       4.992   6.990   6.773  1.00  0.00     0.000 C 
BRANCH   2   3
ATOM      3  C   UNL     1       4.927   5.510   6.352  1.00  0.00     0.006 C 
BRANCH   3   4
ATOM      4  C   UNL     1       3.952   5.219   5.200  1.00  0.00     0.053 C 
BRANCH   4   5
ATOM      5  C   UNL     1       3.904   3.761   4.859  1.00  0.00     0.041 C 
ATOM      6  O   UNL     1       4.913   3.033   5.048  1.00  0.00    -0.550 OA
ATOM      7  O   UNL     1       2.755   3.215   4.302  1.00  0.00    -0.550 OA
ENDBRANCH   4   5
ENDBRANCH   3   4
ENDBRANCH   2   3
ENDBRANCH   1   2
BRANCH   1   8
ATOM      8  C   UNL     1       3.416   8.895   7.450  1.00  0.00     0.000 C 
BRANCH   8   9
ATOM      9  C   UNL     1       1.954   9.002   7.931  1.00  0.00     0.000 C 
BRANCH   9  10
ATOM     10  C   UNL     1       0.891   8.573   6.899  1.00  0.00     0.006 C 
BRANCH  10  11
ATOM     11  C   UNL     1      -0.303   7.813   7.499  1.00  0.00     0.053 C 
BRANCH  11  12
ATOM     12  C   UNL     1      -1.601   8.242   6.887  1.00  0.00     0.041 C 
ATOM     13  O   UNL     1      -2.304   7.418   6.247  1.00  0.00    -0.550 OA
ATOM     14  O   UNL     1      -2.049   9.547   7.052  1.00  0.00    -0.550 OA
ENDBRANCH  11  12
ENDBRANCH  10  11
ENDBRANCH   9  10
ENDBRANCH   8   9
ENDBRANCH   1   8
TORSDOF 9
ENDMDL
MODEL 4
REMARK VINA RESULT:    -4.032     13.692     14.465
REMARK INTER + INTRA:          -6.503
REMARK INTER:                  -6.206
REMARK INTRA:                  -0.297
REMARK UNBOUND:                -0.350
REMARK SMILES O=C([O-])CCCCCCCCC(=O)[O-]
REMARK SMILES IDX 7 1 6 2 5 3 4 4 2 5 1 6 3 7 8 8 9 9 10 10 11 11 12 12 13 13
REMARK SMILES IDX 14 14
REMARK H PARENT
REMARK Flexibility Score: inf
ROOT
ATOM      1  C   UNL     1       2.358   7.616   7.190  1.00  0.00     0.000 C 
ENDROOT
BRANCH   1   2
ATOM      2  C   UNL     1       1.149   8.549   7.009  1.00  0.00     0.000 C 
BRANCH   2   3
ATOM      3  C   UNL     1      -0.177   7.896   7.444  1.00  0.00     0.006 C 
BRANCH   3   4
ATOM      4  C   UNL     1      -1.349   8.879   7.595  1.00  0.00     0.053 C 
BRANCH   4   5
ATOM      5  C   UNL     1      -2.595   8.372   6.935  1.00  0.00     0.041 C 
ATOM      6  O   UNL     1      -3.714   8.869   7.226  1.00  0.00    -0.550 OA
ATOM      7  O   UNL     1      -2.522   7.327   6.023  1.00  0.00    -0.550 OA
ENDBRANCH   4   5
ENDBRANCH   3   4
ENDBRANCH   2   3
ENDBRANCH   1   2
BRANCH   1   8
ATOM      8  C   UNL     1       3.549   8.000   6.294  1.00  0.00     0.000 C 
BRANCH   8   9
ATOM      9  C   UNL     1       4.512   6.846   5.948  1.00  0.00     0.000 C 
BRANCH   9  10
ATOM     10  C   UNL     1       3.873   5.662   5.195  1.00  0.00     0.006 C 
BRANCH  10  11
ATOM     11  C   UNL     1       3.629   4.417   6.063  1.00  0.00     0.053 C 
BRANCH  11  12
ATOM     12  C   UNL     1       3.624   3.161   5.247  1.00  0.00     0.041 C 
ATOM     13  O   UNL     1       4.555   2.322   5.367  1.00  0.00    -0.550 OA
ATOM     14  O   UNL     1       2.573   2.902   4.376  1.00  0.00    -0.550 OA
ENDBRANCH  11  12
ENDBRANCH  10  11
ENDBRANCH   9  10
ENDBRANCH   8   9
ENDBRANCH   1   8
TORSDOF 9
ENDMDL
MODEL 5
REMARK VINA RESULT:    -3.975      1.986      7.442
REMARK INTER + INTRA:          -6.416
REMARK INTER:                  -6.090
REMARK INTRA:                  -0.326
REMARK UNBOUND:                -0.350
REMARK SMILES O=C([O-])CCCCCCCCC(=O)[O-]
REMARK SMILES IDX 7 1 6 2 5 3 4 4 2 5 1 6 3 7 8 8 9 9 10 10 11 11 12 12 13 13
REMARK SMILES IDX 14 14
REMARK H PARENT
REMARK Flexibility Score: inf
ROOT
ATOM      1  C   UNL     1       4.799  -7.215   4.749  1.00  0.00     0.000 C 
ENDROOT
BRANCH   1   2
ATOM      2  C   UNL     1       5.355  -5.989   5.491  1.00  0.00     0.000 C 
BRANCH   2   3
ATOM      3  C   UNL     1       4.376  -4.800   5.494  1.00  0.00     0.006 C 
BRANCH   3   4
ATOM      4  C   UNL     1       5.017  -3.450   5.851  1.00  0.00     0.053 C 
BRANCH   4   5
ATOM      5  C   UNL     1       5.703  -2.826   4.675  1.00  0.00     0.041 C 
ATOM      6  O   UNL     1       6.868  -3.182   4.358  1.00  0.00    -0.550 OA
ATOM      7  O   UNL     1       5.067  -1.827   3.949  1.00  0.00    -0.550 OA
ENDBRANCH   4   5
ENDBRANCH   3   4
ENDBRANCH   2   3
ENDBRANCH   1   2
BRANCH   1   8
ATOM      8  C   UNL     1       3.266  -7.322   4.836  1.00  0.00     0.000 C 
BRANCH   8   9
ATOM      9  C   UNL     1       2.645  -8.513   4.078  1.00  0.00     0.000 C 
BRANCH   9  10
ATOM     10  C   UNL     1       1.109  -8.619   4.168  1.00  0.00     0.006 C 
BRANCH  10  11
ATOM     11  C   UNL     1       0.439  -7.470   4.938  1.00  0.00     0.053 C 
BRANCH  11  12
ATOM     12  C   UNL     1      -1.051  -7.492   4.786  1.00  0.00     0.041 C 
ATOM     13  O   UNL     1      -1.791  -7.093   5.723  1.00  0.00    -0.550 OA
ATOM     14  O   UNL     1      -1.622  -7.923   3.595  1.00  0.00    -0.550 OA
ENDBRANCH  11  12
ENDBRANCH  10  11
ENDBRANCH   9  10
ENDBRANCH   8   9
ENDBRANCH   1   8
TORSDOF 9
ENDMDL
MODEL 6
REMARK VINA RESULT:    -3.952      2.066      2.414
REMARK INTER + INTRA:          -6.382
REMARK INTER:                  -6.086
REMARK INTRA:                  -0.295
REMARK UNBOUND:                -0.350
REMARK SMILES O=C([O-])CCCCCCCCC(=O)[O-]
REMARK SMILES IDX 7 1 6 2 5 3 4 4 2 5 1 6 3 7 8 8 9 9 10 10 11 11 12 12 13 13
REMARK SMILES IDX 14 14
REMARK H PARENT
REMARK Flexibility Score: inf
ROOT
ATOM      1  C   UNL     1       3.844  -7.908   4.376  1.00  0.00     0.000 C 
ENDROOT
BRANCH   1   2
ATOM      2  C   UNL     1       2.562  -8.717   4.122  1.00  0.00     0.000 C 
BRANCH   2   3
ATOM      3  C   UNL     1       1.282  -7.907   4.401  1.00  0.00     0.006 C 
BRANCH   3   4
ATOM      4  C   UNL     1       0.036  -8.763   4.680  1.00  0.00     0.053 C 
BRANCH   4   5
ATOM      5  C   UNL     1      -1.231  -7.981   4.517  1.00  0.00     0.041 C 
ATOM      6  O   UNL     1      -1.768  -7.875   3.384  1.00  0.00    -0.550 OA
ATOM      7  O   UNL     1      -1.799  -7.343   5.612  1.00  0.00    -0.550 OA
ENDBRANCH   4   5
ENDBRANCH   3   4
ENDBRANCH   2   3
ENDBRANCH   1   2
BRANCH   1   8
ATOM      8  C   UNL     1       3.585  -6.605   5.154  1.00  0.00     0.000 C 
BRANCH   8   9
ATOM      9  C   UNL     1       4.753  -6.123   6.039  1.00  0.00     0.000 C 
BRANCH   9  10
ATOM     10  C   UNL     1       5.588  -4.968   5.451  1.00  0.00     0.006 C 
BRANCH  10  11
ATOM     11  C   UNL     1       4.872  -3.608   5.443  1.00  0.00     0.053 C 
BRANCH  11  12
ATOM     12  C   UNL     1       5.646  -2.576   4.682  1.00  0.00     0.041 C 
ATOM     13  O   UNL     1       5.043  -1.706   4.000  1.00  0.00    -0.550 OA
ATOM     14  O   UNL     1       7.033  -2.555   4.750  1.00  0.00    -0.550 OA
ENDBRANCH  11  12
ENDBRANCH  10  11
ENDBRANCH   9  10
ENDBRANCH   8   9
ENDBRANCH   1   8
TORSDOF 9
ENDMDL
MODEL 7
REMARK VINA RESULT:    -3.846      2.581      7.056
REMARK INTER + INTRA:          -6.219
REMARK INTER:                  -5.816
REMARK INTRA:                  -0.402
REMARK UNBOUND:                -0.350
REMARK SMILES O=C([O-])CCCCCCCCC(=O)[O-]
REMARK SMILES IDX 7 1 6 2 5 3 4 4 2 5 1 6 3 7 8 8 9 9 10 10 11 11 12 12 13 13
REMARK SMILES IDX 14 14
REMARK H PARENT
REMARK Flexibility Score: inf
ROOT
ATOM      1  C   UNL     1       6.413  -6.615   4.206  1.00  0.00     0.000 C 
ENDROOT
BRANCH   1   2
ATOM      2  C   UNL     1       6.003  -5.536   5.221  1.00  0.00     0.000 C 
BRANCH   2   3
ATOM      3  C   UNL     1       6.047  -4.114   4.630  1.00  0.00     0.006 C 
BRANCH   3   4
ATOM      4  C   UNL     1       5.097  -3.114   5.309  1.00  0.00     0.053 C 
BRANCH   4   5
ATOM      5  C   UNL     1       4.959  -1.848   4.521  1.00  0.00     0.041 C 
ATOM      6  O   UNL     1       3.922  -1.634   3.841  1.00  0.00    -0.550 OA
ATOM      7  O   UNL     1       5.992  -0.919   4.513  1.00  0.00    -0.550 OA
ENDBRANCH   4   5
ENDBRANCH   3   4
ENDBRANCH   2   3
ENDBRANCH   1   2
BRANCH   1   8
ATOM      8  C   UNL     1       5.406  -7.777   4.129  1.00  0.00     0.000 C 
BRANCH   8   9
ATOM      9  C   UNL     1       4.283  -7.746   5.185  1.00  0.00     0.000 C 
BRANCH   9  10
ATOM     10  C   UNL     1       2.873  -7.454   4.635  1.00  0.00     0.006 C 
BRANCH  10  11
ATOM     11  C   UNL     1       2.174  -8.670   4.006  1.00  0.00     0.053 C 
BRANCH  11  12
ATOM     12  C   UNL     1       0.751  -8.790   4.458  1.00  0.00     0.041 C 
ATOM     13  O   UNL     1       0.430  -9.649   5.320  1.00  0.00    -0.550 OA
ATOM     14  O   UNL     1      -0.215  -7.932   3.949  1.00  0.00    -0.550 OA
ENDBRANCH  11  12
ENDBRANCH  10  11
ENDBRANCH   9  10
ENDBRANCH   8   9
ENDBRANCH   1   8
TORSDOF 9
ENDMDL
MODEL 8
REMARK VINA RESULT:    -3.827     18.801     20.755
REMARK INTER + INTRA:          -6.190
REMARK INTER:                  -5.417
REMARK INTRA:                  -0.773
REMARK UNBOUND:                -0.350
REMARK SMILES O=C([O-])CCCCCCCCC(=O)[O-]
REMARK SMILES IDX 7 1 6 2 5 3 4 4 2 5 1 6 3 7 8 8 9 9 10 10 11 11 12 12 13 13
REMARK SMILES IDX 14 14
REMARK H PARENT
REMARK Flexibility Score: inf
ROOT
ATOM      1  C   UNL     1      -4.543   6.557  -3.082  1.00  0.00     0.000 C 
ENDROOT
BRANCH   1   2
ATOM      2  C   UNL     1      -5.038   7.916  -2.562  1.00  0.00     0.000 C 
BRANCH   2   3
ATOM      3  C   UNL     1      -4.927   9.034  -3.616  1.00  0.00     0.006 C 
BRANCH   3   4
ATOM      4  C   UNL     1      -4.573   8.542  -5.029  1.00  0.00     0.053 C 
BRANCH   4   5
ATOM      5  C   UNL     1      -5.197   9.393  -6.092  1.00  0.00     0.041 C 
ATOM      6  O   UNL     1      -6.184  10.125  -5.820  1.00  0.00    -0.550 OA
ATOM      7  O   UNL     1      -4.707   9.351  -7.391  1.00  0.00    -0.550 OA
ENDBRANCH   4   5
ENDBRANCH   3   4
ENDBRANCH   2   3
ENDBRANCH   1   2
BRANCH   1   8
ATOM      8  C   UNL     1      -5.692   5.625  -3.507  1.00  0.00     0.000 C 
BRANCH   8   9
ATOM      9  C   UNL     1      -7.107   6.116  -3.143  1.00  0.00     0.000 C 
BRANCH   9  10
ATOM     10  C   UNL     1      -7.872   6.816  -4.284  1.00  0.00     0.006 C 
BRANCH  10  11
ATOM     11  C   UNL     1      -8.394   8.218  -3.931  1.00  0.00     0.053 C 
BRANCH  11  12
ATOM     12  C   UNL     1      -8.964   8.267  -2.546  1.00  0.00     0.041 C 
ATOM     13  O   UNL     1     -10.038   7.667  -2.281  1.00  0.00    -0.550 OA
ATOM     14  O   UNL     1      -8.292   8.951  -1.541  1.00  0.00    -0.550 OA
ENDBRANCH  11  12
ENDBRANCH  10  11
ENDBRANCH   9  10
ENDBRANCH   8   9
ENDBRANCH   1   8
TORSDOF 9
ENDMDL
MODEL 9
REMARK VINA RESULT:    -3.827      4.053      5.467
REMARK INTER + INTRA:          -6.189
REMARK INTER:                  -5.467
REMARK INTRA:                  -0.723
REMARK UNBOUND:                -0.350
REMARK SMILES O=C([O-])CCCCCCCCC(=O)[O-]
REMARK SMILES IDX 7 1 6 2 5 3 4 4 2 5 1 6 3 7 8 8 9 9 10 10 11 11 12 12 13 13
REMARK SMILES IDX 14 14
REMARK H PARENT
REMARK Flexibility Score: inf
ROOT
ATOM      1  C   UNL     1       2.907  -5.518   6.153  1.00  0.00     0.000 C 
ENDROOT
BRANCH   1   2
ATOM      2  C   UNL     1       2.307  -4.125   5.899  1.00  0.00     0.000 C 
BRANCH   2   3
ATOM      3  C   UNL     1       3.382  -3.052   5.644  1.00  0.00     0.006 C 
BRANCH   3   4
ATOM      4  C   UNL     1       4.813  -3.600   5.531  1.00  0.00     0.053 C 
BRANCH   4   5
ATOM      5  C   UNL     1       5.661  -2.773   4.614  1.00  0.00     0.041 C 
ATOM      6  O   UNL     1       6.865  -3.080   4.414  1.00  0.00    -0.550 OA
ATOM      7  O   UNL     1       5.128  -1.643   4.006  1.00  0.00    -0.550 OA
ENDBRANCH   4   5
ENDBRANCH   3   4
ENDBRANCH   2   3
ENDBRANCH   1   2
BRANCH   1   8
ATOM      8  C   UNL     1       2.420  -6.572   5.143  1.00  0.00     0.000 C 
BRANCH   8   9
ATOM      9  C   UNL     1       3.477  -7.608   4.712  1.00  0.00     0.000 C 
BRANCH   9  10
ATOM     10  C   UNL     1       4.938  -7.219   5.014  1.00  0.00     0.006 C 
BRANCH  10  11
ATOM     11  C   UNL     1       5.931  -7.569   3.894  1.00  0.00     0.053 C 
BRANCH  11  12
ATOM     12  C   UNL     1       7.062  -6.590   3.826  1.00  0.00     0.041 C 
ATOM     13  O   UNL     1       7.668  -6.245   4.874  1.00  0.00    -0.550 OA
ATOM     14  O   UNL     1       7.468  -6.080   2.598  1.00  0.00    -0.550 OA
ENDBRANCH  11  12
ENDBRANCH  10  11
ENDBRANCH   9  10
ENDBRANCH   8   9
ENDBRANCH   1   8
TORSDOF 9
ENDMDL
