MODEL 1
REMARK VINA RESULT:    -6.006      0.000      0.000
REMARK INTER + INTRA:          -7.864
REMARK INTER:                  -7.762
REMARK INTRA:                  -0.101
REMARK UNBOUND:                -0.101
REMARK SMILES CCCCCCC(=O)[O-]
REMARK SMILES IDX 5 1 6 2 7 3 8 4 9 5 4 6 3 7 2 8 1 9
REMARK H PARENT
REMARK Flexibility Score: inf
ROOT
ATOM      1  C   UNL     1       7.671  -4.555  20.999  1.00  0.00     0.006 C 
ENDROOT
BRANCH   1   2
ATOM      2  C   UNL     1       6.875  -3.466  20.268  1.00  0.00     0.053 C 
BRANCH   2   3
ATOM      3  C   UNL     1       6.465  -2.360  21.191  1.00  0.00     0.041 C 
ATOM      4  O   UNL     1       6.129  -2.618  22.378  1.00  0.00    -0.550 OA
ATOM      5  O   UNL     1       6.486  -1.042  20.752  1.00  0.00    -0.550 OA
ENDBRANCH   2   3
ENDBRANCH   1   2
BRANCH   1   6
ATOM      6  C   UNL     1       6.882  -5.867  21.123  1.00  0.00     0.000 C 
BRANCH   6   7
ATOM      7  C   UNL     1       7.742  -6.965  21.766  1.00  0.00    -0.000 C 
BRANCH   7   8
ATOM      8  C   UNL     1       7.250  -8.379  21.420  1.00  0.00    -0.003 C 
ATOM      9  C   UNL     1       6.645  -9.106  22.622  1.00  0.00     0.004 C 
ENDBRANCH   7   8
ENDBRANCH   6   7
ENDBRANCH   1   6
TORSDOF 5
ENDMDL
MODEL 2
REMARK VINA RESULT:    -5.984      3.412      5.557
REMARK INTER + INTRA:          -7.834
REMARK INTER:                  -7.728
REMARK INTRA:                  -0.106
REMARK UNBOUND:                -0.101
REMARK SMILES CCCCCCC(=O)[O-]
REMARK SMILES IDX 5 1 6 2 7 3 8 4 9 5 4 6 3 7 2 8 1 9
REMARK H PARENT
REMARK Flexibility Score: inf
ROOT
ATOM      1  C   UNL     1       7.776  -6.826  21.607  1.00  0.00     0.006 C 
ENDROOT
BRANCH   1   2
ATOM      2  C   UNL     1       7.259  -8.229  21.261  1.00  0.00     0.053 C 
BRANCH   2   3
ATOM      3  C   UNL     1       6.900  -9.009  22.489  1.00  0.00     0.041 C 
ATOM      4  O   UNL     1       6.288 -10.105  22.387  1.00  0.00    -0.550 OA
ATOM      5  O   UNL     1       7.270  -8.541  23.744  1.00  0.00    -0.550 OA
ENDBRANCH   2   3
ENDBRANCH   1   2
BRANCH   1   6
ATOM      6  C   UNL     1       6.885  -5.719  21.025  1.00  0.00     0.000 C 
BRANCH   6   7
ATOM      7  C   UNL     1       7.676  -4.415  20.847  1.00  0.00    -0.000 C 
BRANCH   7   8
ATOM      8  C   UNL     1       6.774  -3.219  20.506  1.00  0.00    -0.003 C 
ATOM      9  C   UNL     1       6.353  -2.423  21.742  1.00  0.00     0.004 C 
ENDBRANCH   7   8
ENDBRANCH   6   7
ENDBRANCH   1   6
TORSDOF 5
ENDMDL
MODEL 3
REMARK VINA RESULT:    -5.894      1.343      1.619
REMARK INTER + INTRA:          -7.718
REMARK INTER:                  -7.566
REMARK INTRA:                  -0.152
REMARK UNBOUND:                -0.101
REMARK SMILES CCCCCCC(=O)[O-]
REMARK SMILES IDX 5 1 6 2 7 3 8 4 9 5 4 6 3 7 2 8 1 9
REMARK H PARENT
REMARK Flexibility Score: inf
ROOT
ATOM      1  C   UNL     1       7.121  -3.842  20.613  1.00  0.00     0.006 C 
ENDROOT
BRANCH   1   2
ATOM      2  C   UNL     1       6.482  -3.020  21.740  1.00  0.00     0.053 C 
BRANCH   2   3
ATOM      3  C   UNL     1       4.996  -2.915  21.579  1.00  0.00     0.041 C 
ATOM      4  O   UNL     1       4.296  -2.386  22.483  1.00  0.00    -0.550 OA
ATOM      5  O   UNL     1       4.388  -3.371  20.416  1.00  0.00    -0.550 OA
ENDBRANCH   2   3
ENDBRANCH   1   2
BRANCH   1   6
ATOM      6  C   UNL     1       7.840  -5.093  21.142  1.00  0.00     0.000 C 
BRANCH   6   7
ATOM      7  C   UNL     1       6.887  -6.296  21.184  1.00  0.00    -0.000 C 
BRANCH   7   8
ATOM      8  C   UNL     1       7.616  -7.617  21.475  1.00  0.00    -0.003 C 
ATOM      9  C   UNL     1       6.756  -8.608  22.260  1.00  0.00     0.004 C 
ENDBRANCH   7   8
ENDBRANCH   6   7
ENDBRANCH   1   6
TORSDOF 5
ENDMDL
MODEL 4
REMARK VINA RESULT:    -5.776      1.442      2.394
REMARK INTER + INTRA:          -7.566
REMARK INTER:                  -7.417
REMARK INTRA:                  -0.150
REMARK UNBOUND:                -0.101
REMARK SMILES CCCCCCC(=O)[O-]
REMARK SMILES IDX 5 1 6 2 7 3 8 4 9 5 4 6 3 7 2 8 1 9
REMARK H PARENT
REMARK Flexibility Score: inf
ROOT
ATOM      1  C   UNL     1       6.471  -3.007  21.867  1.00  0.00     0.006 C 
ENDROOT
BRANCH   1   2
ATOM      2  C   UNL     1       6.180  -1.602  21.322  1.00  0.00     0.053 C 
BRANCH   2   3
ATOM      3  C   UNL     1       4.876  -1.548  20.587  1.00  0.00     0.041 C 
ATOM      4  O   UNL     1       4.697  -0.697  19.677  1.00  0.00    -0.550 OA
ATOM      5  O   UNL     1       3.871  -2.461  20.885  1.00  0.00    -0.550 OA
ENDBRANCH   2   3
ENDBRANCH   1   2
BRANCH   1   6
ATOM      6  C   UNL     1       7.109  -3.920  20.809  1.00  0.00     0.000 C 
BRANCH   6   7
ATOM      7  C   UNL     1       6.603  -5.363  20.952  1.00  0.00    -0.000 C 
BRANCH   7   8
ATOM      8  C   UNL     1       7.708  -6.335  21.394  1.00  0.00    -0.003 C 
ATOM      9  C   UNL     1       7.254  -7.795  21.375  1.00  0.00     0.004 C 
ENDBRANCH   7   8
ENDBRANCH   6   7
ENDBRANCH   1   6
TORSDOF 5
ENDMDL
MODEL 5
REMARK VINA RESULT:    -5.721      1.498      2.243
REMARK INTER + INTRA:          -7.495
REMARK INTER:                  -7.388
REMARK INTRA:                  -0.107
REMARK UNBOUND:                -0.101
REMARK SMILES CCCCCCC(=O)[O-]
REMARK SMILES IDX 5 1 6 2 7 3 8 4 9 5 4 6 3 7 2 8 1 9
REMARK H PARENT
REMARK Flexibility Score: inf
ROOT
ATOM      1  C   UNL     1       6.471  -2.937  21.632  1.00  0.00     0.006 C 
ENDROOT
BRANCH   1   2
ATOM      2  C   UNL     1       6.134  -1.519  21.151  1.00  0.00     0.053 C 
BRANCH   2   3
ATOM      3  C   UNL     1       4.849  -1.482  20.383  1.00  0.00     0.041 C 
ATOM      4  O   UNL     1       4.012  -2.415  20.503  1.00  0.00    -0.550 OA
ATOM      5  O   UNL     1       4.560  -0.400  19.561  1.00  0.00    -0.550 OA
ENDBRANCH   2   3
ENDBRANCH   1   2
BRANCH   1   6
ATOM      6  C   UNL     1       7.201  -3.756  20.557  1.00  0.00     0.000 C 
BRANCH   6   7
ATOM      7  C   UNL     1       7.807  -5.033  21.158  1.00  0.00    -0.000 C 
BRANCH   7   8
ATOM      8  C   UNL     1       6.837  -6.224  21.114  1.00  0.00    -0.003 C 
ATOM      9  C   UNL     1       7.470  -7.522  21.617  1.00  0.00     0.004 C 
ENDBRANCH   7   8
ENDBRANCH   6   7
ENDBRANCH   1   6
TORSDOF 5
ENDMDL
MODEL 6
REMARK VINA RESULT:    -5.228      2.899      5.579
REMARK INTER + INTRA:          -6.858
REMARK INTER:                  -6.629
REMARK INTRA:                  -0.229
REMARK UNBOUND:                -0.101
REMARK SMILES CCCCCCC(=O)[O-]
REMARK SMILES IDX 5 1 6 2 7 3 8 4 9 5 4 6 3 7 2 8 1 9
REMARK H PARENT
REMARK Flexibility Score: inf
ROOT
ATOM      1  C   UNL     1       6.141  -1.940  21.531  1.00  0.00     0.006 C 
ENDROOT
BRANCH   1   2
ATOM      2  C   UNL     1       6.944  -3.053  20.845  1.00  0.00     0.053 C 
BRANCH   2   3
ATOM      3  C   UNL     1       6.339  -4.403  21.084  1.00  0.00     0.041 C 
ATOM      4  O   UNL     1       5.100  -4.517  21.277  1.00  0.00    -0.550 OA
ATOM      5  O   UNL     1       7.140  -5.538  21.059  1.00  0.00    -0.550 OA
ENDBRANCH   2   3
ENDBRANCH   1   2
BRANCH   1   6
ATOM      6  C   UNL     1       6.173  -0.626  20.736  1.00  0.00     0.000 C 
BRANCH   6   7
ATOM      7  C   UNL     1       5.054  -0.594  19.684  1.00  0.00    -0.000 C 
BRANCH   7   8
ATOM      8  C   UNL     1       3.802  -1.365  20.131  1.00  0.00    -0.003 C 
ATOM      9  C   UNL     1       2.504  -0.727  19.634  1.00  0.00     0.004 C 
ENDBRANCH   7   8
ENDBRANCH   6   7
ENDBRANCH   1   6
TORSDOF 5
ENDMDL
MODEL 7
REMARK VINA RESULT:    -5.158      2.436      3.653
REMARK INTER + INTRA:          -6.767
REMARK INTER:                  -6.638
REMARK INTRA:                  -0.129
REMARK UNBOUND:                -0.101
REMARK SMILES CCCCCCC(=O)[O-]
REMARK SMILES IDX 5 1 6 2 7 3 8 4 9 5 4 6 3 7 2 8 1 9
REMARK H PARENT
REMARK Flexibility Score: inf
ROOT
ATOM      1  C   UNL     1       5.725  -1.549  20.564  1.00  0.00     0.006 C 
ENDROOT
BRANCH   1   2
ATOM      2  C   UNL     1       4.218  -1.837  20.612  1.00  0.00     0.053 C 
BRANCH   2   3
ATOM      3  C   UNL     1       3.463  -1.020  19.609  1.00  0.00     0.041 C 
ATOM      4  O   UNL     1       2.338  -1.407  19.195  1.00  0.00    -0.550 OA
ATOM      5  O   UNL     1       3.985   0.186  19.159  1.00  0.00    -0.550 OA
ENDBRANCH   2   3
ENDBRANCH   1   2
BRANCH   1   6
ATOM      6  C   UNL     1       6.518  -2.435  21.536  1.00  0.00     0.000 C 
BRANCH   6   7
ATOM      7  C   UNL     1       6.087  -3.904  21.415  1.00  0.00    -0.000 C 
BRANCH   7   8
ATOM      8  C   UNL     1       7.194  -4.797  20.834  1.00  0.00    -0.003 C 
ATOM      9  C   UNL     1       7.008  -6.274  21.183  1.00  0.00     0.004 C 
ENDBRANCH   7   8
ENDBRANCH   6   7
ENDBRANCH   1   6
TORSDOF 5
ENDMDL
MODEL 8
REMARK VINA RESULT:    -5.090      2.627      5.512
REMARK INTER + INTRA:          -6.679
REMARK INTER:                  -6.474
REMARK INTRA:                  -0.206
REMARK UNBOUND:                -0.101
REMARK SMILES CCCCCCC(=O)[O-]
REMARK SMILES IDX 5 1 6 2 7 3 8 4 9 5 4 6 3 7 2 8 1 9
REMARK H PARENT
REMARK Flexibility Score: inf
ROOT
ATOM      1  C   UNL     1       6.748  -3.510  20.644  1.00  0.00     0.006 C 
ENDROOT
BRANCH   1   2
ATOM      2  C   UNL     1       6.154  -4.898  20.919  1.00  0.00     0.053 C 
BRANCH   2   3
ATOM      3  C   UNL     1       7.219  -5.920  21.172  1.00  0.00     0.041 C 
ATOM      4  O   UNL     1       8.367  -5.560  21.544  1.00  0.00    -0.550 OA
ATOM      5  O   UNL     1       6.934  -7.272  21.029  1.00  0.00    -0.550 OA
ENDBRANCH   2   3
ENDBRANCH   1   2
BRANCH   1   6
ATOM      6  C   UNL     1       6.523  -2.539  21.813  1.00  0.00     0.000 C 
BRANCH   6   7
ATOM      7  C   UNL     1       5.422  -1.522  21.477  1.00  0.00    -0.000 C 
BRANCH   7   8
ATOM      8  C   UNL     1       5.329  -1.228  19.972  1.00  0.00    -0.003 C 
ATOM      9  C   UNL     1       5.462   0.261  19.650  1.00  0.00     0.004 C 
ENDBRANCH   7   8
ENDBRANCH   6   7
ENDBRANCH   1   6
TORSDOF 5
ENDMDL
MODEL 9
REMARK VINA RESULT:    -5.065      3.401      6.215
REMARK INTER + INTRA:          -6.647
REMARK INTER:                  -6.467
REMARK INTRA:                  -0.180
REMARK UNBOUND:                -0.101
REMARK SMILES CCCCCCC(=O)[O-]
REMARK SMILES IDX 5 1 6 2 7 3 8 4 9 5 4 6 3 7 2 8 1 9
REMARK H PARENT
REMARK Flexibility Score: inf
ROOT
ATOM      1  C   UNL     1       4.226  -3.259  19.534  1.00  0.00     0.006 C 
ENDROOT
BRANCH   1   2
ATOM      2  C   UNL     1       5.733  -3.338  19.809  1.00  0.00     0.053 C 
BRANCH   2   3
ATOM      3  C   UNL     1       6.024  -3.921  21.158  1.00  0.00     0.041 C 
ATOM      4  O   UNL     1       5.869  -5.154  21.362  1.00  0.00    -0.550 OA
ATOM      5  O   UNL     1       6.498  -3.108  22.180  1.00  0.00    -0.550 OA
ENDBRANCH   2   3
ENDBRANCH   1   2
BRANCH   1   6
ATOM      6  C   UNL     1       3.518  -2.257  20.458  1.00  0.00     0.000 C 
BRANCH   6   7
ATOM      7  C   UNL     1       2.478  -1.436  19.682  1.00  0.00    -0.000 C 
BRANCH   7   8
ATOM      8  C   UNL     1       3.083  -0.185  19.026  1.00  0.00    -0.003 C 
ATOM      9  C   UNL     1       2.041   0.896  18.737  1.00  0.00     0.004 C 
ENDBRANCH   7   8
ENDBRANCH   6   7
ENDBRANCH   1   6
TORSDOF 5
ENDMDL
