MODEL 1
REMARK VINA RESULT:    -3.892      0.000      0.000
REMARK INTER + INTRA:          -4.589
REMARK INTER:                  -5.484
REMARK INTRA:                   0.895
REMARK UNBOUND:                 0.895
REMARK SMILES CC1=CCC(=C(C)C)C(=O)CC(C)=CCC1
REMARK SMILES IDX 12 1 14 2 13 3 15 4 16 5 2 6 1 7 3 8 11 10 9 11 10 12 5 13
REMARK SMILES IDX 6 14 7 15 8 16 4 17
REMARK H PARENT
REMARK Flexibility Score: 60.00
ROOT
ATOM      1  C   UNL     1     -13.194   5.850 -16.406  1.00  0.00    -0.070 C 
ATOM      2  C   UNL     1     -13.309   4.503 -16.485  1.00  0.00    -0.027 C 
ATOM      3  C   UNL     1     -14.470   6.656 -16.401  1.00  0.00     0.039 C 
ENDROOT
BRANCH   2   4
ATOM      4  C   UNL     1     -12.178   3.504 -16.400  1.00  0.00     0.032 C 
BRANCH   4   5
ATOM      5  C   UNL     1     -11.814   3.146 -14.947  1.00  0.00     0.034 C 
BRANCH   5   6
ATOM      6  C   UNL     1     -10.435   3.645 -14.564  1.00  0.00    -0.077 C 
ATOM      7  C   UNL     1      -9.236   2.840 -14.998  1.00  0.00     0.039 C 
ATOM      8  C   UNL     1     -10.216   4.761 -13.832  1.00  0.00    -0.023 CG0
ATOM      9  G   UNL     1     -11.283   5.675 -13.279  1.00  0.00     0.000 G0
ENDBRANCH   5   6
ENDBRANCH   4   5
ENDBRANCH   2   4
BRANCH   1  10
ATOM     10  C   UNL     1     -11.870   6.579 -16.257  1.00  0.00     0.111 C 
BRANCH  10  11
ATOM     11  C   UNL     1     -11.856   7.463 -15.034  1.00  0.00     0.163 C 
ATOM     12  O   UNL     1     -12.468   8.564 -15.092  1.00  0.00    -0.294 OA
BRANCH  11  13
ATOM     13  C   UNL     1     -11.100   7.092 -13.798  1.00  0.00    -0.002 C 
ATOM     14  C   UNL     1     -10.331   8.002 -13.125  1.00  0.00    -0.069 C 
ATOM     15  C   UNL     1      -9.539   7.610 -11.897  1.00  0.00     0.039 C 
ATOM     16  C   UNL     1     -10.262   9.451 -13.553  1.00  0.00     0.039 C 
BRANCH  13  17
ATOM     17  C   UNL     1     -11.281   5.678 -13.275  1.00  0.00     0.066 CG0
ATOM     18  G   UNL     1     -10.215   4.778 -13.853  1.00  0.00     0.000 G0
ENDBRANCH  13  17
ENDBRANCH  11  13
ENDBRANCH  10  11
ENDBRANCH   1  10
TORSDOF 0
ENDMDL
MODEL 2
REMARK VINA RESULT:    -3.838      1.621      3.925
REMARK INTER + INTRA:          -4.513
REMARK INTER:                  -5.226
REMARK INTRA:                   0.713
REMARK UNBOUND:                 0.895
REMARK SMILES CC1=CCC(=C(C)C)C(=O)CC(C)=CCC1
REMARK SMILES IDX 12 1 14 2 13 3 15 4 16 5 2 6 1 7 3 8 11 10 9 11 10 12 5 13
REMARK SMILES IDX 6 14 7 15 8 16 4 17
REMARK H PARENT
REMARK Flexibility Score: 60.00
ROOT
ATOM      1  C   UNL     1     -12.793   6.820 -15.861  1.00  0.00    -0.070 C 
ATOM      2  C   UNL     1     -12.925   8.066 -15.346  1.00  0.00    -0.027 C 
ATOM      3  C   UNL     1     -14.047   6.131 -16.340  1.00  0.00     0.039 C 
ENDROOT
BRANCH   2   4
ATOM      4  C   UNL     1     -11.800   8.975 -14.907  1.00  0.00     0.032 C 
BRANCH   4   5
ATOM      5  C   UNL     1     -11.482   8.841 -13.406  1.00  0.00     0.034 C 
BRANCH   5   6
ATOM      6  C   UNL     1     -10.118   8.227 -13.164  1.00  0.00    -0.077 C 
ATOM      7  C   UNL     1      -8.911   9.131 -13.197  1.00  0.00     0.039 C 
ATOM      8  C   UNL     1      -9.915   6.909 -12.944  1.00  0.00    -0.023 CG0
ATOM      9  G   UNL     1     -10.987   5.846 -12.910  1.00  0.00     0.000 G0
ENDBRANCH   5   6
ENDBRANCH   4   5
ENDBRANCH   2   4
BRANCH   1  10
ATOM     10  C   UNL     1     -11.458   6.117 -16.040  1.00  0.00     0.111 C 
BRANCH  10  11
ATOM     11  C   UNL     1     -11.392   4.838 -15.241  1.00  0.00     0.163 C 
ATOM     12  O   UNL     1     -12.001   3.829 -15.687  1.00  0.00    -0.294 OA
BRANCH  11  13
ATOM     13  C   UNL     1     -10.677   4.761 -13.929  1.00  0.00    -0.002 C 
ATOM     14  C   UNL     1      -9.740   3.797 -13.676  1.00  0.00    -0.069 C 
ATOM     15  C   UNL     1      -9.049   3.703 -12.334  1.00  0.00     0.039 C 
ATOM     16  C   UNL     1      -9.321   2.803 -14.736  1.00  0.00     0.039 C 
BRANCH  13  17
ATOM     17  C   UNL     1     -10.982   5.846 -12.912  1.00  0.00     0.066 CG0
ATOM     18  G   UNL     1      -9.908   6.907 -12.957  1.00  0.00     0.000 G0
ENDBRANCH  13  17
ENDBRANCH  11  13
ENDBRANCH  10  11
ENDBRANCH   1  10
TORSDOF 0
ENDMDL
MODEL 3
REMARK VINA RESULT:    -3.832      4.568      5.944
REMARK INTER + INTRA:          -4.505
REMARK INTER:                  -4.960
REMARK INTRA:                   0.455
REMARK UNBOUND:                 0.895
REMARK SMILES CC1=CCC(=C(C)C)C(=O)CC(C)=CCC1
REMARK SMILES IDX 12 1 14 2 13 3 15 4 16 5 2 6 1 7 3 8 11 10 9 11 10 12 5 13
REMARK SMILES IDX 6 14 7 15 8 16 4 17
REMARK H PARENT
REMARK Flexibility Score: 60.00
ROOT
ATOM      1  C   UNL     1     -14.284   2.168 -10.685  1.00  0.00    -0.070 C 
ATOM      2  C   UNL     1     -14.104   1.313  -9.650  1.00  0.00    -0.027 C 
ATOM      3  C   UNL     1     -15.337   3.238 -10.526  1.00  0.00     0.039 C 
ENDROOT
BRANCH   2   4
ATOM      4  C   UNL     1     -13.043   0.243  -9.550  1.00  0.00     0.032 C 
BRANCH   4   5
ATOM      5  C   UNL     1     -11.636   0.824  -9.313  1.00  0.00     0.034 C 
BRANCH   5   6
ATOM      6  C   UNL     1     -10.589   0.156 -10.182  1.00  0.00    -0.077 C 
ATOM      7  C   UNL     1     -10.375  -1.329 -10.031  1.00  0.00     0.039 C 
ATOM      8  C   UNL     1      -9.815   0.820 -11.070  1.00  0.00    -0.023 CG0
ATOM      9  G   UNL     1      -9.855   2.306 -11.337  1.00  0.00     0.000 G0
ENDBRANCH   5   6
ENDBRANCH   4   5
ENDBRANCH   2   4
BRANCH   1  10
ATOM     10  C   UNL     1     -13.447   2.150 -11.952  1.00  0.00     0.111 C 
BRANCH  10  11
ATOM     11  C   UNL     1     -12.241   3.049 -11.836  1.00  0.00     0.163 C 
ATOM     12  O   UNL     1     -12.397   4.185 -11.313  1.00  0.00    -0.294 OA
BRANCH  11  13
ATOM     13  C   UNL     1     -10.901   2.649 -12.367  1.00  0.00    -0.002 C 
ATOM     14  C   UNL     1     -10.628   2.654 -13.707  1.00  0.00    -0.069 C 
ATOM     15  C   UNL     1      -9.282   2.213 -14.240  1.00  0.00     0.039 C 
ATOM     16  C   UNL     1     -11.643   3.135 -14.720  1.00  0.00     0.039 C 
BRANCH  13  17
ATOM     17  C   UNL     1      -9.828   2.308 -11.348  1.00  0.00     0.066 CG0
ATOM     18  G   UNL     1      -9.819   0.819 -11.095  1.00  0.00     0.000 G0
ENDBRANCH  13  17
ENDBRANCH  11  13
ENDBRANCH  10  11
ENDBRANCH   1  10
TORSDOF 0
ENDMDL
MODEL 4
REMARK VINA RESULT:    -3.805      2.350      4.003
REMARK INTER + INTRA:          -4.467
REMARK INTER:                  -5.161
REMARK INTRA:                   0.695
REMARK UNBOUND:                 0.895
REMARK SMILES CC1=CCC(=C(C)C)C(=O)CC(C)=CCC1
REMARK SMILES IDX 12 1 14 2 13 3 15 4 16 5 2 6 1 7 3 8 11 10 9 11 10 12 5 13
REMARK SMILES IDX 6 14 7 15 8 16 4 17
REMARK H PARENT
REMARK Flexibility Score: 60.00
ROOT
ATOM      1  C   UNL     1     -12.936   2.974 -15.215  1.00  0.00    -0.070 C 
ATOM      2  C   UNL     1     -13.515   3.989 -15.900  1.00  0.00    -0.027 C 
ATOM      3  C   UNL     1     -13.812   2.184 -14.273  1.00  0.00     0.039 C 
ENDROOT
BRANCH   2   4
ATOM      4  C   UNL     1     -12.859   4.836 -16.965  1.00  0.00     0.032 C 
BRANCH   4   5
ATOM      5  C   UNL     1     -11.518   5.437 -16.501  1.00  0.00     0.034 C 
BRANCH   5   6
ATOM      6  C   UNL     1     -11.692   6.385 -15.330  1.00  0.00    -0.077 C 
ATOM      7  C   UNL     1     -12.615   7.566 -15.497  1.00  0.00     0.039 C 
ATOM      8  C   UNL     1     -11.048   6.247 -14.150  1.00  0.00    -0.023 CG0
ATOM      9  G   UNL     1     -10.063   5.155 -13.805  1.00  0.00     0.000 G0
ENDBRANCH   5   6
ENDBRANCH   4   5
ENDBRANCH   2   4
BRANCH   1  10
ATOM     10  C   UNL     1     -11.488   2.552 -15.393  1.00  0.00     0.111 C 
BRANCH  10  11
ATOM     11  C   UNL     1     -10.707   2.689 -14.109  1.00  0.00     0.163 C 
ATOM     12  O   UNL     1     -10.026   1.702 -13.721  1.00  0.00    -0.294 OA
BRANCH  11  13
ATOM     13  C   UNL     1     -10.767   3.929 -13.274  1.00  0.00    -0.002 C 
ATOM     14  C   UNL     1     -11.385   3.945 -12.053  1.00  0.00    -0.069 C 
ATOM     15  C   UNL     1     -11.474   5.212 -11.232  1.00  0.00     0.039 C 
ATOM     16  C   UNL     1     -11.977   2.692 -11.449  1.00  0.00     0.039 C 
BRANCH  13  17
ATOM     17  C   UNL     1     -10.046   5.155 -13.805  1.00  0.00     0.066 CG0
ATOM     18  G   UNL     1     -11.049   6.231 -14.148  1.00  0.00     0.000 G0
ENDBRANCH  13  17
ENDBRANCH  11  13
ENDBRANCH  10  11
ENDBRANCH   1  10
TORSDOF 0
ENDMDL
MODEL 5
REMARK VINA RESULT:    -3.731      1.880      2.902
REMARK INTER + INTRA:          -4.363
REMARK INTER:                  -5.734
REMARK INTRA:                   1.371
REMARK UNBOUND:                 0.895
REMARK SMILES CC1=CCC(=C(C)C)C(=O)CC(C)=CCC1
REMARK SMILES IDX 12 1 14 2 13 3 15 4 16 5 2 6 1 7 3 8 11 10 9 11 10 12 5 13
REMARK SMILES IDX 6 14 7 15 8 16 4 17
REMARK H PARENT
REMARK Flexibility Score: 60.00
ROOT
ATOM      1  C   UNL     1     -12.777   5.414 -16.304  1.00  0.00    -0.070 C 
ATOM      2  C   UNL     1     -13.398   4.246 -16.598  1.00  0.00    -0.027 C 
ATOM      3  C   UNL     1     -13.643   6.640 -16.147  1.00  0.00     0.039 C 
ENDROOT
BRANCH   2   4
ATOM      4  C   UNL     1     -12.745   2.887 -16.694  1.00  0.00     0.032 C 
BRANCH   4   5
ATOM      5  C   UNL     1     -13.387   1.854 -15.749  1.00  0.00     0.034 C 
BRANCH   5   6
ATOM      6  C   UNL     1     -13.412   2.333 -14.311  1.00  0.00    -0.077 C 
ATOM      7  C   UNL     1     -14.718   2.273 -13.560  1.00  0.00     0.039 C 
ATOM      8  C   UNL     1     -12.335   2.836 -13.668  1.00  0.00    -0.023 CG0
ATOM      9  G   UNL     1     -10.956   3.009 -14.259  1.00  0.00     0.000 G0
ENDBRANCH   5   6
ENDBRANCH   4   5
ENDBRANCH   2   4
BRANCH   1  10
ATOM     10  C   UNL     1     -11.283   5.539 -16.062  1.00  0.00     0.111 C 
BRANCH  10  11
ATOM     11  C   UNL     1     -10.958   5.564 -14.588  1.00  0.00     0.163 C 
ATOM     12  O   UNL     1     -11.131   6.644 -13.962  1.00  0.00    -0.294 OA
BRANCH  11  13
ATOM     13  C   UNL     1     -10.395   4.372 -13.882  1.00  0.00    -0.002 C 
ATOM     14  C   UNL     1      -9.468   4.499 -12.884  1.00  0.00    -0.069 C 
ATOM     15  C   UNL     1      -8.875   3.287 -12.199  1.00  0.00     0.039 C 
ATOM     16  C   UNL     1      -9.017   5.856 -12.391  1.00  0.00     0.039 C 
BRANCH  13  17
ATOM     17  C   UNL     1     -10.953   3.014 -14.267  1.00  0.00     0.066 CG0
ATOM     18  G   UNL     1     -12.322   2.830 -13.656  1.00  0.00     0.000 G0
ENDBRANCH  13  17
ENDBRANCH  11  13
ENDBRANCH  10  11
ENDBRANCH   1  10
TORSDOF 0
ENDMDL
MODEL 6
REMARK VINA RESULT:    -3.694      1.918      3.946
REMARK INTER + INTRA:          -4.310
REMARK INTER:                  -4.710
REMARK INTRA:                   0.400
REMARK UNBOUND:                 0.895
REMARK SMILES CC1=CCC(=C(C)C)C(=O)CC(C)=CCC1
REMARK SMILES IDX 12 1 14 2 13 3 15 4 16 5 2 6 1 7 3 8 11 10 9 11 10 12 5 13
REMARK SMILES IDX 6 14 7 15 8 16 4 17
REMARK H PARENT
REMARK Flexibility Score: 60.00
ROOT
ATOM      1  C   UNL     1     -10.189   4.575 -12.046  1.00  0.00    -0.070 C 
ATOM      2  C   UNL     1     -10.421   3.250 -12.204  1.00  0.00    -0.027 C 
ATOM      3  C   UNL     1      -8.877   4.980 -11.419  1.00  0.00     0.039 C 
ENDROOT
BRANCH   2   4
ATOM      4  C   UNL     1     -11.610   2.628 -12.898  1.00  0.00     0.032 C 
BRANCH   4   5
ATOM      5  C   UNL     1     -11.387   2.455 -14.413  1.00  0.00     0.034 C 
BRANCH   5   6
ATOM      6  C   UNL     1     -12.552   2.983 -15.226  1.00  0.00    -0.077 C 
ATOM      7  C   UNL     1     -13.813   2.157 -15.290  1.00  0.00     0.039 C 
ATOM      8  C   UNL     1     -12.520   4.143 -15.919  1.00  0.00    -0.023 CG0
ATOM      9  G   UNL     1     -11.343   5.085 -16.006  1.00  0.00     0.000 G0
ENDBRANCH   5   6
ENDBRANCH   4   5
ENDBRANCH   2   4
BRANCH   1  10
ATOM     10  C   UNL     1     -11.137   5.662 -12.521  1.00  0.00     0.111 C 
BRANCH  10  11
ATOM     11  C   UNL     1     -10.669   6.283 -13.814  1.00  0.00     0.163 C 
ATOM     12  O   UNL     1      -9.551   6.867 -13.821  1.00  0.00    -0.294 OA
BRANCH  11  13
ATOM     13  C   UNL     1     -11.511   6.268 -15.051  1.00  0.00    -0.002 C 
ATOM     14  C   UNL     1     -12.357   7.298 -15.357  1.00  0.00    -0.069 C 
ATOM     15  C   UNL     1     -13.234   7.258 -16.590  1.00  0.00     0.039 C 
ATOM     16  C   UNL     1     -12.434   8.542 -14.500  1.00  0.00     0.039 C 
BRANCH  13  17
ATOM     17  C   UNL     1     -11.331   5.092 -15.994  1.00  0.00     0.066 CG0
ATOM     18  G   UNL     1     -12.521   4.167 -15.892  1.00  0.00     0.000 G0
ENDBRANCH  13  17
ENDBRANCH  11  13
ENDBRANCH  10  11
ENDBRANCH   1  10
TORSDOF 0
ENDMDL
MODEL 7
REMARK VINA RESULT:    -3.655      2.053      3.821
REMARK INTER + INTRA:          -4.255
REMARK INTER:                  -5.244
REMARK INTRA:                   0.989
REMARK UNBOUND:                 0.895
REMARK SMILES CC1=CCC(=C(C)C)C(=O)CC(C)=CCC1
REMARK SMILES IDX 12 1 14 2 13 3 15 4 16 5 2 6 1 7 3 8 11 10 9 11 10 12 5 13
REMARK SMILES IDX 6 14 7 15 8 16 4 17
REMARK H PARENT
REMARK Flexibility Score: 60.00
ROOT
ATOM      1  C   UNL     1     -13.114   2.577 -14.118  1.00  0.00    -0.070 C 
ATOM      2  C   UNL     1     -13.065   2.465 -12.769  1.00  0.00    -0.027 C 
ATOM      3  C   UNL     1     -14.475   2.731 -14.752  1.00  0.00     0.039 C 
ENDROOT
BRANCH   2   4
ATOM      4  C   UNL     1     -11.814   2.408 -11.923  1.00  0.00     0.032 C 
BRANCH   4   5
ATOM      5  C   UNL     1     -10.692   3.315 -12.464  1.00  0.00     0.034 C 
BRANCH   5   6
ATOM      6  C   UNL     1     -10.992   4.785 -12.249  1.00  0.00    -0.077 C 
ATOM      7  C   UNL     1     -11.453   5.229 -10.883  1.00  0.00     0.039 C 
ATOM      8  C   UNL     1     -10.895   5.721 -13.219  1.00  0.00    -0.023 CG0
ATOM      9  G   UNL     1     -10.487   5.468 -14.651  1.00  0.00     0.000 G0
ENDBRANCH   5   6
ENDBRANCH   4   5
ENDBRANCH   2   4
BRANCH   1  10
ATOM     10  C   UNL     1     -11.884   2.624 -15.008  1.00  0.00     0.111 C 
BRANCH  10  11
ATOM     11  C   UNL     1     -11.937   3.785 -15.969  1.00  0.00     0.163 C 
ATOM     12  O   UNL     1     -12.131   3.536 -17.190  1.00  0.00    -0.294 OA
BRANCH  11  13
ATOM     13  C   UNL     1     -11.712   5.195 -15.521  1.00  0.00    -0.002 C 
ATOM     14  C   UNL     1     -12.605   6.191 -15.807  1.00  0.00    -0.069 C 
ATOM     15  C   UNL     1     -12.353   7.621 -15.383  1.00  0.00     0.039 C 
ATOM     16  C   UNL     1     -13.904   5.908 -16.529  1.00  0.00     0.039 C 
BRANCH  13  17
ATOM     17  C   UNL     1     -10.486   5.461 -14.667  1.00  0.00     0.066 CG0
ATOM     18  G   UNL     1     -10.901   5.698 -13.235  1.00  0.00     0.000 G0
ENDBRANCH  13  17
ENDBRANCH  11  13
ENDBRANCH  10  11
ENDBRANCH   1  10
TORSDOF 0
ENDMDL
MODEL 8
REMARK VINA RESULT:    -3.550     15.420     18.323
REMARK INTER + INTRA:          -4.108
REMARK INTER:                  -5.044
REMARK INTRA:                   0.936
REMARK UNBOUND:                 0.895
REMARK SMILES CC1=CCC(=C(C)C)C(=O)CC(C)=CCC1
REMARK SMILES IDX 12 1 14 2 13 3 15 4 16 5 2 6 1 7 3 8 11 10 9 11 10 12 5 13
REMARK SMILES IDX 6 14 7 15 8 16 4 17
REMARK H PARENT
REMARK Flexibility Score: 60.00
ROOT
ATOM      1  C   UNL     1     -25.650   7.108 -21.943  1.00  0.00    -0.070 C 
ATOM      2  C   UNL     1     -26.619   6.448 -21.264  1.00  0.00    -0.027 C 
ATOM      3  C   UNL     1     -24.249   7.051 -21.384  1.00  0.00     0.039 C 
ENDROOT
BRANCH   2   4
ATOM      4  C   UNL     1     -28.058   6.285 -21.694  1.00  0.00     0.032 C 
BRANCH   4   5
ATOM      5  C   UNL     1     -29.054   6.794 -20.635  1.00  0.00     0.034 C 
BRANCH   5   6
ATOM      6  C   UNL     1     -28.749   8.214 -20.201  1.00  0.00    -0.077 C 
ATOM      7  C   UNL     1     -28.659   8.507 -18.724  1.00  0.00     0.039 C 
ATOM      8  C   UNL     1     -28.577   9.242 -21.061  1.00  0.00    -0.023 CG0
ATOM      9  G   UNL     1     -28.663   9.156 -22.567  1.00  0.00     0.000 G0
ENDBRANCH   5   6
ENDBRANCH   4   5
ENDBRANCH   2   4
BRANCH   1  10
ATOM     10  C   UNL     1     -25.884   7.837 -23.255  1.00  0.00     0.111 C 
BRANCH  10  11
ATOM     11  C   UNL     1     -26.132   9.310 -23.036  1.00  0.00     0.163 C 
ATOM     12  O   UNL     1     -25.161  10.026 -22.669  1.00  0.00    -0.294 OA
BRANCH  11  13
ATOM     13  C   UNL     1     -27.491   9.916 -23.190  1.00  0.00    -0.002 C 
ATOM     14  C   UNL     1     -27.691  11.058 -23.916  1.00  0.00    -0.069 C 
ATOM     15  C   UNL     1     -29.062  11.685 -24.036  1.00  0.00     0.039 C 
ATOM     16  C   UNL     1     -26.561  11.729 -24.664  1.00  0.00     0.039 C 
BRANCH  13  17
ATOM     17  C   UNL     1     -28.655   9.167 -22.567  1.00  0.00     0.066 CG0
ATOM     18  G   UNL     1     -28.573   9.255 -21.061  1.00  0.00     0.000 G0
ENDBRANCH  13  17
ENDBRANCH  11  13
ENDBRANCH  10  11
ENDBRANCH   1  10
TORSDOF 0
ENDMDL
MODEL 9
REMARK VINA RESULT:    -3.497      3.857      5.063
REMARK INTER + INTRA:          -4.032
REMARK INTER:                  -4.490
REMARK INTRA:                   0.458
REMARK UNBOUND:                 0.895
REMARK SMILES CC1=CCC(=C(C)C)C(=O)CC(C)=CCC1
REMARK SMILES IDX 12 1 14 2 13 3 15 4 16 5 2 6 1 7 3 8 11 10 9 11 10 12 5 13
REMARK SMILES IDX 6 14 7 15 8 16 4 17
REMARK H PARENT
REMARK Flexibility Score: 60.00
ROOT
ATOM      1  C   UNL     1     -15.703   1.884 -11.921  1.00  0.00    -0.070 C 
ATOM      2  C   UNL     1     -16.031   1.797 -13.233  1.00  0.00    -0.027 C 
ATOM      3  C   UNL     1     -16.325   0.879 -10.982  1.00  0.00     0.039 C 
ENDROOT
BRANCH   2   4
ATOM      4  C   UNL     1     -15.450   2.625 -14.355  1.00  0.00     0.032 C 
BRANCH   4   5
ATOM      5  C   UNL     1     -14.092   2.088 -14.845  1.00  0.00     0.034 C 
BRANCH   5   6
ATOM      6  C   UNL     1     -13.101   3.203 -15.117  1.00  0.00    -0.077 C 
ATOM      7  C   UNL     1     -13.366   4.126 -16.280  1.00  0.00     0.039 C 
ATOM      8  C   UNL     1     -11.978   3.404 -14.392  1.00  0.00    -0.023 CG0
ATOM      9  G   UNL     1     -11.525   2.568 -13.219  1.00  0.00     0.000 G0
ENDBRANCH   5   6
ENDBRANCH   4   5
ENDBRANCH   2   4
BRANCH   1  10
ATOM     10  C   UNL     1     -14.705   2.884 -11.364  1.00  0.00     0.111 C 
BRANCH  10  11
ATOM     11  C   UNL     1     -13.301   2.331 -11.369  1.00  0.00     0.163 C 
ATOM     12  O   UNL     1     -13.106   1.203 -10.841  1.00  0.00    -0.294 OA
BRANCH  11  13
ATOM     13  C   UNL     1     -12.148   3.102 -11.930  1.00  0.00    -0.002 C 
ATOM     14  C   UNL     1     -11.633   4.194 -11.287  1.00  0.00    -0.069 C 
ATOM     15  C   UNL     1     -10.491   4.991 -11.878  1.00  0.00     0.039 C 
ATOM     16  C   UNL     1     -12.154   4.638  -9.938  1.00  0.00     0.039 C 
BRANCH  13  17
ATOM     17  C   UNL     1     -11.522   2.576 -13.209  1.00  0.00     0.066 CG0
ATOM     18  G   UNL     1     -11.987   3.403 -14.384  1.00  0.00     0.000 G0
ENDBRANCH  13  17
ENDBRANCH  11  13
ENDBRANCH  10  11
ENDBRANCH   1  10
TORSDOF 0
ENDMDL
