MODEL 1
REMARK VINA RESULT:    -1.414      0.000      0.000
REMARK INTER + INTRA:          -1.981
REMARK INTER:                  -1.662
REMARK INTRA:                  -0.318
REMARK UNBOUND:                -0.318
REMARK SMILES O=c1cc(-c2ccc(O)c(O)c2)oc2cc(O)cc(O)c12
REMARK SMILES IDX 4 1 3 2 2 3 1 4 21 5 19 6 18 7 16 8 15 9 14 10 13 11 5 12
REMARK SMILES IDX 6 13 7 14 8 15 12 16 10 17 9 18 11 20 20 22 17 24
REMARK H PARENT 9 19 11 21 20 23 17 25
REMARK Flexibility Score: inf
ROOT
ATOM      1  C   UNL     1      25.101  20.133  14.621  1.00  0.00     0.138 A 
ATOM      2  C   UNL     1      25.654  20.218  15.905  1.00  0.00     0.100 A 
ATOM      3  C   UNL     1      27.041  20.284  16.056  1.00  0.00     0.197 A 
ATOM      4  O   UNL     1      27.504  20.416  17.218  1.00  0.00    -0.289 OA
ATOM      5  C   UNL     1      27.876  20.227  14.915  1.00  0.00     0.107 A 
ATOM      6  C   UNL     1      29.303  20.251  14.949  1.00  0.00     0.134 A 
ATOM      7  C   UNL     1      30.022  20.289  13.747  1.00  0.00     0.093 A 
ATOM      8  C   UNL     1      29.371  20.244  12.517  1.00  0.00     0.123 A 
ATOM      9  C   UNL     1      27.978  20.170  12.470  1.00  0.00     0.094 A 
ATOM     10  C   UNL     1      27.230  20.166  13.651  1.00  0.00     0.146 A 
ATOM     11  O   UNL     1      25.906  20.112  13.564  1.00  0.00    -0.456 OA
ENDROOT
BRANCH   1  12
ATOM     12  C   UNL     1      23.634  20.057  14.402  1.00  0.00     0.021 A 
ATOM     13  C   UNL     1      22.723  20.070  15.476  1.00  0.00     0.016 A 
ATOM     14  C   UNL     1      21.347  20.008  15.239  1.00  0.00     0.051 A 
ATOM     15  C   UNL     1      20.858  19.940  13.928  1.00  0.00     0.157 A 
ATOM     16  C   UNL     1      23.132  20.003  13.088  1.00  0.00     0.062 A 
ATOM     17  C   UNL     1      21.752  19.938  12.852  1.00  0.00     0.158 A 
BRANCH  15  18
ATOM     18  O   UNL     1      19.486  19.876  13.689  1.00  0.00    -0.504 OA
ATOM     19  H   UNL     1      18.818  19.825  14.449  1.00  0.00     0.293 HD
ENDBRANCH  15  18
BRANCH  17  20
ATOM     20  O   UNL     1      21.262  19.875  11.548  1.00  0.00    -0.504 OA
ATOM     21  H   UNL     1      20.267  19.866  11.356  1.00  0.00     0.293 HD
ENDBRANCH  17  20
ENDBRANCH   1  12
BRANCH   6  22
ATOM     22  O   UNL     1      30.061  20.217  16.125  1.00  0.00    -0.507 OA
ATOM     23  H   UNL     1      31.068  20.197  16.165  1.00  0.00     0.293 HD
ENDBRANCH   6  22
BRANCH   8  24
ATOM     24  O   UNL     1      30.118  20.268  11.342  1.00  0.00    -0.508 OA
ATOM     25  H   UNL     1      29.859  19.711  10.536  1.00  0.00     0.293 HD
ENDBRANCH   8  24
TORSDOF 5
ENDMDL
MODEL 2
REMARK VINA RESULT:    -0.401     11.224     15.353
REMARK INTER + INTRA:          -0.790
REMARK INTER:                  -0.526
REMARK INTRA:                  -0.263
REMARK UNBOUND:                -0.318
REMARK SMILES O=c1cc(-c2ccc(O)c(O)c2)oc2cc(O)cc(O)c12
REMARK SMILES IDX 4 1 3 2 2 3 1 4 21 5 19 6 18 7 16 8 15 9 14 10 13 11 5 12
REMARK SMILES IDX 6 13 7 14 8 15 12 16 10 17 9 18 11 20 20 22 17 24
REMARK H PARENT 9 19 11 21 20 23 17 25
REMARK Flexibility Score: inf
ROOT
ATOM      1  C   UNL     1      11.264  21.340  19.189  1.00  0.00     0.138 A 
ATOM      2  C   UNL     1      10.336  21.727  18.213  1.00  0.00     0.100 A 
ATOM      3  C   UNL     1      10.743  21.853  16.884  1.00  0.00     0.197 A 
ATOM      4  O   UNL     1       9.875  22.148  16.023  1.00  0.00    -0.289 OA
ATOM      5  C   UNL     1      12.097  21.624  16.539  1.00  0.00     0.107 A 
ATOM      6  C   UNL     1      12.635  21.756  15.223  1.00  0.00     0.134 A 
ATOM      7  C   UNL     1      13.970  21.406  14.985  1.00  0.00     0.093 A 
ATOM      8  C   UNL     1      14.801  20.988  16.021  1.00  0.00     0.123 A 
ATOM      9  C   UNL     1      14.301  20.903  17.322  1.00  0.00     0.094 A 
ATOM     10  C   UNL     1      12.964  21.210  17.586  1.00  0.00     0.146 A 
ATOM     11  O   UNL     1      12.522  21.101  18.834  1.00  0.00    -0.456 OA
ENDROOT
BRANCH   1  12
ATOM     12  C   UNL     1      10.886  21.194  20.618  1.00  0.00     0.021 A 
ATOM     13  C   UNL     1      10.374  19.986  21.129  1.00  0.00     0.016 A 
ATOM     14  C   UNL     1      10.037  19.875  22.481  1.00  0.00     0.051 A 
ATOM     15  C   UNL     1      10.212  20.964  23.345  1.00  0.00     0.157 A 
ATOM     16  C   UNL     1      11.072  22.278  21.497  1.00  0.00     0.062 A 
ATOM     17  C   UNL     1      10.732  22.166  22.852  1.00  0.00     0.158 A 
BRANCH  15  18
ATOM     18  O   UNL     1       9.875  20.856  24.693  1.00  0.00    -0.504 OA
ATOM     19  H   UNL     1       9.198  21.477  25.121  1.00  0.00     0.293 HD
ENDBRANCH  15  18
BRANCH  17  20
ATOM     20  O   UNL     1      10.910  23.246  23.715  1.00  0.00    -0.504 OA
ATOM     21  H   UNL     1      11.542  23.195  24.505  1.00  0.00     0.293 HD
ENDBRANCH  17  20
ENDBRANCH   1  12
BRANCH   6  22
ATOM     22  O   UNL     1      11.914  22.241  14.126  1.00  0.00    -0.507 OA
ATOM     23  H   UNL     1      11.804  23.215  13.891  1.00  0.00     0.293 HD
ENDBRANCH   6  22
BRANCH   8  24
ATOM     24  O   UNL     1      16.129  20.663  15.750  1.00  0.00    -0.508 OA
ATOM     25  H   UNL     1      16.498  20.679  14.807  1.00  0.00     0.293 HD
ENDBRANCH   8  24
TORSDOF 5
ENDMDL
MODEL 3
REMARK VINA RESULT:     0.093      1.090      2.622
REMARK INTER + INTRA:          -0.209
REMARK INTER:                   0.086
REMARK INTRA:                  -0.295
REMARK UNBOUND:                -0.318
REMARK SMILES O=c1cc(-c2ccc(O)c(O)c2)oc2cc(O)cc(O)c12
REMARK SMILES IDX 4 1 3 2 2 3 1 4 21 5 19 6 18 7 16 8 15 9 14 10 13 11 5 12
REMARK SMILES IDX 6 13 7 14 8 15 12 16 10 17 9 18 11 20 20 22 17 24
REMARK H PARENT 9 19 11 21 20 23 17 25
REMARK Flexibility Score: inf
ROOT
ATOM      1  C   UNL     1      25.001  20.025  13.888  1.00  0.00     0.138 A 
ATOM      2  C   UNL     1      25.515  20.042  12.584  1.00  0.00     0.100 A 
ATOM      3  C   UNL     1      26.896  20.092  12.387  1.00  0.00     0.197 A 
ATOM      4  O   UNL     1      27.328  20.050  11.206  1.00  0.00    -0.289 OA
ATOM      5  C   UNL     1      27.764  20.161  13.503  1.00  0.00     0.107 A 
ATOM      6  C   UNL     1      29.186  20.250  13.423  1.00  0.00     0.134 A 
ATOM      7  C   UNL     1      29.947  20.213  14.599  1.00  0.00     0.093 A 
ATOM      8  C   UNL     1      29.337  20.150  15.850  1.00  0.00     0.123 A 
ATOM      9  C   UNL     1      27.945  20.113  15.943  1.00  0.00     0.094 A 
ATOM     10  C   UNL     1      27.159  20.113  14.788  1.00  0.00     0.146 A 
ATOM     11  O   UNL     1      25.838  20.060  14.919  1.00  0.00    -0.456 OA
ENDROOT
BRANCH   1  12
ATOM     12  C   UNL     1      23.541  19.977  14.155  1.00  0.00     0.021 A 
ATOM     13  C   UNL     1      23.027  19.991  15.466  1.00  0.00     0.016 A 
ATOM     14  C   UNL     1      21.647  19.954  15.688  1.00  0.00     0.051 A 
ATOM     15  C   UNL     1      20.759  19.913  14.605  1.00  0.00     0.157 A 
ATOM     16  C   UNL     1      22.640  19.950  13.075  1.00  0.00     0.062 A 
ATOM     17  C   UNL     1      21.257  19.912  13.297  1.00  0.00     0.158 A 
BRANCH  15  18
ATOM     18  O   UNL     1      19.383  19.875  14.823  1.00  0.00    -0.504 OA
ATOM     19  H   UNL     1      18.923  19.038  15.160  1.00  0.00     0.293 HD
ENDBRANCH  15  18
BRANCH  17  20
ATOM     20  O   UNL     1      20.370  19.875  12.222  1.00  0.00    -0.504 OA
ATOM     21  H   UNL     1      19.663  19.153  12.142  1.00  0.00     0.293 HD
ENDBRANCH  17  20
ENDBRANCH   1  12
BRANCH   6  22
ATOM     22  O   UNL     1      29.898  20.397  12.228  1.00  0.00    -0.507 OA
ATOM     23  H   UNL     1      30.360  19.649  11.734  1.00  0.00     0.293 HD
ENDBRANCH   6  22
BRANCH   8  24
ATOM     24  O   UNL     1      30.125  20.130  16.999  1.00  0.00    -0.508 OA
ATOM     25  H   UNL     1      30.958  19.557  17.063  1.00  0.00     0.293 HD
ENDBRANCH   8  24
TORSDOF 5
ENDMDL
MODEL 4
REMARK VINA RESULT:     1.126     12.851     15.632
REMARK INTER + INTRA:           1.005
REMARK INTER:                   1.269
REMARK INTRA:                  -0.264
REMARK UNBOUND:                -0.318
REMARK SMILES O=c1cc(-c2ccc(O)c(O)c2)oc2cc(O)cc(O)c12
REMARK SMILES IDX 4 1 3 2 2 3 1 4 21 5 19 6 18 7 16 8 15 9 14 10 13 11 5 12
REMARK SMILES IDX 6 13 7 14 8 15 12 16 10 17 9 18 11 20 20 22 17 24
REMARK H PARENT 9 19 11 21 20 23 17 25
REMARK Flexibility Score: inf
ROOT
ATOM      1  C   UNL     1      11.696  21.011  19.307  1.00  0.00     0.138 A 
ATOM      2  C   UNL     1      12.937  20.466  18.951  1.00  0.00     0.100 A 
ATOM      3  C   UNL     1      13.352  20.505  17.619  1.00  0.00     0.197 A 
ATOM      4  O   UNL     1      14.494  20.059  17.340  1.00  0.00    -0.289 OA
ATOM      5  C   UNL     1      12.501  21.062  16.634  1.00  0.00     0.107 A 
ATOM      6  C   UNL     1      12.803  21.127  15.240  1.00  0.00     0.134 A 
ATOM      7  C   UNL     1      11.925  21.791  14.374  1.00  0.00     0.093 A 
ATOM      8  C   UNL     1      10.732  22.341  14.838  1.00  0.00     0.123 A 
ATOM      9  C   UNL     1      10.402  22.240  16.191  1.00  0.00     0.094 A 
ATOM     10  C   UNL     1      11.273  21.615  17.087  1.00  0.00     0.146 A 
ATOM     11  O   UNL     1      10.930  21.556  18.369  1.00  0.00    -0.456 OA
ENDROOT
BRANCH   1  12
ATOM     12  C   UNL     1      11.204  20.992  20.709  1.00  0.00     0.021 A 
ATOM     13  C   UNL     1      10.534  19.875  21.244  1.00  0.00     0.016 A 
ATOM     14  C   UNL     1      10.090  19.882  22.569  1.00  0.00     0.051 A 
ATOM     15  C   UNL     1      10.317  20.999  23.384  1.00  0.00     0.157 A 
ATOM     16  C   UNL     1      11.440  22.103  21.539  1.00  0.00     0.062 A 
ATOM     17  C   UNL     1      10.994  22.110  22.868  1.00  0.00     0.158 A 
BRANCH  15  18
ATOM     18  O   UNL     1       9.875  21.009  24.706  1.00  0.00    -0.504 OA
ATOM     19  H   UNL     1       8.989  20.596  24.971  1.00  0.00     0.293 HD
ENDBRANCH  15  18
BRANCH  17  20
ATOM     20  O   UNL     1      11.221  23.218  23.683  1.00  0.00    -0.504 OA
ATOM     21  H   UNL     1      10.459  23.714  24.129  1.00  0.00     0.293 HD
ENDBRANCH  17  20
ENDBRANCH   1  12
BRANCH   6  22
ATOM     22  O   UNL     1      13.930  20.542  14.653  1.00  0.00    -0.507 OA
ATOM     23  H   UNL     1      13.908  19.850  13.920  1.00  0.00     0.293 HD
ENDBRANCH   6  22
BRANCH   8  24
ATOM     24  O   UNL     1       9.875  22.980  13.946  1.00  0.00    -0.508 OA
ATOM     25  H   UNL     1       8.894  22.735  13.882  1.00  0.00     0.293 HD
ENDBRANCH   8  24
TORSDOF 5
ENDMDL
