MODEL 1
REMARK VINA RESULT:    -4.375      0.000      0.000
REMARK INTER + INTRA:          -6.653
REMARK INTER:                  -6.166
REMARK INTRA:                  -0.487
REMARK UNBOUND:                -0.487
REMARK SMILES CCCCCCCCC(=O)[O-]
REMARK SMILES IDX 6 1 7 2 8 3 9 4 10 5 11 6 5 7 4 8 3 9 2 10 1 11
REMARK H PARENT
REMARK Flexibility Score: inf
ROOT
ATOM      1  C   UNL     1     -14.593  44.350  23.474  1.00  0.00     0.000 C 
ENDROOT
BRANCH   1   2
ATOM      2  C   UNL     1     -13.558  45.481  23.573  1.00  0.00     0.006 C 
BRANCH   2   3
ATOM      3  C   UNL     1     -13.259  45.868  25.027  1.00  0.00     0.053 C 
BRANCH   3   4
ATOM      4  C   UNL     1     -13.924  47.156  25.406  1.00  0.00     0.041 C 
ATOM      5  O   UNL     1     -13.555  48.240  24.882  1.00  0.00    -0.550 OA
ATOM      6  O   UNL     1     -14.973  47.155  26.317  1.00  0.00    -0.550 OA
ENDBRANCH   3   4
ENDBRANCH   2   3
ENDBRANCH   1   2
BRANCH   1   7
ATOM      7  C   UNL     1     -14.399  43.539  22.184  1.00  0.00     0.000 C 
BRANCH   7   8
ATOM      8  C   UNL     1     -13.228  44.054  21.332  1.00  0.00    -0.000 C 
BRANCH   8   9
ATOM      9  C   UNL     1     -12.189  42.964  21.032  1.00  0.00    -0.000 C 
BRANCH   9  10
ATOM     10  C   UNL     1     -10.771  43.548  21.016  1.00  0.00    -0.003 C 
ATOM     11  C   UNL     1     -10.788  45.046  21.303  1.00  0.00     0.004 C 
ENDBRANCH   9  10
ENDBRANCH   8   9
ENDBRANCH   7   8
ENDBRANCH   1   7
TORSDOF 7
ENDMDL
MODEL 2
REMARK VINA RESULT:    -4.231      1.030      1.852
REMARK INTER + INTRA:          -6.450
REMARK INTER:                  -6.016
REMARK INTRA:                  -0.434
REMARK UNBOUND:                -0.487
REMARK SMILES CCCCCCCCC(=O)[O-]
REMARK SMILES IDX 6 1 7 2 8 3 9 4 10 5 11 6 5 7 4 8 3 9 2 10 1 11
REMARK H PARENT
REMARK Flexibility Score: inf
ROOT
ATOM      1  C   UNL     1     -13.416  45.514  23.738  1.00  0.00     0.000 C 
ENDROOT
BRANCH   1   2
ATOM      2  C   UNL     1     -13.412  45.907  25.222  1.00  0.00     0.006 C 
BRANCH   2   3
ATOM      3  C   UNL     1     -14.748  45.595  25.909  1.00  0.00     0.053 C 
BRANCH   3   4
ATOM      4  C   UNL     1     -15.334  46.809  26.562  1.00  0.00     0.041 C 
ATOM      5  O   UNL     1     -15.942  46.708  27.660  1.00  0.00    -0.550 OA
ATOM      6  O   UNL     1     -15.180  48.058  25.973  1.00  0.00    -0.550 OA
ENDBRANCH   3   4
ENDBRANCH   2   3
ENDBRANCH   1   2
BRANCH   1   7
ATOM      7  C   UNL     1     -14.417  44.379  23.473  1.00  0.00     0.000 C 
BRANCH   7   8
ATOM      8  C   UNL     1     -14.084  43.580  22.203  1.00  0.00    -0.000 C 
BRANCH   8   9
ATOM      9  C   UNL     1     -13.174  44.354  21.238  1.00  0.00    -0.000 C 
BRANCH   9  10
ATOM     10  C   UNL     1     -11.890  43.568  20.946  1.00  0.00    -0.003 C 
ATOM     11  C   UNL     1     -10.650  44.403  21.254  1.00  0.00     0.004 C 
ENDBRANCH   9  10
ENDBRANCH   8   9
ENDBRANCH   7   8
ENDBRANCH   1   7
TORSDOF 7
ENDMDL
MODEL 3
REMARK VINA RESULT:    -4.227      2.852      5.261
REMARK INTER + INTRA:          -6.443
REMARK INTER:                  -6.043
REMARK INTRA:                  -0.400
REMARK UNBOUND:                -0.487
REMARK SMILES CCCCCCCCC(=O)[O-]
REMARK SMILES IDX 6 1 7 2 8 3 9 4 10 5 11 6 5 7 4 8 3 9 2 10 1 11
REMARK H PARENT
REMARK Flexibility Score: inf
ROOT
ATOM      1  C   UNL     1     -14.617  44.210  22.186  1.00  0.00     0.000 C 
ENDROOT
BRANCH   1   2
ATOM      2  C   UNL     1     -13.486  43.402  21.533  1.00  0.00     0.006 C 
BRANCH   2   3
ATOM      3  C   UNL     1     -12.538  44.288  20.713  1.00  0.00     0.053 C 
BRANCH   3   4
ATOM      4  C   UNL     1     -11.152  44.292  21.282  1.00  0.00     0.041 C 
ATOM      5  O   UNL     1     -10.709  45.316  21.866  1.00  0.00    -0.550 OA
ATOM      6  O   UNL     1     -10.361  43.153  21.194  1.00  0.00    -0.550 OA
ENDBRANCH   3   4
ENDBRANCH   2   3
ENDBRANCH   1   2
BRANCH   1   7
ATOM      7  C   UNL     1     -14.394  44.341  23.701  1.00  0.00     0.000 C 
BRANCH   7   8
ATOM      8  C   UNL     1     -13.539  45.563  24.070  1.00  0.00    -0.000 C 
BRANCH   8   9
ATOM      9  C   UNL     1     -13.719  45.992  25.534  1.00  0.00    -0.000 C 
BRANCH   9  10
ATOM     10  C   UNL     1     -15.021  45.426  26.114  1.00  0.00    -0.003 C 
ATOM     11  C   UNL     1     -15.794  46.494  26.881  1.00  0.00     0.004 C 
ENDBRANCH   9  10
ENDBRANCH   8   9
ENDBRANCH   7   8
ENDBRANCH   1   7
TORSDOF 7
ENDMDL
MODEL 4
REMARK VINA RESULT:    -4.164     19.323     21.288
REMARK INTER + INTRA:          -6.355
REMARK INTER:                  -5.599
REMARK INTRA:                  -0.756
REMARK UNBOUND:                -0.487
REMARK SMILES CCCCCCCCC(=O)[O-]
REMARK SMILES IDX 6 1 7 2 8 3 9 4 10 5 11 6 5 7 4 8 3 9 2 10 1 11
REMARK H PARENT
REMARK Flexibility Score: inf
ROOT
ATOM      1  C   UNL     1     -24.364  63.093  30.354  1.00  0.00     0.000 C 
ENDROOT
BRANCH   1   2
ATOM      2  C   UNL     1     -25.637  62.647  31.089  1.00  0.00     0.006 C 
BRANCH   2   3
ATOM      3  C   UNL     1     -25.394  61.422  31.980  1.00  0.00     0.053 C 
BRANCH   3   4
ATOM      4  C   UNL     1     -26.599  60.534  32.044  1.00  0.00     0.041 C 
ATOM      5  O   UNL     1     -26.483  59.293  31.865  1.00  0.00    -0.550 OA
ATOM      6  O   UNL     1     -27.846  61.074  32.332  1.00  0.00    -0.550 OA
ENDBRANCH   3   4
ENDBRANCH   2   3
ENDBRANCH   1   2
BRANCH   1   7
ATOM      7  C   UNL     1     -23.157  62.243  30.781  1.00  0.00     0.000 C 
BRANCH   7   8
ATOM      8  C   UNL     1     -22.362  61.699  29.584  1.00  0.00    -0.000 C 
BRANCH   8   9
ATOM      9  C   UNL     1     -23.227  61.528  28.326  1.00  0.00    -0.000 C 
BRANCH   9  10
ATOM     10  C   UNL     1     -23.574  60.052  28.097  1.00  0.00    -0.003 C 
ATOM     11  C   UNL     1     -24.937  59.707  28.689  1.00  0.00     0.004 C 
ENDBRANCH   9  10
ENDBRANCH   8   9
ENDBRANCH   7   8
ENDBRANCH   1   7
TORSDOF 7
ENDMDL
MODEL 5
REMARK VINA RESULT:    -4.143     20.549     22.499
REMARK INTER + INTRA:          -6.325
REMARK INTER:                  -5.703
REMARK INTRA:                  -0.623
REMARK UNBOUND:                -0.487
REMARK SMILES CCCCCCCCC(=O)[O-]
REMARK SMILES IDX 6 1 7 2 8 3 9 4 10 5 11 6 5 7 4 8 3 9 2 10 1 11
REMARK H PARENT
REMARK Flexibility Score: inf
ROOT
ATOM      1  C   UNL     1     -25.286  61.532  31.935  1.00  0.00     0.000 C 
ENDROOT
BRANCH   1   2
ATOM      2  C   UNL     1     -26.425  60.504  32.018  1.00  0.00     0.006 C 
BRANCH   2   3
ATOM      3  C   UNL     1     -27.751  61.140  32.455  1.00  0.00     0.053 C 
BRANCH   3   4
ATOM      4  C   UNL     1     -27.767  61.439  33.923  1.00  0.00     0.041 C 
ATOM      5  O   UNL     1     -27.813  62.630  34.328  1.00  0.00    -0.550 OA
ATOM      6  O   UNL     1     -27.762  60.399  34.844  1.00  0.00    -0.550 OA
ENDBRANCH   3   4
ENDBRANCH   2   3
ENDBRANCH   1   2
BRANCH   1   7
ATOM      7  C   UNL     1     -25.731  62.782  31.160  1.00  0.00     0.000 C 
BRANCH   7   8
ATOM      8  C   UNL     1     -24.788  63.125  29.996  1.00  0.00    -0.000 C 
BRANCH   8   9
ATOM      9  C   UNL     1     -23.666  62.091  29.819  1.00  0.00    -0.000 C 
BRANCH   9  10
ATOM     10  C   UNL     1     -23.759  61.410  28.448  1.00  0.00    -0.003 C 
ATOM     11  C   UNL     1     -24.738  60.240  28.479  1.00  0.00     0.004 C 
ENDBRANCH   9  10
ENDBRANCH   8   9
ENDBRANCH   7   8
ENDBRANCH   1   7
TORSDOF 7
ENDMDL
MODEL 6
REMARK VINA RESULT:    -4.052     18.652     20.324
REMARK INTER + INTRA:          -6.197
REMARK INTER:                  -5.459
REMARK INTRA:                  -0.738
REMARK UNBOUND:                -0.487
REMARK SMILES CCCCCCCCC(=O)[O-]
REMARK SMILES IDX 6 1 7 2 8 3 9 4 10 5 11 6 5 7 4 8 3 9 2 10 1 11
REMARK H PARENT
REMARK Flexibility Score: inf
ROOT
ATOM      1  C   UNL     1     -23.112  61.532  31.259  1.00  0.00     0.000 C 
ENDROOT
BRANCH   1   2
ATOM      2  C   UNL     1     -24.208  62.413  30.641  1.00  0.00     0.006 C 
BRANCH   2   3
ATOM      3  C   UNL     1     -25.093  61.635  29.659  1.00  0.00     0.053 C 
BRANCH   3   4
ATOM      4  C   UNL     1     -25.834  60.524  30.339  1.00  0.00     0.041 C 
ATOM      5  O   UNL     1     -25.699  59.336  29.944  1.00  0.00    -0.550 OA
ATOM      6  O   UNL     1     -26.650  60.799  31.430  1.00  0.00    -0.550 OA
ENDBRANCH   3   4
ENDBRANCH   2   3
ENDBRANCH   1   2
BRANCH   1   7
ATOM      7  C   UNL     1     -21.715  62.024  30.847  1.00  0.00     0.000 C 
BRANCH   7   8
ATOM      8  C   UNL     1     -20.982  61.028  29.934  1.00  0.00    -0.000 C 
BRANCH   8   9
ATOM      9  C   UNL     1     -20.582  61.646  28.586  1.00  0.00    -0.000 C 
BRANCH   9  10
ATOM     10  C   UNL     1     -21.760  61.631  27.604  1.00  0.00    -0.003 C 
ATOM     11  C   UNL     1     -22.412  60.252  27.546  1.00  0.00     0.004 C 
ENDBRANCH   9  10
ENDBRANCH   8   9
ENDBRANCH   7   8
ENDBRANCH   1   7
TORSDOF 7
ENDMDL
MODEL 7
REMARK VINA RESULT:    -4.031     19.871     22.418
REMARK INTER + INTRA:          -6.168
REMARK INTER:                  -5.719
REMARK INTRA:                  -0.448
REMARK UNBOUND:                -0.487
REMARK SMILES CCCCCCCCC(=O)[O-]
REMARK SMILES IDX 6 1 7 2 8 3 9 4 10 5 11 6 5 7 4 8 3 9 2 10 1 11
REMARK H PARENT
REMARK Flexibility Score: inf
ROOT
ATOM      1  C   UNL     1     -25.461  62.505  31.133  1.00  0.00     0.000 C 
ENDROOT
BRANCH   1   2
ATOM      2  C   UNL     1     -24.636  62.852  29.884  1.00  0.00     0.006 C 
BRANCH   2   3
ATOM      3  C   UNL     1     -23.389  61.968  29.749  1.00  0.00     0.053 C 
BRANCH   3   4
ATOM      4  C   UNL     1     -23.271  61.382  28.375  1.00  0.00     0.041 C 
ATOM      5  O   UNL     1     -24.026  60.440  28.020  1.00  0.00    -0.550 OA
ATOM      6  O   UNL     1     -22.346  61.899  27.476  1.00  0.00    -0.550 OA
ENDBRANCH   3   4
ENDBRANCH   2   3
ENDBRANCH   1   2
BRANCH   1   7
ATOM      7  C   UNL     1     -25.958  61.052  31.076  1.00  0.00     0.000 C 
BRANCH   7   8
ATOM      8  C   UNL     1     -26.882  60.696  32.251  1.00  0.00    -0.000 C 
BRANCH   8   9
ATOM      9  C   UNL     1     -27.761  61.876  32.693  1.00  0.00    -0.000 C 
BRANCH   9  10
ATOM     10  C   UNL     1     -27.592  62.154  34.192  1.00  0.00    -0.003 C 
ATOM     11  C   UNL     1     -26.508  61.267  34.798  1.00  0.00     0.004 C 
ENDBRANCH   9  10
ENDBRANCH   8   9
ENDBRANCH   7   8
ENDBRANCH   1   7
TORSDOF 7
ENDMDL
MODEL 8
REMARK VINA RESULT:    -4.010     19.193     20.634
REMARK INTER + INTRA:          -6.138
REMARK INTER:                  -5.555
REMARK INTRA:                  -0.583
REMARK UNBOUND:                -0.487
REMARK SMILES CCCCCCCCC(=O)[O-]
REMARK SMILES IDX 6 1 7 2 8 3 9 4 10 5 11 6 5 7 4 8 3 9 2 10 1 11
REMARK H PARENT
REMARK Flexibility Score: inf
ROOT
ATOM      1  C   UNL     1     -24.344  62.714  29.623  1.00  0.00     0.000 C 
ENDROOT
BRANCH   1   2
ATOM      2  C   UNL     1     -24.320  61.933  30.945  1.00  0.00     0.006 C 
BRANCH   2   3
ATOM      3  C   UNL     1     -25.728  61.707  31.511  1.00  0.00     0.053 C 
BRANCH   3   4
ATOM      4  C   UNL     1     -26.138  60.269  31.420  1.00  0.00     0.041 C 
ATOM      5  O   UNL     1     -26.715  59.710  32.390  1.00  0.00    -0.550 OA
ATOM      6  O   UNL     1     -25.913  59.554  30.250  1.00  0.00    -0.550 OA
ENDBRANCH   3   4
ENDBRANCH   2   3
ENDBRANCH   1   2
BRANCH   1   7
ATOM      7  C   UNL     1     -23.987  61.800  28.440  1.00  0.00     0.000 C 
BRANCH   7   8
ATOM      8  C   UNL     1     -22.689  61.011  28.670  1.00  0.00    -0.000 C 
BRANCH   8   9
ATOM      9  C   UNL     1     -21.481  61.637  27.957  1.00  0.00    -0.000 C 
BRANCH   9  10
ATOM     10  C   UNL     1     -20.238  61.608  28.855  1.00  0.00    -0.003 C 
ATOM     11  C   UNL     1     -20.603  61.883  30.311  1.00  0.00     0.004 C 
ENDBRANCH   9  10
ENDBRANCH   8   9
ENDBRANCH   7   8
ENDBRANCH   1   7
TORSDOF 7
ENDMDL
