MODEL 1
REMARK VINA RESULT:    -5.312      0.000      0.000
REMARK INTER + INTRA:         -14.713
REMARK INTER:                 -12.145
REMARK INTRA:                  -2.568
REMARK UNBOUND:                -2.568
REMARK SMILES CCCCCCCCCCCCCCCCCCCCCCCC(=O)[O-]
REMARK SMILES IDX 13 1 14 2 15 3 16 4 17 5 18 6 19 7 20 8 21 9 22 10 23 11
REMARK SMILES IDX 24 12 25 13 26 14 12 15 11 16 10 17 9 18 8 19 7 20 6 21 5 22
REMARK SMILES IDX 4 23 3 24 2 25 1 26
REMARK H PARENT
REMARK Flexibility Score: inf
ROOT
ATOM      1  C   UNL     1       1.645  18.207 -11.058  1.00  0.00     0.000 C 
ENDROOT
BRANCH   1   2
ATOM      2  C   UNL     1       2.624  19.162 -11.769  1.00  0.00     0.000 C 
BRANCH   2   3
ATOM      3  C   UNL     1       1.963  20.269 -12.614  1.00  0.00     0.000 C 
BRANCH   3   4
ATOM      4  C   UNL     1       2.399  21.705 -12.269  1.00  0.00     0.000 C 
BRANCH   4   5
ATOM      5  C   UNL     1       2.756  22.536 -13.512  1.00  0.00     0.000 C 
BRANCH   5   6
ATOM      6  C   UNL     1       2.766  21.705 -14.809  1.00  0.00     0.000 C 
BRANCH   6   7
ATOM      7  C   UNL     1       3.769  22.174 -15.879  1.00  0.00     0.000 C 
BRANCH   7   8
ATOM      8  C   UNL     1       3.095  22.603 -17.190  1.00  0.00     0.000 C 
BRANCH   8   9
ATOM      9  C   UNL     1       1.736  21.909 -17.364  1.00  0.00     0.000 C 
BRANCH   9  10
ATOM     10  C   UNL     1       1.227  21.957 -18.814  1.00  0.00     0.006 C 
BRANCH  10  11
ATOM     11  C   UNL     1       1.408  20.622 -19.550  1.00  0.00     0.053 C 
BRANCH  11  12
ATOM     12  C   UNL     1       2.651  20.646 -20.383  1.00  0.00     0.041 C 
ATOM     13  O   UNL     1       3.238  21.736 -20.615  1.00  0.00    -0.550 OA
ATOM     14  O   UNL     1       3.168  19.462 -20.896  1.00  0.00    -0.550 OA
ENDBRANCH  11  12
ENDBRANCH  10  11
ENDBRANCH   9  10
ENDBRANCH   8   9
ENDBRANCH   7   8
ENDBRANCH   6   7
ENDBRANCH   5   6
ENDBRANCH   4   5
ENDBRANCH   3   4
ENDBRANCH   2   3
ENDBRANCH   1   2
BRANCH   1  15
ATOM     15  C   UNL     1       2.296  17.247 -10.046  1.00  0.00     0.000 C 
BRANCH  15  16
ATOM     16  C   UNL     1       1.875  17.532  -8.597  1.00  0.00     0.000 C 
BRANCH  16  17
ATOM     17  C   UNL     1       0.348  17.591  -8.470  1.00  0.00     0.000 C 
BRANCH  17  18
ATOM     18  C   UNL     1      -0.080  17.607  -6.997  1.00  0.00    -0.000 C 
BRANCH  18  19
ATOM     19  C   UNL     1       1.073  17.166  -6.083  1.00  0.00    -0.000 C 
BRANCH  19  20
ATOM     20  C   UNL     1       1.352  18.168  -4.949  1.00  0.00    -0.000 C 
BRANCH  20  21
ATOM     21  C   UNL     1       2.212  19.382  -5.353  1.00  0.00    -0.000 C 
BRANCH  21  22
ATOM     22  C   UNL     1       1.589  20.760  -5.050  1.00  0.00    -0.000 C 
BRANCH  22  23
ATOM     23  C   UNL     1       0.510  21.223  -6.047  1.00  0.00    -0.000 C 
BRANCH  23  24
ATOM     24  C   UNL     1       0.934  21.039  -7.514  1.00  0.00    -0.000 C 
BRANCH  24  25
ATOM     25  C   UNL     1       2.193  21.847  -7.866  1.00  0.00    -0.003 C 
ATOM     26  C   UNL     1       3.203  21.044  -8.689  1.00  0.00     0.004 C 
ENDBRANCH  24  25
ENDBRANCH  23  24
ENDBRANCH  22  23
ENDBRANCH  21  22
ENDBRANCH  20  21
ENDBRANCH  19  20
ENDBRANCH  18  19
ENDBRANCH  17  18
ENDBRANCH  16  17
ENDBRANCH  15  16
ENDBRANCH   1  15
TORSDOF 22
ENDMDL
MODEL 2
REMARK VINA RESULT:    -5.222      2.859      9.805
REMARK INTER + INTRA:         -14.507
REMARK INTER:                 -11.998
REMARK INTRA:                  -2.509
REMARK UNBOUND:                -2.568
REMARK SMILES CCCCCCCCCCCCCCCCCCCCCCCC(=O)[O-]
REMARK SMILES IDX 13 1 14 2 15 3 16 4 17 5 18 6 19 7 20 8 21 9 22 10 23 11
REMARK SMILES IDX 24 12 25 13 26 14 12 15 11 16 10 17 9 18 8 19 7 20 6 21 5 22
REMARK SMILES IDX 4 23 3 24 2 25 1 26
REMARK H PARENT
REMARK Flexibility Score: inf
ROOT
ATOM      1  C   UNL     1       2.361  21.724  -8.940  1.00  0.00     0.000 C 
ENDROOT
BRANCH   1   2
ATOM      2  C   UNL     1       3.133  21.178  -7.722  1.00  0.00     0.000 C 
BRANCH   2   3
ATOM      3  C   UNL     1       2.293  20.985  -6.444  1.00  0.00     0.000 C 
BRANCH   3   4
ATOM      4  C   UNL     1       0.801  21.338  -6.583  1.00  0.00     0.000 C 
BRANCH   4   5
ATOM      5  C   UNL     1      -0.095  20.528  -5.631  1.00  0.00     0.000 C 
BRANCH   5   6
ATOM      6  C   UNL     1       0.424  19.099  -5.387  1.00  0.00     0.000 C 
BRANCH   6   7
ATOM      7  C   UNL     1      -0.101  18.036  -6.369  1.00  0.00     0.000 C 
BRANCH   7   8
ATOM      8  C   UNL     1       1.017  17.179  -6.983  1.00  0.00     0.000 C 
BRANCH   8   9
ATOM      9  C   UNL     1       1.571  17.829  -8.260  1.00  0.00     0.000 C 
BRANCH   9  10
ATOM     10  C   UNL     1       0.487  18.558  -9.071  1.00  0.00     0.006 C 
BRANCH  10  11
ATOM     11  C   UNL     1      -0.160  17.660 -10.135  1.00  0.00     0.053 C 
BRANCH  11  12
ATOM     12  C   UNL     1       0.248  18.095 -11.507  1.00  0.00     0.041 C 
ATOM     13  O   UNL     1       1.399  17.826 -11.942  1.00  0.00    -0.550 OA
ATOM     14  O   UNL     1      -0.648  18.789 -12.312  1.00  0.00    -0.550 OA
ENDBRANCH  11  12
ENDBRANCH  10  11
ENDBRANCH   9  10
ENDBRANCH   8   9
ENDBRANCH   7   8
ENDBRANCH   6   7
ENDBRANCH   5   6
ENDBRANCH   4   5
ENDBRANCH   3   4
ENDBRANCH   2   3
ENDBRANCH   1   2
BRANCH   1  15
ATOM     15  C   UNL     1       2.879  21.239 -10.305  1.00  0.00     0.000 C 
BRANCH  15  16
ATOM     16  C   UNL     1       1.835  21.382 -11.423  1.00  0.00     0.000 C 
BRANCH  16  17
ATOM     17  C   UNL     1       2.463  21.121 -12.798  1.00  0.00     0.000 C 
BRANCH  17  18
ATOM     18  C   UNL     1       2.542  22.413 -13.620  1.00  0.00    -0.000 C 
BRANCH  18  19
ATOM     19  C   UNL     1       3.293  22.182 -14.940  1.00  0.00    -0.000 C 
BRANCH  19  20
ATOM     20  C   UNL     1       2.372  21.702 -16.074  1.00  0.00    -0.000 C 
BRANCH  20  21
ATOM     21  C   UNL     1       1.886  22.811 -17.029  1.00  0.00    -0.000 C 
BRANCH  21  22
ATOM     22  C   UNL     1       1.364  22.321 -18.395  1.00  0.00    -0.000 C 
BRANCH  22  23
ATOM     23  C   UNL     1       2.229  21.248 -19.080  1.00  0.00    -0.000 C 
BRANCH  23  24
ATOM     24  C   UNL     1       1.394  20.218 -19.861  1.00  0.00    -0.000 C 
BRANCH  24  25
ATOM     25  C   UNL     1       2.269  19.201 -20.611  1.00  0.00    -0.003 C 
ATOM     26  C   UNL     1       3.642  19.761 -20.986  1.00  0.00     0.004 C 
ENDBRANCH  24  25
ENDBRANCH  23  24
ENDBRANCH  22  23
ENDBRANCH  21  22
ENDBRANCH  20  21
ENDBRANCH  19  20
ENDBRANCH  18  19
ENDBRANCH  17  18
ENDBRANCH  16  17
ENDBRANCH  15  16
ENDBRANCH   1  15
TORSDOF 22
ENDMDL
MODEL 3
REMARK VINA RESULT:    -5.077      3.417     10.405
REMARK INTER + INTRA:         -14.175
REMARK INTER:                 -12.139
REMARK INTRA:                  -2.036
REMARK UNBOUND:                -2.568
REMARK SMILES CCCCCCCCCCCCCCCCCCCCCCCC(=O)[O-]
REMARK SMILES IDX 13 1 14 2 15 3 16 4 17 5 18 6 19 7 20 8 21 9 22 10 23 11
REMARK SMILES IDX 24 12 25 13 26 14 12 15 11 16 10 17 9 18 8 19 7 20 6 21 5 22
REMARK SMILES IDX 4 23 3 24 2 25 1 26
REMARK H PARENT
REMARK Flexibility Score: inf
ROOT
ATOM      1  C   UNL     1       1.397  18.253 -11.738  1.00  0.00     0.000 C 
ENDROOT
BRANCH   1   2
ATOM      2  C   UNL     1       0.259  18.503 -10.729  1.00  0.00     0.000 C 
BRANCH   2   3
ATOM      3  C   UNL     1       0.508  17.955  -9.309  1.00  0.00     0.000 C 
BRANCH   3   4
ATOM      4  C   UNL     1      -0.659  17.153  -8.703  1.00  0.00     0.000 C 
BRANCH   4   5
ATOM      5  C   UNL     1      -0.567  17.029  -7.174  1.00  0.00     0.000 C 
BRANCH   5   6
ATOM      6  C   UNL     1       0.856  17.267  -6.635  1.00  0.00     0.000 C 
BRANCH   6   7
ATOM      7  C   UNL     1       0.970  18.346  -5.543  1.00  0.00     0.000 C 
BRANCH   7   8
ATOM      8  C   UNL     1      -0.143  19.403  -5.620  1.00  0.00     0.000 C 
BRANCH   8   9
ATOM      9  C   UNL     1       0.433  20.820  -5.489  1.00  0.00     0.000 C 
BRANCH   9  10
ATOM     10  C   UNL     1       1.777  20.983  -6.219  1.00  0.00     0.006 C 
BRANCH  10  11
ATOM     11  C   UNL     1       1.606  21.255  -7.720  1.00  0.00     0.053 C 
BRANCH  11  12
ATOM     12  C   UNL     1       2.812  20.795  -8.476  1.00  0.00     0.041 C 
ATOM     13  O   UNL     1       3.247  19.623  -8.326  1.00  0.00    -0.550 OA
ATOM     14  O   UNL     1       3.451  21.660  -9.359  1.00  0.00    -0.550 OA
ENDBRANCH  11  12
ENDBRANCH  10  11
ENDBRANCH   9  10
ENDBRANCH   8   9
ENDBRANCH   7   8
ENDBRANCH   6   7
ENDBRANCH   5   6
ENDBRANCH   4   5
ENDBRANCH   3   4
ENDBRANCH   2   3
ENDBRANCH   1   2
BRANCH   1  15
ATOM     15  C   UNL     1       2.416  19.400 -11.862  1.00  0.00     0.000 C 
BRANCH  15  16
ATOM     16  C   UNL     1       2.082  20.372 -13.003  1.00  0.00     0.000 C 
BRANCH  16  17
ATOM     17  C   UNL     1       2.577  21.788 -12.682  1.00  0.00     0.000 C 
BRANCH  17  18
ATOM     18  C   UNL     1       2.634  22.650 -13.949  1.00  0.00    -0.000 C 
BRANCH  18  19
ATOM     19  C   UNL     1       3.294  21.886 -15.107  1.00  0.00    -0.000 C 
BRANCH  19  20
ATOM     20  C   UNL     1       2.443  21.895 -16.389  1.00  0.00    -0.000 C 
BRANCH  20  21
ATOM     21  C   UNL     1       2.905  22.893 -17.468  1.00  0.00    -0.000 C 
BRANCH  21  22
ATOM     22  C   UNL     1       2.303  22.673 -18.870  1.00  0.00    -0.000 C 
BRANCH  22  23
ATOM     23  C   UNL     1       1.284  21.522 -18.972  1.00  0.00    -0.000 C 
BRANCH  23  24
ATOM     24  C   UNL     1       1.819  20.321 -19.772  1.00  0.00    -0.000 C 
BRANCH  24  25
ATOM     25  C   UNL     1       2.972  20.709 -20.711  1.00  0.00    -0.003 C 
ATOM     26  C   UNL     1       3.793  19.503 -21.172  1.00  0.00     0.004 C 
ENDBRANCH  24  25
ENDBRANCH  23  24
ENDBRANCH  22  23
ENDBRANCH  21  22
ENDBRANCH  20  21
ENDBRANCH  19  20
ENDBRANCH  18  19
ENDBRANCH  17  18
ENDBRANCH  16  17
ENDBRANCH  15  16
ENDBRANCH   1  15
TORSDOF 22
ENDMDL
MODEL 4
REMARK VINA RESULT:    -5.058      1.072      2.668
REMARK INTER + INTRA:         -14.132
REMARK INTER:                 -11.723
REMARK INTRA:                  -2.409
REMARK UNBOUND:                -2.568
REMARK SMILES CCCCCCCCCCCCCCCCCCCCCCCC(=O)[O-]
REMARK SMILES IDX 13 1 14 2 15 3 16 4 17 5 18 6 19 7 20 8 21 9 22 10 23 11
REMARK SMILES IDX 24 12 25 13 26 14 12 15 11 16 10 17 9 18 8 19 7 20 6 21 5 22
REMARK SMILES IDX 4 23 3 24 2 25 1 26
REMARK H PARENT
REMARK Flexibility Score: inf
ROOT
ATOM      1  C   UNL     1       0.267  19.179 -11.984  1.00  0.00     0.000 C 
ENDROOT
BRANCH   1   2
ATOM      2  C   UNL     1       1.103  20.461 -11.798  1.00  0.00     0.000 C 
BRANCH   2   3
ATOM      3  C   UNL     1       2.427  20.501 -12.587  1.00  0.00     0.000 C 
BRANCH   3   4
ATOM      4  C   UNL     1       2.280  20.752 -14.099  1.00  0.00     0.000 C 
BRANCH   4   5
ATOM      5  C   UNL     1       2.861  22.106 -14.539  1.00  0.00     0.000 C 
BRANCH   5   6
ATOM      6  C   UNL     1       3.767  21.997 -15.779  1.00  0.00     0.000 C 
BRANCH   6   7
ATOM      7  C   UNL     1       3.221  22.676 -17.049  1.00  0.00     0.000 C 
BRANCH   7   8
ATOM      8  C   UNL     1       1.688  22.662 -17.129  1.00  0.00     0.000 C 
BRANCH   8   9
ATOM      9  C   UNL     1       1.213  22.315 -18.548  1.00  0.00     0.000 C 
BRANCH   9  10
ATOM     10  C   UNL     1       1.751  20.960 -19.037  1.00  0.00     0.006 C 
BRANCH  10  11
ATOM     11  C   UNL     1       2.652  21.092 -20.273  1.00  0.00     0.053 C 
BRANCH  11  12
ATOM     12  C   UNL     1       3.034  19.740 -20.790  1.00  0.00     0.041 C 
ATOM     13  O   UNL     1       4.145  19.568 -21.358  1.00  0.00    -0.550 OA
ATOM     14  O   UNL     1       2.166  18.665 -20.634  1.00  0.00    -0.550 OA
ENDBRANCH  11  12
ENDBRANCH  10  11
ENDBRANCH   9  10
ENDBRANCH   8   9
ENDBRANCH   7   8
ENDBRANCH   6   7
ENDBRANCH   5   6
ENDBRANCH   4   5
ENDBRANCH   3   4
ENDBRANCH   2   3
ENDBRANCH   1   2
BRANCH   1  15
ATOM     15  C   UNL     1       0.445  18.123 -10.879  1.00  0.00     0.000 C 
BRANCH  15  16
ATOM     16  C   UNL     1       0.895  18.730  -9.542  1.00  0.00     0.000 C 
BRANCH  16  17
ATOM     17  C   UNL     1       2.344  18.343  -9.222  1.00  0.00     0.000 C 
BRANCH  17  18
ATOM     18  C   UNL     1       2.956  19.305  -8.197  1.00  0.00    -0.000 C 
BRANCH  18  19
ATOM     19  C   UNL     1       3.105  20.716  -8.785  1.00  0.00    -0.000 C 
BRANCH  19  20
ATOM     20  C   UNL     1       2.208  21.751  -8.084  1.00  0.00    -0.000 C 
BRANCH  20  21
ATOM     21  C   UNL     1       1.800  21.387  -6.643  1.00  0.00    -0.000 C 
BRANCH  21  22
ATOM     22  C   UNL     1       0.314  21.025  -6.451  1.00  0.00    -0.000 C 
BRANCH  22  23
ATOM     23  C   UNL     1       0.026  20.011  -5.328  1.00  0.00    -0.000 C 
BRANCH  23  24
ATOM     24  C   UNL     1       1.178  19.015  -5.114  1.00  0.00    -0.000 C 
BRANCH  24  25
ATOM     25  C   UNL     1       0.818  17.593  -5.571  1.00  0.00    -0.003 C 
ATOM     26  C   UNL     1      -0.414  17.554  -6.477  1.00  0.00     0.004 C 
ENDBRANCH  24  25
ENDBRANCH  23  24
ENDBRANCH  22  23
ENDBRANCH  21  22
ENDBRANCH  20  21
ENDBRANCH  19  20
ENDBRANCH  18  19
ENDBRANCH  17  18
ENDBRANCH  16  17
ENDBRANCH  15  16
ENDBRANCH   1  15
TORSDOF 22
ENDMDL
MODEL 5
REMARK VINA RESULT:    -5.053      1.108      1.835
REMARK INTER + INTRA:         -14.119
REMARK INTER:                 -11.313
REMARK INTRA:                  -2.806
REMARK UNBOUND:                -2.568
REMARK SMILES CCCCCCCCCCCCCCCCCCCCCCCC(=O)[O-]
REMARK SMILES IDX 13 1 14 2 15 3 16 4 17 5 18 6 19 7 20 8 21 9 22 10 23 11
REMARK SMILES IDX 24 12 25 13 26 14 12 15 11 16 10 17 9 18 8 19 7 20 6 21 5 22
REMARK SMILES IDX 4 23 3 24 2 25 1 26
REMARK H PARENT
REMARK Flexibility Score: inf
ROOT
ATOM      1  C   UNL     1      -0.453  17.825 -11.399  1.00  0.00     0.000 C 
ENDROOT
BRANCH   1   2
ATOM      2  C   UNL     1       0.408  18.694 -12.337  1.00  0.00     0.000 C 
BRANCH   2   3
ATOM      3  C   UNL     1       0.972  19.983 -11.704  1.00  0.00     0.000 C 
BRANCH   3   4
ATOM      4  C   UNL     1       2.286  20.494 -12.322  1.00  0.00     0.000 C 
BRANCH   4   5
ATOM      5  C   UNL     1       2.318  22.024 -12.474  1.00  0.00     0.000 C 
BRANCH   5   6
ATOM      6  C   UNL     1       2.914  22.482 -13.818  1.00  0.00     0.000 C 
BRANCH   6   7
ATOM      7  C   UNL     1       2.737  21.493 -14.984  1.00  0.00     0.000 C 
BRANCH   7   8
ATOM      8  C   UNL     1       2.191  22.154 -16.259  1.00  0.00     0.000 C 
BRANCH   8   9
ATOM      9  C   UNL     1       3.331  22.513 -17.223  1.00  0.00     0.000 C 
BRANCH   9  10
ATOM     10  C   UNL     1       2.849  22.680 -18.674  1.00  0.00     0.006 C 
BRANCH  10  11
ATOM     11  C   UNL     1       1.886  21.567 -19.109  1.00  0.00     0.053 C 
BRANCH  11  12
ATOM     12  C   UNL     1       2.506  20.726 -20.181  1.00  0.00     0.041 C 
ATOM     13  O   UNL     1       3.283  21.246 -21.025  1.00  0.00    -0.550 OA
ATOM     14  O   UNL     1       2.235  19.364 -20.240  1.00  0.00    -0.550 OA
ENDBRANCH  11  12
ENDBRANCH  10  11
ENDBRANCH   9  10
ENDBRANCH   8   9
ENDBRANCH   7   8
ENDBRANCH   6   7
ENDBRANCH   5   6
ENDBRANCH   4   5
ENDBRANCH   3   4
ENDBRANCH   2   3
ENDBRANCH   1   2
BRANCH   1  15
ATOM     15  C   UNL     1       0.283  17.283 -10.161  1.00  0.00     0.000 C 
BRANCH  15  16
ATOM     16  C   UNL     1      -0.227  17.898  -8.849  1.00  0.00     0.000 C 
BRANCH  16  17
ATOM     17  C   UNL     1       0.167  17.031  -7.646  1.00  0.00     0.000 C 
BRANCH  17  18
ATOM     18  C   UNL     1      -0.366  17.630  -6.340  1.00  0.00    -0.000 C 
BRANCH  18  19
ATOM     19  C   UNL     1       0.679  18.546  -5.685  1.00  0.00    -0.000 C 
BRANCH  19  20
ATOM     20  C   UNL     1       0.129  19.947  -5.366  1.00  0.00    -0.000 C 
BRANCH  20  21
ATOM     21  C   UNL     1       0.880  21.109  -6.045  1.00  0.00    -0.000 C 
BRANCH  21  22
ATOM     22  C   UNL     1       0.904  21.066  -7.586  1.00  0.00    -0.000 C 
BRANCH  22  23
ATOM     23  C   UNL     1       2.064  21.835  -8.245  1.00  0.00    -0.000 C 
BRANCH  23  24
ATOM     24  C   UNL     1       3.234  20.921  -8.647  1.00  0.00    -0.000 C 
BRANCH  24  25
ATOM     25  C   UNL     1       2.898  19.430  -8.481  1.00  0.00    -0.003 C 
ATOM     26  C   UNL     1       3.637  18.540  -9.481  1.00  0.00     0.004 C 
ENDBRANCH  24  25
ENDBRANCH  23  24
ENDBRANCH  22  23
ENDBRANCH  21  22
ENDBRANCH  20  21
ENDBRANCH  19  20
ENDBRANCH  18  19
ENDBRANCH  17  18
ENDBRANCH  16  17
ENDBRANCH  15  16
ENDBRANCH   1  15
TORSDOF 22
ENDMDL
MODEL 6
REMARK VINA RESULT:    -4.986      3.757     10.815
REMARK INTER + INTRA:         -13.968
REMARK INTER:                 -11.808
REMARK INTRA:                  -2.160
REMARK UNBOUND:                -2.568
REMARK SMILES CCCCCCCCCCCCCCCCCCCCCCCC(=O)[O-]
REMARK SMILES IDX 13 1 14 2 15 3 16 4 17 5 18 6 19 7 20 8 21 9 22 10 23 11
REMARK SMILES IDX 24 12 25 13 26 14 12 15 11 16 10 17 9 18 8 19 7 20 6 21 5 22
REMARK SMILES IDX 4 23 3 24 2 25 1 26
REMARK H PARENT
REMARK Flexibility Score: inf
ROOT
ATOM      1  C   UNL     1       2.143  20.146 -12.041  1.00  0.00     0.000 C 
ENDROOT
BRANCH   1   2
ATOM      2  C   UNL     1       1.077  19.321 -11.292  1.00  0.00     0.000 C 
BRANCH   2   3
ATOM      3  C   UNL     1       1.544  18.699  -9.961  1.00  0.00     0.000 C 
BRANCH   3   4
ATOM      4  C   UNL     1       3.063  18.747  -9.713  1.00  0.00     0.000 C 
BRANCH   4   5
ATOM      5  C   UNL     1       3.525  17.746  -8.641  1.00  0.00     0.000 C 
BRANCH   5   6
ATOM      6  C   UNL     1       2.382  17.286  -7.716  1.00  0.00     0.000 C 
BRANCH   6   7
ATOM      7  C   UNL     1       2.627  17.510  -6.213  1.00  0.00     0.000 C 
BRANCH   7   8
ATOM      8  C   UNL     1       1.393  18.051  -5.475  1.00  0.00     0.000 C 
BRANCH   8   9
ATOM      9  C   UNL     1       0.494  18.857  -6.423  1.00  0.00     0.000 C 
BRANCH   9  10
ATOM     10  C   UNL     1       0.130  20.241  -5.861  1.00  0.00     0.006 C 
BRANCH  10  11
ATOM     11  C   UNL     1       1.340  21.182  -5.773  1.00  0.00     0.053 C 
BRANCH  11  12
ATOM     12  C   UNL     1       1.999  21.315  -7.110  1.00  0.00     0.041 C 
ATOM     13  O   UNL     1       3.214  21.014  -7.252  1.00  0.00    -0.550 OA
ATOM     14  O   UNL     1       1.266  21.760  -8.205  1.00  0.00    -0.550 OA
ENDBRANCH  11  12
ENDBRANCH  10  11
ENDBRANCH   9  10
ENDBRANCH   8   9
ENDBRANCH   7   8
ENDBRANCH   6   7
ENDBRANCH   5   6
ENDBRANCH   4   5
ENDBRANCH   3   4
ENDBRANCH   2   3
ENDBRANCH   1   2
BRANCH   1  15
ATOM     15  C   UNL     1       2.140  21.651 -11.720  1.00  0.00     0.000 C 
BRANCH  15  16
ATOM     16  C   UNL     1       2.575  22.515 -12.913  1.00  0.00     0.000 C 
BRANCH  16  17
ATOM     17  C   UNL     1       2.925  21.644 -14.126  1.00  0.00     0.000 C 
BRANCH  17  18
ATOM     18  C   UNL     1       2.531  22.341 -15.433  1.00  0.00    -0.000 C 
BRANCH  18  19
ATOM     19  C   UNL     1       3.614  22.155 -16.506  1.00  0.00    -0.000 C 
BRANCH  19  20
ATOM     20  C   UNL     1       3.323  22.949 -17.791  1.00  0.00    -0.000 C 
BRANCH  20  21
ATOM     21  C   UNL     1       1.835  23.267 -18.035  1.00  0.00    -0.000 C 
BRANCH  21  22
ATOM     22  C   UNL     1       1.051  22.193 -18.816  1.00  0.00    -0.000 C 
BRANCH  22  23
ATOM     23  C   UNL     1       1.880  21.388 -19.834  1.00  0.00    -0.000 C 
BRANCH  23  24
ATOM     24  C   UNL     1       1.605  19.876 -19.765  1.00  0.00    -0.000 C 
BRANCH  24  25
ATOM     25  C   UNL     1       2.554  19.065 -20.660  1.00  0.00    -0.003 C 
ATOM     26  C   UNL     1       3.714  19.900 -21.207  1.00  0.00     0.004 C 
ENDBRANCH  24  25
ENDBRANCH  23  24
ENDBRANCH  22  23
ENDBRANCH  21  22
ENDBRANCH  20  21
ENDBRANCH  19  20
ENDBRANCH  18  19
ENDBRANCH  17  18
ENDBRANCH  16  17
ENDBRANCH  15  16
ENDBRANCH   1  15
TORSDOF 22
ENDMDL
MODEL 7
REMARK VINA RESULT:    -4.872      0.990      2.947
REMARK INTER + INTRA:         -13.707
REMARK INTER:                 -11.049
REMARK INTRA:                  -2.658
REMARK UNBOUND:                -2.568
REMARK SMILES CCCCCCCCCCCCCCCCCCCCCCCC(=O)[O-]
REMARK SMILES IDX 13 1 14 2 15 3 16 4 17 5 18 6 19 7 20 8 21 9 22 10 23 11
REMARK SMILES IDX 24 12 25 13 26 14 12 15 11 16 10 17 9 18 8 19 7 20 6 21 5 22
REMARK SMILES IDX 4 23 3 24 2 25 1 26
REMARK H PARENT
REMARK Flexibility Score: inf
ROOT
ATOM      1  C   UNL     1       2.704  21.541  -9.087  1.00  0.00     0.000 C 
ENDROOT
BRANCH   1   2
ATOM      2  C   UNL     1       2.601  21.670 -10.619  1.00  0.00     0.000 C 
BRANCH   2   3
ATOM      3  C   UNL     1       1.721  20.610 -11.311  1.00  0.00     0.000 C 
BRANCH   3   4
ATOM      4  C   UNL     1       2.115  20.278 -12.762  1.00  0.00     0.000 C 
BRANCH   4   5
ATOM      5  C   UNL     1       2.656  21.497 -13.527  1.00  0.00     0.000 C 
BRANCH   5   6
ATOM      6  C   UNL     1       2.615  21.315 -15.056  1.00  0.00     0.000 C 
BRANCH   6   7
ATOM      7  C   UNL     1       3.271  22.447 -15.867  1.00  0.00     0.000 C 
BRANCH   7   8
ATOM      8  C   UNL     1       3.051  22.309 -17.381  1.00  0.00     0.000 C 
BRANCH   8   9
ATOM      9  C   UNL     1       1.604  22.654 -17.761  1.00  0.00     0.000 C 
BRANCH   9  10
ATOM     10  C   UNL     1       1.154  21.970 -19.063  1.00  0.00     0.006 C 
BRANCH  10  11
ATOM     11  C   UNL     1       1.687  20.537 -19.194  1.00  0.00     0.053 C 
BRANCH  11  12
ATOM     12  C   UNL     1       2.554  20.408 -20.407  1.00  0.00     0.041 C 
ATOM     13  O   UNL     1       3.172  21.411 -20.854  1.00  0.00    -0.550 OA
ATOM     14  O   UNL     1       2.691  19.176 -21.036  1.00  0.00    -0.550 OA
ENDBRANCH  11  12
ENDBRANCH  10  11
ENDBRANCH   9  10
ENDBRANCH   8   9
ENDBRANCH   7   8
ENDBRANCH   6   7
ENDBRANCH   5   6
ENDBRANCH   4   5
ENDBRANCH   3   4
ENDBRANCH   2   3
ENDBRANCH   1   2
BRANCH   1  15
ATOM     15  C   UNL     1       1.383  21.196  -8.377  1.00  0.00     0.000 C 
BRANCH  15  16
ATOM     16  C   UNL     1       1.434  21.454  -6.863  1.00  0.00     0.000 C 
BRANCH  16  17
ATOM     17  C   UNL     1       0.168  20.933  -6.173  1.00  0.00     0.000 C 
BRANCH  17  18
ATOM     18  C   UNL     1       0.520  20.101  -4.935  1.00  0.00    -0.000 C 
BRANCH  18  19
ATOM     19  C   UNL     1       1.953  19.556  -5.026  1.00  0.00    -0.000 C 
BRANCH  19  20
ATOM     20  C   UNL     1       2.011  18.116  -5.565  1.00  0.00    -0.000 C 
BRANCH  20  21
ATOM     21  C   UNL     1       2.877  17.929  -6.826  1.00  0.00    -0.000 C 
BRANCH  21  22
ATOM     22  C   UNL     1       2.097  17.626  -8.122  1.00  0.00    -0.000 C 
BRANCH  22  23
ATOM     23  C   UNL     1       0.563  17.662  -7.986  1.00  0.00    -0.000 C 
BRANCH  23  24
ATOM     24  C   UNL     1      -0.154  17.724  -9.346  1.00  0.00    -0.000 C 
BRANCH  24  25
ATOM     25  C   UNL     1       0.714  17.181 -10.492  1.00  0.00    -0.003 C 
ATOM     26  C   UNL     1       0.045  17.320 -11.861  1.00  0.00     0.004 C 
ENDBRANCH  24  25
ENDBRANCH  23  24
ENDBRANCH  22  23
ENDBRANCH  21  22
ENDBRANCH  20  21
ENDBRANCH  19  20
ENDBRANCH  18  19
ENDBRANCH  17  18
ENDBRANCH  16  17
ENDBRANCH  15  16
ENDBRANCH   1  15
TORSDOF 22
ENDMDL
MODEL 8
REMARK VINA RESULT:    -4.869      9.732     13.365
REMARK INTER + INTRA:         -13.700
REMARK INTER:                 -10.223
REMARK INTRA:                  -3.478
REMARK UNBOUND:                -2.568
REMARK SMILES CCCCCCCCCCCCCCCCCCCCCCCC(=O)[O-]
REMARK SMILES IDX 13 1 14 2 15 3 16 4 17 5 18 6 19 7 20 8 21 9 22 10 23 11
REMARK SMILES IDX 24 12 25 13 26 14 12 15 11 16 10 17 9 18 8 19 7 20 6 21 5 22
REMARK SMILES IDX 4 23 3 24 2 25 1 26
REMARK H PARENT
REMARK Flexibility Score: inf
ROOT
ATOM      1  C   UNL     1       7.178  29.243 -15.115  1.00  0.00     0.000 C 
ENDROOT
BRANCH   1   2
ATOM      2  C   UNL     1       7.025  28.108 -14.082  1.00  0.00     0.000 C 
BRANCH   2   3
ATOM      3  C   UNL     1       7.730  28.350 -12.732  1.00  0.00     0.000 C 
BRANCH   3   4
ATOM      4  C   UNL     1       8.810  29.447 -12.745  1.00  0.00     0.000 C 
BRANCH   4   5
ATOM      5  C   UNL     1      10.235  28.881 -12.863  1.00  0.00     0.000 C 
BRANCH   5   6
ATOM      6  C   UNL     1      10.775  28.905 -14.305  1.00  0.00     0.000 C 
BRANCH   6   7
ATOM      7  C   UNL     1      10.843  27.534 -15.001  1.00  0.00     0.000 C 
BRANCH   7   8
ATOM      8  C   UNL     1      10.738  26.355 -14.023  1.00  0.00     0.000 C 
BRANCH   8   9
ATOM      9  C   UNL     1      10.184  25.105 -14.723  1.00  0.00     0.000 C 
BRANCH   9  10
ATOM     10  C   UNL     1       9.258  24.279 -13.815  1.00  0.00     0.006 C 
BRANCH  10  11
ATOM     11  C   UNL     1       9.035  24.933 -12.445  1.00  0.00     0.053 C 
BRANCH  11  12
ATOM     12  C   UNL     1       7.708  24.531 -11.882  1.00  0.00     0.041 C 
ATOM     13  O   UNL     1       7.639  23.973 -10.755  1.00  0.00    -0.550 OA
ATOM     14  O   UNL     1       6.543  24.784 -12.598  1.00  0.00    -0.550 OA
ENDBRANCH  11  12
ENDBRANCH  10  11
ENDBRANCH   9  10
ENDBRANCH   8   9
ENDBRANCH   7   8
ENDBRANCH   6   7
ENDBRANCH   5   6
ENDBRANCH   4   5
ENDBRANCH   3   4
ENDBRANCH   2   3
ENDBRANCH   1   2
BRANCH   1  15
ATOM     15  C   UNL     1       6.015  30.251 -15.146  1.00  0.00     0.000 C 
BRANCH  15  16
ATOM     16  C   UNL     1       6.197  31.338 -16.216  1.00  0.00     0.000 C 
BRANCH  16  17
ATOM     17  C   UNL     1       6.355  32.721 -15.574  1.00  0.00     0.000 C 
BRANCH  17  18
ATOM     18  C   UNL     1       5.202  33.648 -15.978  1.00  0.00    -0.000 C 
BRANCH  18  19
ATOM     19  C   UNL     1       3.944  33.360 -15.146  1.00  0.00    -0.000 C 
BRANCH  19  20
ATOM     20  C   UNL     1       3.523  34.551 -14.268  1.00  0.00    -0.000 C 
BRANCH  20  21
ATOM     21  C   UNL     1       4.649  35.145 -13.398  1.00  0.00    -0.000 C 
BRANCH  21  22
ATOM     22  C   UNL     1       4.382  35.137 -11.880  1.00  0.00    -0.000 C 
BRANCH  22  23
ATOM     23  C   UNL     1       5.228  34.136 -11.071  1.00  0.00    -0.000 C 
BRANCH  23  24
ATOM     24  C   UNL     1       5.024  32.680 -11.524  1.00  0.00    -0.000 C 
BRANCH  24  25
ATOM     25  C   UNL     1       6.331  32.024 -11.996  1.00  0.00    -0.003 C 
ATOM     26  C   UNL     1       7.531  32.971 -11.925  1.00  0.00     0.004 C 
ENDBRANCH  24  25
ENDBRANCH  23  24
ENDBRANCH  22  23
ENDBRANCH  21  22
ENDBRANCH  20  21
ENDBRANCH  19  20
ENDBRANCH  18  19
ENDBRANCH  17  18
ENDBRANCH  16  17
ENDBRANCH  15  16
ENDBRANCH   1  15
TORSDOF 22
ENDMDL
MODEL 9
REMARK VINA RESULT:    -4.757      9.810     13.018
REMARK INTER + INTRA:         -13.442
REMARK INTER:                 -10.687
REMARK INTRA:                  -2.756
REMARK UNBOUND:                -2.568
REMARK SMILES CCCCCCCCCCCCCCCCCCCCCCCC(=O)[O-]
REMARK SMILES IDX 13 1 14 2 15 3 16 4 17 5 18 6 19 7 20 8 21 9 22 10 23 11
REMARK SMILES IDX 24 12 25 13 26 14 12 15 11 16 10 17 9 18 8 19 7 20 6 21 5 22
REMARK SMILES IDX 4 23 3 24 2 25 1 26
REMARK H PARENT
REMARK Flexibility Score: inf
ROOT
ATOM      1  C   UNL     1       6.882  29.211 -14.955  1.00  0.00     0.000 C 
ENDROOT
BRANCH   1   2
ATOM      2  C   UNL     1       6.823  28.019 -13.980  1.00  0.00     0.000 C 
BRANCH   2   3
ATOM      3  C   UNL     1       7.650  28.185 -12.689  1.00  0.00     0.000 C 
BRANCH   3   4
ATOM      4  C   UNL     1       8.606  29.391 -12.675  1.00  0.00     0.000 C 
BRANCH   4   5
ATOM      5  C   UNL     1      10.068  28.998 -12.944  1.00  0.00     0.000 C 
BRANCH   5   6
ATOM      6  C   UNL     1      10.415  28.962 -14.444  1.00  0.00     0.000 C 
BRANCH   6   7
ATOM      7  C   UNL     1      10.925  27.605 -14.964  1.00  0.00     0.000 C 
BRANCH   7   8
ATOM      8  C   UNL     1      10.716  26.458 -13.964  1.00  0.00     0.000 C 
BRANCH   8   9
ATOM      9  C   UNL     1      10.333  25.159 -14.688  1.00  0.00     0.000 C 
BRANCH   9  10
ATOM     10  C   UNL     1       9.349  24.298 -13.879  1.00  0.00     0.006 C 
BRANCH  10  11
ATOM     11  C   UNL     1       9.233  24.749 -12.416  1.00  0.00     0.053 C 
BRANCH  11  12
ATOM     12  C   UNL     1       7.892  24.384 -11.860  1.00  0.00     0.041 C 
ATOM     13  O   UNL     1       6.847  24.593 -12.533  1.00  0.00    -0.550 OA
ATOM     14  O   UNL     1       7.796  23.800 -10.602  1.00  0.00    -0.550 OA
ENDBRANCH  11  12
ENDBRANCH  10  11
ENDBRANCH   9  10
ENDBRANCH   8   9
ENDBRANCH   7   8
ENDBRANCH   6   7
ENDBRANCH   5   6
ENDBRANCH   4   5
ENDBRANCH   3   4
ENDBRANCH   2   3
ENDBRANCH   1   2
BRANCH   1  15
ATOM     15  C   UNL     1       5.611  30.078 -14.997  1.00  0.00     0.000 C 
BRANCH  15  16
ATOM     16  C   UNL     1       5.875  31.499 -15.516  1.00  0.00     0.000 C 
BRANCH  16  17
ATOM     17  C   UNL     1       7.234  32.018 -15.032  1.00  0.00     0.000 C 
BRANCH  17  18
ATOM     18  C   UNL     1       7.183  33.529 -14.772  1.00  0.00    -0.000 C 
BRANCH  18  19
ATOM     19  C   UNL     1       6.324  33.848 -13.540  1.00  0.00    -0.000 C 
BRANCH  19  20
ATOM     20  C   UNL     1       6.791  33.103 -12.277  1.00  0.00    -0.000 C 
BRANCH  20  21
ATOM     21  C   UNL     1       5.679  32.354 -11.517  1.00  0.00    -0.000 C 
BRANCH  21  22
ATOM     22  C   UNL     1       4.937  33.184 -10.449  1.00  0.00    -0.000 C 
BRANCH  22  23
ATOM     23  C   UNL     1       5.783  33.582  -9.226  1.00  0.00    -0.000 C 
BRANCH  23  24
ATOM     24  C   UNL     1       5.153  33.138  -7.895  1.00  0.00    -0.000 C 
BRANCH  24  25
ATOM     25  C   UNL     1       4.029  34.079  -7.434  1.00  0.00    -0.003 C 
ATOM     26  C   UNL     1       4.426  34.929  -6.225  1.00  0.00     0.004 C 
ENDBRANCH  24  25
ENDBRANCH  23  24
ENDBRANCH  22  23
ENDBRANCH  21  22
ENDBRANCH  20  21
ENDBRANCH  19  20
ENDBRANCH  18  19
ENDBRANCH  17  18
ENDBRANCH  16  17
ENDBRANCH  15  16
ENDBRANCH   1  15
TORSDOF 22
ENDMDL
