MODEL 1
REMARK VINA RESULT:    -3.170      0.000      0.000
REMARK INTER + INTRA:          -5.053
REMARK INTER:                  -4.837
REMARK INTRA:                  -0.215
REMARK UNBOUND:                -0.215
REMARK SMILES CC1=CCC[C@@H](C)C(=O)C[C@H](C(C)C)C(=O)C1
REMARK SMILES IDX 8 1 9 2 6 3 7 4 5 5 4 6 3 7 2 8 1 9 10 11 11 12 15 13 16 14
REMARK SMILES IDX 17 15 12 17 13 18 14 19
REMARK H PARENT
REMARK Flexibility Score: 70.00
ROOT
ATOM      1  C   UNL     1      17.787 -43.610  -6.084  1.00  0.00     0.136 C 
ATOM      2  O   UNL     1      18.094 -43.481  -4.906  1.00  0.00    -0.299 OA
ENDROOT
BRANCH   1   3
ATOM      3  C   UNL     1      16.330 -43.590  -6.484  1.00  0.00     0.053 C 
ATOM      4  C   UNL     1      15.727 -44.994  -6.356  1.00  0.00     0.016 C 
BRANCH   3   5
ATOM      5  C   UNL     1      16.145 -43.047  -7.914  1.00  0.00     0.015 C 
BRANCH   5   6
ATOM      6  C   UNL     1      15.704 -44.133  -8.917  1.00  0.00     0.028 C 
BRANCH   6   7
ATOM      7  C   UNL     1      16.662 -44.236 -10.082  1.00  0.00    -0.028 C 
ATOM      8  C   UNL     1      17.723 -45.069 -10.205  1.00  0.00    -0.070 CG0
ATOM      9  C   UNL     1      18.570 -44.933 -11.447  1.00  0.00     0.039 C 
ATOM     10  G   UNL     1      18.113 -46.131  -9.190  1.00  0.00     0.000 G0
ENDBRANCH   6   7
ENDBRANCH   5   6
ENDBRANCH   3   5
ENDBRANCH   1   3
BRANCH   1  11
ATOM     11  C   UNL     1      18.857 -43.706  -7.147  1.00  0.00     0.087 C 
BRANCH  11  12
ATOM     12  C   UNL     1      19.573 -45.081  -7.184  1.00  0.00     0.066 C 
BRANCH  12  13
ATOM     13  C   UNL     1      19.447 -45.802  -8.519  1.00  0.00     0.140 C 
ATOM     14  O   UNL     1      20.476 -46.074  -9.121  1.00  0.00    -0.299 OA
BRANCH  13  15
ATOM     15  C   UNL     1      18.121 -46.119  -9.176  1.00  0.00     0.106 CG0
ATOM     16  G   UNL     1      17.752 -45.063 -10.206  1.00  0.00     0.000 G0
ENDBRANCH  13  15
ENDBRANCH  12  13
BRANCH  12  17
ATOM     17  C   UNL     1      21.059 -45.038  -6.710  1.00  0.00    -0.006 C 
ATOM     18  C   UNL     1      21.214 -45.499  -5.253  1.00  0.00     0.008 C 
ATOM     19  C   UNL     1      21.737 -43.671  -6.904  1.00  0.00     0.008 C 
ENDBRANCH  12  17
ENDBRANCH  11  12
ENDBRANCH   1  11
TORSDOF 1
ENDMDL
MODEL 2
REMARK VINA RESULT:    -3.015     12.360     15.102
REMARK INTER + INTRA:          -4.817
REMARK INTER:                  -4.500
REMARK INTRA:                  -0.317
REMARK UNBOUND:                -0.215
REMARK SMILES CC1=CCC[C@@H](C)C(=O)C[C@H](C(C)C)C(=O)C1
REMARK SMILES IDX 8 1 9 2 6 3 7 4 5 5 4 6 3 7 2 8 1 9 10 11 11 12 15 13 16 14
REMARK SMILES IDX 17 15 12 17 13 18 14 19
REMARK H PARENT
REMARK Flexibility Score: 70.00
ROOT
ATOM      1  C   UNL     1      27.028 -43.932 -18.254  1.00  0.00     0.136 C 
ATOM      2  O   UNL     1      26.749 -43.827 -17.066  1.00  0.00    -0.299 OA
ENDROOT
BRANCH   1   3
ATOM      3  C   UNL     1      28.475 -43.893 -18.689  1.00  0.00     0.053 C 
ATOM      4  C   UNL     1      29.257 -45.033 -18.025  1.00  0.00     0.016 C 
BRANCH   3   5
ATOM      5  C   UNL     1      29.122 -42.531 -18.371  1.00  0.00     0.015 C 
BRANCH   5   6
ATOM      6  C   UNL     1      28.732 -41.430 -19.380  1.00  0.00     0.028 C 
BRANCH   6   7
ATOM      7  C   UNL     1      28.668 -41.968 -20.791  1.00  0.00    -0.028 C 
ATOM      8  C   UNL     1      27.603 -41.963 -21.628  1.00  0.00    -0.070 CG0
ATOM      9  C   UNL     1      27.775 -42.623 -22.974  1.00  0.00     0.039 C 
ATOM     10  G   UNL     1      26.256 -41.332 -21.311  1.00  0.00     0.000 G0
ENDBRANCH   6   7
ENDBRANCH   5   6
ENDBRANCH   3   5
ENDBRANCH   1   3
BRANCH   1  11
ATOM     11  C   UNL     1      25.942 -44.183 -19.275  1.00  0.00     0.087 C 
BRANCH  11  12
ATOM     12  C   UNL     1      25.050 -42.945 -19.548  1.00  0.00     0.066 C 
BRANCH  12  13
ATOM     13  C   UNL     1      25.205 -42.375 -20.951  1.00  0.00     0.140 C 
ATOM     14  O   UNL     1      24.496 -42.833 -21.836  1.00  0.00    -0.299 OA
BRANCH  13  15
ATOM     15  C   UNL     1      26.245 -41.340 -21.324  1.00  0.00     0.106 CG0
ATOM     16  G   UNL     1      27.582 -41.993 -21.636  1.00  0.00     0.000 G0
ENDBRANCH  13  15
ENDBRANCH  12  13
BRANCH  12  17
ATOM     17  C   UNL     1      23.544 -43.155 -19.194  1.00  0.00    -0.006 C 
ATOM     18  C   UNL     1      23.097 -42.259 -18.028  1.00  0.00     0.008 C 
ATOM     19  C   UNL     1      23.168 -44.618 -18.907  1.00  0.00     0.008 C 
ENDBRANCH  12  17
ENDBRANCH  11  12
ENDBRANCH   1  11
TORSDOF 1
ENDMDL
MODEL 3
REMARK VINA RESULT:    -3.011     13.230     15.192
REMARK INTER + INTRA:          -4.810
REMARK INTER:                  -4.457
REMARK INTRA:                  -0.353
REMARK UNBOUND:                -0.215
REMARK SMILES CC1=CCC[C@@H](C)C(=O)C[C@H](C(C)C)C(=O)C1
REMARK SMILES IDX 8 1 9 2 6 3 7 4 5 5 4 6 3 7 2 8 1 9 10 11 11 12 15 13 16 14
REMARK SMILES IDX 17 15 12 17 13 18 14 19
REMARK H PARENT
REMARK Flexibility Score: 70.00
ROOT
ATOM      1  C   UNL     1      25.248 -43.761 -19.083  1.00  0.00     0.136 C 
ATOM      2  O   UNL     1      24.959 -44.756 -18.431  1.00  0.00    -0.299 OA
ENDROOT
BRANCH   1   3
ATOM      3  C   UNL     1      24.305 -43.271 -20.158  1.00  0.00     0.053 C 
ATOM      4  C   UNL     1      22.945 -42.915 -19.545  1.00  0.00     0.016 C 
BRANCH   3   5
ATOM      5  C   UNL     1      24.141 -44.312 -21.281  1.00  0.00     0.015 C 
BRANCH   5   6
ATOM      6  C   UNL     1      25.401 -44.448 -22.163  1.00  0.00     0.028 C 
BRANCH   6   7
ATOM      7  C   UNL     1      25.857 -43.107 -22.690  1.00  0.00    -0.028 C 
ATOM      8  C   UNL     1      27.083 -42.545 -22.563  1.00  0.00    -0.070 CG0
ATOM      9  C   UNL     1      27.272 -41.158 -23.127  1.00  0.00     0.039 C 
ATOM     10  G   UNL     1      28.278 -43.215 -21.905  1.00  0.00     0.000 G0
ENDBRANCH   6   7
ENDBRANCH   5   6
ENDBRANCH   3   5
ENDBRANCH   1   3
BRANCH   1  11
ATOM     11  C   UNL     1      26.499 -42.974 -18.765  1.00  0.00     0.087 C 
BRANCH  11  12
ATOM     12  C   UNL     1      27.794 -43.618 -19.323  1.00  0.00     0.066 C 
BRANCH  12  13
ATOM     13  C   UNL     1      28.431 -42.828 -20.458  1.00  0.00     0.140 C 
ATOM     14  O   UNL     1      29.014 -41.790 -20.176  1.00  0.00    -0.299 OA
BRANCH  13  15
ATOM     15  C   UNL     1      28.305 -43.211 -21.917  1.00  0.00     0.106 CG0
ATOM     16  G   UNL     1      27.091 -42.555 -22.554  1.00  0.00     0.000 G0
ENDBRANCH  13  15
ENDBRANCH  12  13
BRANCH  12  17
ATOM     17  C   UNL     1      28.850 -43.974 -18.229  1.00  0.00    -0.006 C 
ATOM     18  C   UNL     1      28.998 -45.492 -18.044  1.00  0.00     0.008 C 
ATOM     19  C   UNL     1      28.594 -43.301 -16.871  1.00  0.00     0.008 C 
ENDBRANCH  12  17
ENDBRANCH  11  12
ENDBRANCH   1  11
TORSDOF 1
ENDMDL
MODEL 4
REMARK VINA RESULT:    -2.871     14.716     16.502
REMARK INTER + INTRA:          -4.597
REMARK INTER:                  -4.278
REMARK INTRA:                  -0.319
REMARK UNBOUND:                -0.215
REMARK SMILES CC1=CCC[C@@H](C)C(=O)C[C@H](C(C)C)C(=O)C1
REMARK SMILES IDX 8 1 9 2 6 3 7 4 5 5 4 6 3 7 2 8 1 9 10 11 11 12 15 13 16 14
REMARK SMILES IDX 17 15 12 17 13 18 14 19
REMARK H PARENT
REMARK Flexibility Score: 70.00
ROOT
ATOM      1  C   UNL     1      25.154 -31.363 -11.885  1.00  0.00     0.136 C 
ATOM      2  O   UNL     1      24.324 -30.497 -11.638  1.00  0.00    -0.299 OA
ENDROOT
BRANCH   1   3
ATOM      3  C   UNL     1      25.750 -32.173 -10.756  1.00  0.00     0.053 C 
ATOM      4  C   UNL     1      24.641 -32.673  -9.823  1.00  0.00     0.016 C 
BRANCH   3   5
ATOM      5  C   UNL     1      26.797 -31.360  -9.971  1.00  0.00     0.015 C 
BRANCH   5   6
ATOM      6  C   UNL     1      28.246 -31.674 -10.400  1.00  0.00     0.028 C 
BRANCH   6   7
ATOM      7  C   UNL     1      28.427 -33.141 -10.715  1.00  0.00    -0.028 C 
ATOM      8  C   UNL     1      28.764 -33.694 -11.905  1.00  0.00    -0.070 CG0
ATOM      9  C   UNL     1      28.819 -35.200 -11.979  1.00  0.00     0.039 C 
ATOM     10  G   UNL     1      29.098 -32.906 -13.162  1.00  0.00     0.000 G0
ENDBRANCH   6   7
ENDBRANCH   5   6
ENDBRANCH   3   5
ENDBRANCH   1   3
BRANCH   1  11
ATOM     11  C   UNL     1      25.524 -31.681 -13.316  1.00  0.00     0.087 C 
BRANCH  11  12
ATOM     12  C   UNL     1      26.994 -31.334 -13.668  1.00  0.00     0.066 C 
BRANCH  12  13
ATOM     13  C   UNL     1      27.856 -32.552 -13.968  1.00  0.00     0.140 C 
ATOM     14  O   UNL     1      27.474 -33.323 -14.837  1.00  0.00    -0.299 OA
BRANCH  13  15
ATOM     15  C   UNL     1      29.107 -32.903 -13.192  1.00  0.00     0.106 CG0
ATOM     16  G   UNL     1      28.771 -33.679 -11.929  1.00  0.00     0.000 G0
ENDBRANCH  13  15
ENDBRANCH  12  13
BRANCH  12  17
ATOM     17  C   UNL     1      27.143 -30.255 -14.786  1.00  0.00    -0.006 C 
ATOM     18  C   UNL     1      28.464 -29.479 -14.666  1.00  0.00     0.008 C 
ATOM     19  C   UNL     1      25.962 -29.273 -14.868  1.00  0.00     0.008 C 
ENDBRANCH  12  17
ENDBRANCH  11  12
ENDBRANCH   1  11
TORSDOF 1
ENDMDL
MODEL 5
REMARK VINA RESULT:    -2.868      2.038      4.362
REMARK INTER + INTRA:          -4.592
REMARK INTER:                  -4.270
REMARK INTRA:                  -0.322
REMARK UNBOUND:                -0.215
REMARK SMILES CC1=CCC[C@@H](C)C(=O)C[C@H](C(C)C)C(=O)C1
REMARK SMILES IDX 8 1 9 2 6 3 7 4 5 5 4 6 3 7 2 8 1 9 10 11 11 12 15 13 16 14
REMARK SMILES IDX 17 15 12 17 13 18 14 19
REMARK H PARENT
REMARK Flexibility Score: 70.00
ROOT
ATOM      1  C   UNL     1      17.072 -42.162  -9.791  1.00  0.00     0.136 C 
ATOM      2  O   UNL     1      16.229 -41.487 -10.367  1.00  0.00    -0.299 OA
ENDROOT
BRANCH   1   3
ATOM      3  C   UNL     1      18.086 -42.941 -10.599  1.00  0.00     0.053 C 
ATOM      4  C   UNL     1      18.722 -42.036 -11.661  1.00  0.00     0.016 C 
BRANCH   3   5
ATOM      5  C   UNL     1      17.452 -44.184 -11.251  1.00  0.00     0.015 C 
BRANCH   5   6
ATOM      6  C   UNL     1      17.793 -45.493 -10.507  1.00  0.00     0.028 C 
BRANCH   6   7
ATOM      7  C   UNL     1      19.145 -45.414  -9.837  1.00  0.00    -0.028 C 
ATOM      8  C   UNL     1      19.407 -45.418  -8.508  1.00  0.00    -0.070 CG0
ATOM      9  C   UNL     1      20.848 -45.264  -8.086  1.00  0.00     0.039 C 
ATOM     10  G   UNL     1      18.359 -45.574  -7.418  1.00  0.00     0.000 G0
ENDBRANCH   6   7
ENDBRANCH   5   6
ENDBRANCH   3   5
ENDBRANCH   1   3
BRANCH   1  11
ATOM     11  C   UNL     1      17.157 -42.157  -8.282  1.00  0.00     0.087 C 
BRANCH  11  12
ATOM     12  C   UNL     1      16.702 -43.488  -7.631  1.00  0.00     0.066 C 
BRANCH  12  13
ATOM     13  C   UNL     1      17.825 -44.246  -6.936  1.00  0.00     0.140 C 
ATOM     14  O   UNL     1      18.368 -43.713  -5.979  1.00  0.00    -0.299 OA
BRANCH  13  15
ATOM     15  C   UNL     1      18.358 -45.577  -7.419  1.00  0.00     0.106 CG0
ATOM     16  G   UNL     1      19.404 -45.388  -8.506  1.00  0.00     0.000 G0
ENDBRANCH  13  15
ENDBRANCH  12  13
BRANCH  12  17
ATOM     17  C   UNL     1      15.461 -43.346  -6.695  1.00  0.00    -0.006 C 
ATOM     18  C   UNL     1      15.041 -44.693  -6.086  1.00  0.00     0.008 C 
ATOM     19  C   UNL     1      14.250 -42.670  -7.359  1.00  0.00     0.008 C 
ENDBRANCH  12  17
ENDBRANCH  11  12
ENDBRANCH   1  11
TORSDOF 1
ENDMDL
MODEL 6
REMARK VINA RESULT:    -2.841     12.367     14.866
REMARK INTER + INTRA:          -4.552
REMARK INTER:                  -4.397
REMARK INTRA:                  -0.155
REMARK UNBOUND:                -0.215
REMARK SMILES CC1=CCC[C@@H](C)C(=O)C[C@H](C(C)C)C(=O)C1
REMARK SMILES IDX 8 1 9 2 6 3 7 4 5 5 4 6 3 7 2 8 1 9 10 11 11 12 15 13 16 14
REMARK SMILES IDX 17 15 12 17 13 18 14 19
REMARK H PARENT
REMARK Flexibility Score: 70.00
ROOT
ATOM      1  C   UNL     1      29.000 -42.862 -18.609  1.00  0.00     0.136 C 
ATOM      2  O   UNL     1      29.355 -41.941 -17.885  1.00  0.00    -0.299 OA
ENDROOT
BRANCH   1   3
ATOM      3  C   UNL     1      28.807 -44.242 -18.023  1.00  0.00     0.053 C 
ATOM      4  C   UNL     1      29.304 -45.308 -19.007  1.00  0.00     0.016 C 
BRANCH   3   5
ATOM      5  C   UNL     1      27.335 -44.493 -17.646  1.00  0.00     0.015 C 
BRANCH   5   6
ATOM      6  C   UNL     1      26.754 -43.396 -16.728  1.00  0.00     0.028 C 
BRANCH   6   7
ATOM      7  C   UNL     1      25.378 -42.965 -17.181  1.00  0.00    -0.028 C 
ATOM      8  C   UNL     1      25.063 -41.915 -17.978  1.00  0.00    -0.070 CG0
ATOM      9  C   UNL     1      23.599 -41.654 -18.235  1.00  0.00     0.039 C 
ATOM     10  G   UNL     1      26.077 -40.994 -18.636  1.00  0.00     0.000 G0
ENDBRANCH   6   7
ENDBRANCH   5   6
ENDBRANCH   3   5
ENDBRANCH   1   3
BRANCH   1  11
ATOM     11  C   UNL     1      28.675 -42.610 -20.063  1.00  0.00     0.087 C 
BRANCH  11  12
ATOM     12  C   UNL     1      27.164 -42.730 -20.391  1.00  0.00     0.066 C 
BRANCH  12  13
ATOM     13  C   UNL     1      26.367 -41.472 -20.076  1.00  0.00     0.140 C 
ATOM     14  O   UNL     1      26.014 -40.769 -21.013  1.00  0.00    -0.299 OA
BRANCH  13  15
ATOM     15  C   UNL     1      26.068 -41.002 -18.669  1.00  0.00     0.106 CG0
ATOM     16  G   UNL     1      25.068 -41.919 -17.985  1.00  0.00     0.000 G0
ENDBRANCH  13  15
ENDBRANCH  12  13
BRANCH  12  17
ATOM     17  C   UNL     1      26.865 -43.234 -21.838  1.00  0.00    -0.006 C 
ATOM     18  C   UNL     1      26.234 -44.634 -21.841  1.00  0.00     0.008 C 
ATOM     19  C   UNL     1      28.084 -43.204 -22.775  1.00  0.00     0.008 C 
ENDBRANCH  12  17
ENDBRANCH  11  12
ENDBRANCH   1  11
TORSDOF 1
ENDMDL
MODEL 7
REMARK VINA RESULT:    -2.790     12.107     14.782
REMARK INTER + INTRA:          -4.474
REMARK INTER:                  -4.332
REMARK INTRA:                  -0.142
REMARK UNBOUND:                -0.215
REMARK SMILES CC1=CCC[C@@H](C)C(=O)C[C@H](C(C)C)C(=O)C1
REMARK SMILES IDX 8 1 9 2 6 3 7 4 5 5 4 6 3 7 2 8 1 9 10 11 11 12 15 13 16 14
REMARK SMILES IDX 17 15 12 17 13 18 14 19
REMARK H PARENT
REMARK Flexibility Score: 70.00
ROOT
ATOM      1  C   UNL     1      26.602 -42.155 -21.002  1.00  0.00     0.136 C 
ATOM      2  O   UNL     1      26.382 -41.942 -22.187  1.00  0.00    -0.299 OA
ENDROOT
BRANCH   1   3
ATOM      3  C   UNL     1      27.994 -42.542 -20.557  1.00  0.00     0.053 C 
ATOM      4  C   UNL     1      29.004 -41.475 -20.997  1.00  0.00     0.016 C 
BRANCH   3   5
ATOM      5  C   UNL     1      28.394 -43.927 -21.099  1.00  0.00     0.015 C 
BRANCH   5   6
ATOM      6  C   UNL     1      28.587 -44.976 -19.983  1.00  0.00     0.028 C 
BRANCH   6   7
ATOM      7  C   UNL     1      28.873 -44.322 -18.650  1.00  0.00    -0.028 C 
ATOM      8  C   UNL     1      28.009 -44.128 -17.625  1.00  0.00    -0.070 CG0
ATOM      9  C   UNL     1      28.524 -43.388 -16.415  1.00  0.00     0.039 C 
ATOM     10  G   UNL     1      26.567 -44.609 -17.605  1.00  0.00     0.000 G0
ENDBRANCH   6   7
ENDBRANCH   5   6
ENDBRANCH   3   5
ENDBRANCH   1   3
BRANCH   1  11
ATOM     11  C   UNL     1      25.513 -41.955 -19.973  1.00  0.00     0.087 C 
BRANCH  11  12
ATOM     12  C   UNL     1      25.024 -43.274 -19.323  1.00  0.00     0.066 C 
BRANCH  12  13
ATOM     13  C   UNL     1      25.579 -43.511 -17.925  1.00  0.00     0.140 C 
ATOM     14  O   UNL     1      25.276 -42.716 -17.046  1.00  0.00    -0.299 OA
BRANCH  13  15
ATOM     15  C   UNL     1      26.552 -44.620 -17.589  1.00  0.00     0.106 CG0
ATOM     16  G   UNL     1      27.988 -44.122 -17.622  1.00  0.00     0.000 G0
ENDBRANCH  13  15
ENDBRANCH  12  13
BRANCH  12  17
ATOM     17  C   UNL     1      23.474 -43.460 -19.346  1.00  0.00    -0.006 C 
ATOM     18  C   UNL     1      23.048 -44.819 -18.770  1.00  0.00     0.008 C 
ATOM     19  C   UNL     1      22.842 -43.255 -20.733  1.00  0.00     0.008 C 
ENDBRANCH  12  17
ENDBRANCH  11  12
ENDBRANCH   1  11
TORSDOF 1
ENDMDL
MODEL 8
REMARK VINA RESULT:    -2.718     14.459     16.272
REMARK INTER + INTRA:          -4.364
REMARK INTER:                  -4.116
REMARK INTRA:                  -0.248
REMARK UNBOUND:                -0.215
REMARK SMILES CC1=CCC[C@@H](C)C(=O)C[C@H](C(C)C)C(=O)C1
REMARK SMILES IDX 8 1 9 2 6 3 7 4 5 5 4 6 3 7 2 8 1 9 10 11 11 12 15 13 16 14
REMARK SMILES IDX 17 15 12 17 13 18 14 19
REMARK H PARENT
REMARK Flexibility Score: 70.00
ROOT
ATOM      1  C   UNL     1      27.573 -33.373 -12.019  1.00  0.00     0.136 C 
ATOM      2  O   UNL     1      27.776 -32.679 -11.032  1.00  0.00    -0.299 OA
ENDROOT
BRANCH   1   3
ATOM      3  C   UNL     1      28.120 -34.782 -12.069  1.00  0.00     0.053 C 
ATOM      4  C   UNL     1      27.706 -35.553 -10.810  1.00  0.00     0.016 C 
BRANCH   3   5
ATOM      5  C   UNL     1      29.651 -34.786 -12.232  1.00  0.00     0.015 C 
BRANCH   5   6
ATOM      6  C   UNL     1      30.100 -34.658 -13.703  1.00  0.00     0.028 C 
BRANCH   6   7
ATOM      7  C   UNL     1      29.388 -35.656 -14.589  1.00  0.00    -0.028 C 
ATOM      8  C   UNL     1      28.645 -35.396 -15.692  1.00  0.00    -0.070 CG0
ATOM      9  C   UNL     1      27.981 -36.568 -16.371  1.00  0.00     0.039 C 
ATOM     10  G   UNL     1      28.444 -34.015 -16.295  1.00  0.00     0.000 G0
ENDBRANCH   6   7
ENDBRANCH   5   6
ENDBRANCH   3   5
ENDBRANCH   1   3
BRANCH   1  11
ATOM     11  C   UNL     1      26.711 -32.861 -13.150  1.00  0.00     0.087 C 
BRANCH  11  12
ATOM     12  C   UNL     1      27.522 -32.399 -14.387  1.00  0.00     0.066 C 
BRANCH  12  13
ATOM     13  C   UNL     1      27.316 -33.272 -15.617  1.00  0.00     0.140 C 
ATOM     14  O   UNL     1      26.173 -33.433 -16.020  1.00  0.00    -0.299 OA
BRANCH  13  15
ATOM     15  C   UNL     1      28.436 -34.019 -16.309  1.00  0.00     0.106 CG0
ATOM     16  G   UNL     1      28.645 -35.392 -15.692  1.00  0.00     0.000 G0
ENDBRANCH  13  15
ENDBRANCH  12  13
BRANCH  12  17
ATOM     17  C   UNL     1      27.342 -30.888 -14.739  1.00  0.00    -0.006 C 
ATOM     18  C   UNL     1      28.394 -30.006 -14.049  1.00  0.00     0.008 C 
ATOM     19  C   UNL     1      25.931 -30.345 -14.455  1.00  0.00     0.008 C 
ENDBRANCH  12  17
ENDBRANCH  11  12
ENDBRANCH   1  11
TORSDOF 1
ENDMDL
MODEL 9
REMARK VINA RESULT:    -2.711     14.270     16.129
REMARK INTER + INTRA:          -4.353
REMARK INTER:                  -4.009
REMARK INTRA:                  -0.344
REMARK UNBOUND:                -0.215
REMARK SMILES CC1=CCC[C@@H](C)C(=O)C[C@H](C(C)C)C(=O)C1
REMARK SMILES IDX 8 1 9 2 6 3 7 4 5 5 4 6 3 7 2 8 1 9 10 11 11 12 15 13 16 14
REMARK SMILES IDX 17 15 12 17 13 18 14 19
REMARK H PARENT
REMARK Flexibility Score: 70.00
ROOT
ATOM      1  C   UNL     1      26.138 -31.823 -14.285  1.00  0.00     0.136 C 
ATOM      2  O   UNL     1      25.740 -31.595 -15.420  1.00  0.00    -0.299 OA
ENDROOT
BRANCH   1   3
ATOM      3  C   UNL     1      26.388 -30.674 -13.335  1.00  0.00     0.053 C 
ATOM      4  C   UNL     1      27.761 -30.049 -13.611  1.00  0.00     0.016 C 
BRANCH   3   5
ATOM      5  C   UNL     1      26.280 -31.125 -11.866  1.00  0.00     0.015 C 
BRANCH   5   6
ATOM      6  C   UNL     1      27.657 -31.324 -11.196  1.00  0.00     0.028 C 
BRANCH   6   7
ATOM      7  C   UNL     1      27.669 -32.545 -10.305  1.00  0.00    -0.028 C 
ATOM      8  C   UNL     1      28.250 -33.742 -10.555  1.00  0.00    -0.070 CG0
ATOM      9  C   UNL     1      28.066 -34.831  -9.527  1.00  0.00     0.039 C 
ATOM     10  G   UNL     1      29.079 -34.062 -11.789  1.00  0.00     0.000 G0
ENDBRANCH   6   7
ENDBRANCH   5   6
ENDBRANCH   3   5
ENDBRANCH   1   3
BRANCH   1  11
ATOM     11  C   UNL     1      26.302 -33.246 -13.804  1.00  0.00     0.087 C 
BRANCH  11  12
ATOM     12  C   UNL     1      27.718 -33.826 -14.055  1.00  0.00     0.066 C 
BRANCH  12  13
ATOM     13  C   UNL     1      28.258 -34.648 -12.892  1.00  0.00     0.140 C 
ATOM     14  O   UNL     1      27.939 -35.826 -12.828  1.00  0.00    -0.299 OA
BRANCH  13  15
ATOM     15  C   UNL     1      29.092 -34.063 -11.772  1.00  0.00     0.106 CG0
ATOM     16  G   UNL     1      28.240 -33.768 -10.549  1.00  0.00     0.000 G0
ENDBRANCH  13  15
ENDBRANCH  12  13
BRANCH  12  17
ATOM     17  C   UNL     1      27.858 -34.604 -15.401  1.00  0.00    -0.006 C 
ATOM     18  C   UNL     1      28.625 -33.793 -16.458  1.00  0.00     0.008 C 
ATOM     19  C   UNL     1      26.521 -35.093 -15.982  1.00  0.00     0.008 C 
ENDBRANCH  12  17
ENDBRANCH  11  12
ENDBRANCH   1  11
TORSDOF 1
ENDMDL
