MODEL 1
REMARK VINA RESULT:    -3.208      0.000      0.000
REMARK INTER + INTRA:          -3.725
REMARK INTER:                  -3.490
REMARK INTRA:                  -0.236
REMARK UNBOUND:                -0.236
REMARK SMILES O=C([O-])c1ccccc1O
REMARK SMILES IDX 4 1 9 2 5 3 8 4 6 5 7 6 2 7 1 8 3 9 10 10
REMARK H PARENT 10 11
REMARK Flexibility Score: inf
ROOT
ATOM      1  C   UNL     1     -20.789  14.533 -22.703  1.00  0.00     0.039 A 
ATOM      2  C   UNL     1     -21.486  14.650 -23.929  1.00  0.00     0.124 A 
ATOM      3  C   UNL     1     -19.537  13.886 -22.693  1.00  0.00     0.014 A 
ATOM      4  C   UNL     1     -20.927  14.128 -25.106  1.00  0.00     0.047 A 
ATOM      5  C   UNL     1     -18.992  13.371 -23.871  1.00  0.00     0.001 A 
ATOM      6  C   UNL     1     -19.685  13.491 -25.075  1.00  0.00     0.004 A 
ENDROOT
BRANCH   1   7
ATOM      7  C   UNL     1     -21.339  15.068 -21.432  1.00  0.00     0.075 C 
ATOM      8  O   UNL     1     -22.022  16.126 -21.412  1.00  0.00    -0.545 OA
ATOM      9  O   UNL     1     -21.107  14.403 -20.232  1.00  0.00    -0.545 OA
ENDBRANCH   1   7
BRANCH   2  10
ATOM     10  O   UNL     1     -22.729  15.282 -23.986  1.00  0.00    -0.507 OA
ATOM     11  H   UNL     1     -22.878  16.201 -23.587  1.00  0.00     0.293 HD
ENDBRANCH   2  10
TORSDOF 2
ENDMDL
MODEL 2
REMARK VINA RESULT:    -3.206      1.362      2.350
REMARK INTER + INTRA:          -3.723
REMARK INTER:                  -3.493
REMARK INTRA:                  -0.229
REMARK UNBOUND:                -0.236
REMARK SMILES O=C([O-])c1ccccc1O
REMARK SMILES IDX 4 1 9 2 5 3 8 4 6 5 7 6 2 7 1 8 3 9 10 10
REMARK H PARENT 10 11
REMARK Flexibility Score: inf
ROOT
ATOM      1  C   UNL     1     -21.475  14.565 -23.440  1.00  0.00     0.039 A 
ATOM      2  C   UNL     1     -20.131  14.970 -23.259  1.00  0.00     0.124 A 
ATOM      3  C   UNL     1     -21.737  13.394 -24.177  1.00  0.00     0.014 A 
ATOM      4  C   UNL     1     -19.089  14.207 -23.809  1.00  0.00     0.047 A 
ATOM      5  C   UNL     1     -20.692  12.644 -24.719  1.00  0.00     0.001 A 
ATOM      6  C   UNL     1     -19.371  13.049 -24.536  1.00  0.00     0.004 A 
ENDROOT
BRANCH   1   7
ATOM      7  C   UNL     1     -22.611  15.339 -22.878  1.00  0.00     0.075 C 
ATOM      8  O   UNL     1     -22.492  15.982 -21.802  1.00  0.00    -0.545 OA
ATOM      9  O   UNL     1     -23.836  15.366 -23.538  1.00  0.00    -0.545 OA
ENDBRANCH   1   7
BRANCH   2  10
ATOM     10  O   UNL     1     -19.824  16.124 -22.536  1.00  0.00    -0.507 OA
ATOM     11  H   UNL     1     -20.535  16.802 -22.289  1.00  0.00     0.293 HD
ENDBRANCH   2  10
TORSDOF 2
ENDMDL
MODEL 3
REMARK VINA RESULT:    -3.205     13.243     14.564
REMARK INTER + INTRA:          -3.722
REMARK INTER:                  -3.483
REMARK INTRA:                  -0.239
REMARK UNBOUND:                -0.236
REMARK SMILES O=C([O-])c1ccccc1O
REMARK SMILES IDX 4 1 9 2 5 3 8 4 6 5 7 6 2 7 1 8 3 9 10 10
REMARK H PARENT 10 11
REMARK Flexibility Score: inf
ROOT
ATOM      1  C   UNL     1     -22.645  28.278 -20.767  1.00  0.00     0.039 A 
ATOM      2  C   UNL     1     -23.861  28.179 -21.485  1.00  0.00     0.124 A 
ATOM      3  C   UNL     1     -22.644  28.932 -19.520  1.00  0.00     0.014 A 
ATOM      4  C   UNL     1     -25.036  28.729 -20.949  1.00  0.00     0.047 A 
ATOM      5  C   UNL     1     -23.820  29.474 -18.999  1.00  0.00     0.001 A 
ATOM      6  C   UNL     1     -25.014  29.373 -19.712  1.00  0.00     0.004 A 
ENDROOT
BRANCH   1   7
ATOM      7  C   UNL     1     -21.375  27.713 -21.292  1.00  0.00     0.075 C 
ATOM      8  O   UNL     1     -21.361  26.633 -21.938  1.00  0.00    -0.545 OA
ATOM      9  O   UNL     1     -20.171  28.375 -21.075  1.00  0.00    -0.545 OA
ENDBRANCH   1   7
BRANCH   2  10
ATOM     10  O   UNL     1     -23.909  27.540 -22.725  1.00  0.00    -0.507 OA
ATOM     11  H   UNL     1     -24.271  28.005 -23.550  1.00  0.00     0.293 HD
ENDBRANCH   2  10
TORSDOF 2
ENDMDL
MODEL 4
REMARK VINA RESULT:    -3.197      2.565      3.734
REMARK INTER + INTRA:          -3.713
REMARK INTER:                  -3.463
REMARK INTRA:                  -0.250
REMARK UNBOUND:                -0.236
REMARK SMILES O=C([O-])c1ccccc1O
REMARK SMILES IDX 4 1 9 2 5 3 8 4 6 5 7 6 2 7 1 8 3 9 10 10
REMARK H PARENT 10 11
REMARK Flexibility Score: inf
ROOT
ATOM      1  C   UNL     1     -19.501  13.530 -23.769  1.00  0.00     0.039 A 
ATOM      2  C   UNL     1     -20.242  13.881 -22.614  1.00  0.00     0.124 A 
ATOM      3  C   UNL     1     -20.158  13.507 -25.015  1.00  0.00     0.014 A 
ATOM      4  C   UNL     1     -21.605  14.197 -22.726  1.00  0.00     0.047 A 
ATOM      5  C   UNL     1     -21.514  13.824 -25.112  1.00  0.00     0.001 A 
ATOM      6  C   UNL     1     -22.236  14.168 -23.970  1.00  0.00     0.004 A 
ENDROOT
BRANCH   1   7
ATOM      7  C   UNL     1     -18.058  13.187 -23.702  1.00  0.00     0.075 C 
ATOM      8  O   UNL     1     -17.255  13.879 -23.023  1.00  0.00    -0.545 OA
ATOM      9  O   UNL     1     -17.567  12.086 -24.395  1.00  0.00    -0.545 OA
ENDBRANCH   1   7
BRANCH   2  10
ATOM     10  O   UNL     1     -19.633  13.917 -21.359  1.00  0.00    -0.507 OA
ATOM     11  H   UNL     1     -19.778  14.689 -20.719  1.00  0.00     0.293 HD
ENDBRANCH   2  10
TORSDOF 2
ENDMDL
MODEL 5
REMARK VINA RESULT:    -3.180     14.660     15.572
REMARK INTER + INTRA:          -3.695
REMARK INTER:                  -3.446
REMARK INTRA:                  -0.249
REMARK UNBOUND:                -0.236
REMARK SMILES O=C([O-])c1ccccc1O
REMARK SMILES IDX 4 1 9 2 5 3 8 4 6 5 7 6 2 7 1 8 3 9 10 10
REMARK H PARENT 10 11
REMARK Flexibility Score: inf
ROOT
ATOM      1  C   UNL     1     -23.815  29.344 -19.425  1.00  0.00     0.039 A 
ATOM      2  C   UNL     1     -22.648  28.990 -20.145  1.00  0.00     0.124 A 
ATOM      3  C   UNL     1     -25.050  29.362 -20.102  1.00  0.00     0.014 A 
ATOM      4  C   UNL     1     -22.737  28.666 -21.508  1.00  0.00     0.047 A 
ATOM      5  C   UNL     1     -25.125  29.038 -21.458  1.00  0.00     0.001 A 
ATOM      6  C   UNL     1     -23.971  28.691 -22.160  1.00  0.00     0.004 A 
ENDROOT
BRANCH   1   7
ATOM      7  C   UNL     1     -23.772  29.695 -17.983  1.00  0.00     0.075 C 
ATOM      8  O   UNL     1     -23.100  29.011 -17.166  1.00  0.00    -0.545 OA
ATOM      9  O   UNL     1     -24.480  30.794 -17.508  1.00  0.00    -0.545 OA
ENDBRANCH   1   7
BRANCH   2  10
ATOM     10  O   UNL     1     -21.403  28.959 -19.515  1.00  0.00    -0.507 OA
ATOM     11  H   UNL     1     -21.311  28.750 -18.528  1.00  0.00     0.293 HD
ENDBRANCH   2  10
TORSDOF 2
ENDMDL
MODEL 6
REMARK VINA RESULT:    -3.124      1.666      2.420
REMARK INTER + INTRA:          -3.633
REMARK INTER:                  -3.383
REMARK INTRA:                  -0.250
REMARK UNBOUND:                -0.236
REMARK SMILES O=C([O-])c1ccccc1O
REMARK SMILES IDX 4 1 9 2 5 3 8 4 6 5 7 6 2 7 1 8 3 9 10 10
REMARK H PARENT 10 11
REMARK Flexibility Score: inf
ROOT
ATOM      1  C   UNL     1     -19.606  13.963 -22.447  1.00  0.00     0.039 A 
ATOM      2  C   UNL     1     -21.010  13.953 -22.258  1.00  0.00     0.124 A 
ATOM      3  C   UNL     1     -19.085  13.516 -23.677  1.00  0.00     0.014 A 
ATOM      4  C   UNL     1     -21.852  13.504 -23.287  1.00  0.00     0.047 A 
ATOM      5  C   UNL     1     -19.934  13.073 -24.693  1.00  0.00     0.001 A 
ATOM      6  C   UNL     1     -21.315  13.066 -24.498  1.00  0.00     0.004 A 
ENDROOT
BRANCH   1   7
ATOM      7  C   UNL     1     -18.674  14.427 -21.389  1.00  0.00     0.075 C 
ATOM      8  O   UNL     1     -17.808  15.311 -21.626  1.00  0.00    -0.545 OA
ATOM      9  O   UNL     1     -18.742  13.888 -20.109  1.00  0.00    -0.545 OA
ENDBRANCH   1   7
BRANCH   2  10
ATOM     10  O   UNL     1     -21.570  14.385 -21.055  1.00  0.00    -0.507 OA
ATOM     11  H   UNL     1     -21.714  13.752 -20.277  1.00  0.00     0.293 HD
ENDBRANCH   2  10
TORSDOF 2
ENDMDL
MODEL 7
REMARK VINA RESULT:    -3.111     14.649     15.250
REMARK INTER + INTRA:          -3.619
REMARK INTER:                  -3.366
REMARK INTRA:                  -0.253
REMARK UNBOUND:                -0.236
REMARK SMILES O=C([O-])c1ccccc1O
REMARK SMILES IDX 4 1 9 2 5 3 8 4 6 5 7 6 2 7 1 8 3 9 10 10
REMARK H PARENT 10 11
REMARK Flexibility Score: inf
ROOT
ATOM      1  C   UNL     1     -22.519  28.949 -19.521  1.00  0.00     0.039 A 
ATOM      2  C   UNL     1     -22.228  29.119 -20.896  1.00  0.00     0.124 A 
ATOM      3  C   UNL     1     -23.828  29.203 -19.067  1.00  0.00     0.014 A 
ATOM      4  C   UNL     1     -23.238  29.532 -21.779  1.00  0.00     0.047 A 
ATOM      5  C   UNL     1     -24.823  29.614 -19.956  1.00  0.00     0.001 A 
ATOM      6  C   UNL     1     -24.529  29.779 -21.309  1.00  0.00     0.004 A 
ENDROOT
BRANCH   1   7
ATOM      7  C   UNL     1     -21.485  28.514 -18.547  1.00  0.00     0.075 C 
ATOM      8  O   UNL     1     -21.692  27.548 -17.765  1.00  0.00    -0.545 OA
ATOM      9  O   UNL     1     -20.261  29.171 -18.484  1.00  0.00    -0.545 OA
ENDBRANCH   1   7
BRANCH   2  10
ATOM     10  O   UNL     1     -20.945  28.879 -21.390  1.00  0.00    -0.507 OA
ATOM     11  H   UNL     1     -20.358  29.631 -21.731  1.00  0.00     0.293 HD
ENDBRANCH   2  10
TORSDOF 2
ENDMDL
MODEL 8
REMARK VINA RESULT:    -3.037      2.043      3.158
REMARK INTER + INTRA:          -3.539
REMARK INTER:                  -3.295
REMARK INTRA:                  -0.244
REMARK UNBOUND:                -0.236
REMARK SMILES O=C([O-])c1ccccc1O
REMARK SMILES IDX 4 1 9 2 5 3 8 4 6 5 7 6 2 7 1 8 3 9 10 10
REMARK H PARENT 10 11
REMARK Flexibility Score: inf
ROOT
ATOM      1  C   UNL     1     -19.532  13.596 -23.903  1.00  0.00     0.039 A 
ATOM      2  C   UNL     1     -19.200  14.858 -23.354  1.00  0.00     0.124 A 
ATOM      3  C   UNL     1     -18.496  12.765 -24.372  1.00  0.00     0.014 A 
ATOM      4  C   UNL     1     -17.856  15.258 -23.284  1.00  0.00     0.047 A 
ATOM      5  C   UNL     1     -17.164  13.176 -24.297  1.00  0.00     0.001 A 
ATOM      6  C   UNL     1     -16.844  14.421 -23.754  1.00  0.00     0.004 A 
ENDROOT
BRANCH   1   7
ATOM      7  C   UNL     1     -20.938  13.127 -23.999  1.00  0.00     0.075 C 
ATOM      8  O   UNL     1     -21.762  13.345 -23.073  1.00  0.00    -0.545 OA
ATOM      9  O   UNL     1     -21.370  12.433 -25.125  1.00  0.00    -0.545 OA
ENDBRANCH   1   7
BRANCH   2  10
ATOM     10  O   UNL     1     -20.194  15.714 -22.878  1.00  0.00    -0.507 OA
ATOM     11  H   UNL     1     -20.380  16.609 -23.316  1.00  0.00     0.293 HD
ENDBRANCH   2  10
TORSDOF 2
ENDMDL
MODEL 9
REMARK VINA RESULT:    -2.984      1.879      2.631
REMARK INTER + INTRA:          -3.482
REMARK INTER:                  -3.235
REMARK INTRA:                  -0.246
REMARK UNBOUND:                -0.236
REMARK SMILES O=C([O-])c1ccccc1O
REMARK SMILES IDX 4 1 9 2 5 3 8 4 6 5 7 6 2 7 1 8 3 9 10 10
REMARK H PARENT 10 11
REMARK Flexibility Score: inf
ROOT
ATOM      1  C   UNL     1     -20.261  14.118 -22.486  1.00  0.00     0.039 A 
ATOM      2  C   UNL     1     -19.471  13.490 -23.480  1.00  0.00     0.124 A 
ATOM      3  C   UNL     1     -21.587  14.476 -22.799  1.00  0.00     0.014 A 
ATOM      4  C   UNL     1     -20.016  13.235 -24.748  1.00  0.00     0.047 A 
ATOM      5  C   UNL     1     -22.116  14.216 -24.065  1.00  0.00     0.001 A 
ATOM      6  C   UNL     1     -21.332  13.597 -25.038  1.00  0.00     0.004 A 
ENDROOT
BRANCH   1   7
ATOM      7  C   UNL     1     -19.731  14.410 -21.130  1.00  0.00     0.075 C 
ATOM      8  O   UNL     1     -18.561  14.847 -20.969  1.00  0.00    -0.545 OA
ATOM      9  O   UNL     1     -20.526  14.204 -20.008  1.00  0.00    -0.545 OA
ENDBRANCH   1   7
BRANCH   2  10
ATOM     10  O   UNL     1     -18.153  13.119 -23.215  1.00  0.00    -0.507 OA
ATOM     11  H   UNL     1     -17.493  13.763 -22.795  1.00  0.00     0.293 HD
ENDBRANCH   2  10
TORSDOF 2
ENDMDL
