MODEL 1
REMARK VINA RESULT:    -3.935      0.000      0.000
REMARK INTER + INTRA:          -4.259
REMARK INTER:                  -4.165
REMARK INTRA:                  -0.094
REMARK UNBOUND:                -0.094
REMARK SMILES C=C(C)[C@@H]1CC=C(C)C(=O)C1
REMARK SMILES IDX 8 1 7 2 6 3 5 4 4 5 11 6 9 7 10 8 2 9 1 10 3 11
REMARK H PARENT
REMARK Flexibility Score: inf
ROOT
ATOM      1  C   UNL     1     184.513 176.872 194.411  1.00  0.00     0.048 C 
ATOM      2  C   UNL     1     184.307 177.097 195.884  1.00  0.00    -0.012 C 
ATOM      3  C   UNL     1     185.188 177.832 196.584  1.00  0.00    -0.019 C 
ATOM      4  C   UNL     1     184.982 178.152 198.042  1.00  0.00     0.036 C 
ATOM      5  C   UNL     1     184.202 177.030 198.753  1.00  0.00     0.025 C 
ATOM      6  C   UNL     1     182.874 176.754 198.023  1.00  0.00     0.089 C 
ATOM      7  C   UNL     1     183.114 176.525 196.556  1.00  0.00     0.158 C 
ATOM      8  O   UNL     1     182.263 175.877 195.888  1.00  0.00    -0.295 OA
ENDROOT
BRANCH   5   9
ATOM      9  C   UNL     1     183.977 177.347 200.226  1.00  0.00    -0.077 C 
ATOM     10  C   UNL     1     183.828 178.613 200.654  1.00  0.00     0.008 C 
ATOM     11  C   UNL     1     183.917 176.233 201.239  1.00  0.00     0.039 C 
ENDBRANCH   5   9
TORSDOF 1
ENDMDL
MODEL 2
REMARK VINA RESULT:    -3.930      3.435      4.470
REMARK INTER + INTRA:          -4.254
REMARK INTER:                  -4.156
REMARK INTRA:                  -0.098
REMARK UNBOUND:                -0.094
REMARK SMILES C=C(C)[C@@H]1CC=C(C)C(=O)C1
REMARK SMILES IDX 8 1 7 2 6 3 5 4 4 5 11 6 9 7 10 8 2 9 1 10 3 11
REMARK H PARENT
REMARK Flexibility Score: inf
ROOT
ATOM      1  C   UNL     1     183.321 176.018 199.329  1.00  0.00     0.048 C 
ATOM      2  C   UNL     1     184.645 176.705 199.527  1.00  0.00    -0.012 C 
ATOM      3  C   UNL     1     185.787 176.076 199.202  1.00  0.00    -0.019 C 
ATOM      4  C   UNL     1     187.130 176.751 199.307  1.00  0.00     0.036 C 
ATOM      5  C   UNL     1     187.140 177.796 200.440  1.00  0.00     0.025 C 
ATOM      6  C   UNL     1     185.992 178.805 200.248  1.00  0.00     0.089 C 
ATOM      7  C   UNL     1     184.682 178.089 200.061  1.00  0.00     0.158 C 
ATOM      8  O   UNL     1     183.608 178.696 200.320  1.00  0.00    -0.295 OA
ENDROOT
BRANCH   5   9
ATOM      9  C   UNL     1     188.489 178.495 200.548  1.00  0.00    -0.077 C 
ATOM     10  C   UNL     1     188.609 179.695 201.142  1.00  0.00     0.008 C 
ATOM     11  C   UNL     1     189.725 177.842 199.985  1.00  0.00     0.039 C 
ENDBRANCH   5   9
TORSDOF 1
ENDMDL
MODEL 3
REMARK VINA RESULT:    -3.898      1.779      3.298
REMARK INTER + INTRA:          -4.220
REMARK INTER:                  -4.124
REMARK INTRA:                  -0.096
REMARK UNBOUND:                -0.094
REMARK SMILES C=C(C)[C@@H]1CC=C(C)C(=O)C1
REMARK SMILES IDX 8 1 7 2 6 3 5 4 4 5 11 6 9 7 10 8 2 9 1 10 3 11
REMARK H PARENT
REMARK Flexibility Score: inf
ROOT
ATOM      1  C   UNL     1     181.835 176.217 197.753  1.00  0.00     0.048 C 
ATOM      2  C   UNL     1     183.129 176.924 198.052  1.00  0.00    -0.012 C 
ATOM      3  C   UNL     1     183.507 177.128 199.326  1.00  0.00    -0.019 C 
ATOM      4  C   UNL     1     184.830 177.758 199.676  1.00  0.00     0.036 C 
ATOM      5  C   UNL     1     185.278 178.752 198.586  1.00  0.00     0.025 C 
ATOM      6  C   UNL     1     185.306 178.062 197.210  1.00  0.00     0.089 C 
ATOM      7  C   UNL     1     183.997 177.372 196.936  1.00  0.00     0.158 C 
ATOM      8  O   UNL     1     183.665 177.137 195.743  1.00  0.00    -0.295 OA
ENDROOT
BRANCH   5   9
ATOM      9  C   UNL     1     186.621 179.387 198.923  1.00  0.00    -0.077 C 
ATOM     10  C   UNL     1     187.170 179.256 200.143  1.00  0.00     0.008 C 
ATOM     11  C   UNL     1     187.363 180.182 197.880  1.00  0.00     0.039 C 
ENDBRANCH   5   9
TORSDOF 1
ENDMDL
MODEL 4
REMARK VINA RESULT:    -3.863     17.075     18.312
REMARK INTER + INTRA:          -4.183
REMARK INTER:                  -4.088
REMARK INTRA:                  -0.095
REMARK UNBOUND:                -0.094
REMARK SMILES C=C(C)[C@@H]1CC=C(C)C(=O)C1
REMARK SMILES IDX 8 1 7 2 6 3 5 4 4 5 11 6 9 7 10 8 2 9 1 10 3 11
REMARK H PARENT
REMARK Flexibility Score: inf
ROOT
ATOM      1  C   UNL     1     189.669 196.054 198.480  1.00  0.00     0.048 C 
ATOM      2  C   UNL     1     188.294 195.576 198.860  1.00  0.00    -0.012 C 
ATOM      3  C   UNL     1     187.209 196.098 198.263  1.00  0.00    -0.019 C 
ATOM      4  C   UNL     1     185.819 195.596 198.552  1.00  0.00     0.036 C 
ATOM      5  C   UNL     1     185.706 195.068 199.995  1.00  0.00     0.025 C 
ATOM      6  C   UNL     1     186.781 193.997 200.260  1.00  0.00     0.089 C 
ATOM      7  C   UNL     1     188.143 194.508 199.879  1.00  0.00     0.158 C 
ATOM      8  O   UNL     1     189.164 193.985 200.403  1.00  0.00    -0.295 OA
ENDROOT
BRANCH   5   9
ATOM      9  C   UNL     1     184.307 194.546 200.296  1.00  0.00    -0.077 C 
ATOM     10  C   UNL     1     183.216 195.122 199.761  1.00  0.00     0.008 C 
ATOM     11  C   UNL     1     184.122 193.361 201.208  1.00  0.00     0.039 C 
ENDBRANCH   5   9
TORSDOF 1
ENDMDL
MODEL 5
REMARK VINA RESULT:    -3.830      2.784      3.868
REMARK INTER + INTRA:          -4.148
REMARK INTER:                  -4.058
REMARK INTRA:                  -0.090
REMARK UNBOUND:                -0.094
REMARK SMILES C=C(C)[C@@H]1CC=C(C)C(=O)C1
REMARK SMILES IDX 8 1 7 2 6 3 5 4 4 5 11 6 9 7 10 8 2 9 1 10 3 11
REMARK H PARENT
REMARK Flexibility Score: inf
ROOT
ATOM      1  C   UNL     1     182.640 176.503 198.236  1.00  0.00     0.048 C 
ATOM      2  C   UNL     1     183.863 177.170 198.803  1.00  0.00    -0.012 C 
ATOM      3  C   UNL     1     184.487 178.138 198.110  1.00  0.00    -0.019 C 
ATOM      4  C   UNL     1     185.666 178.891 198.670  1.00  0.00     0.036 C 
ATOM      5  C   UNL     1     186.481 178.008 199.635  1.00  0.00     0.025 C 
ATOM      6  C   UNL     1     185.572 177.440 200.740  1.00  0.00     0.089 C 
ATOM      7  C   UNL     1     184.364 176.772 200.142  1.00  0.00     0.158 C 
ATOM      8  O   UNL     1     183.750 175.898 200.812  1.00  0.00    -0.295 OA
ENDROOT
BRANCH   5   9
ATOM      9  C   UNL     1     187.670 178.761 200.217  1.00  0.00    -0.077 C 
ATOM     10  C   UNL     1     188.879 178.184 200.326  1.00  0.00     0.008 C 
ATOM     11  C   UNL     1     187.506 180.184 200.687  1.00  0.00     0.039 C 
ENDBRANCH   5   9
TORSDOF 1
ENDMDL
MODEL 6
REMARK VINA RESULT:    -3.813      8.247      9.044
REMARK INTER + INTRA:          -4.130
REMARK INTER:                  -4.035
REMARK INTRA:                  -0.095
REMARK UNBOUND:                -0.094
REMARK SMILES C=C(C)[C@@H]1CC=C(C)C(=O)C1
REMARK SMILES IDX 8 1 7 2 6 3 5 4 4 5 11 6 9 7 10 8 2 9 1 10 3 11
REMARK H PARENT
REMARK Flexibility Score: inf
ROOT
ATOM      1  C   UNL     1     194.558 177.216 194.977  1.00  0.00     0.048 C 
ATOM      2  C   UNL     1     193.809 177.224 196.283  1.00  0.00    -0.012 C 
ATOM      3  C   UNL     1     193.620 176.077 196.958  1.00  0.00    -0.019 C 
ATOM      4  C   UNL     1     192.948 176.046 198.306  1.00  0.00     0.036 C 
ATOM      5  C   UNL     1     191.914 177.181 198.439  1.00  0.00     0.025 C 
ATOM      6  C   UNL     1     192.571 178.542 198.146  1.00  0.00     0.089 C 
ATOM      7  C   UNL     1     193.303 178.505 196.832  1.00  0.00     0.158 C 
ATOM      8  O   UNL     1     193.524 179.586 196.222  1.00  0.00    -0.295 OA
ENDROOT
BRANCH   5   9
ATOM      9  C   UNL     1     191.236 177.167 199.803  1.00  0.00    -0.077 C 
ATOM     10  C   UNL     1     191.839 176.629 200.878  1.00  0.00     0.008 C 
ATOM     11  C   UNL     1     189.862 177.763 199.971  1.00  0.00     0.039 C 
ENDBRANCH   5   9
TORSDOF 1
ENDMDL
MODEL 7
REMARK VINA RESULT:    -3.798      8.878      9.918
REMARK INTER + INTRA:          -4.114
REMARK INTER:                  -4.019
REMARK INTRA:                  -0.095
REMARK UNBOUND:                -0.094
REMARK SMILES C=C(C)[C@@H]1CC=C(C)C(=O)C1
REMARK SMILES IDX 8 1 7 2 6 3 5 4 4 5 11 6 9 7 10 8 2 9 1 10 3 11
REMARK H PARENT
REMARK Flexibility Score: inf
ROOT
ATOM      1  C   UNL     1     189.960 184.206 193.177  1.00  0.00     0.048 C 
ATOM      2  C   UNL     1     188.931 184.958 193.975  1.00  0.00    -0.012 C 
ATOM      3  C   UNL     1     188.904 186.302 193.947  1.00  0.00    -0.019 C 
ATOM      4  C   UNL     1     187.844 187.096 194.663  1.00  0.00     0.036 C 
ATOM      5  C   UNL     1     187.353 186.358 195.924  1.00  0.00     0.025 C 
ATOM      6  C   UNL     1     186.876 184.939 195.563  1.00  0.00     0.089 C 
ATOM      7  C   UNL     1     187.929 184.210 194.774  1.00  0.00     0.158 C 
ATOM      8  O   UNL     1     187.924 182.949 194.762  1.00  0.00    -0.295 OA
ENDROOT
BRANCH   5   9
ATOM      9  C   UNL     1     186.272 187.146 196.651  1.00  0.00    -0.077 C 
ATOM     10  C   UNL     1     185.594 188.133 196.039  1.00  0.00     0.008 C 
ATOM     11  C   UNL     1     185.940 186.827 198.087  1.00  0.00     0.039 C 
ENDBRANCH   5   9
TORSDOF 1
ENDMDL
MODEL 8
REMARK VINA RESULT:    -3.797      9.862     10.789
REMARK INTER + INTRA:          -4.113
REMARK INTER:                  -4.017
REMARK INTRA:                  -0.096
REMARK UNBOUND:                -0.094
REMARK SMILES C=C(C)[C@@H]1CC=C(C)C(=O)C1
REMARK SMILES IDX 8 1 7 2 6 3 5 4 4 5 11 6 9 7 10 8 2 9 1 10 3 11
REMARK H PARENT
REMARK Flexibility Score: inf
ROOT
ATOM      1  C   UNL     1     182.851 188.670 193.262  1.00  0.00     0.048 C 
ATOM      2  C   UNL     1     183.869 187.903 194.061  1.00  0.00    -0.012 C 
ATOM      3  C   UNL     1     183.879 186.559 194.028  1.00  0.00    -0.019 C 
ATOM      4  C   UNL     1     184.928 185.750 194.746  1.00  0.00     0.036 C 
ATOM      5  C   UNL     1     185.423 186.478 196.011  1.00  0.00     0.025 C 
ATOM      6  C   UNL     1     185.918 187.892 195.656  1.00  0.00     0.089 C 
ATOM      7  C   UNL     1     184.876 188.636 194.866  1.00  0.00     0.158 C 
ATOM      8  O   UNL     1     184.895 189.897 194.858  1.00  0.00    -0.295 OA
ENDROOT
BRANCH   5   9
ATOM      9  C   UNL     1     186.492 185.675 196.739  1.00  0.00    -0.077 C 
ATOM     10  C   UNL     1     187.128 184.652 196.141  1.00  0.00     0.008 C 
ATOM     11  C   UNL     1     186.859 186.019 198.160  1.00  0.00     0.039 C 
ENDBRANCH   5   9
TORSDOF 1
ENDMDL
MODEL 9
REMARK VINA RESULT:    -3.776      2.359      4.193
REMARK INTER + INTRA:          -4.091
REMARK INTER:                  -3.994
REMARK INTRA:                  -0.097
REMARK UNBOUND:                -0.094
REMARK SMILES C=C(C)[C@@H]1CC=C(C)C(=O)C1
REMARK SMILES IDX 8 1 7 2 6 3 5 4 4 5 11 6 9 7 10 8 2 9 1 10 3 11
REMARK H PARENT
REMARK Flexibility Score: inf
ROOT
ATOM      1  C   UNL     1     186.892 179.569 200.037  1.00  0.00     0.048 C 
ATOM      2  C   UNL     1     185.915 178.696 199.298  1.00  0.00    -0.012 C 
ATOM      3  C   UNL     1     186.247 178.170 198.107  1.00  0.00    -0.019 C 
ATOM      4  C   UNL     1     185.335 177.226 197.367  1.00  0.00     0.036 C 
ATOM      5  C   UNL     1     183.856 177.529 197.672  1.00  0.00     0.025 C 
ATOM      6  C   UNL     1     183.606 177.511 199.191  1.00  0.00     0.089 C 
ATOM      7  C   UNL     1     184.592 178.399 199.901  1.00  0.00     0.158 C 
ATOM      8  O   UNL     1     184.300 178.854 201.040  1.00  0.00    -0.295 OA
ENDROOT
BRANCH   5   9
ATOM      9  C   UNL     1     182.924 176.574 196.939  1.00  0.00    -0.077 C 
ATOM     10  C   UNL     1     181.908 175.963 197.573  1.00  0.00     0.008 C 
ATOM     11  C   UNL     1     183.129 176.294 195.472  1.00  0.00     0.039 C 
ENDBRANCH   5   9
TORSDOF 1
ENDMDL
