MODEL 1
REMARK VINA RESULT:    -3.724      0.000      0.000
REMARK INTER + INTRA:          -7.049
REMARK INTER:                  -5.683
REMARK INTRA:                  -1.366
REMARK UNBOUND:                -1.366
REMARK SMILES CCCCCCCCCC=CC(=O)[O-]
REMARK SMILES IDX 7 1 8 2 9 3 10 4 11 5 12 6 13 7 14 8 6 9 5 10 4 11 3 12 2 13
REMARK SMILES IDX 1 14
REMARK H PARENT
REMARK Flexibility Score: inf
ROOT
ATOM      1  C   UNL     1     200.045 206.493 193.356  1.00  0.00     0.000 C 
ENDROOT
BRANCH   1   2
ATOM      2  C   UNL     1     199.629 205.183 192.667  1.00  0.00     0.004 C 
BRANCH   2   3
ATOM      3  C   UNL     1     198.724 205.419 191.449  1.00  0.00     0.027 C 
BRANCH   3   4
ATOM      4  C   UNL     1     197.439 206.110 191.828  1.00  0.00    -0.025 C 
ATOM      5  C   UNL     1     197.052 207.347 191.470  1.00  0.00     0.020 C 
BRANCH   5   6
ATOM      6  C   UNL     1     197.783 208.305 190.616  1.00  0.00     0.064 C 
ATOM      7  O   UNL     1     197.743 208.256 189.361  1.00  0.00    -0.545 OA
ATOM      8  O   UNL     1     198.517 209.316 191.225  1.00  0.00    -0.545 OA
ENDBRANCH   5   6
ENDBRANCH   3   4
ENDBRANCH   2   3
ENDBRANCH   1   2
BRANCH   1   9
ATOM      9  C   UNL     1     201.168 207.233 192.606  1.00  0.00     0.000 C 
BRANCH   9  10
ATOM     10  C   UNL     1     202.386 206.365 192.242  1.00  0.00     0.000 C 
BRANCH  10  11
ATOM     11  C   UNL     1     202.831 206.541 190.779  1.00  0.00    -0.000 C 
BRANCH  11  12
ATOM     12  C   UNL     1     202.635 205.265 189.945  1.00  0.00    -0.000 C 
BRANCH  12  13
ATOM     13  C   UNL     1     201.363 205.313 189.086  1.00  0.00    -0.003 C 
ATOM     14  C   UNL     1     200.895 206.751 188.877  1.00  0.00     0.004 C 
ENDBRANCH  12  13
ENDBRANCH  11  12
ENDBRANCH  10  11
ENDBRANCH   9  10
ENDBRANCH   1   9
TORSDOF 9
ENDMDL
MODEL 2
REMARK VINA RESULT:    -3.630      2.046      3.497
REMARK INTER + INTRA:          -6.906
REMARK INTER:                  -5.212
REMARK INTRA:                  -1.694
REMARK UNBOUND:                -1.366
REMARK SMILES CCCCCCCCCC=CC(=O)[O-]
REMARK SMILES IDX 7 1 8 2 9 3 10 4 11 5 12 6 13 7 14 8 6 9 5 10 4 11 3 12 2 13
REMARK SMILES IDX 1 14
REMARK H PARENT
REMARK Flexibility Score: inf
ROOT
ATOM      1  C   UNL     1     201.319 205.069 189.238  1.00  0.00     0.000 C 
ENDROOT
BRANCH   1   2
ATOM      2  C   UNL     1     200.135 206.035 189.075  1.00  0.00     0.004 C 
BRANCH   2   3
ATOM      3  C   UNL     1     199.442 206.349 190.409  1.00  0.00     0.027 C 
BRANCH   3   4
ATOM      4  C   UNL     1     199.712 205.289 191.447  1.00  0.00    -0.025 C 
ATOM      5  C   UNL     1     199.951 205.483 192.756  1.00  0.00     0.020 C 
BRANCH   5   6
ATOM      6  C   UNL     1     199.988 206.770 193.481  1.00  0.00     0.064 C 
ATOM      7  O   UNL     1     201.055 207.257 193.933  1.00  0.00    -0.545 OA
ATOM      8  O   UNL     1     198.805 207.479 193.642  1.00  0.00    -0.545 OA
ENDBRANCH   5   6
ENDBRANCH   3   4
ENDBRANCH   2   3
ENDBRANCH   1   2
BRANCH   1   9
ATOM      9  C   UNL     1     202.674 205.794 189.344  1.00  0.00     0.000 C 
BRANCH   9  10
ATOM     10  C   UNL     1     203.322 205.757 190.740  1.00  0.00     0.000 C 
BRANCH  10  11
ATOM     11  C   UNL     1     203.426 207.148 191.388  1.00  0.00    -0.000 C 
BRANCH  11  12
ATOM     12  C   UNL     1     202.974 208.274 190.445  1.00  0.00    -0.000 C 
BRANCH  12  13
ATOM     13  C   UNL     1     201.809 209.092 191.022  1.00  0.00    -0.003 C 
ATOM     14  C   UNL     1     200.975 209.721 189.909  1.00  0.00     0.004 C 
ENDBRANCH  12  13
ENDBRANCH  11  12
ENDBRANCH  10  11
ENDBRANCH   9  10
ENDBRANCH   1   9
TORSDOF 9
ENDMDL
MODEL 3
REMARK VINA RESULT:    -3.539      1.227      2.433
REMARK INTER + INTRA:          -6.768
REMARK INTER:                  -5.112
REMARK INTRA:                  -1.656
REMARK UNBOUND:                -1.366
REMARK SMILES CCCCCCCCCC=CC(=O)[O-]
REMARK SMILES IDX 7 1 8 2 9 3 10 4 11 5 12 6 13 7 14 8 6 9 5 10 4 11 3 12 2 13
REMARK SMILES IDX 1 14
REMARK H PARENT
REMARK Flexibility Score: inf
ROOT
ATOM      1  C   UNL     1     198.702 205.357 191.519  1.00  0.00     0.000 C 
ENDROOT
BRANCH   1   2
ATOM      2  C   UNL     1     197.635 206.413 191.848  1.00  0.00     0.004 C 
BRANCH   2   3
ATOM      3  C   UNL     1     197.511 207.486 190.757  1.00  0.00     0.027 C 
BRANCH   3   4
ATOM      4  C   UNL     1     198.818 207.713 190.040  1.00  0.00    -0.025 C 
ATOM      5  C   UNL     1     199.627 208.781 190.155  1.00  0.00     0.020 C 
BRANCH   5   6
ATOM      6  C   UNL     1     199.435 209.966 191.016  1.00  0.00     0.064 C 
ATOM      7  O   UNL     1     198.820 210.990 190.626  1.00  0.00    -0.545 OA
ATOM      8  O   UNL     1     199.926 209.933 192.315  1.00  0.00    -0.545 OA
ENDBRANCH   5   6
ENDBRANCH   3   4
ENDBRANCH   2   3
ENDBRANCH   1   2
BRANCH   1   9
ATOM      9  C   UNL     1     199.728 205.168 192.652  1.00  0.00     0.000 C 
BRANCH   9  10
ATOM     10  C   UNL     1     200.291 206.475 193.241  1.00  0.00     0.000 C 
BRANCH  10  11
ATOM     11  C   UNL     1     201.649 206.868 192.634  1.00  0.00    -0.000 C 
BRANCH  11  12
ATOM     12  C   UNL     1     202.240 205.764 191.743  1.00  0.00    -0.000 C 
BRANCH  12  13
ATOM     13  C   UNL     1     202.348 206.189 190.271  1.00  0.00    -0.003 C 
ATOM     14  C   UNL     1     201.593 205.223 189.363  1.00  0.00     0.004 C 
ENDBRANCH  12  13
ENDBRANCH  11  12
ENDBRANCH  10  11
ENDBRANCH   9  10
ENDBRANCH   1   9
TORSDOF 9
ENDMDL
MODEL 4
REMARK VINA RESULT:    -3.534      2.743      5.120
REMARK INTER + INTRA:          -6.759
REMARK INTER:                  -5.273
REMARK INTRA:                  -1.487
REMARK UNBOUND:                -1.366
REMARK SMILES CCCCCCCCCC=CC(=O)[O-]
REMARK SMILES IDX 7 1 8 2 9 3 10 4 11 5 12 6 13 7 14 8 6 9 5 10 4 11 3 12 2 13
REMARK SMILES IDX 1 14
REMARK H PARENT
REMARK Flexibility Score: inf
ROOT
ATOM      1  C   UNL     1     202.469 205.982 189.288  1.00  0.00     0.000 C 
ENDROOT
BRANCH   1   2
ATOM      2  C   UNL     1     203.291 205.348 190.422  1.00  0.00     0.004 C 
BRANCH   2   3
ATOM      3  C   UNL     1     203.058 206.035 191.775  1.00  0.00     0.027 C 
BRANCH   3   4
ATOM      4  C   UNL     1     202.792 207.510 191.619  1.00  0.00    -0.025 C 
ATOM      5  C   UNL     1     202.911 208.456 192.567  1.00  0.00     0.020 C 
BRANCH   5   6
ATOM      6  C   UNL     1     203.341 208.275 193.969  1.00  0.00     0.064 C 
ATOM      7  O   UNL     1     204.520 208.495 194.345  1.00  0.00    -0.545 OA
ATOM      8  O   UNL     1     202.400 207.876 194.909  1.00  0.00    -0.545 OA
ENDBRANCH   5   6
ENDBRANCH   3   4
ENDBRANCH   2   3
ENDBRANCH   1   2
BRANCH   1   9
ATOM      9  C   UNL     1     201.062 205.370 189.154  1.00  0.00     0.000 C 
BRANCH   9  10
ATOM     10  C   UNL     1     199.914 206.393 189.082  1.00  0.00     0.000 C 
BRANCH  10  11
ATOM     11  C   UNL     1     199.236 206.627 190.444  1.00  0.00    -0.000 C 
BRANCH  11  12
ATOM     12  C   UNL     1     198.929 205.316 191.184  1.00  0.00    -0.000 C 
BRANCH  12  13
ATOM     13  C   UNL     1     199.604 205.245 192.562  1.00  0.00    -0.003 C 
ATOM     14  C   UNL     1     199.639 206.618 193.227  1.00  0.00     0.004 C 
ENDBRANCH  12  13
ENDBRANCH  11  12
ENDBRANCH  10  11
ENDBRANCH   9  10
ENDBRANCH   1   9
TORSDOF 9
ENDMDL
MODEL 5
REMARK VINA RESULT:    -3.519      1.641      2.914
REMARK INTER + INTRA:          -6.736
REMARK INTER:                  -5.118
REMARK INTRA:                  -1.618
REMARK UNBOUND:                -1.366
REMARK SMILES CCCCCCCCCC=CC(=O)[O-]
REMARK SMILES IDX 7 1 8 2 9 3 10 4 11 5 12 6 13 7 14 8 6 9 5 10 4 11 3 12 2 13
REMARK SMILES IDX 1 14
REMARK H PARENT
REMARK Flexibility Score: inf
ROOT
ATOM      1  C   UNL     1     199.981 206.305 193.391  1.00  0.00     0.000 C 
ENDROOT
BRANCH   1   2
ATOM      2  C   UNL     1     201.242 207.162 193.196  1.00  0.00     0.004 C 
BRANCH   2   3
ATOM      3  C   UNL     1     200.935 208.666 193.159  1.00  0.00     0.027 C 
BRANCH   3   4
ATOM      4  C   UNL     1     200.290 209.077 191.860  1.00  0.00    -0.025 C 
ATOM      5  C   UNL     1     198.984 209.316 191.647  1.00  0.00     0.020 C 
BRANCH   5   6
ATOM      6  C   UNL     1     197.885 209.248 192.632  1.00  0.00     0.064 C 
ATOM      7  O   UNL     1     197.100 208.269 192.699  1.00  0.00    -0.545 OA
ATOM      8  O   UNL     1     197.736 210.290 193.538  1.00  0.00    -0.545 OA
ENDBRANCH   5   6
ENDBRANCH   3   4
ENDBRANCH   2   3
ENDBRANCH   1   2
BRANCH   1   9
ATOM      9  C   UNL     1     199.870 205.160 192.368  1.00  0.00     0.000 C 
BRANCH   9  10
ATOM     10  C   UNL     1     198.913 205.430 191.193  1.00  0.00     0.000 C 
BRANCH  10  11
ATOM     11  C   UNL     1     199.631 205.995 189.954  1.00  0.00    -0.000 C 
BRANCH  11  12
ATOM     12  C   UNL     1     200.934 205.246 189.635  1.00  0.00    -0.000 C 
BRANCH  12  13
ATOM     13  C   UNL     1     202.161 206.170 189.643  1.00  0.00    -0.003 C 
ATOM     14  C   UNL     1     203.315 205.545 190.423  1.00  0.00     0.004 C 
ENDBRANCH  12  13
ENDBRANCH  11  12
ENDBRANCH  10  11
ENDBRANCH   9  10
ENDBRANCH   1   9
TORSDOF 9
ENDMDL
MODEL 6
REMARK VINA RESULT:    -3.505      2.208      4.846
REMARK INTER + INTRA:          -6.715
REMARK INTER:                  -5.387
REMARK INTRA:                  -1.329
REMARK UNBOUND:                -1.366
REMARK SMILES CCCCCCCCCC=CC(=O)[O-]
REMARK SMILES IDX 7 1 8 2 9 3 10 4 11 5 12 6 13 7 14 8 6 9 5 10 4 11 3 12 2 13
REMARK SMILES IDX 1 14
REMARK H PARENT
REMARK Flexibility Score: inf
ROOT
ATOM      1  C   UNL     1     199.737 205.012 192.393  1.00  0.00     0.000 C 
ENDROOT
BRANCH   1   2
ATOM      2  C   UNL     1     200.260 206.230 193.169  1.00  0.00     0.004 C 
BRANCH   2   3
ATOM      3  C   UNL     1     201.345 206.999 192.401  1.00  0.00     0.027 C 
BRANCH   3   4
ATOM      4  C   UNL     1     202.533 206.127 192.082  1.00  0.00    -0.025 C 
ATOM      5  C   UNL     1     202.892 205.663 190.872  1.00  0.00     0.020 C 
BRANCH   5   6
ATOM      6  C   UNL     1     202.220 205.910 189.579  1.00  0.00     0.064 C 
ATOM      7  O   UNL     1     201.469 205.061 189.037  1.00  0.00    -0.545 OA
ATOM      8  O   UNL     1     202.403 207.138 188.956  1.00  0.00    -0.545 OA
ENDBRANCH   5   6
ENDBRANCH   3   4
ENDBRANCH   2   3
ENDBRANCH   1   2
BRANCH   1   9
ATOM      9  C   UNL     1     198.737 205.392 191.285  1.00  0.00     0.000 C 
BRANCH   9  10
ATOM     10  C   UNL     1     197.685 206.439 191.692  1.00  0.00     0.000 C 
BRANCH  10  11
ATOM     11  C   UNL     1     197.664 207.661 190.756  1.00  0.00    -0.000 C 
BRANCH  11  12
ATOM     12  C   UNL     1     198.141 208.945 191.452  1.00  0.00    -0.000 C 
BRANCH  12  13
ATOM     13  C   UNL     1     197.819 208.955 192.954  1.00  0.00    -0.003 C 
ATOM     14  C   UNL     1     198.899 209.691 193.742  1.00  0.00     0.004 C 
ENDBRANCH  12  13
ENDBRANCH  11  12
ENDBRANCH  10  11
ENDBRANCH   9  10
ENDBRANCH   1   9
TORSDOF 9
ENDMDL
MODEL 7
REMARK VINA RESULT:    -3.500      3.115      5.089
REMARK INTER + INTRA:          -6.708
REMARK INTER:                  -5.488
REMARK INTRA:                  -1.219
REMARK UNBOUND:                -1.366
REMARK SMILES CCCCCCCCCC=CC(=O)[O-]
REMARK SMILES IDX 7 1 8 2 9 3 10 4 11 5 12 6 13 7 14 8 6 9 5 10 4 11 3 12 2 13
REMARK SMILES IDX 1 14
REMARK H PARENT
REMARK Flexibility Score: inf
ROOT
ATOM      1  C   UNL     1     201.329 207.160 193.501  1.00  0.00     0.000 C 
ENDROOT
BRANCH   1   2
ATOM      2  C   UNL     1     202.017 207.323 192.136  1.00  0.00     0.004 C 
BRANCH   2   3
ATOM      3  C   UNL     1     202.939 206.144 191.795  1.00  0.00     0.027 C 
BRANCH   3   4
ATOM      4  C   UNL     1     202.696 205.623 190.402  1.00  0.00    -0.025 C 
ATOM      5  C   UNL     1     203.511 205.746 189.340  1.00  0.00     0.020 C 
BRANCH   5   6
ATOM      6  C   UNL     1     204.834 206.402 189.294  1.00  0.00     0.064 C 
ATOM      7  O   UNL     1     204.967 207.651 189.311  1.00  0.00    -0.545 OA
ATOM      8  O   UNL     1     205.972 205.606 189.261  1.00  0.00    -0.545 OA
ENDBRANCH   5   6
ENDBRANCH   3   4
ENDBRANCH   2   3
ENDBRANCH   1   2
BRANCH   1   9
ATOM      9  C   UNL     1     199.877 206.660 193.383  1.00  0.00     0.000 C 
BRANCH   9  10
ATOM     10  C   UNL     1     199.717 205.282 192.716  1.00  0.00     0.000 C 
BRANCH  10  11
ATOM     11  C   UNL     1     198.967 205.349 191.375  1.00  0.00    -0.000 C 
BRANCH  11  12
ATOM     12  C   UNL     1     197.930 206.483 191.335  1.00  0.00    -0.000 C 
BRANCH  12  13
ATOM     13  C   UNL     1     198.193 207.482 190.199  1.00  0.00    -0.003 C 
ATOM     14  C   UNL     1     199.453 207.112 189.422  1.00  0.00     0.004 C 
ENDBRANCH  12  13
ENDBRANCH  11  12
ENDBRANCH  10  11
ENDBRANCH   9  10
ENDBRANCH   1   9
TORSDOF 9
ENDMDL
MODEL 8
REMARK VINA RESULT:    -3.496      1.905      3.654
REMARK INTER + INTRA:          -6.701
REMARK INTER:                  -5.448
REMARK INTRA:                  -1.254
REMARK UNBOUND:                -1.366
REMARK SMILES CCCCCCCCCC=CC(=O)[O-]
REMARK SMILES IDX 7 1 8 2 9 3 10 4 11 5 12 6 13 7 14 8 6 9 5 10 4 11 3 12 2 13
REMARK SMILES IDX 1 14
REMARK H PARENT
REMARK Flexibility Score: inf
ROOT
ATOM      1  C   UNL     1     200.760 205.350 189.180  1.00  0.00     0.000 C 
ENDROOT
BRANCH   1   2
ATOM      2  C   UNL     1     199.840 206.222 190.050  1.00  0.00     0.004 C 
BRANCH   2   3
ATOM      3  C   UNL     1     199.072 205.405 191.098  1.00  0.00     0.027 C 
BRANCH   3   4
ATOM      4  C   UNL     1     199.785 205.380 192.426  1.00  0.00    -0.025 C 
ATOM      5  C   UNL     1     199.776 206.341 193.366  1.00  0.00     0.020 C 
BRANCH   5   6
ATOM      6  C   UNL     1     199.056 207.630 193.326  1.00  0.00     0.064 C 
ATOM      7  O   UNL     1     197.820 207.719 193.537  1.00  0.00    -0.545 OA
ATOM      8  O   UNL     1     199.778 208.790 193.075  1.00  0.00    -0.545 OA
ENDBRANCH   5   6
ENDBRANCH   3   4
ENDBRANCH   2   3
ENDBRANCH   1   2
BRANCH   1   9
ATOM      9  C   UNL     1     202.200 205.275 189.719  1.00  0.00     0.000 C 
BRANCH   9  10
ATOM     10  C   UNL     1     202.749 206.596 190.287  1.00  0.00     0.000 C 
BRANCH  10  11
ATOM     11  C   UNL     1     203.205 206.474 191.752  1.00  0.00    -0.000 C 
BRANCH  11  12
ATOM     12  C   UNL     1     203.065 207.794 192.526  1.00  0.00    -0.000 C 
BRANCH  12  13
ATOM     13  C   UNL     1     203.709 207.731 193.919  1.00  0.00    -0.003 C 
ATOM     14  C   UNL     1     202.670 207.952 195.015  1.00  0.00     0.004 C 
ENDBRANCH  12  13
ENDBRANCH  11  12
ENDBRANCH  10  11
ENDBRANCH   9  10
ENDBRANCH   1   9
TORSDOF 9
ENDMDL
MODEL 9
REMARK VINA RESULT:    -3.491      3.187      5.298
REMARK INTER + INTRA:          -6.693
REMARK INTER:                  -5.347
REMARK INTRA:                  -1.346
REMARK UNBOUND:                -1.366
REMARK SMILES CCCCCCCCCC=CC(=O)[O-]
REMARK SMILES IDX 7 1 8 2 9 3 10 4 11 5 12 6 13 7 14 8 6 9 5 10 4 11 3 12 2 13
REMARK SMILES IDX 1 14
REMARK H PARENT
REMARK Flexibility Score: inf
ROOT
ATOM      1  C   UNL     1     199.662 206.190 190.192  1.00  0.00     0.000 C 
ENDROOT
BRANCH   1   2
ATOM      2  C   UNL     1     200.564 205.339 189.284  1.00  0.00     0.004 C 
BRANCH   2   3
ATOM      3  C   UNL     1     201.990 205.897 189.179  1.00  0.00     0.027 C 
BRANCH   3   4
ATOM      4  C   UNL     1     202.677 205.941 190.520  1.00  0.00    -0.025 C 
ATOM      5  C   UNL     1     203.984 206.158 190.751  1.00  0.00     0.020 C 
BRANCH   5   6
ATOM      6  C   UNL     1     205.042 206.417 189.753  1.00  0.00     0.064 C 
ATOM      7  O   UNL     1     205.698 205.491 189.211  1.00  0.00    -0.545 OA
ATOM      8  O   UNL     1     205.300 207.729 189.379  1.00  0.00    -0.545 OA
ENDBRANCH   5   6
ENDBRANCH   3   4
ENDBRANCH   2   3
ENDBRANCH   1   2
BRANCH   1   9
ATOM      9  C   UNL     1     199.000 205.371 191.316  1.00  0.00     0.000 C 
BRANCH   9  10
ATOM     10  C   UNL     1     199.783 205.338 192.642  1.00  0.00     0.000 C 
BRANCH  10  11
ATOM     11  C   UNL     1     199.802 206.700 193.359  1.00  0.00    -0.000 C 
BRANCH  11  12
ATOM     12  C   UNL     1     201.228 207.213 193.613  1.00  0.00    -0.000 C 
BRANCH  12  13
ATOM     13  C   UNL     1     201.517 208.533 192.882  1.00  0.00    -0.003 C 
ATOM     14  C   UNL     1     200.243 209.119 192.280  1.00  0.00     0.004 C 
ENDBRANCH  12  13
ENDBRANCH  11  12
ENDBRANCH  10  11
ENDBRANCH   9  10
ENDBRANCH   1   9
TORSDOF 9
ENDMDL
