MODEL 1
REMARK VINA RESULT:    -3.647      0.000      0.000
REMARK INTER + INTRA:         -14.966
REMARK INTER:                  -9.618
REMARK INTRA:                  -5.348
REMARK UNBOUND:                -5.348
REMARK SMILES CCCCCCCCCCCCCCCCCCCCCCCCCCCCCC(=O)[O-]
REMARK SMILES IDX 16 1 17 2 18 3 19 4 20 5 21 6 22 7 23 8 24 9 25 10 26 11
REMARK SMILES IDX 27 12 28 13 29 14 30 15 31 16 32 17 15 18 14 19 13 20 12 21
REMARK SMILES IDX 11 22 10 23 9 24 8 25 7 26 6 27 5 28 4 29 3 30 2 31 1 32
REMARK H PARENT
REMARK Flexibility Score: inf
ROOT
ATOM      1  C   UNL     1     -11.396 -34.278 -44.951  1.00  0.00     0.000 C 
ENDROOT
BRANCH   1   2
ATOM      2  C   UNL     1     -10.108 -34.256 -44.111  1.00  0.00     0.000 C 
BRANCH   2   3
ATOM      3  C   UNL     1      -8.952 -35.018 -44.780  1.00  0.00     0.000 C 
BRANCH   3   4
ATOM      4  C   UNL     1      -9.251 -35.390 -46.242  1.00  0.00     0.000 C 
BRANCH   4   5
ATOM      5  C   UNL     1      -9.615 -36.878 -46.438  1.00  0.00     0.000 C 
BRANCH   5   6
ATOM      6  C   UNL     1      -9.924 -37.217 -47.908  1.00  0.00     0.000 C 
BRANCH   6   7
ATOM      7  C   UNL     1      -9.785 -35.987 -48.829  1.00  0.00     0.000 C 
BRANCH   7   8
ATOM      8  C   UNL     1     -11.081 -35.620 -49.581  1.00  0.00     0.000 C 
BRANCH   8   9
ATOM      9  C   UNL     1     -11.809 -34.373 -49.049  1.00  0.00     0.000 C 
BRANCH   9  10
ATOM     10  C   UNL     1     -11.791 -33.201 -50.047  1.00  0.00     0.000 C 
BRANCH  10  11
ATOM     11  C   UNL     1     -10.439 -32.473 -50.079  1.00  0.00     0.000 C 
BRANCH  11  12
ATOM     12  C   UNL     1      -9.920 -32.114 -48.676  1.00  0.00     0.000 C 
BRANCH  12  13
ATOM     13  C   UNL     1      -8.472 -31.598 -48.696  1.00  0.00     0.006 C 
BRANCH  13  14
ATOM     14  C   UNL     1      -7.438 -32.733 -48.746  1.00  0.00     0.053 C 
BRANCH  14  15
ATOM     15  C   UNL     1      -6.079 -32.246 -48.343  1.00  0.00     0.041 C 
ATOM     16  O   UNL     1      -5.833 -31.011 -48.302  1.00  0.00    -0.550 OA
ATOM     17  O   UNL     1      -5.096 -33.156 -47.976  1.00  0.00    -0.550 OA
ENDBRANCH  14  15
ENDBRANCH  13  14
ENDBRANCH  12  13
ENDBRANCH  11  12
ENDBRANCH  10  11
ENDBRANCH   9  10
ENDBRANCH   8   9
ENDBRANCH   7   8
ENDBRANCH   6   7
ENDBRANCH   5   6
ENDBRANCH   4   5
ENDBRANCH   3   4
ENDBRANCH   2   3
ENDBRANCH   1   2
BRANCH   1  18
ATOM     18  C   UNL     1     -12.659 -34.622 -44.128  1.00  0.00     0.000 C 
BRANCH  18  19
ATOM     19  C   UNL     1     -13.733 -35.369 -44.940  1.00  0.00     0.000 C 
BRANCH  19  20
ATOM     20  C   UNL     1     -13.184 -35.913 -46.269  1.00  0.00     0.000 C 
BRANCH  20  21
ATOM     21  C   UNL     1     -13.573 -37.387 -46.461  1.00  0.00     0.000 C 
BRANCH  21  22
ATOM     22  C   UNL     1     -13.599 -37.815 -47.941  1.00  0.00     0.000 C 
BRANCH  22  23
ATOM     23  C   UNL     1     -14.954 -38.353 -48.442  1.00  0.00     0.000 C 
BRANCH  23  24
ATOM     24  C   UNL     1     -15.732 -37.406 -49.376  1.00  0.00    -0.000 C 
BRANCH  24  25
ATOM     25  C   UNL     1     -15.070 -36.023 -49.555  1.00  0.00    -0.000 C 
BRANCH  25  26
ATOM     26  C   UNL     1     -15.723 -34.935 -48.682  1.00  0.00    -0.000 C 
BRANCH  26  27
ATOM     27  C   UNL     1     -17.042 -35.401 -48.046  1.00  0.00    -0.000 C 
BRANCH  27  28
ATOM     28  C   UNL     1     -16.911 -35.662 -46.538  1.00  0.00    -0.000 C 
BRANCH  28  29
ATOM     29  C   UNL     1     -18.100 -36.487 -46.022  1.00  0.00    -0.000 C 
BRANCH  29  30
ATOM     30  C   UNL     1     -17.934 -37.999 -46.269  1.00  0.00    -0.000 C 
BRANCH  30  31
ATOM     31  C   UNL     1     -17.678 -38.837 -45.003  1.00  0.00    -0.003 C 
ATOM     32  C   UNL     1     -16.303 -38.585 -44.384  1.00  0.00     0.004 C 
ENDBRANCH  30  31
ENDBRANCH  29  30
ENDBRANCH  28  29
ENDBRANCH  27  28
ENDBRANCH  26  27
ENDBRANCH  25  26
ENDBRANCH  24  25
ENDBRANCH  23  24
ENDBRANCH  22  23
ENDBRANCH  21  22
ENDBRANCH  20  21
ENDBRANCH  19  20
ENDBRANCH  18  19
ENDBRANCH   1  18
TORSDOF 28
ENDMDL
MODEL 2
REMARK VINA RESULT:    -3.509      1.477      2.164
REMARK INTER + INTRA:         -14.601
REMARK INTER:                 -10.017
REMARK INTRA:                  -4.584
REMARK UNBOUND:                -5.348
REMARK SMILES CCCCCCCCCCCCCCCCCCCCCCCCCCCCCC(=O)[O-]
REMARK SMILES IDX 16 1 17 2 18 3 19 4 20 5 21 6 22 7 23 8 24 9 25 10 26 11
REMARK SMILES IDX 27 12 28 13 29 14 30 15 31 16 32 17 15 18 14 19 13 20 12 21
REMARK SMILES IDX 11 22 10 23 9 24 8 25 7 26 6 27 5 28 4 29 3 30 2 31 1 32
REMARK H PARENT
REMARK Flexibility Score: inf
ROOT
ATOM      1  C   UNL     1     -10.178 -34.205 -43.954  1.00  0.00     0.000 C 
ENDROOT
BRANCH   1   2
ATOM      2  C   UNL     1      -8.884 -34.968 -44.282  1.00  0.00     0.000 C 
BRANCH   2   3
ATOM      3  C   UNL     1      -8.768 -35.324 -45.774  1.00  0.00     0.000 C 
BRANCH   3   4
ATOM      4  C   UNL     1      -9.118 -36.793 -46.063  1.00  0.00     0.000 C 
BRANCH   4   5
ATOM      5  C   UNL     1      -9.915 -36.990 -47.371  1.00  0.00     0.000 C 
BRANCH   5   6
ATOM      6  C   UNL     1      -9.573 -35.926 -48.431  1.00  0.00     0.000 C 
BRANCH   6   7
ATOM      7  C   UNL     1     -10.758 -35.652 -49.382  1.00  0.00     0.000 C 
BRANCH   7   8
ATOM      8  C   UNL     1     -11.091 -34.156 -49.549  1.00  0.00     0.000 C 
BRANCH   8   9
ATOM      9  C   UNL     1     -10.558 -33.244 -48.430  1.00  0.00     0.000 C 
BRANCH   9  10
ATOM     10  C   UNL     1      -9.626 -32.137 -48.955  1.00  0.00     0.000 C 
BRANCH  10  11
ATOM     11  C   UNL     1      -8.717 -32.622 -50.094  1.00  0.00     0.000 C 
BRANCH  11  12
ATOM     12  C   UNL     1      -7.226 -32.353 -49.826  1.00  0.00     0.000 C 
BRANCH  12  13
ATOM     13  C   UNL     1      -6.980 -31.690 -48.461  1.00  0.00     0.006 C 
BRANCH  13  14
ATOM     14  C   UNL     1      -5.733 -30.793 -48.452  1.00  0.00     0.053 C 
BRANCH  14  15
ATOM     15  C   UNL     1      -6.065 -29.400 -48.892  1.00  0.00     0.041 C 
ATOM     16  O   UNL     1      -6.701 -29.205 -49.962  1.00  0.00    -0.550 OA
ATOM     17  O   UNL     1      -5.704 -28.317 -48.100  1.00  0.00    -0.550 OA
ENDBRANCH  14  15
ENDBRANCH  13  14
ENDBRANCH  12  13
ENDBRANCH  11  12
ENDBRANCH  10  11
ENDBRANCH   9  10
ENDBRANCH   8   9
ENDBRANCH   7   8
ENDBRANCH   6   7
ENDBRANCH   5   6
ENDBRANCH   4   5
ENDBRANCH   3   4
ENDBRANCH   2   3
ENDBRANCH   1   2
BRANCH   1  18
ATOM     18  C   UNL     1     -11.323 -34.480 -44.956  1.00  0.00     0.000 C 
BRANCH  18  19
ATOM     19  C   UNL     1     -12.695 -34.663 -44.281  1.00  0.00     0.000 C 
BRANCH  19  20
ATOM     20  C   UNL     1     -13.700 -35.383 -45.194  1.00  0.00     0.000 C 
BRANCH  20  21
ATOM     21  C   UNL     1     -12.988 -36.031 -46.391  1.00  0.00     0.000 C 
BRANCH  21  22
ATOM     22  C   UNL     1     -13.476 -37.463 -46.680  1.00  0.00     0.000 C 
BRANCH  22  23
ATOM     23  C   UNL     1     -14.524 -37.582 -47.805  1.00  0.00     0.000 C 
BRANCH  23  24
ATOM     24  C   UNL     1     -13.981 -37.380 -49.233  1.00  0.00    -0.000 C 
BRANCH  24  25
ATOM     25  C   UNL     1     -14.750 -36.321 -50.050  1.00  0.00    -0.000 C 
BRANCH  25  26
ATOM     26  C   UNL     1     -14.740 -34.933 -49.381  1.00  0.00    -0.000 C 
BRANCH  26  27
ATOM     27  C   UNL     1     -16.155 -34.410 -49.085  1.00  0.00    -0.000 C 
BRANCH  27  28
ATOM     28  C   UNL     1     -17.224 -35.059 -49.976  1.00  0.00    -0.000 C 
BRANCH  28  29
ATOM     29  C   UNL     1     -18.397 -35.579 -49.132  1.00  0.00    -0.000 C 
BRANCH  29  30
ATOM     30  C   UNL     1     -18.063 -36.880 -48.377  1.00  0.00    -0.000 C 
BRANCH  30  31
ATOM     31  C   UNL     1     -18.353 -36.843 -46.865  1.00  0.00    -0.003 C 
ATOM     32  C   UNL     1     -17.300 -36.068 -46.072  1.00  0.00     0.004 C 
ENDBRANCH  30  31
ENDBRANCH  29  30
ENDBRANCH  28  29
ENDBRANCH  27  28
ENDBRANCH  26  27
ENDBRANCH  25  26
ENDBRANCH  24  25
ENDBRANCH  23  24
ENDBRANCH  22  23
ENDBRANCH  21  22
ENDBRANCH  20  21
ENDBRANCH  19  20
ENDBRANCH  18  19
ENDBRANCH   1  18
TORSDOF 28
ENDMDL
MODEL 3
REMARK VINA RESULT:    -3.414      3.395      7.674
REMARK INTER + INTRA:         -14.350
REMARK INTER:                  -9.742
REMARK INTRA:                  -4.608
REMARK UNBOUND:                -5.348
REMARK SMILES CCCCCCCCCCCCCCCCCCCCCCCCCCCCCC(=O)[O-]
REMARK SMILES IDX 16 1 17 2 18 3 19 4 20 5 21 6 22 7 23 8 24 9 25 10 26 11
REMARK SMILES IDX 27 12 28 13 29 14 30 15 31 16 32 17 15 18 14 19 13 20 12 21
REMARK SMILES IDX 11 22 10 23 9 24 8 25 7 26 6 27 5 28 4 29 3 30 2 31 1 32
REMARK H PARENT
REMARK Flexibility Score: inf
ROOT
ATOM      1  C   UNL     1     -10.571 -34.255 -44.104  1.00  0.00     0.000 C 
ENDROOT
BRANCH   1   2
ATOM      2  C   UNL     1     -11.576 -34.634 -45.204  1.00  0.00     0.000 C 
BRANCH   2   3
ATOM      3  C   UNL     1     -12.963 -34.988 -44.643  1.00  0.00     0.000 C 
BRANCH   3   4
ATOM      4  C   UNL     1     -13.907 -35.565 -45.712  1.00  0.00     0.000 C 
BRANCH   4   5
ATOM      5  C   UNL     1     -13.673 -37.064 -45.996  1.00  0.00     0.000 C 
BRANCH   5   6
ATOM      6  C   UNL     1     -14.989 -37.826 -46.241  1.00  0.00     0.000 C 
BRANCH   6   7
ATOM      7  C   UNL     1     -16.017 -37.586 -45.115  1.00  0.00     0.000 C 
BRANCH   7   8
ATOM      8  C   UNL     1     -17.328 -36.932 -45.596  1.00  0.00     0.000 C 
BRANCH   8   9
ATOM      9  C   UNL     1     -17.786 -37.357 -47.002  1.00  0.00     0.000 C 
BRANCH   9  10
ATOM     10  C   UNL     1     -17.928 -36.167 -47.968  1.00  0.00     0.000 C 
BRANCH  10  11
ATOM     11  C   UNL     1     -16.987 -35.006 -47.616  1.00  0.00     0.000 C 
BRANCH  11  12
ATOM     12  C   UNL     1     -15.949 -34.722 -48.716  1.00  0.00     0.000 C 
BRANCH  12  13
ATOM     13  C   UNL     1     -16.553 -33.992 -49.926  1.00  0.00     0.006 C 
BRANCH  13  14
ATOM     14  C   UNL     1     -16.429 -32.464 -49.821  1.00  0.00     0.053 C 
BRANCH  14  15
ATOM     15  C   UNL     1     -17.752 -31.834 -49.509  1.00  0.00     0.041 C 
ATOM     16  O   UNL     1     -18.809 -32.519 -49.553  1.00  0.00    -0.550 OA
ATOM     17  O   UNL     1     -17.813 -30.498 -49.133  1.00  0.00    -0.550 OA
ENDBRANCH  14  15
ENDBRANCH  13  14
ENDBRANCH  12  13
ENDBRANCH  11  12
ENDBRANCH  10  11
ENDBRANCH   9  10
ENDBRANCH   8   9
ENDBRANCH   7   8
ENDBRANCH   6   7
ENDBRANCH   5   6
ENDBRANCH   4   5
ENDBRANCH   3   4
ENDBRANCH   2   3
ENDBRANCH   1   2
BRANCH   1  18
ATOM     18  C   UNL     1      -9.124 -34.706 -44.412  1.00  0.00     0.000 C 
BRANCH  18  19
ATOM     19  C   UNL     1      -8.985 -35.435 -45.761  1.00  0.00     0.000 C 
BRANCH  19  20
ATOM     20  C   UNL     1      -8.887 -36.959 -45.591  1.00  0.00     0.000 C 
BRANCH  20  21
ATOM     21  C   UNL     1      -9.639 -37.686 -46.717  1.00  0.00     0.000 C 
BRANCH  21  22
ATOM     22  C   UNL     1     -10.192 -36.728 -47.789  1.00  0.00     0.000 C 
BRANCH  22  23
ATOM     23  C   UNL     1     -11.304 -37.315 -48.680  1.00  0.00     0.000 C 
BRANCH  23  24
ATOM     24  C   UNL     1     -12.025 -36.300 -49.587  1.00  0.00    -0.000 C 
BRANCH  24  25
ATOM     25  C   UNL     1     -12.200 -34.906 -48.948  1.00  0.00    -0.000 C 
BRANCH  25  26
ATOM     26  C   UNL     1     -12.311 -33.782 -49.995  1.00  0.00    -0.000 C 
BRANCH  26  27
ATOM     27  C   UNL     1     -11.211 -32.719 -49.840  1.00  0.00    -0.000 C 
BRANCH  27  28
ATOM     28  C   UNL     1      -9.823 -33.333 -49.609  1.00  0.00    -0.000 C 
BRANCH  28  29
ATOM     29  C   UNL     1      -9.224 -32.844 -48.281  1.00  0.00    -0.000 C 
BRANCH  29  30
ATOM     30  C   UNL     1      -7.799 -32.278 -48.437  1.00  0.00    -0.000 C 
BRANCH  30  31
ATOM     31  C   UNL     1      -7.732 -30.793 -48.838  1.00  0.00    -0.003 C 
ATOM     32  C   UNL     1      -6.353 -30.173 -48.612  1.00  0.00     0.004 C 
ENDBRANCH  30  31
ENDBRANCH  29  30
ENDBRANCH  28  29
ENDBRANCH  27  28
ENDBRANCH  26  27
ENDBRANCH  25  26
ENDBRANCH  24  25
ENDBRANCH  23  24
ENDBRANCH  22  23
ENDBRANCH  21  22
ENDBRANCH  20  21
ENDBRANCH  19  20
ENDBRANCH  18  19
ENDBRANCH   1  18
TORSDOF 28
ENDMDL
MODEL 4
REMARK VINA RESULT:    -3.291      1.709      3.333
REMARK INTER + INTRA:         -14.026
REMARK INTER:                  -9.535
REMARK INTRA:                  -4.491
REMARK UNBOUND:                -5.348
REMARK SMILES CCCCCCCCCCCCCCCCCCCCCCCCCCCCCC(=O)[O-]
REMARK SMILES IDX 16 1 17 2 18 3 19 4 20 5 21 6 22 7 23 8 24 9 25 10 26 11
REMARK SMILES IDX 27 12 28 13 29 14 30 15 31 16 32 17 15 18 14 19 13 20 12 21
REMARK SMILES IDX 11 22 10 23 9 24 8 25 7 26 6 27 5 28 4 29 3 30 2 31 1 32
REMARK H PARENT
REMARK Flexibility Score: inf
ROOT
ATOM      1  C   UNL     1     -11.185 -35.376 -45.804  1.00  0.00     0.000 C 
ENDROOT
BRANCH   1   2
ATOM      2  C   UNL     1     -10.865 -34.210 -44.854  1.00  0.00     0.000 C 
BRANCH   2   3
ATOM      3  C   UNL     1      -9.775 -34.563 -43.828  1.00  0.00     0.000 C 
BRANCH   3   4
ATOM      4  C   UNL     1      -8.462 -35.018 -44.488  1.00  0.00     0.000 C 
BRANCH   4   5
ATOM      5  C   UNL     1      -7.567 -33.847 -44.950  1.00  0.00     0.000 C 
BRANCH   5   6
ATOM      6  C   UNL     1      -7.452 -33.769 -46.484  1.00  0.00     0.000 C 
BRANCH   6   7
ATOM      7  C   UNL     1      -6.096 -33.184 -46.935  1.00  0.00     0.000 C 
BRANCH   7   8
ATOM      8  C   UNL     1      -5.954 -33.047 -48.465  1.00  0.00     0.000 C 
BRANCH   8   9
ATOM      9  C   UNL     1      -7.018 -33.798 -49.284  1.00  0.00     0.000 C 
BRANCH   9  10
ATOM     10  C   UNL     1      -7.941 -32.852 -50.074  1.00  0.00     0.000 C 
BRANCH  10  11
ATOM     11  C   UNL     1      -9.176 -32.423 -49.268  1.00  0.00     0.000 C 
BRANCH  11  12
ATOM     12  C   UNL     1      -9.521 -30.935 -49.447  1.00  0.00     0.000 C 
BRANCH  12  13
ATOM     13  C   UNL     1      -8.290 -30.078 -49.781  1.00  0.00     0.006 C 
BRANCH  13  14
ATOM     14  C   UNL     1      -7.440 -29.750 -48.544  1.00  0.00     0.053 C 
BRANCH  14  15
ATOM     15  C   UNL     1      -6.092 -29.225 -48.936  1.00  0.00     0.041 C 
ATOM     16  O   UNL     1      -5.505 -28.375 -48.214  1.00  0.00    -0.550 OA
ATOM     17  O   UNL     1      -5.468 -29.702 -50.082  1.00  0.00    -0.550 OA
ENDBRANCH  14  15
ENDBRANCH  13  14
ENDBRANCH  12  13
ENDBRANCH  11  12
ENDBRANCH  10  11
ENDBRANCH   9  10
ENDBRANCH   8   9
ENDBRANCH   7   8
ENDBRANCH   6   7
ENDBRANCH   5   6
ENDBRANCH   4   5
ENDBRANCH   3   4
ENDBRANCH   2   3
ENDBRANCH   1   2
BRANCH   1  18
ATOM     18  C   UNL     1     -11.008 -35.017 -47.298  1.00  0.00     0.000 C 
BRANCH  18  19
ATOM     19  C   UNL     1     -10.046 -35.959 -48.044  1.00  0.00     0.000 C 
BRANCH  19  20
ATOM     20  C   UNL     1      -9.486 -37.061 -47.130  1.00  0.00     0.000 C 
BRANCH  20  21
ATOM     21  C   UNL     1     -10.154 -38.412 -47.427  1.00  0.00     0.000 C 
BRANCH  21  22
ATOM     22  C   UNL     1     -10.551 -38.576 -48.907  1.00  0.00     0.000 C 
BRANCH  22  23
ATOM     23  C   UNL     1     -12.049 -38.844 -49.156  1.00  0.00     0.000 C 
BRANCH  23  24
ATOM     24  C   UNL     1     -12.765 -37.802 -50.036  1.00  0.00    -0.000 C 
BRANCH  24  25
ATOM     25  C   UNL     1     -13.428 -36.660 -49.238  1.00  0.00    -0.000 C 
BRANCH  25  26
ATOM     26  C   UNL     1     -14.253 -37.173 -48.043  1.00  0.00    -0.000 C 
BRANCH  26  27
ATOM     27  C   UNL     1     -14.589 -36.061 -47.036  1.00  0.00    -0.000 C 
BRANCH  27  28
ATOM     28  C   UNL     1     -14.872 -36.604 -45.627  1.00  0.00    -0.000 C 
BRANCH  28  29
ATOM     29  C   UNL     1     -16.331 -37.068 -45.505  1.00  0.00    -0.000 C 
BRANCH  29  30
ATOM     30  C   UNL     1     -17.337 -36.044 -46.068  1.00  0.00    -0.000 C 
BRANCH  30  31
ATOM     31  C   UNL     1     -18.241 -36.578 -47.194  1.00  0.00    -0.003 C 
ATOM     32  C   UNL     1     -17.812 -36.104 -48.583  1.00  0.00     0.004 C 
ENDBRANCH  30  31
ENDBRANCH  29  30
ENDBRANCH  28  29
ENDBRANCH  27  28
ENDBRANCH  26  27
ENDBRANCH  25  26
ENDBRANCH  24  25
ENDBRANCH  23  24
ENDBRANCH  22  23
ENDBRANCH  21  22
ENDBRANCH  20  21
ENDBRANCH  19  20
ENDBRANCH  18  19
ENDBRANCH   1  18
TORSDOF 28
ENDMDL
MODEL 5
REMARK VINA RESULT:    -3.240      1.251      2.938
REMARK INTER + INTRA:         -13.892
REMARK INTER:                  -8.998
REMARK INTRA:                  -4.894
REMARK UNBOUND:                -5.348
REMARK SMILES CCCCCCCCCCCCCCCCCCCCCCCCCCCCCC(=O)[O-]
REMARK SMILES IDX 16 1 17 2 18 3 19 4 20 5 21 6 22 7 23 8 24 9 25 10 26 11
REMARK SMILES IDX 27 12 28 13 29 14 30 15 31 16 32 17 15 18 14 19 13 20 12 21
REMARK SMILES IDX 11 22 10 23 9 24 8 25 7 26 6 27 5 28 4 29 3 30 2 31 1 32
REMARK H PARENT
REMARK Flexibility Score: inf
ROOT
ATOM      1  C   UNL     1     -11.081 -34.263 -44.067  1.00  0.00     0.000 C 
ENDROOT
BRANCH   1   2
ATOM      2  C   UNL     1     -10.091 -34.307 -45.242  1.00  0.00     0.000 C 
BRANCH   2   3
ATOM      3  C   UNL     1      -9.060 -35.440 -45.105  1.00  0.00     0.000 C 
BRANCH   3   4
ATOM      4  C   UNL     1      -8.895 -36.254 -46.400  1.00  0.00     0.000 C 
BRANCH   4   5
ATOM      5  C   UNL     1      -9.692 -37.577 -46.401  1.00  0.00     0.000 C 
BRANCH   5   6
ATOM      6  C   UNL     1     -10.545 -37.746 -47.672  1.00  0.00     0.000 C 
BRANCH   6   7
ATOM      7  C   UNL     1     -10.227 -36.670 -48.732  1.00  0.00     0.000 C 
BRANCH   7   8
ATOM      8  C   UNL     1     -11.463 -35.881 -49.210  1.00  0.00     0.000 C 
BRANCH   8   9
ATOM      9  C   UNL     1     -11.164 -34.474 -49.754  1.00  0.00     0.000 C 
BRANCH   9  10
ATOM     10  C   UNL     1     -10.606 -33.524 -48.679  1.00  0.00     0.000 C 
BRANCH  10  11
ATOM     11  C   UNL     1     -10.686 -32.048 -49.097  1.00  0.00     0.000 C 
BRANCH  11  12
ATOM     12  C   UNL     1      -9.342 -31.313 -48.960  1.00  0.00     0.000 C 
BRANCH  12  13
ATOM     13  C   UNL     1      -8.163 -32.129 -49.512  1.00  0.00     0.006 C 
BRANCH  13  14
ATOM     14  C   UNL     1      -6.872 -31.303 -49.629  1.00  0.00     0.053 C 
BRANCH  14  15
ATOM     15  C   UNL     1      -6.438 -30.784 -48.292  1.00  0.00     0.041 C 
ATOM     16  O   UNL     1      -6.223 -31.580 -47.340  1.00  0.00    -0.550 OA
ATOM     17  O   UNL     1      -6.234 -29.422 -48.109  1.00  0.00    -0.550 OA
ENDBRANCH  14  15
ENDBRANCH  13  14
ENDBRANCH  12  13
ENDBRANCH  11  12
ENDBRANCH  10  11
ENDBRANCH   9  10
ENDBRANCH   8   9
ENDBRANCH   7   8
ENDBRANCH   6   7
ENDBRANCH   5   6
ENDBRANCH   4   5
ENDBRANCH   3   4
ENDBRANCH   2   3
ENDBRANCH   1   2
BRANCH   1  18
ATOM     18  C   UNL     1     -12.526 -34.642 -44.466  1.00  0.00     0.000 C 
BRANCH  18  19
ATOM     19  C   UNL     1     -12.607 -35.453 -45.772  1.00  0.00     0.000 C 
BRANCH  19  20
ATOM     20  C   UNL     1     -14.057 -35.749 -46.184  1.00  0.00     0.000 C 
BRANCH  20  21
ATOM     21  C   UNL     1     -14.424 -37.212 -45.889  1.00  0.00     0.000 C 
BRANCH  21  22
ATOM     22  C   UNL     1     -15.855 -37.376 -45.343  1.00  0.00     0.000 C 
BRANCH  22  23
ATOM     23  C   UNL     1     -16.839 -36.259 -45.742  1.00  0.00     0.000 C 
BRANCH  23  24
ATOM     24  C   UNL     1     -18.269 -36.729 -46.070  1.00  0.00    -0.000 C 
BRANCH  24  25
ATOM     25  C   UNL     1     -18.545 -36.887 -47.580  1.00  0.00    -0.000 C 
BRANCH  25  26
ATOM     26  C   UNL     1     -18.242 -38.307 -48.093  1.00  0.00    -0.000 C 
BRANCH  26  27
ATOM     27  C   UNL     1     -16.881 -38.403 -48.799  1.00  0.00    -0.000 C 
BRANCH  27  28
ATOM     28  C   UNL     1     -16.611 -37.211 -49.729  1.00  0.00    -0.000 C 
BRANCH  28  29
ATOM     29  C   UNL     1     -15.192 -36.663 -49.517  1.00  0.00    -0.000 C 
BRANCH  29  30
ATOM     30  C   UNL     1     -15.105 -35.134 -49.689  1.00  0.00    -0.000 C 
BRANCH  30  31
ATOM     31  C   UNL     1     -16.459 -34.426 -49.876  1.00  0.00    -0.003 C 
ATOM     32  C   UNL     1     -16.968 -33.760 -48.597  1.00  0.00     0.004 C 
ENDBRANCH  30  31
ENDBRANCH  29  30
ENDBRANCH  28  29
ENDBRANCH  27  28
ENDBRANCH  26  27
ENDBRANCH  25  26
ENDBRANCH  24  25
ENDBRANCH  23  24
ENDBRANCH  22  23
ENDBRANCH  21  22
ENDBRANCH  20  21
ENDBRANCH  19  20
ENDBRANCH  18  19
ENDBRANCH   1  18
TORSDOF 28
ENDMDL
MODEL 6
REMARK VINA RESULT:    -3.164      3.633      8.617
REMARK INTER + INTRA:         -13.692
REMARK INTER:                  -9.400
REMARK INTRA:                  -4.292
REMARK UNBOUND:                -5.348
REMARK SMILES CCCCCCCCCCCCCCCCCCCCCCCCCCCCCC(=O)[O-]
REMARK SMILES IDX 16 1 17 2 18 3 19 4 20 5 21 6 22 7 23 8 24 9 25 10 26 11
REMARK SMILES IDX 27 12 28 13 29 14 30 15 31 16 32 17 15 18 14 19 13 20 12 21
REMARK SMILES IDX 11 22 10 23 9 24 8 25 7 26 6 27 5 28 4 29 3 30 2 31 1 32
REMARK H PARENT
REMARK Flexibility Score: inf
ROOT
ATOM      1  C   UNL     1     -10.634 -35.472 -49.787  1.00  0.00     0.000 C 
ENDROOT
BRANCH   1   2
ATOM      2  C   UNL     1      -9.497 -36.504 -49.704  1.00  0.00     0.000 C 
BRANCH   2   3
ATOM      3  C   UNL     1      -9.986 -37.890 -49.253  1.00  0.00     0.000 C 
BRANCH   3   4
ATOM      4  C   UNL     1      -9.806 -38.122 -47.744  1.00  0.00     0.000 C 
BRANCH   4   5
ATOM      5  C   UNL     1     -10.943 -38.951 -47.108  1.00  0.00     0.000 C 
BRANCH   5   6
ATOM      6  C   UNL     1     -12.194 -39.014 -48.005  1.00  0.00     0.000 C 
BRANCH   6   7
ATOM      7  C   UNL     1     -13.437 -38.417 -47.311  1.00  0.00     0.000 C 
BRANCH   7   8
ATOM      8  C   UNL     1     -13.135 -37.168 -46.458  1.00  0.00     0.000 C 
BRANCH   8   9
ATOM      9  C   UNL     1     -13.937 -35.912 -46.841  1.00  0.00     0.000 C 
BRANCH   9  10
ATOM     10  C   UNL     1     -14.558 -36.005 -48.246  1.00  0.00     0.000 C 
BRANCH  10  11
ATOM     11  C   UNL     1     -16.087 -36.147 -48.207  1.00  0.00     0.000 C 
BRANCH  11  12
ATOM     12  C   UNL     1     -16.738 -35.308 -47.094  1.00  0.00     0.000 C 
BRANCH  12  13
ATOM     13  C   UNL     1     -17.727 -36.119 -46.243  1.00  0.00     0.006 C 
BRANCH  13  14
ATOM     14  C   UNL     1     -17.484 -37.634 -46.330  1.00  0.00     0.053 C 
BRANCH  14  15
ATOM     15  C   UNL     1     -17.158 -38.209 -44.986  1.00  0.00     0.041 C 
ATOM     16  O   UNL     1     -18.063 -38.358 -44.121  1.00  0.00    -0.550 OA
ATOM     17  O   UNL     1     -15.860 -38.615 -44.700  1.00  0.00    -0.550 OA
ENDBRANCH  14  15
ENDBRANCH  13  14
ENDBRANCH  12  13
ENDBRANCH  11  12
ENDBRANCH  10  11
ENDBRANCH   9  10
ENDBRANCH   8   9
ENDBRANCH   7   8
ENDBRANCH   6   7
ENDBRANCH   5   6
ENDBRANCH   4   5
ENDBRANCH   3   4
ENDBRANCH   2   3
ENDBRANCH   1   2
BRANCH   1  18
ATOM     18  C   UNL     1     -10.136 -34.024 -50.001  1.00  0.00     0.000 C 
BRANCH  18  19
ATOM     19  C   UNL     1     -10.797 -33.004 -49.056  1.00  0.00     0.000 C 
BRANCH  19  20
ATOM     20  C   UNL     1      -9.916 -31.764 -48.832  1.00  0.00     0.000 C 
BRANCH  20  21
ATOM     21  C   UNL     1      -9.127 -31.415 -50.103  1.00  0.00     0.000 C 
BRANCH  21  22
ATOM     22  C   UNL     1      -8.354 -30.088 -49.987  1.00  0.00     0.000 C 
BRANCH  22  23
ATOM     23  C   UNL     1      -7.393 -29.994 -48.785  1.00  0.00     0.000 C 
BRANCH  23  24
ATOM     24  C   UNL     1      -5.896 -30.114 -49.131  1.00  0.00    -0.000 C 
BRANCH  24  25
ATOM     25  C   UNL     1      -5.191 -31.306 -48.450  1.00  0.00    -0.000 C 
BRANCH  25  26
ATOM     26  C   UNL     1      -6.168 -32.433 -48.065  1.00  0.00    -0.000 C 
BRANCH  26  27
ATOM     27  C   UNL     1      -6.501 -32.439 -46.564  1.00  0.00    -0.000 C 
BRANCH  27  28
ATOM     28  C   UNL     1      -7.000 -33.807 -46.075  1.00  0.00    -0.000 C 
BRANCH  28  29
ATOM     29  C   UNL     1      -8.307 -34.196 -46.781  1.00  0.00    -0.000 C 
BRANCH  29  30
ATOM     30  C   UNL     1      -9.136 -35.224 -45.987  1.00  0.00    -0.000 C 
BRANCH  30  31
ATOM     31  C   UNL     1     -10.557 -34.762 -45.616  1.00  0.00    -0.003 C 
ATOM     32  C   UNL     1     -10.644 -34.153 -44.217  1.00  0.00     0.004 C 
ENDBRANCH  30  31
ENDBRANCH  29  30
ENDBRANCH  28  29
ENDBRANCH  27  28
ENDBRANCH  26  27
ENDBRANCH  25  26
ENDBRANCH  24  25
ENDBRANCH  23  24
ENDBRANCH  22  23
ENDBRANCH  21  22
ENDBRANCH  20  21
ENDBRANCH  19  20
ENDBRANCH  18  19
ENDBRANCH   1  18
TORSDOF 28
ENDMDL
MODEL 7
REMARK VINA RESULT:    -3.143      1.794      3.177
REMARK INTER + INTRA:         -13.635
REMARK INTER:                 -10.103
REMARK INTRA:                  -3.531
REMARK UNBOUND:                -5.348
REMARK SMILES CCCCCCCCCCCCCCCCCCCCCCCCCCCCCC(=O)[O-]
REMARK SMILES IDX 16 1 17 2 18 3 19 4 20 5 21 6 22 7 23 8 24 9 25 10 26 11
REMARK SMILES IDX 27 12 28 13 29 14 30 15 31 16 32 17 15 18 14 19 13 20 12 21
REMARK SMILES IDX 11 22 10 23 9 24 8 25 7 26 6 27 5 28 4 29 3 30 2 31 1 32
REMARK H PARENT
REMARK Flexibility Score: inf
ROOT
ATOM      1  C   UNL     1     -12.389 -34.624 -44.240  1.00  0.00     0.000 C 
ENDROOT
BRANCH   1   2
ATOM      2  C   UNL     1     -11.126 -33.788 -44.500  1.00  0.00     0.000 C 
BRANCH   2   3
ATOM      3  C   UNL     1      -9.915 -34.273 -43.685  1.00  0.00     0.000 C 
BRANCH   3   4
ATOM      4  C   UNL     1      -9.138 -35.399 -44.388  1.00  0.00     0.000 C 
BRANCH   4   5
ATOM      5  C   UNL     1      -8.877 -35.126 -45.885  1.00  0.00     0.000 C 
BRANCH   5   6
ATOM      6  C   UNL     1      -9.634 -36.107 -46.800  1.00  0.00     0.000 C 
BRANCH   6   7
ATOM      7  C   UNL     1      -9.947 -35.490 -48.180  1.00  0.00     0.000 C 
BRANCH   7   8
ATOM      8  C   UNL     1     -10.610 -34.100 -48.106  1.00  0.00     0.000 C 
BRANCH   8   9
ATOM      9  C   UNL     1     -11.301 -33.640 -49.401  1.00  0.00     0.000 C 
BRANCH   9  10
ATOM     10  C   UNL     1     -10.606 -32.431 -50.052  1.00  0.00     0.000 C 
BRANCH  10  11
ATOM     11  C   UNL     1      -9.733 -31.648 -49.060  1.00  0.00     0.000 C 
BRANCH  11  12
ATOM     12  C   UNL     1      -8.371 -31.243 -49.650  1.00  0.00     0.000 C 
BRANCH  12  13
ATOM     13  C   UNL     1      -7.491 -30.488 -48.642  1.00  0.00     0.006 C 
BRANCH  13  14
ATOM     14  C   UNL     1      -6.103 -31.125 -48.471  1.00  0.00     0.053 C 
BRANCH  14  15
ATOM     15  C   UNL     1      -6.214 -32.559 -48.052  1.00  0.00     0.041 C 
ATOM     16  O   UNL     1      -6.356 -32.858 -46.836  1.00  0.00    -0.550 OA
ATOM     17  O   UNL     1      -6.197 -33.565 -49.010  1.00  0.00    -0.550 OA
ENDBRANCH  14  15
ENDBRANCH  13  14
ENDBRANCH  12  13
ENDBRANCH  11  12
ENDBRANCH  10  11
ENDBRANCH   9  10
ENDBRANCH   8   9
ENDBRANCH   7   8
ENDBRANCH   6   7
ENDBRANCH   5   6
ENDBRANCH   4   5
ENDBRANCH   3   4
ENDBRANCH   2   3
ENDBRANCH   1   2
BRANCH   1  18
ATOM     18  C   UNL     1     -12.918 -35.347 -45.500  1.00  0.00     0.000 C 
BRANCH  18  19
ATOM     19  C   UNL     1     -14.232 -36.112 -45.261  1.00  0.00     0.000 C 
BRANCH  19  20
ATOM     20  C   UNL     1     -14.356 -37.351 -46.162  1.00  0.00     0.000 C 
BRANCH  20  21
ATOM     21  C   UNL     1     -13.061 -37.584 -46.955  1.00  0.00     0.000 C 
BRANCH  21  22
ATOM     22  C   UNL     1     -13.218 -37.301 -48.462  1.00  0.00     0.000 C 
BRANCH  22  23
ATOM     23  C   UNL     1     -14.366 -36.341 -48.830  1.00  0.00     0.000 C 
BRANCH  23  24
ATOM     24  C   UNL     1     -15.391 -36.899 -49.837  1.00  0.00    -0.000 C 
BRANCH  24  25
ATOM     25  C   UNL     1     -16.642 -37.516 -49.176  1.00  0.00    -0.000 C 
BRANCH  25  26
ATOM     26  C   UNL     1     -17.281 -36.585 -48.129  1.00  0.00    -0.000 C 
BRANCH  26  27
ATOM     27  C   UNL     1     -18.644 -36.035 -48.581  1.00  0.00    -0.000 C 
BRANCH  27  28
ATOM     28  C   UNL     1     -18.520 -35.001 -49.709  1.00  0.00    -0.000 C 
BRANCH  28  29
ATOM     29  C   UNL     1     -17.811 -33.733 -49.212  1.00  0.00    -0.000 C 
BRANCH  29  30
ATOM     30  C   UNL     1     -18.503 -32.436 -49.675  1.00  0.00    -0.000 C 
BRANCH  30  31
ATOM     31  C   UNL     1     -17.790 -31.137 -49.257  1.00  0.00    -0.003 C 
ATOM     32  C   UNL     1     -18.759 -30.016 -48.880  1.00  0.00     0.004 C 
ENDBRANCH  30  31
ENDBRANCH  29  30
ENDBRANCH  28  29
ENDBRANCH  27  28
ENDBRANCH  26  27
ENDBRANCH  25  26
ENDBRANCH  24  25
ENDBRANCH  23  24
ENDBRANCH  22  23
ENDBRANCH  21  22
ENDBRANCH  20  21
ENDBRANCH  19  20
ENDBRANCH  18  19
ENDBRANCH   1  18
TORSDOF 28
ENDMDL
MODEL 8
REMARK VINA RESULT:    -3.065      3.558      8.743
REMARK INTER + INTRA:         -13.431
REMARK INTER:                 -10.769
REMARK INTRA:                  -2.662
REMARK UNBOUND:                -5.348
REMARK SMILES CCCCCCCCCCCCCCCCCCCCCCCCCCCCCC(=O)[O-]
REMARK SMILES IDX 16 1 17 2 18 3 19 4 20 5 21 6 22 7 23 8 24 9 25 10 26 11
REMARK SMILES IDX 27 12 28 13 29 14 30 15 31 16 32 17 15 18 14 19 13 20 12 21
REMARK SMILES IDX 11 22 10 23 9 24 8 25 7 26 6 27 5 28 4 29 3 30 2 31 1 32
REMARK H PARENT
REMARK Flexibility Score: inf
ROOT
ATOM      1  C   UNL     1     -10.781 -34.250 -44.364  1.00  0.00     0.000 C 
ENDROOT
BRANCH   1   2
ATOM      2  C   UNL     1     -11.784 -34.891 -45.338  1.00  0.00     0.000 C 
BRANCH   2   3
ATOM      3  C   UNL     1     -13.181 -35.066 -44.720  1.00  0.00     0.000 C 
BRANCH   3   4
ATOM      4  C   UNL     1     -14.149 -35.825 -45.644  1.00  0.00     0.000 C 
BRANCH   4   5
ATOM      5  C   UNL     1     -13.800 -37.322 -45.805  1.00  0.00     0.000 C 
BRANCH   5   6
ATOM      6  C   UNL     1     -15.047 -38.188 -46.062  1.00  0.00     0.000 C 
BRANCH   6   7
ATOM      7  C   UNL     1     -15.913 -38.351 -44.795  1.00  0.00     0.000 C 
BRANCH   7   8
ATOM      8  C   UNL     1     -17.408 -38.042 -45.017  1.00  0.00     0.000 C 
BRANCH   8   9
ATOM      9  C   UNL     1     -17.839 -37.946 -46.491  1.00  0.00     0.000 C 
BRANCH   9  10
ATOM     10  C   UNL     1     -18.400 -36.561 -46.860  1.00  0.00     0.000 C 
BRANCH  10  11
ATOM     11  C   UNL     1     -17.359 -35.669 -47.554  1.00  0.00     0.000 C 
BRANCH  11  12
ATOM     12  C   UNL     1     -17.546 -35.606 -49.079  1.00  0.00     0.000 C 
BRANCH  12  13
ATOM     13  C   UNL     1     -18.350 -34.375 -49.526  1.00  0.00     0.006 C 
BRANCH  13  14
ATOM     14  C   UNL     1     -17.562 -33.064 -49.377  1.00  0.00     0.053 C 
BRANCH  14  15
ATOM     15  C   UNL     1     -18.483 -31.883 -49.314  1.00  0.00     0.041 C 
ATOM     16  O   UNL     1     -19.717 -32.027 -49.523  1.00  0.00    -0.550 OA
ATOM     17  O   UNL     1     -17.983 -30.629 -48.986  1.00  0.00    -0.550 OA
ENDBRANCH  14  15
ENDBRANCH  13  14
ENDBRANCH  12  13
ENDBRANCH  11  12
ENDBRANCH  10  11
ENDBRANCH   9  10
ENDBRANCH   8   9
ENDBRANCH   7   8
ENDBRANCH   6   7
ENDBRANCH   5   6
ENDBRANCH   4   5
ENDBRANCH   3   4
ENDBRANCH   2   3
ENDBRANCH   1   2
BRANCH   1  18
ATOM     18  C   UNL     1      -9.375 -34.890 -44.421  1.00  0.00     0.000 C 
BRANCH  18  19
ATOM     19  C   UNL     1      -8.928 -35.258 -45.848  1.00  0.00     0.000 C 
BRANCH  19  20
ATOM     20  C   UNL     1      -9.443 -36.640 -46.280  1.00  0.00     0.000 C 
BRANCH  20  21
ATOM     21  C   UNL     1      -9.819 -36.643 -47.770  1.00  0.00     0.000 C 
BRANCH  21  22
ATOM     22  C   UNL     1      -9.642 -35.267 -48.440  1.00  0.00     0.000 C 
BRANCH  22  23
ATOM     23  C   UNL     1     -10.949 -34.491 -48.695  1.00  0.00     0.000 C 
BRANCH  23  24
ATOM     24  C   UNL     1     -10.780 -33.135 -49.406  1.00  0.00    -0.000 C 
BRANCH  24  25
ATOM     25  C   UNL     1      -9.764 -32.194 -48.725  1.00  0.00    -0.000 C 
BRANCH  25  26
ATOM     26  C   UNL     1      -9.518 -30.904 -49.529  1.00  0.00    -0.000 C 
BRANCH  26  27
ATOM     27  C   UNL     1      -8.069 -30.788 -50.030  1.00  0.00    -0.000 C 
BRANCH  27  28
ATOM     28  C   UNL     1      -7.325 -29.593 -49.415  1.00  0.00    -0.000 C 
BRANCH  28  29
ATOM     29  C   UNL     1      -6.439 -30.045 -48.245  1.00  0.00    -0.000 C 
BRANCH  29  30
ATOM     30  C   UNL     1      -5.418 -31.127 -48.646  1.00  0.00    -0.000 C 
BRANCH  30  31
ATOM     31  C   UNL     1      -5.563 -32.464 -47.896  1.00  0.00    -0.003 C 
ATOM     32  C   UNL     1      -6.332 -33.518 -48.693  1.00  0.00     0.004 C 
ENDBRANCH  30  31
ENDBRANCH  29  30
ENDBRANCH  28  29
ENDBRANCH  27  28
ENDBRANCH  26  27
ENDBRANCH  25  26
ENDBRANCH  24  25
ENDBRANCH  23  24
ENDBRANCH  22  23
ENDBRANCH  21  22
ENDBRANCH  20  21
ENDBRANCH  19  20
ENDBRANCH  18  19
ENDBRANCH   1  18
TORSDOF 28
ENDMDL
MODEL 9
REMARK VINA RESULT:    -3.032      2.445      5.263
REMARK INTER + INTRA:         -13.343
REMARK INTER:                  -9.264
REMARK INTRA:                  -4.079
REMARK UNBOUND:                -5.348
REMARK SMILES CCCCCCCCCCCCCCCCCCCCCCCCCCCCCC(=O)[O-]
REMARK SMILES IDX 16 1 17 2 18 3 19 4 20 5 21 6 22 7 23 8 24 9 25 10 26 11
REMARK SMILES IDX 27 12 28 13 29 14 30 15 31 16 32 17 15 18 14 19 13 20 12 21
REMARK SMILES IDX 11 22 10 23 9 24 8 25 7 26 6 27 5 28 4 29 3 30 2 31 1 32
REMARK H PARENT
REMARK Flexibility Score: inf
ROOT
ATOM      1  C   UNL     1     -11.352 -33.840 -49.429  1.00  0.00     0.000 C 
ENDROOT
BRANCH   1   2
ATOM      2  C   UNL     1     -11.027 -32.366 -49.721  1.00  0.00     0.000 C 
BRANCH   2   3
ATOM      3  C   UNL     1      -9.761 -31.883 -48.994  1.00  0.00     0.000 C 
BRANCH   3   4
ATOM      4  C   UNL     1      -8.662 -31.415 -49.963  1.00  0.00     0.000 C 
BRANCH   4   5
ATOM      5  C   UNL     1      -8.172 -29.975 -49.690  1.00  0.00     0.000 C 
BRANCH   5   6
ATOM      6  C   UNL     1      -7.203 -29.903 -48.496  1.00  0.00     0.000 C 
BRANCH   6   7
ATOM      7  C   UNL     1      -5.839 -30.551 -48.814  1.00  0.00     0.000 C 
BRANCH   7   8
ATOM      8  C   UNL     1      -5.655 -31.953 -48.197  1.00  0.00     0.000 C 
BRANCH   8   9
ATOM      9  C   UNL     1      -6.493 -32.221 -46.936  1.00  0.00     0.000 C 
BRANCH   9  10
ATOM     10  C   UNL     1      -6.819 -33.713 -46.741  1.00  0.00     0.000 C 
BRANCH  10  11
ATOM     11  C   UNL     1      -8.243 -33.941 -46.212  1.00  0.00     0.000 C 
BRANCH  11  12
ATOM     12  C   UNL     1      -8.267 -34.633 -44.838  1.00  0.00     0.000 C 
BRANCH  12  13
ATOM     13  C   UNL     1      -9.665 -35.148 -44.460  1.00  0.00     0.006 C 
BRANCH  13  14
ATOM     14  C   UNL     1     -10.754 -34.074 -44.609  1.00  0.00     0.053 C 
BRANCH  14  15
ATOM     15  C   UNL     1     -12.104 -34.695 -44.802  1.00  0.00     0.041 C 
ATOM     16  O   UNL     1     -12.978 -34.612 -43.899  1.00  0.00    -0.550 OA
ATOM     17  O   UNL     1     -12.408 -35.335 -45.998  1.00  0.00    -0.550 OA
ENDBRANCH  14  15
ENDBRANCH  13  14
ENDBRANCH  12  13
ENDBRANCH  11  12
ENDBRANCH  10  11
ENDBRANCH   9  10
ENDBRANCH   8   9
ENDBRANCH   7   8
ENDBRANCH   6   7
ENDBRANCH   5   6
ENDBRANCH   4   5
ENDBRANCH   3   4
ENDBRANCH   2   3
ENDBRANCH   1   2
BRANCH   1  18
ATOM     18  C   UNL     1     -10.155 -34.629 -48.849  1.00  0.00     0.000 C 
BRANCH  18  19
ATOM     19  C   UNL     1      -9.615 -35.711 -49.802  1.00  0.00     0.000 C 
BRANCH  19  20
ATOM     20  C   UNL     1      -9.676 -37.116 -49.181  1.00  0.00     0.000 C 
BRANCH  20  21
ATOM     21  C   UNL     1     -10.008 -37.039 -47.683  1.00  0.00     0.000 C 
BRANCH  21  22
ATOM     22  C   UNL     1     -10.824 -38.247 -47.184  1.00  0.00     0.000 C 
BRANCH  22  23
ATOM     23  C   UNL     1     -11.870 -38.785 -48.180  1.00  0.00     0.000 C 
BRANCH  23  24
ATOM     24  C   UNL     1     -13.144 -37.931 -48.320  1.00  0.00    -0.000 C 
BRANCH  24  25
ATOM     25  C   UNL     1     -14.446 -38.757 -48.392  1.00  0.00    -0.000 C 
BRANCH  25  26
ATOM     26  C   UNL     1     -15.584 -38.010 -49.112  1.00  0.00    -0.000 C 
BRANCH  26  27
ATOM     27  C   UNL     1     -15.398 -36.485 -49.087  1.00  0.00    -0.000 C 
BRANCH  27  28
ATOM     28  C   UNL     1     -16.673 -35.740 -48.664  1.00  0.00    -0.000 C 
BRANCH  28  29
ATOM     29  C   UNL     1     -16.510 -35.132 -47.263  1.00  0.00    -0.000 C 
BRANCH  29  30
ATOM     30  C   UNL     1     -17.399 -35.814 -46.205  1.00  0.00    -0.000 C 
BRANCH  30  31
ATOM     31  C   UNL     1     -16.873 -37.167 -45.691  1.00  0.00    -0.003 C 
ATOM     32  C   UNL     1     -15.401 -37.119 -45.278  1.00  0.00     0.004 C 
ENDBRANCH  30  31
ENDBRANCH  29  30
ENDBRANCH  28  29
ENDBRANCH  27  28
ENDBRANCH  26  27
ENDBRANCH  25  26
ENDBRANCH  24  25
ENDBRANCH  23  24
ENDBRANCH  22  23
ENDBRANCH  21  22
ENDBRANCH  20  21
ENDBRANCH  19  20
ENDBRANCH  18  19
ENDBRANCH   1  18
TORSDOF 28
ENDMDL
