MODEL 1
REMARK VINA RESULT:    -2.767      0.000      0.000
REMARK INTER + INTRA:          -3.269
REMARK INTER:                  -3.253
REMARK INTRA:                  -0.016
REMARK UNBOUND:                -0.016
REMARK SMILES CCCCC(=O)[O-]
REMARK SMILES IDX 4 1 5 2 6 3 7 4 3 5 2 6 1 7
REMARK H PARENT
REMARK Flexibility Score: inf
ROOT
ATOM      1  C   UNL     1      37.679  37.849  20.343  1.00  0.00     0.053 C 
ENDROOT
BRANCH   1   2
ATOM      2  C   UNL     1      37.312  39.260  19.999  1.00  0.00     0.041 C 
ATOM      3  O   UNL     1      36.206  39.736  20.365  1.00  0.00    -0.550 OA
ATOM      4  O   UNL     1      38.207  40.060  19.298  1.00  0.00    -0.550 OA
ENDBRANCH   1   2
BRANCH   1   5
ATOM      5  C   UNL     1      38.499  37.162  19.237  1.00  0.00     0.006 C 
BRANCH   5   6
ATOM      6  C   UNL     1      38.415  35.625  19.261  1.00  0.00    -0.003 C 
ATOM      7  C   UNL     1      38.374  35.002  17.867  1.00  0.00     0.004 C 
ENDBRANCH   5   6
ENDBRANCH   1   5
TORSDOF 3
ENDMDL
MODEL 2
REMARK VINA RESULT:    -2.745      2.892      4.095
REMARK INTER + INTRA:          -3.243
REMARK INTER:                  -3.215
REMARK INTRA:                  -0.028
REMARK UNBOUND:                -0.016
REMARK SMILES CCCCC(=O)[O-]
REMARK SMILES IDX 4 1 5 2 6 3 7 4 3 5 2 6 1 7
REMARK H PARENT
REMARK Flexibility Score: inf
ROOT
ATOM      1  C   UNL     1      38.489  37.168  19.269  1.00  0.00     0.053 C 
ENDROOT
BRANCH   1   2
ATOM      2  C   UNL     1      38.493  35.675  19.137  1.00  0.00     0.041 C 
ATOM      3  O   UNL     1      38.771  34.951  20.129  1.00  0.00    -0.550 OA
ATOM      4  O   UNL     1      38.161  35.083  17.926  1.00  0.00    -0.550 OA
ENDBRANCH   1   2
BRANCH   1   5
ATOM      5  C   UNL     1      37.458  37.671  20.294  1.00  0.00     0.006 C 
BRANCH   5   6
ATOM      6  C   UNL     1      37.346  39.204  20.365  1.00  0.00    -0.003 C 
ATOM      7  C   UNL     1      38.177  39.919  19.302  1.00  0.00     0.004 C 
ENDBRANCH   5   6
ENDBRANCH   1   5
TORSDOF 3
ENDMDL
MODEL 3
REMARK VINA RESULT:    -2.697      2.747      3.524
REMARK INTER + INTRA:          -3.186
REMARK INTER:                  -3.102
REMARK INTRA:                  -0.084
REMARK UNBOUND:                -0.016
REMARK SMILES CCCCC(=O)[O-]
REMARK SMILES IDX 4 1 5 2 6 3 7 4 3 5 2 6 1 7
REMARK H PARENT
REMARK Flexibility Score: inf
ROOT
ATOM      1  C   UNL     1      39.247  40.123  18.905  1.00  0.00     0.053 C 
ENDROOT
BRANCH   1   2
ATOM      2  C   UNL     1      39.688  39.250  17.770  1.00  0.00     0.041 C 
ATOM      3  O   UNL     1      39.809  38.007  17.933  1.00  0.00    -0.550 OA
ATOM      4  O   UNL     1      39.936  39.806  16.521  1.00  0.00    -0.550 OA
ENDBRANCH   1   2
BRANCH   1   5
ATOM      5  C   UNL     1      37.817  39.806  19.376  1.00  0.00     0.006 C 
BRANCH   5   6
ATOM      6  C   UNL     1      37.756  38.931  20.640  1.00  0.00    -0.003 C 
ATOM      7  C   UNL     1      37.403  37.474  20.347  1.00  0.00     0.004 C 
ENDBRANCH   5   6
ENDBRANCH   1   5
TORSDOF 3
ENDMDL
MODEL 4
REMARK VINA RESULT:    -2.593      2.507      3.149
REMARK INTER + INTRA:          -3.064
REMARK INTER:                  -3.046
REMARK INTRA:                  -0.018
REMARK UNBOUND:                -0.016
REMARK SMILES CCCCC(=O)[O-]
REMARK SMILES IDX 4 1 5 2 6 3 7 4 3 5 2 6 1 7
REMARK H PARENT
REMARK Flexibility Score: inf
ROOT
ATOM      1  C   UNL     1      38.334  39.921  19.323  1.00  0.00     0.053 C 
ENDROOT
BRANCH   1   2
ATOM      2  C   UNL     1      37.293  39.109  20.030  1.00  0.00     0.041 C 
ATOM      3  O   UNL     1      36.211  39.641  20.396  1.00  0.00    -0.550 OA
ATOM      4  O   UNL     1      37.504  37.755  20.259  1.00  0.00    -0.550 OA
ENDBRANCH   1   2
BRANCH   1   5
ATOM      5  C   UNL     1      39.291  39.058  18.483  1.00  0.00     0.006 C 
BRANCH   5   6
ATOM      6  C   UNL     1      40.377  39.864  17.749  1.00  0.00    -0.003 C 
ATOM      7  C   UNL     1      40.404  39.608  16.244  1.00  0.00     0.004 C 
ENDBRANCH   5   6
ENDBRANCH   1   5
TORSDOF 3
ENDMDL
MODEL 5
REMARK VINA RESULT:    -2.499     14.436     15.102
REMARK INTER + INTRA:          -2.953
REMARK INTER:                  -2.925
REMARK INTRA:                  -0.028
REMARK UNBOUND:                -0.016
REMARK SMILES CCCCC(=O)[O-]
REMARK SMILES IDX 4 1 5 2 6 3 7 4 3 5 2 6 1 7
REMARK H PARENT
REMARK Flexibility Score: inf
ROOT
ATOM      1  C   UNL     1      23.315  35.551  17.814  1.00  0.00     0.053 C 
ENDROOT
BRANCH   1   2
ATOM      2  C   UNL     1      24.728  35.337  17.363  1.00  0.00     0.041 C 
ATOM      3  O   UNL     1      24.968  34.933  16.195  1.00  0.00    -0.550 OA
ATOM      4  O   UNL     1      25.782  35.612  18.225  1.00  0.00    -0.550 OA
ENDBRANCH   1   2
BRANCH   1   5
ATOM      5  C   UNL     1      22.654  36.767  17.140  1.00  0.00     0.006 C 
BRANCH   5   6
ATOM      6  C   UNL     1      21.357  37.231  17.825  1.00  0.00    -0.003 C 
ATOM      7  C   UNL     1      21.025  36.438  19.088  1.00  0.00     0.004 C 
ENDBRANCH   5   6
ENDBRANCH   1   5
TORSDOF 3
ENDMDL
MODEL 6
REMARK VINA RESULT:    -2.479     22.454     24.223
REMARK INTER + INTRA:          -2.930
REMARK INTER:                  -2.874
REMARK INTRA:                  -0.056
REMARK UNBOUND:                -0.016
REMARK SMILES CCCCC(=O)[O-]
REMARK SMILES IDX 4 1 5 2 6 3 7 4 3 5 2 6 1 7
REMARK H PARENT
REMARK Flexibility Score: inf
ROOT
ATOM      1  C   UNL     1      22.055  54.698  29.124  1.00  0.00     0.053 C 
ENDROOT
BRANCH   1   2
ATOM      2  C   UNL     1      22.252  54.706  30.609  1.00  0.00     0.041 C 
ATOM      3  O   UNL     1      21.258  54.720  31.382  1.00  0.00    -0.550 OA
ATOM      4  O   UNL     1      23.535  54.666  31.141  1.00  0.00    -0.550 OA
ENDBRANCH   1   2
BRANCH   1   5
ATOM      5  C   UNL     1      23.137  53.892  28.386  1.00  0.00     0.006 C 
BRANCH   5   6
ATOM      6  C   UNL     1      22.982  52.367  28.524  1.00  0.00    -0.003 C 
ATOM      7  C   UNL     1      23.679  51.588  27.410  1.00  0.00     0.004 C 
ENDBRANCH   5   6
ENDBRANCH   1   5
TORSDOF 3
ENDMDL
MODEL 7
REMARK VINA RESULT:    -2.431      2.524      3.844
REMARK INTER + INTRA:          -2.873
REMARK INTER:                  -2.830
REMARK INTRA:                  -0.043
REMARK UNBOUND:                -0.016
REMARK SMILES CCCCC(=O)[O-]
REMARK SMILES IDX 4 1 5 2 6 3 7 4 3 5 2 6 1 7
REMARK H PARENT
REMARK Flexibility Score: inf
ROOT
ATOM      1  C   UNL     1      38.240  36.251  19.089  1.00  0.00     0.053 C 
ENDROOT
BRANCH   1   2
ATOM      2  C   UNL     1      39.587  36.664  18.578  1.00  0.00     0.041 C 
ATOM      3  O   UNL     1      40.632  36.321  19.190  1.00  0.00    -0.550 OA
ATOM      4  O   UNL     1      39.689  37.404  17.406  1.00  0.00    -0.550 OA
ENDBRANCH   1   2
BRANCH   1   5
ATOM      5  C   UNL     1      37.759  37.119  20.263  1.00  0.00     0.006 C 
BRANCH   5   6
ATOM      6  C   UNL     1      37.987  38.627  20.059  1.00  0.00    -0.003 C 
ATOM      7  C   UNL     1      36.715  39.457  20.224  1.00  0.00     0.004 C 
ENDBRANCH   5   6
ENDBRANCH   1   5
TORSDOF 3
ENDMDL
MODEL 8
REMARK VINA RESULT:    -2.189     15.666     16.304
REMARK INTER + INTRA:          -2.588
REMARK INTER:                  -2.507
REMARK INTRA:                  -0.081
REMARK UNBOUND:                -0.016
REMARK SMILES CCCCC(=O)[O-]
REMARK SMILES IDX 4 1 5 2 6 3 7 4 3 5 2 6 1 7
REMARK H PARENT
REMARK Flexibility Score: inf
ROOT
ATOM      1  C   UNL     1      21.573  36.713  17.037  1.00  0.00     0.053 C 
ENDROOT
BRANCH   1   2
ATOM      2  C   UNL     1      22.816  35.927  16.753  1.00  0.00     0.041 C 
ATOM      3  O   UNL     1      22.760  34.876  16.062  1.00  0.00    -0.550 OA
ATOM      4  O   UNL     1      24.044  36.372  17.228  1.00  0.00    -0.550 OA
ENDBRANCH   1   2
BRANCH   1   5
ATOM      5  C   UNL     1      21.271  36.824  18.542  1.00  0.00     0.006 C 
BRANCH   5   6
ATOM      6  C   UNL     1      20.987  35.473  19.222  1.00  0.00    -0.003 C 
ATOM      7  C   UNL     1      20.875  35.575  20.742  1.00  0.00     0.004 C 
ENDBRANCH   5   6
ENDBRANCH   1   5
TORSDOF 3
ENDMDL
