MODEL 1
REMARK VINA RESULT:    -4.959      0.000      0.000
REMARK INTER + INTRA:          -5.574
REMARK INTER:                  -5.394
REMARK INTRA:                  -0.180
REMARK UNBOUND:                -0.180
REMARK SMILES C=C(C)[C@H]1CC[C@@H](C)C[C@@H]1O
REMARK SMILES IDX 8 1 7 2 6 3 5 4 4 5 10 6 9 7 11 8 2 10 1 11 3 12
REMARK H PARENT 11 9
REMARK Flexibility Score: inf
ROOT
ATOM      1  C   UNL     1       3.746  47.759  47.675  1.00  0.00     0.008 C 
ATOM      2  C   UNL     1       2.964  46.746  48.518  1.00  0.00    -0.012 C 
ATOM      3  C   UNL     1       2.242  45.726  47.620  1.00  0.00     0.004 C 
ATOM      4  C   UNL     1       1.566  44.613  48.448  1.00  0.00     0.011 C 
ATOM      5  C   UNL     1       1.108  45.080  49.853  1.00  0.00     0.043 C 
ATOM      6  C   UNL     1       0.753  46.589  49.861  1.00  0.00     0.121 C 
ATOM      7  C   UNL     1       1.968  47.465  49.463  1.00  0.00     0.035 C 
ENDROOT
BRANCH   6   8
ATOM      8  O   UNL     1       0.248  46.992  51.110  1.00  0.00    -0.392 OA
ATOM      9  H   UNL     1      -0.010  46.172  51.609  1.00  0.00     0.210 HD
ENDBRANCH   6   8
BRANCH   5  10
ATOM     10  C   UNL     1      -0.044  44.223  50.366  1.00  0.00    -0.075 C 
ATOM     11  C   UNL     1      -1.125  44.014  49.597  1.00  0.00     0.008 C 
ATOM     12  C   UNL     1      -0.005  43.603  51.741  1.00  0.00     0.039 C 
ENDBRANCH   5  10
TORSDOF 2
ENDMDL
MODEL 2
REMARK VINA RESULT:    -4.819      1.630      2.442
REMARK INTER + INTRA:          -5.422
REMARK INTER:                  -5.317
REMARK INTRA:                  -0.105
REMARK UNBOUND:                -0.180
REMARK SMILES C=C(C)[C@H]1CC[C@@H](C)C[C@@H]1O
REMARK SMILES IDX 8 1 7 2 6 3 5 4 4 5 10 6 9 7 11 8 2 10 1 11 3 12
REMARK H PARENT 11 9
REMARK Flexibility Score: inf
ROOT
ATOM      1  C   UNL     1       3.773  48.125  46.994  1.00  0.00     0.008 C 
ATOM      2  C   UNL     1       2.637  47.380  47.703  1.00  0.00    -0.012 C 
ATOM      3  C   UNL     1       2.740  47.548  49.229  1.00  0.00     0.004 C 
ATOM      4  C   UNL     1       1.528  46.928  49.956  1.00  0.00     0.011 C 
ATOM      5  C   UNL     1       0.913  45.717  49.208  1.00  0.00     0.043 C 
ATOM      6  C   UNL     1       1.980  44.965  48.373  1.00  0.00     0.121 C 
ATOM      7  C   UNL     1       2.623  45.883  47.303  1.00  0.00     0.035 C 
ENDROOT
BRANCH   6   8
ATOM      8  O   UNL     1       1.443  43.812  47.771  1.00  0.00    -0.392 OA
ATOM      9  H   UNL     1       2.042  43.560  47.019  1.00  0.00     0.210 HD
ENDBRANCH   6   8
BRANCH   5  10
ATOM     10  C   UNL     1       0.189  44.787  50.175  1.00  0.00    -0.075 C 
ATOM     11  C   UNL     1       0.719  44.518  51.379  1.00  0.00     0.008 C 
ATOM     12  C   UNL     1      -1.124  44.143  49.804  1.00  0.00     0.039 C 
ENDBRANCH   5  10
TORSDOF 2
ENDMDL
MODEL 3
REMARK VINA RESULT:    -4.640     24.090     25.182
REMARK INTER + INTRA:          -5.227
REMARK INTER:                  -5.152
REMARK INTRA:                  -0.074
REMARK UNBOUND:                -0.180
REMARK SMILES C=C(C)[C@H]1CC[C@@H](C)C[C@@H]1O
REMARK SMILES IDX 8 1 7 2 6 3 5 4 4 5 10 6 9 7 11 8 2 10 1 11 3 12
REMARK H PARENT 11 9
REMARK Flexibility Score: inf
ROOT
ATOM      1  C   UNL     1      18.878  27.875  37.444  1.00  0.00     0.008 C 
ATOM      2  C   UNL     1      17.347  27.889  37.366  1.00  0.00    -0.012 C 
ATOM      3  C   UNL     1      16.850  29.094  36.548  1.00  0.00     0.004 C 
ATOM      4  C   UNL     1      15.323  29.050  36.335  1.00  0.00     0.011 C 
ATOM      5  C   UNL     1      14.559  28.347  37.486  1.00  0.00     0.043 C 
ATOM      6  C   UNL     1      15.304  28.500  38.837  1.00  0.00     0.121 C 
ATOM      7  C   UNL     1      16.721  27.876  38.783  1.00  0.00     0.035 C 
ENDROOT
BRANCH   6   8
ATOM      8  O   UNL     1      14.565  27.946  39.897  1.00  0.00    -0.392 OA
ATOM      9  H   UNL     1      15.202  27.735  40.629  1.00  0.00     0.210 HD
ENDBRANCH   6   8
BRANCH   5  10
ATOM     10  C   UNL     1      13.121  28.846  37.572  1.00  0.00    -0.075 C 
ATOM     11  C   UNL     1      12.126  28.140  37.011  1.00  0.00     0.008 C 
ATOM     12  C   UNL     1      12.782  30.138  38.273  1.00  0.00     0.039 C 
ENDBRANCH   5  10
TORSDOF 2
ENDMDL
MODEL 4
REMARK VINA RESULT:    -4.134      1.494      1.958
REMARK INTER + INTRA:          -4.676
REMARK INTER:                  -4.490
REMARK INTRA:                  -0.187
REMARK UNBOUND:                -0.180
REMARK SMILES C=C(C)[C@H]1CC[C@@H](C)C[C@@H]1O
REMARK SMILES IDX 8 1 7 2 6 3 5 4 4 5 10 6 9 7 11 8 2 10 1 11 3 12
REMARK H PARENT 11 9
REMARK Flexibility Score: inf
ROOT
ATOM      1  C   UNL     1       4.153  48.115  46.968  1.00  0.00     0.008 C 
ATOM      2  C   UNL     1       3.021  47.278  47.573  1.00  0.00    -0.012 C 
ATOM      3  C   UNL     1       1.669  48.000  47.433  1.00  0.00     0.004 C 
ATOM      4  C   UNL     1       0.497  47.115  47.905  1.00  0.00     0.011 C 
ATOM      5  C   UNL     1       0.889  46.115  49.022  1.00  0.00     0.043 C 
ATOM      6  C   UNL     1       2.047  46.664  49.894  1.00  0.00     0.121 C 
ATOM      7  C   UNL     1       3.321  46.930  49.053  1.00  0.00     0.035 C 
ENDROOT
BRANCH   6   8
ATOM      8  O   UNL     1       2.339  45.800  50.965  1.00  0.00    -0.392 OA
ATOM      9  H   UNL     1       3.226  46.061  51.328  1.00  0.00     0.210 HD
ENDBRANCH   6   8
BRANCH   5  10
ATOM     10  C   UNL     1      -0.323  45.733  49.864  1.00  0.00    -0.075 C 
ATOM     11  C   UNL     1      -0.749  44.460  49.899  1.00  0.00     0.008 C 
ATOM     12  C   UNL     1      -1.075  46.768  50.665  1.00  0.00     0.039 C 
ENDBRANCH   5  10
TORSDOF 2
ENDMDL
MODEL 5
REMARK VINA RESULT:    -4.089      2.234      2.942
REMARK INTER + INTRA:          -4.628
REMARK INTER:                  -4.461
REMARK INTRA:                  -0.167
REMARK UNBOUND:                -0.180
REMARK SMILES C=C(C)[C@H]1CC[C@@H](C)C[C@@H]1O
REMARK SMILES IDX 8 1 7 2 6 3 5 4 4 5 10 6 9 7 11 8 2 10 1 11 3 12
REMARK H PARENT 11 9
REMARK Flexibility Score: inf
ROOT
ATOM      1  C   UNL     1      -0.611  48.125  46.899  1.00  0.00     0.008 C 
ATOM      2  C   UNL     1      -0.414  47.157  48.071  1.00  0.00    -0.012 C 
ATOM      3  C   UNL     1       1.043  47.180  48.564  1.00  0.00     0.004 C 
ATOM      4  C   UNL     1       1.232  46.323  49.832  1.00  0.00     0.011 C 
ATOM      5  C   UNL     1       0.257  45.120  49.916  1.00  0.00     0.043 C 
ATOM      6  C   UNL     1      -0.143  44.617  48.506  1.00  0.00     0.121 C 
ATOM      7  C   UNL     1      -0.852  45.722  47.682  1.00  0.00     0.035 C 
ENDROOT
BRANCH   6   8
ATOM      8  O   UNL     1      -0.952  43.468  48.580  1.00  0.00    -0.392 OA
ATOM      9  H   UNL     1      -1.333  43.310  47.677  1.00  0.00     0.210 HD
ENDBRANCH   6   8
BRANCH   5  10
ATOM     10  C   UNL     1       0.840  44.002  50.773  1.00  0.00    -0.075 C 
ATOM     11  C   UNL     1       2.099  43.583  50.572  1.00  0.00     0.008 C 
ATOM     12  C   UNL     1       0.021  43.338  51.852  1.00  0.00     0.039 C 
ENDBRANCH   5  10
TORSDOF 2
ENDMDL
MODEL 6
REMARK VINA RESULT:    -4.076     24.294     25.608
REMARK INTER + INTRA:          -4.613
REMARK INTER:                  -4.854
REMARK INTRA:                   0.241
REMARK UNBOUND:                -0.180
REMARK SMILES C=C(C)[C@H]1CC[C@@H](C)C[C@@H]1O
REMARK SMILES IDX 8 1 7 2 6 3 5 4 4 5 10 6 9 7 11 8 2 10 1 11 3 12
REMARK H PARENT 11 9
REMARK Flexibility Score: inf
ROOT
ATOM      1  C   UNL     1      11.364  28.511  37.585  1.00  0.00     0.008 C 
ATOM      2  C   UNL     1      12.874  28.257  37.649  1.00  0.00    -0.012 C 
ATOM      3  C   UNL     1      13.576  29.335  38.493  1.00  0.00     0.004 C 
ATOM      4  C   UNL     1      15.073  29.021  38.692  1.00  0.00     0.011 C 
ATOM      5  C   UNL     1      15.699  28.228  37.516  1.00  0.00     0.043 C 
ATOM      6  C   UNL     1      14.986  28.544  36.176  1.00  0.00     0.121 C 
ATOM      7  C   UNL     1      13.482  28.174  36.226  1.00  0.00     0.035 C 
ENDROOT
BRANCH   6   8
ATOM      8  O   UNL     1      15.613  27.899  35.095  1.00  0.00    -0.392 OA
ATOM      9  H   UNL     1      15.909  27.005  35.410  1.00  0.00     0.210 HD
ENDBRANCH   6   8
BRANCH   5  10
ATOM     10  C   UNL     1      17.202  28.472  37.430  1.00  0.00    -0.075 C 
ATOM     11  C   UNL     1      18.032  27.886  38.307  1.00  0.00     0.008 C 
ATOM     12  C   UNL     1      17.787  29.377  36.374  1.00  0.00     0.039 C 
ENDBRANCH   5  10
TORSDOF 2
ENDMDL
MODEL 7
REMARK VINA RESULT:    -3.978      1.203      4.042
REMARK INTER + INTRA:          -4.507
REMARK INTER:                  -4.411
REMARK INTRA:                  -0.096
REMARK UNBOUND:                -0.180
REMARK SMILES C=C(C)[C@H]1CC[C@@H](C)C[C@@H]1O
REMARK SMILES IDX 8 1 7 2 6 3 5 4 4 5 10 6 9 7 11 8 2 10 1 11 3 12
REMARK H PARENT 11 9
REMARK Flexibility Score: inf
ROOT
ATOM      1  C   UNL     1      -0.182  43.254  51.745  1.00  0.00     0.008 C 
ATOM      2  C   UNL     1       0.151  44.255  50.634  1.00  0.00    -0.012 C 
ATOM      3  C   UNL     1       1.563  44.004  50.075  1.00  0.00     0.004 C 
ATOM      4  C   UNL     1       1.866  44.906  48.860  1.00  0.00     0.011 C 
ATOM      5  C   UNL     1       1.127  46.268  48.902  1.00  0.00     0.043 C 
ATOM      6  C   UNL     1       0.872  46.729  50.360  1.00  0.00     0.121 C 
ATOM      7  C   UNL     1      -0.002  45.713  51.138  1.00  0.00     0.035 C 
ENDROOT
BRANCH   6   8
ATOM      8  O   UNL     1       0.287  48.008  50.399  1.00  0.00    -0.392 OA
ATOM      9  H   UNL     1       0.445  48.382  51.306  1.00  0.00     0.210 HD
ENDBRANCH   6   8
BRANCH   5  10
ATOM     10  C   UNL     1       1.878  47.322  48.097  1.00  0.00    -0.075 C 
ATOM     11  C   UNL     1       1.214  48.125  47.249  1.00  0.00     0.008 C 
ATOM     12  C   UNL     1       3.373  47.483  48.222  1.00  0.00     0.039 C 
ENDBRANCH   5  10
TORSDOF 2
ENDMDL
MODEL 8
REMARK VINA RESULT:    -3.894     23.985     25.279
REMARK INTER + INTRA:          -4.415
REMARK INTER:                  -5.064
REMARK INTRA:                   0.649
REMARK UNBOUND:                -0.180
REMARK SMILES C=C(C)[C@H]1CC[C@@H](C)C[C@@H]1O
REMARK SMILES IDX 8 1 7 2 6 3 5 4 4 5 10 6 9 7 11 8 2 10 1 11 3 12
REMARK H PARENT 11 9
REMARK Flexibility Score: inf
ROOT
ATOM      1  C   UNL     1      11.254  28.567  37.491  1.00  0.00     0.008 C 
ATOM      2  C   UNL     1      12.764  28.826  37.453  1.00  0.00    -0.012 C 
ATOM      3  C   UNL     1      13.438  27.983  36.357  1.00  0.00     0.004 C 
ATOM      4  C   UNL     1      14.933  28.332  36.204  1.00  0.00     0.011 C 
ATOM      5  C   UNL     1      15.592  28.815  37.522  1.00  0.00     0.043 C 
ATOM      6  C   UNL     1      14.907  28.185  38.762  1.00  0.00     0.121 C 
ATOM      7  C   UNL     1      13.405  28.560  38.839  1.00  0.00     0.035 C 
ENDROOT
BRANCH   6   8
ATOM      8  O   UNL     1      15.564  28.548  39.951  1.00  0.00    -0.392 OA
ATOM      9  H   UNL     1      15.192  29.420  40.246  1.00  0.00     0.210 HD
ENDBRANCH   6   8
BRANCH   5  10
ATOM     10  C   UNL     1      17.094  28.554  37.510  1.00  0.00    -0.075 C 
ATOM     11  C   UNL     1      17.670  27.876  38.515  1.00  0.00     0.008 C 
ATOM     12  C   UNL     1      17.964  29.055  36.384  1.00  0.00     0.039 C 
ENDBRANCH   5  10
TORSDOF 2
ENDMDL
