MODEL 1
REMARK VINA RESULT:    -3.333      0.000      0.000
REMARK INTER + INTRA:          -4.508
REMARK INTER:                  -4.307
REMARK INTRA:                  -0.201
REMARK UNBOUND:                -0.201
REMARK SMILES CCCCCCC(=O)[O-]
REMARK SMILES IDX 5 1 6 2 7 3 8 4 9 5 4 6 3 7 2 8 1 9
REMARK H PARENT
REMARK Flexibility Score: inf
ROOT
ATOM      1  C   UNL     1       4.968  -1.878   0.464  1.00  0.00     0.006 C 
ENDROOT
BRANCH   1   2
ATOM      2  C   UNL     1       5.293  -1.968  -1.033  1.00  0.00     0.053 C 
BRANCH   2   3
ATOM      3  C   UNL     1       5.670  -0.635  -1.602  1.00  0.00     0.041 C 
ATOM      4  O   UNL     1       4.945  -0.091  -2.476  1.00  0.00    -0.550 OA
ATOM      5  O   UNL     1       6.804   0.023  -1.142  1.00  0.00    -0.550 OA
ENDBRANCH   2   3
ENDBRANCH   1   2
BRANCH   1   6
ATOM      6  C   UNL     1       4.556  -3.235   1.054  1.00  0.00     0.000 C 
BRANCH   6   7
ATOM      7  C   UNL     1       3.832  -4.092   0.005  1.00  0.00    -0.000 C 
BRANCH   7   8
ATOM      8  C   UNL     1       2.430  -4.524   0.462  1.00  0.00    -0.003 C 
ATOM      9  C   UNL     1       2.195  -4.290   1.954  1.00  0.00     0.004 C 
ENDBRANCH   7   8
ENDBRANCH   6   7
ENDBRANCH   1   6
TORSDOF 5
ENDMDL
MODEL 2
REMARK VINA RESULT:    -3.332      3.257      4.965
REMARK INTER + INTRA:          -4.507
REMARK INTER:                  -4.343
REMARK INTRA:                  -0.164
REMARK UNBOUND:                -0.201
REMARK SMILES CCCCCCC(=O)[O-]
REMARK SMILES IDX 5 1 6 2 7 3 8 4 9 5 4 6 3 7 2 8 1 9
REMARK H PARENT
REMARK Flexibility Score: inf
ROOT
ATOM      1  C   UNL     1       4.412  -3.565  -0.263  1.00  0.00     0.006 C 
ENDROOT
BRANCH   1   2
ATOM      2  C   UNL     1       3.819  -4.694   0.589  1.00  0.00     0.053 C 
BRANCH   2   3
ATOM      3  C   UNL     1       2.348  -4.510   0.810  1.00  0.00     0.041 C 
ATOM      4  O   UNL     1       1.530  -4.788  -0.106  1.00  0.00    -0.550 OA
ATOM      5  O   UNL     1       1.880  -4.062   2.039  1.00  0.00    -0.550 OA
ENDBRANCH   2   3
ENDBRANCH   1   2
BRANCH   1   6
ATOM      6  C   UNL     1       5.170  -2.532   0.584  1.00  0.00     0.000 C 
BRANCH   6   7
ATOM      7  C   UNL     1       5.232  -1.175  -0.131  1.00  0.00    -0.000 C 
BRANCH   7   8
ATOM      8  C   UNL     1       5.482  -1.315  -1.641  1.00  0.00    -0.003 C 
ATOM      9  C   UNL     1       5.475   0.029  -2.369  1.00  0.00     0.004 C 
ENDBRANCH   7   8
ENDBRANCH   6   7
ENDBRANCH   1   6
TORSDOF 5
ENDMDL
MODEL 3
REMARK VINA RESULT:    -3.324      0.990      1.237
REMARK INTER + INTRA:          -4.496
REMARK INTER:                  -4.267
REMARK INTRA:                  -0.229
REMARK UNBOUND:                -0.201
REMARK SMILES CCCCCCC(=O)[O-]
REMARK SMILES IDX 5 1 6 2 7 3 8 4 9 5 4 6 3 7 2 8 1 9
REMARK H PARENT
REMARK Flexibility Score: inf
ROOT
ATOM      1  C   UNL     1       5.453  -2.793   0.553  1.00  0.00     0.006 C 
ENDROOT
BRANCH   1   2
ATOM      2  C   UNL     1       5.150  -1.394   0.000  1.00  0.00     0.053 C 
BRANCH   2   3
ATOM      3  C   UNL     1       5.327  -1.334  -1.486  1.00  0.00     0.041 C 
ATOM      4  O   UNL     1       5.685  -2.359  -2.124  1.00  0.00    -0.550 OA
ATOM      5  O   UNL     1       5.065  -0.154  -2.171  1.00  0.00    -0.550 OA
ENDBRANCH   2   3
ENDBRANCH   1   2
BRANCH   1   6
ATOM      6  C   UNL     1       4.206  -3.467   1.147  1.00  0.00     0.000 C 
BRANCH   6   7
ATOM      7  C   UNL     1       3.437  -4.244   0.068  1.00  0.00    -0.000 C 
BRANCH   7   8
ATOM      8  C   UNL     1       2.090  -4.782   0.576  1.00  0.00    -0.003 C 
ATOM      9  C   UNL     1       1.855  -4.485   2.057  1.00  0.00     0.004 C 
ENDBRANCH   7   8
ENDBRANCH   6   7
ENDBRANCH   1   6
TORSDOF 5
ENDMDL
MODEL 4
REMARK VINA RESULT:    -3.235      2.163      3.559
REMARK INTER + INTRA:          -4.381
REMARK INTER:                  -4.121
REMARK INTRA:                  -0.259
REMARK UNBOUND:                -0.201
REMARK SMILES CCCCCCC(=O)[O-]
REMARK SMILES IDX 5 1 6 2 7 3 8 4 9 5 4 6 3 7 2 8 1 9
REMARK H PARENT
REMARK Flexibility Score: inf
ROOT
ATOM      1  C   UNL     1       5.089  -2.322  -0.743  1.00  0.00     0.006 C 
ENDROOT
BRANCH   1   2
ATOM      2  C   UNL     1       6.083  -1.842  -1.808  1.00  0.00     0.053 C 
BRANCH   2   3
ATOM      3  C   UNL     1       5.926  -0.380  -2.096  1.00  0.00     0.041 C 
ATOM      4  O   UNL     1       4.909   0.040  -2.708  1.00  0.00    -0.550 OA
ATOM      5  O   UNL     1       6.888   0.523  -1.660  1.00  0.00    -0.550 OA
ENDBRANCH   2   3
ENDBRANCH   1   2
BRANCH   1   6
ATOM      6  C   UNL     1       5.259  -1.580   0.591  1.00  0.00     0.000 C 
BRANCH   6   7
ATOM      7  C   UNL     1       6.665  -1.802   1.167  1.00  0.00    -0.000 C 
BRANCH   7   8
ATOM      8  C   UNL     1       7.233  -0.543   1.839  1.00  0.00    -0.003 C 
ATOM      9  C   UNL     1       8.416  -0.845   2.759  1.00  0.00     0.004 C 
ENDBRANCH   7   8
ENDBRANCH   6   7
ENDBRANCH   1   6
TORSDOF 5
ENDMDL
MODEL 5
REMARK VINA RESULT:    -3.184      1.268      1.811
REMARK INTER + INTRA:          -4.315
REMARK INTER:                  -4.133
REMARK INTRA:                  -0.182
REMARK UNBOUND:                -0.201
REMARK SMILES CCCCCCC(=O)[O-]
REMARK SMILES IDX 5 1 6 2 7 3 8 4 9 5 4 6 3 7 2 8 1 9
REMARK H PARENT
REMARK Flexibility Score: inf
ROOT
ATOM      1  C   UNL     1       4.915  -3.666   0.777  1.00  0.00     0.006 C 
ENDROOT
BRANCH   1   2
ATOM      2  C   UNL     1       4.771  -2.888  -0.537  1.00  0.00     0.053 C 
BRANCH   2   3
ATOM      3  C   UNL     1       5.285  -1.487  -0.413  1.00  0.00     0.041 C 
ATOM      4  O   UNL     1       5.930  -1.136   0.610  1.00  0.00    -0.550 OA
ATOM      5  O   UNL     1       5.081  -0.576  -1.442  1.00  0.00    -0.550 OA
ENDBRANCH   2   3
ENDBRANCH   1   2
BRANCH   1   6
ATOM      6  C   UNL     1       3.558  -3.950   1.439  1.00  0.00     0.000 C 
BRANCH   6   7
ATOM      7  C   UNL     1       2.596  -4.626   0.450  1.00  0.00    -0.000 C 
BRANCH   7   8
ATOM      8  C   UNL     1       1.473  -5.401   1.156  1.00  0.00    -0.003 C 
ATOM      9  C   UNL     1       1.307  -4.999   2.621  1.00  0.00     0.004 C 
ENDBRANCH   7   8
ENDBRANCH   6   7
ENDBRANCH   1   6
TORSDOF 5
ENDMDL
MODEL 6
REMARK VINA RESULT:    -3.103      8.111      9.523
REMARK INTER + INTRA:          -4.211
REMARK INTER:                  -4.019
REMARK INTRA:                  -0.192
REMARK UNBOUND:                -0.201
REMARK SMILES CCCCCCC(=O)[O-]
REMARK SMILES IDX 5 1 6 2 7 3 8 4 9 5 4 6 3 7 2 8 1 9
REMARK H PARENT
REMARK Flexibility Score: inf
ROOT
ATOM      1  C   UNL     1      -4.042  -2.846  -2.177  1.00  0.00     0.006 C 
ENDROOT
BRANCH   1   2
ATOM      2  C   UNL     1      -4.537  -1.424  -1.883  1.00  0.00     0.053 C 
BRANCH   2   3
ATOM      3  C   UNL     1      -4.939  -1.261  -0.449  1.00  0.00     0.041 C 
ATOM      4  O   UNL     1      -4.235  -0.567   0.331  1.00  0.00    -0.550 OA
ATOM      5  O   UNL     1      -6.109  -1.847   0.017  1.00  0.00    -0.550 OA
ENDBRANCH   2   3
ENDBRANCH   1   2
BRANCH   1   6
ATOM      6  C   UNL     1      -4.494  -3.347  -3.558  1.00  0.00     0.000 C 
BRANCH   6   7
ATOM      7  C   UNL     1      -3.331  -4.013  -4.308  1.00  0.00    -0.000 C 
BRANCH   7   8
ATOM      8  C   UNL     1      -1.998  -3.898  -3.551  1.00  0.00    -0.003 C 
ATOM      9  C   UNL     1      -1.249  -5.227  -3.468  1.00  0.00     0.004 C 
ENDBRANCH   7   8
ENDBRANCH   6   7
ENDBRANCH   1   6
TORSDOF 5
ENDMDL
MODEL 7
REMARK VINA RESULT:    -2.859      7.623      9.167
REMARK INTER + INTRA:          -3.895
REMARK INTER:                  -3.619
REMARK INTRA:                  -0.276
REMARK UNBOUND:                -0.201
REMARK SMILES CCCCCCC(=O)[O-]
REMARK SMILES IDX 5 1 6 2 7 3 8 4 9 5 4 6 3 7 2 8 1 9
REMARK H PARENT
REMARK Flexibility Score: inf
ROOT
ATOM      1  C   UNL     1       4.496   5.264  -5.975  1.00  0.00     0.006 C 
ENDROOT
BRANCH   1   2
ATOM      2  C   UNL     1       4.679   4.011  -6.841  1.00  0.00     0.053 C 
BRANCH   2   3
ATOM      3  C   UNL     1       3.832   4.060  -8.076  1.00  0.00     0.041 C 
ATOM      4  O   UNL     1       3.366   2.999  -8.567  1.00  0.00    -0.550 OA
ATOM      5  O   UNL     1       3.531   5.282  -8.666  1.00  0.00    -0.550 OA
ENDBRANCH   2   3
ENDBRANCH   1   2
BRANCH   1   6
ATOM      6  C   UNL     1       4.647   4.964  -4.476  1.00  0.00     0.000 C 
BRANCH   6   7
ATOM      7  C   UNL     1       4.732   3.452  -4.225  1.00  0.00    -0.000 C 
BRANCH   7   8
ATOM      8  C   UNL     1       5.955   3.061  -3.381  1.00  0.00    -0.003 C 
ATOM      9  C   UNL     1       7.178   3.928  -3.676  1.00  0.00     0.004 C 
ENDBRANCH   7   8
ENDBRANCH   6   7
ENDBRANCH   1   6
TORSDOF 5
ENDMDL
MODEL 8
REMARK VINA RESULT:    -2.815      2.934      4.118
REMARK INTER + INTRA:          -3.838
REMARK INTER:                  -3.665
REMARK INTRA:                  -0.173
REMARK UNBOUND:                -0.201
REMARK SMILES CCCCCCC(=O)[O-]
REMARK SMILES IDX 5 1 6 2 7 3 8 4 9 5 4 6 3 7 2 8 1 9
REMARK H PARENT
REMARK Flexibility Score: inf
ROOT
ATOM      1  C   UNL     1       2.703  -4.101   2.036  1.00  0.00     0.006 C 
ENDROOT
BRANCH   1   2
ATOM      2  C   UNL     1       2.854  -4.401   0.539  1.00  0.00     0.053 C 
BRANCH   2   3
ATOM      3  C   UNL     1       4.259  -4.185   0.067  1.00  0.00     0.041 C 
ATOM      4  O   UNL     1       5.136  -5.067   0.262  1.00  0.00    -0.550 OA
ATOM      5  O   UNL     1       4.592  -3.023  -0.619  1.00  0.00    -0.550 OA
ENDBRANCH   2   3
ENDBRANCH   1   2
BRANCH   1   6
ATOM      6  C   UNL     1       1.473  -4.789   2.647  1.00  0.00     0.000 C 
BRANCH   6   7
ATOM      7  C   UNL     1       1.095  -6.047   1.851  1.00  0.00    -0.000 C 
BRANCH   7   8
ATOM      8  C   UNL     1       0.191  -7.000   2.648  1.00  0.00    -0.003 C 
ATOM      9  C   UNL     1       0.926  -7.688   3.797  1.00  0.00     0.004 C 
ENDBRANCH   7   8
ENDBRANCH   6   7
ENDBRANCH   1   6
TORSDOF 5
ENDMDL
MODEL 9
REMARK VINA RESULT:    -2.798      7.730      9.684
REMARK INTER + INTRA:          -3.816
REMARK INTER:                  -3.641
REMARK INTRA:                  -0.175
REMARK UNBOUND:                -0.201
REMARK SMILES CCCCCCC(=O)[O-]
REMARK SMILES IDX 5 1 6 2 7 3 8 4 9 5 4 6 3 7 2 8 1 9
REMARK H PARENT
REMARK Flexibility Score: inf
ROOT
ATOM      1  C   UNL     1       4.825   5.473  -5.787  1.00  0.00     0.006 C 
ENDROOT
BRANCH   1   2
ATOM      2  C   UNL     1       5.817   4.427  -5.264  1.00  0.00     0.053 C 
BRANCH   2   3
ATOM      3  C   UNL     1       5.612   4.146  -3.807  1.00  0.00     0.041 C 
ATOM      4  O   UNL     1       5.715   2.971  -3.367  1.00  0.00    -0.550 OA
ATOM      5  O   UNL     1       5.340   5.188  -2.928  1.00  0.00    -0.550 OA
ENDBRANCH   2   3
ENDBRANCH   1   2
BRANCH   1   6
ATOM      6  C   UNL     1       4.426   5.219  -7.249  1.00  0.00     0.000 C 
BRANCH   6   7
ATOM      7  C   UNL     1       4.181   3.723  -7.498  1.00  0.00    -0.000 C 
BRANCH   7   8
ATOM      8  C   UNL     1       3.615   3.444  -8.899  1.00  0.00    -0.003 C 
ATOM      9  C   UNL     1       2.858   4.637  -9.480  1.00  0.00     0.004 C 
ENDBRANCH   7   8
ENDBRANCH   6   7
ENDBRANCH   1   6
TORSDOF 5
ENDMDL
