MODEL 1
REMARK VINA RESULT:    -3.350      0.000      0.000
REMARK INTER + INTRA:          -3.966
REMARK INTER:                  -3.937
REMARK INTRA:                  -0.029
REMARK UNBOUND:                -0.029
REMARK SMILES O=C([O-])CCC(=O)[O-]
REMARK SMILES IDX 4 1 2 2 1 3 3 4 5 5 6 6 7 7 8 8
REMARK H PARENT
REMARK Flexibility Score: inf
ROOT
ATOM      1  C   UNL     1     -99.385  31.983 -37.708  1.00  0.00     0.059 C 
ENDROOT
BRANCH   1   2
ATOM      2  C   UNL     1     -99.781  31.892 -36.266  1.00  0.00     0.042 C 
ATOM      3  O   UNL     1     -98.941  31.536 -35.399  1.00  0.00    -0.550 OA
ATOM      4  O   UNL     1    -101.069  32.236 -35.875  1.00  0.00    -0.550 OA
ENDBRANCH   1   2
BRANCH   1   5
ATOM      5  C   UNL     1     -98.578  33.255 -37.992  1.00  0.00     0.059 C 
BRANCH   5   6
ATOM      6  C   UNL     1     -97.833  33.158 -39.288  1.00  0.00     0.042 C 
ATOM      7  O   UNL     1     -96.675  32.663 -39.316  1.00  0.00    -0.550 OA
ATOM      8  O   UNL     1     -98.399  33.653 -40.456  1.00  0.00    -0.550 OA
ENDBRANCH   5   6
ENDBRANCH   1   5
TORSDOF 3
ENDMDL
MODEL 2
REMARK VINA RESULT:    -3.328      0.077      4.145
REMARK INTER + INTRA:          -3.941
REMARK INTER:                  -3.913
REMARK INTRA:                  -0.028
REMARK UNBOUND:                -0.029
REMARK SMILES O=C([O-])CCC(=O)[O-]
REMARK SMILES IDX 4 1 2 2 1 3 3 4 5 5 6 6 7 7 8 8
REMARK H PARENT
REMARK Flexibility Score: inf
ROOT
ATOM      1  C   UNL     1     -98.509  33.259 -37.941  1.00  0.00     0.059 C 
ENDROOT
BRANCH   1   2
ATOM      2  C   UNL     1     -97.769  33.181 -39.242  1.00  0.00     0.042 C 
ATOM      3  O   UNL     1     -96.599  32.720 -39.279  1.00  0.00    -0.550 OA
ATOM      4  O   UNL     1     -98.389  33.582 -40.419  1.00  0.00    -0.550 OA
ENDBRANCH   1   2
BRANCH   1   5
ATOM      5  C   UNL     1     -99.382  32.020 -37.714  1.00  0.00     0.059 C 
BRANCH   5   6
ATOM      6  C   UNL     1     -99.815  31.905 -36.284  1.00  0.00     0.042 C 
ATOM      7  O   UNL     1     -99.013  31.480 -35.412  1.00  0.00    -0.550 OA
ATOM      8  O   UNL     1    -101.117  32.228 -35.923  1.00  0.00    -0.550 OA
ENDBRANCH   5   6
ENDBRANCH   1   5
TORSDOF 3
ENDMDL
MODEL 3
REMARK VINA RESULT:    -3.233      1.281      1.832
REMARK INTER + INTRA:          -3.830
REMARK INTER:                  -3.757
REMARK INTRA:                  -0.073
REMARK UNBOUND:                -0.029
REMARK SMILES O=C([O-])CCC(=O)[O-]
REMARK SMILES IDX 4 1 2 2 1 3 3 4 5 5 6 6 7 7 8 8
REMARK H PARENT
REMARK Flexibility Score: inf
ROOT
ATOM      1  C   UNL     1    -100.028  31.993 -37.086  1.00  0.00     0.059 C 
ENDROOT
BRANCH   1   2
ATOM      2  C   UNL     1     -99.770  31.071 -35.935  1.00  0.00     0.042 C 
ATOM      3  O   UNL     1    -100.448  30.019 -35.800  1.00  0.00    -0.550 OA
ATOM      4  O   UNL     1     -98.752  31.354 -35.032  1.00  0.00    -0.550 OA
ENDBRANCH   1   2
BRANCH   1   5
ATOM      5  C   UNL     1     -99.123  31.672 -38.281  1.00  0.00     0.059 C 
BRANCH   5   6
ATOM      6  C   UNL     1     -98.218  32.819 -38.611  1.00  0.00     0.042 C 
ATOM      7  O   UNL     1     -98.480  33.975 -38.186  1.00  0.00    -0.550 OA
ATOM      8  O   UNL     1     -97.108  32.619 -39.422  1.00  0.00    -0.550 OA
ENDBRANCH   5   6
ENDBRANCH   1   5
TORSDOF 3
ENDMDL
MODEL 4
REMARK VINA RESULT:    -3.187      1.326      4.256
REMARK INTER + INTRA:          -3.775
REMARK INTER:                  -3.707
REMARK INTRA:                  -0.068
REMARK UNBOUND:                -0.029
REMARK SMILES O=C([O-])CCC(=O)[O-]
REMARK SMILES IDX 4 1 2 2 1 3 3 4 5 5 6 6 7 7 8 8
REMARK H PARENT
REMARK Flexibility Score: inf
ROOT
ATOM      1  C   UNL     1     -99.047  31.762 -38.371  1.00  0.00     0.059 C 
ENDROOT
BRANCH   1   2
ATOM      2  C   UNL     1     -98.146  32.892 -38.766  1.00  0.00     0.042 C 
ATOM      3  O   UNL     1     -98.427  34.073 -38.434  1.00  0.00    -0.550 OA
ATOM      4  O   UNL     1     -96.975  32.635 -39.468  1.00  0.00    -0.550 OA
ENDBRANCH   1   2
BRANCH   1   5
ATOM      5  C   UNL     1     -99.470  31.865 -36.902  1.00  0.00     0.059 C 
BRANCH   5   6
ATOM      6  C   UNL     1    -100.949  31.689 -36.739  1.00  0.00     0.042 C 
ATOM      7  O   UNL     1    -101.656  31.342 -37.721  1.00  0.00    -0.550 OA
ATOM      8  O   UNL     1    -101.550  31.949 -35.514  1.00  0.00    -0.550 OA
ENDBRANCH   5   6
ENDBRANCH   1   5
TORSDOF 3
ENDMDL
MODEL 5
REMARK VINA RESULT:    -3.093      1.208      1.708
REMARK INTER + INTRA:          -3.664
REMARK INTER:                  -3.563
REMARK INTRA:                  -0.101
REMARK UNBOUND:                -0.029
REMARK SMILES O=C([O-])CCC(=O)[O-]
REMARK SMILES IDX 4 1 2 2 1 3 3 4 5 5 6 6 7 7 8 8
REMARK H PARENT
REMARK Flexibility Score: inf
ROOT
ATOM      1  C   UNL     1    -100.345  31.847 -37.335  1.00  0.00     0.059 C 
ENDROOT
BRANCH   1   2
ATOM      2  C   UNL     1    -100.128  31.413 -35.917  1.00  0.00     0.042 C 
ATOM      3  O   UNL     1    -101.072  30.906 -35.258  1.00  0.00    -0.550 OA
ATOM      4  O   UNL     1     -98.871  31.532 -35.338  1.00  0.00    -0.550 OA
ENDBRANCH   1   2
BRANCH   1   5
ATOM      5  C   UNL     1     -99.155  31.475 -38.227  1.00  0.00     0.059 C 
BRANCH   5   6
ATOM      6  C   UNL     1     -98.319  32.673 -38.560  1.00  0.00     0.042 C 
ATOM      7  O   UNL     1     -97.331  32.560 -39.332  1.00  0.00    -0.550 OA
ATOM      8  O   UNL     1     -98.607  33.905 -37.986  1.00  0.00    -0.550 OA
ENDBRANCH   5   6
ENDBRANCH   1   5
TORSDOF 3
ENDMDL
MODEL 6
REMARK VINA RESULT:    -2.819      1.753      4.490
REMARK INTER + INTRA:          -3.342
REMARK INTER:                  -3.244
REMARK INTRA:                  -0.098
REMARK UNBOUND:                -0.029
REMARK SMILES O=C([O-])CCC(=O)[O-]
REMARK SMILES IDX 4 1 2 2 1 3 3 4 5 5 6 6 7 7 8 8
REMARK H PARENT
REMARK Flexibility Score: inf
ROOT
ATOM      1  C   UNL     1     -99.512  32.514 -36.878  1.00  0.00     0.059 C 
ENDROOT
BRANCH   1   2
ATOM      2  C   UNL     1     -99.116  31.854 -38.164  1.00  0.00     0.042 C 
ATOM      3  O   UNL     1     -98.297  32.414 -38.938  1.00  0.00    -0.550 OA
ATOM      4  O   UNL     1     -99.623  30.602 -38.488  1.00  0.00    -0.550 OA
ENDBRANCH   1   2
BRANCH   1   5
ATOM      5  C   UNL     1    -100.604  31.721 -36.151  1.00  0.00     0.059 C 
BRANCH   5   6
ATOM      6  C   UNL     1    -100.132  31.230 -34.816  1.00  0.00     0.042 C 
ATOM      7  O   UNL     1    -100.875  31.334 -33.805  1.00  0.00    -0.550 OA
ATOM      8  O   UNL     1     -98.857  30.695 -34.682  1.00  0.00    -0.550 OA
ENDBRANCH   5   6
ENDBRANCH   1   5
TORSDOF 3
ENDMDL
MODEL 7
REMARK VINA RESULT:    -2.738      2.227      4.358
REMARK INTER + INTRA:          -3.248
REMARK INTER:                  -3.131
REMARK INTRA:                  -0.116
REMARK UNBOUND:                -0.029
REMARK SMILES O=C([O-])CCC(=O)[O-]
REMARK SMILES IDX 4 1 2 2 1 3 3 4 5 5 6 6 7 7 8 8
REMARK H PARENT
REMARK Flexibility Score: inf
ROOT
ATOM      1  C   UNL     1    -100.076  32.189 -36.503  1.00  0.00     0.059 C 
ENDROOT
BRANCH   1   2
ATOM      2  C   UNL     1     -99.219  32.331 -37.723  1.00  0.00     0.042 C 
ATOM      3  O   UNL     1     -99.120  31.381 -38.543  1.00  0.00    -0.550 OA
ATOM      4  O   UNL     1     -98.558  33.528 -37.973  1.00  0.00    -0.550 OA
ENDBRANCH   1   2
BRANCH   1   5
ATOM      5  C   UNL     1    -100.998  30.968 -36.600  1.00  0.00     0.059 C 
BRANCH   5   6
ATOM      6  C   UNL     1    -102.384  31.355 -37.015  1.00  0.00     0.042 C 
ATOM      7  O   UNL     1    -103.233  31.692 -36.148  1.00  0.00    -0.550 OA
ATOM      8  O   UNL     1    -102.750  31.303 -38.354  1.00  0.00    -0.550 OA
ENDBRANCH   5   6
ENDBRANCH   1   5
TORSDOF 3
ENDMDL
MODEL 8
REMARK VINA RESULT:    -2.674     14.006     14.963
REMARK INTER + INTRA:          -3.172
REMARK INTER:                  -3.080
REMARK INTRA:                  -0.092
REMARK UNBOUND:                -0.029
REMARK SMILES O=C([O-])CCC(=O)[O-]
REMARK SMILES IDX 4 1 2 2 1 3 3 4 5 5 6 6 7 7 8 8
REMARK H PARENT
REMARK Flexibility Score: inf
ROOT
ATOM      1  C   UNL     1     -96.128  45.929 -39.278  1.00  0.00     0.059 C 
ENDROOT
BRANCH   1   2
ATOM      2  C   UNL     1     -95.701  47.172 -39.996  1.00  0.00     0.042 C 
ATOM      3  O   UNL     1     -94.739  47.858 -39.562  1.00  0.00    -0.550 OA
ATOM      4  O   UNL     1     -96.343  47.552 -41.169  1.00  0.00    -0.550 OA
ENDBRANCH   1   2
BRANCH   1   5
ATOM      5  C   UNL     1     -95.325  45.719 -37.989  1.00  0.00     0.059 C 
BRANCH   5   6
ATOM      6  C   UNL     1     -96.092  46.162 -36.782  1.00  0.00     0.042 C 
ATOM      7  O   UNL     1     -97.314  46.449 -36.879  1.00  0.00    -0.550 OA
ATOM      8  O   UNL     1     -95.448  46.297 -35.558  1.00  0.00    -0.550 OA
ENDBRANCH   5   6
ENDBRANCH   1   5
TORSDOF 3
ENDMDL
MODEL 9
REMARK VINA RESULT:    -2.654      2.145      2.648
REMARK INTER + INTRA:          -3.148
REMARK INTER:                  -3.037
REMARK INTRA:                  -0.112
REMARK UNBOUND:                -0.029
REMARK SMILES O=C([O-])CCC(=O)[O-]
REMARK SMILES IDX 4 1 2 2 1 3 3 4 5 5 6 6 7 7 8 8
REMARK H PARENT
REMARK Flexibility Score: inf
ROOT
ATOM      1  C   UNL     1    -101.007  32.145 -35.958  1.00  0.00     0.059 C 
ENDROOT
BRANCH   1   2
ATOM      2  C   UNL     1    -101.933  31.123 -36.545  1.00  0.00     0.042 C 
ATOM      3  O   UNL     1    -101.923  29.939 -36.119  1.00  0.00    -0.550 OA
ATOM      4  O   UNL     1    -102.835  31.490 -37.536  1.00  0.00    -0.550 OA
ENDBRANCH   1   2
BRANCH   1   5
ATOM      5  C   UNL     1     -99.540  31.806 -36.244  1.00  0.00     0.059 C 
BRANCH   5   6
ATOM      6  C   UNL     1     -99.141  32.206 -37.631  1.00  0.00     0.042 C 
ATOM      7  O   UNL     1     -99.172  31.364 -38.567  1.00  0.00    -0.550 OA
ATOM      8  O   UNL     1     -98.696  33.498 -37.883  1.00  0.00    -0.550 OA
ENDBRANCH   5   6
ENDBRANCH   1   5
TORSDOF 3
ENDMDL
