MODEL 1
REMARK VINA RESULT:    -4.612      0.000      0.000
REMARK INTER + INTRA:          -9.753
REMARK INTER:                  -8.521
REMARK INTRA:                  -1.232
REMARK UNBOUND:                -1.232
REMARK SMILES CCCCCCCCCCCCCCCCO
REMARK SMILES IDX 9 1 8 2 7 3 6 4 5 5 4 6 3 7 2 8 1 9 10 10 11 11 12 12 13 13
REMARK SMILES IDX 14 14 15 15 16 16 17 17
REMARK H PARENT 17 18
REMARK Flexibility Score: inf
ROOT
ATOM      1  C   UNL     1      -5.391  -7.494  -8.055  1.00  0.00     0.000 C 
ENDROOT
BRANCH   1   2
ATOM      2  C   UNL     1      -6.518  -7.405  -9.095  1.00  0.00    -0.000 C 
BRANCH   2   3
ATOM      3  C   UNL     1      -6.303  -6.274 -10.119  1.00  0.00    -0.000 C 
BRANCH   3   4
ATOM      4  C   UNL     1      -7.020  -4.953  -9.785  1.00  0.00    -0.000 C 
BRANCH   4   5
ATOM      5  C   UNL     1      -6.085  -3.911  -9.145  1.00  0.00    -0.000 C 
BRANCH   5   6
ATOM      6  C   UNL     1      -6.779  -3.096  -8.042  1.00  0.00    -0.000 C 
BRANCH   6   7
ATOM      7  C   UNL     1      -6.287  -1.640  -7.988  1.00  0.00    -0.000 C 
BRANCH   7   8
ATOM      8  C   UNL     1      -4.803  -1.506  -8.357  1.00  0.00    -0.003 C 
ATOM      9  C   UNL     1      -4.572  -0.580  -9.552  1.00  0.00     0.004 C 
ENDBRANCH   7   8
ENDBRANCH   6   7
ENDBRANCH   5   6
ENDBRANCH   4   5
ENDBRANCH   3   4
ENDBRANCH   2   3
ENDBRANCH   1   2
BRANCH   1  10
ATOM     10  C   UNL     1      -5.773  -6.748  -6.768  1.00  0.00     0.000 C 
BRANCH  10  11
ATOM     11  C   UNL     1      -7.287  -6.757  -6.504  1.00  0.00     0.000 C 
BRANCH  11  12
ATOM     12  C   UNL     1      -7.640  -6.378  -5.058  1.00  0.00     0.000 C 
BRANCH  12  13
ATOM     13  C   UNL     1      -8.819  -7.218  -4.543  1.00  0.00     0.000 C 
BRANCH  13  14
ATOM     14  C   UNL     1      -8.388  -8.274  -3.512  1.00  0.00     0.002 C 
BRANCH  14  15
ATOM     15  C   UNL     1      -6.909  -8.141  -3.112  1.00  0.00     0.028 C 
BRANCH  15  16
ATOM     16  C   UNL     1      -6.406  -9.390  -2.386  1.00  0.00     0.156 C 
BRANCH  16  17
ATOM     17  O   UNL     1      -5.827  -9.034  -1.160  1.00  0.00    -0.396 OA
ATOM     18  H   UNL     1      -6.166  -9.689  -0.496  1.00  0.00     0.210 HD
ENDBRANCH  16  17
ENDBRANCH  15  16
ENDBRANCH  14  15
ENDBRANCH  13  14
ENDBRANCH  12  13
ENDBRANCH  11  12
ENDBRANCH  10  11
ENDBRANCH   1  10
TORSDOF 15
ENDMDL
MODEL 2
REMARK VINA RESULT:    -4.532     16.472     18.509
REMARK INTER + INTRA:          -9.606
REMARK INTER:                  -7.526
REMARK INTRA:                  -2.081
REMARK UNBOUND:                -1.232
REMARK SMILES CCCCCCCCCCCCCCCCO
REMARK SMILES IDX 9 1 8 2 7 3 6 4 5 5 4 6 3 7 2 8 1 9 10 10 11 11 12 12 13 13
REMARK SMILES IDX 14 14 15 15 16 16 17 17
REMARK H PARENT 17 18
REMARK Flexibility Score: inf
ROOT
ATOM      1  C   UNL     1      -1.749   0.117   9.623  1.00  0.00     0.000 C 
ENDROOT
BRANCH   1   2
ATOM      2  C   UNL     1      -2.353  -1.059   8.843  1.00  0.00    -0.000 C 
BRANCH   2   3
ATOM      3  C   UNL     1      -1.383  -1.651   7.802  1.00  0.00    -0.000 C 
BRANCH   3   4
ATOM      4  C   UNL     1       0.068  -1.148   7.909  1.00  0.00    -0.000 C 
BRANCH   4   5
ATOM      5  C   UNL     1       0.548  -0.433   6.634  1.00  0.00    -0.000 C 
BRANCH   5   6
ATOM      6  C   UNL     1       0.586   1.095   6.794  1.00  0.00    -0.000 C 
BRANCH   6   7
ATOM      7  C   UNL     1      -0.748   1.760   6.414  1.00  0.00    -0.000 C 
BRANCH   7   8
ATOM      8  C   UNL     1      -1.413   1.093   5.201  1.00  0.00    -0.003 C 
ATOM      9  C   UNL     1      -2.869   0.705   5.463  1.00  0.00     0.004 C 
ENDBRANCH   7   8
ENDBRANCH   6   7
ENDBRANCH   5   6
ENDBRANCH   4   5
ENDBRANCH   3   4
ENDBRANCH   2   3
ENDBRANCH   1   2
BRANCH   1  10
ATOM     10  C   UNL     1      -2.781   1.241   9.807  1.00  0.00     0.000 C 
BRANCH  10  11
ATOM     11  C   UNL     1      -2.130   2.601  10.104  1.00  0.00     0.000 C 
BRANCH  11  12
ATOM     12  C   UNL     1      -0.611   2.596   9.872  1.00  0.00     0.000 C 
BRANCH  12  13
ATOM     13  C   UNL     1      -0.047   4.024   9.904  1.00  0.00     0.000 C 
BRANCH  13  14
ATOM     14  C   UNL     1       1.420   4.091   9.449  1.00  0.00     0.002 C 
BRANCH  14  15
ATOM     15  C   UNL     1       1.821   5.489   8.950  1.00  0.00     0.028 C 
BRANCH  15  16
ATOM     16  C   UNL     1       2.641   5.414   7.661  1.00  0.00     0.156 C 
BRANCH  16  17
ATOM     17  O   UNL     1       2.005   4.579   6.732  1.00  0.00    -0.396 OA
ATOM     18  H   UNL     1       1.095   4.411   7.092  1.00  0.00     0.210 HD
ENDBRANCH  16  17
ENDBRANCH  15  16
ENDBRANCH  14  15
ENDBRANCH  13  14
ENDBRANCH  12  13
ENDBRANCH  11  12
ENDBRANCH  10  11
ENDBRANCH   1  10
TORSDOF 15
ENDMDL
MODEL 3
REMARK VINA RESULT:    -4.394      3.298      7.170
REMARK INTER + INTRA:          -9.351
REMARK INTER:                  -7.943
REMARK INTRA:                  -1.408
REMARK UNBOUND:                -1.232
REMARK SMILES CCCCCCCCCCCCCCCCO
REMARK SMILES IDX 9 1 8 2 7 3 6 4 5 5 4 6 3 7 2 8 1 9 10 10 11 11 12 12 13 13
REMARK SMILES IDX 14 14 15 15 16 16 17 17
REMARK H PARENT 17 18
REMARK Flexibility Score: inf
ROOT
ATOM      1  C   UNL     1      -5.428  -6.494  -7.329  1.00  0.00     0.000 C 
ENDROOT
BRANCH   1   2
ATOM      2  C   UNL     1      -5.438  -7.858  -8.035  1.00  0.00    -0.000 C 
BRANCH   2   3
ATOM      3  C   UNL     1      -6.857  -8.424  -8.230  1.00  0.00    -0.000 C 
BRANCH   3   4
ATOM      4  C   UNL     1      -7.213  -9.610  -7.314  1.00  0.00    -0.000 C 
BRANCH   4   5
ATOM      5  C   UNL     1      -8.646  -9.527  -6.759  1.00  0.00    -0.000 C 
BRANCH   5   6
ATOM      6  C   UNL     1      -8.798  -8.441  -5.682  1.00  0.00    -0.000 C 
BRANCH   6   7
ATOM      7  C   UNL     1      -7.701  -8.520  -4.607  1.00  0.00    -0.000 C 
BRANCH   7   8
ATOM      8  C   UNL     1      -7.416  -7.159  -3.956  1.00  0.00    -0.003 C 
ATOM      9  C   UNL     1      -8.278  -6.035  -4.533  1.00  0.00     0.004 C 
ENDBRANCH   7   8
ENDBRANCH   6   7
ENDBRANCH   5   6
ENDBRANCH   4   5
ENDBRANCH   3   4
ENDBRANCH   2   3
ENDBRANCH   1   2
BRANCH   1  10
ATOM     10  C   UNL     1      -6.629  -5.641  -7.769  1.00  0.00     0.000 C 
BRANCH  10  11
ATOM     11  C   UNL     1      -6.484  -5.110  -9.204  1.00  0.00     0.000 C 
BRANCH  11  12
ATOM     12  C   UNL     1      -6.672  -3.588  -9.295  1.00  0.00     0.000 C 
BRANCH  12  13
ATOM     13  C   UNL     1      -5.827  -2.867  -8.233  1.00  0.00     0.000 C 
BRANCH  13  14
ATOM     14  C   UNL     1      -5.650  -1.370  -8.534  1.00  0.00     0.002 C 
BRANCH  14  15
ATOM     15  C   UNL     1      -5.097  -1.111  -9.944  1.00  0.00     0.028 C 
BRANCH  15  16
ATOM     16  C   UNL     1      -4.151   0.091  -9.968  1.00  0.00     0.156 C 
BRANCH  16  17
ATOM     17  O   UNL     1      -3.077  -0.123  -9.094  1.00  0.00    -0.396 OA
ATOM     18  H   UNL     1      -2.332  -0.465  -9.653  1.00  0.00     0.210 HD
ENDBRANCH  16  17
ENDBRANCH  15  16
ENDBRANCH  14  15
ENDBRANCH  13  14
ENDBRANCH  12  13
ENDBRANCH  11  12
ENDBRANCH  10  11
ENDBRANCH   1  10
TORSDOF 15
ENDMDL
MODEL 4
REMARK VINA RESULT:    -4.390     15.837     18.252
REMARK INTER + INTRA:          -9.343
REMARK INTER:                  -7.260
REMARK INTRA:                  -2.084
REMARK UNBOUND:                -1.232
REMARK SMILES CCCCCCCCCCCCCCCCO
REMARK SMILES IDX 9 1 8 2 7 3 6 4 5 5 4 6 3 7 2 8 1 9 10 10 11 11 12 12 13 13
REMARK SMILES IDX 14 14 15 15 16 16 17 17
REMARK H PARENT 17 18
REMARK Flexibility Score: inf
ROOT
ATOM      1  C   UNL     1      -1.938   1.123   6.091  1.00  0.00     0.000 C 
ENDROOT
BRANCH   1   2
ATOM      2  C   UNL     1      -0.583   1.283   5.386  1.00  0.00    -0.000 C 
BRANCH   2   3
ATOM      3  C   UNL     1       0.507   0.357   5.959  1.00  0.00    -0.000 C 
BRANCH   3   4
ATOM      4  C   UNL     1      -0.021  -0.922   6.636  1.00  0.00    -0.000 C 
BRANCH   4   5
ATOM      5  C   UNL     1       0.598  -1.163   8.024  1.00  0.00    -0.000 C 
BRANCH   5   6
ATOM      6  C   UNL     1      -0.364  -1.885   8.981  1.00  0.00    -0.000 C 
BRANCH   6   7
ATOM      7  C   UNL     1      -1.750  -2.118   8.356  1.00  0.00    -0.000 C 
BRANCH   7   8
ATOM      8  C   UNL     1      -2.501  -3.288   9.009  1.00  0.00    -0.003 C 
ATOM      9  C   UNL     1      -1.577  -4.448   9.383  1.00  0.00     0.004 C 
ENDBRANCH   7   8
ENDBRANCH   6   7
ENDBRANCH   5   6
ENDBRANCH   4   5
ENDBRANCH   3   4
ENDBRANCH   2   3
ENDBRANCH   1   2
BRANCH   1  10
ATOM     10  C   UNL     1      -2.081   2.134   7.239  1.00  0.00     0.000 C 
BRANCH  10  11
ATOM     11  C   UNL     1      -2.316   1.457   8.599  1.00  0.00     0.000 C 
BRANCH  11  12
ATOM     12  C   UNL     1      -1.203   1.764   9.613  1.00  0.00     0.000 C 
BRANCH  12  13
ATOM     13  C   UNL     1      -0.010   2.448   8.928  1.00  0.00     0.000 C 
BRANCH  13  14
ATOM     14  C   UNL     1       0.516   3.655   9.722  1.00  0.00     0.002 C 
BRANCH  14  15
ATOM     15  C   UNL     1       1.482   4.526   8.902  1.00  0.00     0.028 C 
BRANCH  15  16
ATOM     16  C   UNL     1       1.966   3.803   7.645  1.00  0.00     0.156 C 
BRANCH  16  17
ATOM     17  O   UNL     1       2.107   4.713   6.589  1.00  0.00    -0.396 OA
ATOM     18  H   UNL     1       3.068   4.958   6.563  1.00  0.00     0.210 HD
ENDBRANCH  16  17
ENDBRANCH  15  16
ENDBRANCH  14  15
ENDBRANCH  13  14
ENDBRANCH  12  13
ENDBRANCH  11  12
ENDBRANCH  10  11
ENDBRANCH   1  10
TORSDOF 15
ENDMDL
MODEL 5
REMARK VINA RESULT:    -4.381      1.428      2.226
REMARK INTER + INTRA:          -9.326
REMARK INTER:                  -8.786
REMARK INTRA:                  -0.540
REMARK UNBOUND:                -1.232
REMARK SMILES CCCCCCCCCCCCCCCCO
REMARK SMILES IDX 9 1 8 2 7 3 6 4 5 5 4 6 3 7 2 8 1 9 10 10 11 11 12 12 13 13
REMARK SMILES IDX 14 14 15 15 16 16 17 17
REMARK H PARENT 17 18
REMARK Flexibility Score: inf
ROOT
ATOM      1  C   UNL     1      -6.122  -7.080  -6.642  1.00  0.00     0.000 C 
ENDROOT
BRANCH   1   2
ATOM      2  C   UNL     1      -6.152  -6.183  -7.888  1.00  0.00    -0.000 C 
BRANCH   2   3
ATOM      3  C   UNL     1      -6.560  -4.731  -7.574  1.00  0.00    -0.000 C 
BRANCH   3   4
ATOM      4  C   UNL     1      -6.196  -3.706  -8.664  1.00  0.00    -0.000 C 
BRANCH   4   5
ATOM      5  C   UNL     1      -6.851  -2.332  -8.435  1.00  0.00    -0.000 C 
BRANCH   5   6
ATOM      6  C   UNL     1      -5.856  -1.287  -7.907  1.00  0.00    -0.000 C 
BRANCH   6   7
ATOM      7  C   UNL     1      -4.531  -1.289  -8.688  1.00  0.00    -0.000 C 
BRANCH   7   8
ATOM      8  C   UNL     1      -4.580  -0.390  -9.932  1.00  0.00    -0.003 C 
ATOM      9  C   UNL     1      -3.304   0.432 -10.119  1.00  0.00     0.004 C 
ENDBRANCH   7   8
ENDBRANCH   6   7
ENDBRANCH   5   6
ENDBRANCH   4   5
ENDBRANCH   3   4
ENDBRANCH   2   3
ENDBRANCH   1   2
BRANCH   1  10
ATOM     10  C   UNL     1      -7.546  -7.429  -6.183  1.00  0.00     0.000 C 
BRANCH  10  11
ATOM     11  C   UNL     1      -7.977  -6.641  -4.935  1.00  0.00     0.000 C 
BRANCH  11  12
ATOM     12  C   UNL     1      -7.999  -7.506  -3.666  1.00  0.00     0.000 C 
BRANCH  12  13
ATOM     13  C   UNL     1      -6.571  -7.856  -3.216  1.00  0.00     0.000 C 
BRANCH  13  14
ATOM     14  C   UNL     1      -6.541  -8.612  -1.878  1.00  0.00     0.002 C 
BRANCH  14  15
ATOM     15  C   UNL     1      -7.866  -9.330  -1.574  1.00  0.00     0.028 C 
BRANCH  15  16
ATOM     16  C   UNL     1      -7.855  -9.971  -0.185  1.00  0.00     0.156 C 
BRANCH  16  17
ATOM     17  O   UNL     1      -8.822  -9.370   0.631  1.00  0.00    -0.396 OA
ATOM     18  H   UNL     1      -9.602  -9.983   0.629  1.00  0.00     0.210 HD
ENDBRANCH  16  17
ENDBRANCH  15  16
ENDBRANCH  14  15
ENDBRANCH  13  14
ENDBRANCH  12  13
ENDBRANCH  11  12
ENDBRANCH  10  11
ENDBRANCH   1  10
TORSDOF 15
ENDMDL
MODEL 6
REMARK VINA RESULT:    -4.296      4.285      9.078
REMARK INTER + INTRA:          -9.169
REMARK INTER:                  -8.680
REMARK INTRA:                  -0.489
REMARK UNBOUND:                -1.232
REMARK SMILES CCCCCCCCCCCCCCCCO
REMARK SMILES IDX 9 1 8 2 7 3 6 4 5 5 4 6 3 7 2 8 1 9 10 10 11 11 12 12 13 13
REMARK SMILES IDX 14 14 15 15 16 16 17 17
REMARK H PARENT 17 18
REMARK Flexibility Score: inf
ROOT
ATOM      1  C   UNL     1      -6.607  -2.498  -8.518  1.00  0.00     0.000 C 
ENDROOT
BRANCH   1   2
ATOM      2  C   UNL     1      -6.170  -3.462  -9.632  1.00  0.00    -0.000 C 
BRANCH   2   3
ATOM      3  C   UNL     1      -7.172  -4.609  -9.861  1.00  0.00    -0.000 C 
BRANCH   3   4
ATOM      4  C   UNL     1      -6.731  -5.975  -9.303  1.00  0.00    -0.000 C 
BRANCH   4   5
ATOM      5  C   UNL     1      -6.125  -5.876  -7.892  1.00  0.00    -0.000 C 
BRANCH   5   6
ATOM      6  C   UNL     1      -6.056  -7.239  -7.184  1.00  0.00    -0.000 C 
BRANCH   6   7
ATOM      7  C   UNL     1      -7.345  -7.565  -6.411  1.00  0.00    -0.000 C 
BRANCH   7   8
ATOM      8  C   UNL     1      -7.149  -7.509  -4.889  1.00  0.00    -0.003 C 
ATOM      9  C   UNL     1      -8.218  -6.673  -4.185  1.00  0.00     0.004 C 
ENDBRANCH   7   8
ENDBRANCH   6   7
ENDBRANCH   5   6
ENDBRANCH   4   5
ENDBRANCH   3   4
ENDBRANCH   2   3
ENDBRANCH   1   2
BRANCH   1  10
ATOM     10  C   UNL     1      -5.625  -1.323  -8.394  1.00  0.00     0.000 C 
BRANCH  10  11
ATOM     11  C   UNL     1      -5.070  -0.868  -9.753  1.00  0.00     0.000 C 
BRANCH  11  12
ATOM     12  C   UNL     1      -3.762  -0.073  -9.623  1.00  0.00     0.000 C 
BRANCH  12  13
ATOM     13  C   UNL     1      -3.944   1.369 -10.122  1.00  0.00     0.000 C 
BRANCH  13  14
ATOM     14  C   UNL     1      -2.707   2.245  -9.865  1.00  0.00     0.002 C 
BRANCH  14  15
ATOM     15  C   UNL     1      -3.051   3.740  -9.768  1.00  0.00     0.028 C 
BRANCH  15  16
ATOM     16  C   UNL     1      -2.018   4.505  -8.940  1.00  0.00     0.156 C 
BRANCH  16  17
ATOM     17  O   UNL     1      -1.155   3.607  -8.298  1.00  0.00    -0.396 OA
ATOM     18  H   UNL     1      -0.234   3.898  -8.529  1.00  0.00     0.210 HD
ENDBRANCH  16  17
ENDBRANCH  15  16
ENDBRANCH  14  15
ENDBRANCH  13  14
ENDBRANCH  12  13
ENDBRANCH  11  12
ENDBRANCH  10  11
ENDBRANCH   1  10
TORSDOF 15
ENDMDL
MODEL 7
REMARK VINA RESULT:    -4.204      2.796      7.577
REMARK INTER + INTRA:          -9.000
REMARK INTER:                  -8.151
REMARK INTRA:                  -0.849
REMARK UNBOUND:                -1.232
REMARK SMILES CCCCCCCCCCCCCCCCO
REMARK SMILES IDX 9 1 8 2 7 3 6 4 5 5 4 6 3 7 2 8 1 9 10 10 11 11 12 12 13 13
REMARK SMILES IDX 14 14 15 15 16 16 17 17
REMARK H PARENT 17 18
REMARK Flexibility Score: inf
ROOT
ATOM      1  C   UNL     1      -6.044  -6.812  -6.673  1.00  0.00     0.000 C 
ENDROOT
BRANCH   1   2
ATOM      2  C   UNL     1      -7.547  -6.787  -6.354  1.00  0.00    -0.000 C 
BRANCH   2   3
ATOM      3  C   UNL     1      -7.844  -6.396  -4.894  1.00  0.00    -0.000 C 
BRANCH   3   4
ATOM      4  C   UNL     1      -8.998  -7.176  -4.237  1.00  0.00    -0.000 C 
BRANCH   4   5
ATOM      5  C   UNL     1      -8.513  -8.171  -3.167  1.00  0.00    -0.000 C 
BRANCH   5   6
ATOM      6  C   UNL     1      -7.005  -8.454  -3.266  1.00  0.00    -0.000 C 
BRANCH   6   7
ATOM      7  C   UNL     1      -6.347  -8.624  -1.887  1.00  0.00    -0.000 C 
BRANCH   7   8
ATOM      8  C   UNL     1      -6.763  -9.930  -1.194  1.00  0.00    -0.003 C 
ATOM      9  C   UNL     1      -7.965  -9.750  -0.266  1.00  0.00     0.004 C 
ENDBRANCH   7   8
ENDBRANCH   6   7
ENDBRANCH   5   6
ENDBRANCH   4   5
ENDBRANCH   3   4
ENDBRANCH   2   3
ENDBRANCH   1   2
BRANCH   1  10
ATOM     10  C   UNL     1      -5.770  -7.608  -7.958  1.00  0.00     0.000 C 
BRANCH  10  11
ATOM     11  C   UNL     1      -6.729  -7.239  -9.101  1.00  0.00     0.000 C 
BRANCH  11  12
ATOM     12  C   UNL     1      -6.219  -6.061  -9.946  1.00  0.00     0.000 C 
BRANCH  12  13
ATOM     13  C   UNL     1      -6.892  -4.748  -9.518  1.00  0.00     0.000 C 
BRANCH  13  14
ATOM     14  C   UNL     1      -6.021  -3.921  -8.559  1.00  0.00     0.002 C 
BRANCH  14  15
ATOM     15  C   UNL     1      -6.778  -2.730  -7.950  1.00  0.00     0.028 C 
BRANCH  15  16
ATOM     16  C   UNL     1      -5.967  -1.436  -8.048  1.00  0.00     0.156 C 
BRANCH  16  17
ATOM     17  O   UNL     1      -5.112  -1.486  -9.157  1.00  0.00    -0.396 OA
ATOM     18  H   UNL     1      -4.283  -1.934  -8.845  1.00  0.00     0.210 HD
ENDBRANCH  16  17
ENDBRANCH  15  16
ENDBRANCH  14  15
ENDBRANCH  13  14
ENDBRANCH  12  13
ENDBRANCH  11  12
ENDBRANCH  10  11
ENDBRANCH   1  10
TORSDOF 15
ENDMDL
MODEL 8
REMARK VINA RESULT:    -4.156     17.563     19.866
REMARK INTER + INTRA:          -8.912
REMARK INTER:                  -7.860
REMARK INTRA:                  -1.051
REMARK UNBOUND:                -1.232
REMARK SMILES CCCCCCCCCCCCCCCCO
REMARK SMILES IDX 9 1 8 2 7 3 6 4 5 5 4 6 3 7 2 8 1 9 10 10 11 11 12 12 13 13
REMARK SMILES IDX 14 14 15 15 16 16 17 17
REMARK H PARENT 17 18
REMARK Flexibility Score: inf
ROOT
ATOM      1  C   UNL     1       1.770   3.584   7.346  1.00  0.00     0.000 C 
ENDROOT
BRANCH   1   2
ATOM      2  C   UNL     1       0.870   2.374   7.054  1.00  0.00    -0.000 C 
BRANCH   2   3
ATOM      3  C   UNL     1       1.019   1.847   5.614  1.00  0.00    -0.000 C 
BRANCH   3   4
ATOM      4  C   UNL     1      -0.215   1.109   5.063  1.00  0.00    -0.000 C 
BRANCH   4   5
ATOM      5  C   UNL     1      -1.511   1.471   5.810  1.00  0.00    -0.000 C 
BRANCH   5   6
ATOM      6  C   UNL     1      -2.318   0.231   6.225  1.00  0.00    -0.000 C 
BRANCH   6   7
ATOM      7  C   UNL     1      -1.931  -0.284   7.621  1.00  0.00    -0.000 C 
BRANCH   7   8
ATOM      8  C   UNL     1      -1.068  -1.553   7.562  1.00  0.00    -0.003 C 
ATOM      9  C   UNL     1       0.419  -1.268   7.782  1.00  0.00     0.004 C 
ENDBRANCH   7   8
ENDBRANCH   6   7
ENDBRANCH   5   6
ENDBRANCH   4   5
ENDBRANCH   3   4
ENDBRANCH   2   3
ENDBRANCH   1   2
BRANCH   1  10
ATOM     10  C   UNL     1       1.555   4.094   8.779  1.00  0.00     0.000 C 
BRANCH  10  11
ATOM     11  C   UNL     1       2.315   5.399   9.064  1.00  0.00     0.000 C 
BRANCH  11  12
ATOM     12  C   UNL     1       3.100   5.907   7.845  1.00  0.00     0.000 C 
BRANCH  12  13
ATOM     13  C   UNL     1       2.845   7.404   7.614  1.00  0.00     0.000 C 
BRANCH  13  14
ATOM     14  C   UNL     1       4.142   8.198   7.389  1.00  0.00     0.002 C 
BRANCH  14  15
ATOM     15  C   UNL     1       4.716   8.006   5.976  1.00  0.00     0.028 C 
BRANCH  15  16
ATOM     16  C   UNL     1       6.245   7.960   5.989  1.00  0.00     0.156 C 
BRANCH  16  17
ATOM     17  O   UNL     1       6.726   7.577   4.730  1.00  0.00    -0.396 OA
ATOM     18  H   UNL     1       5.949   7.623   4.114  1.00  0.00     0.210 HD
ENDBRANCH  16  17
ENDBRANCH  15  16
ENDBRANCH  14  15
ENDBRANCH  13  14
ENDBRANCH  12  13
ENDBRANCH  11  12
ENDBRANCH  10  11
ENDBRANCH   1  10
TORSDOF 15
ENDMDL
