MODEL 1
REMARK VINA RESULT:    -3.927      0.000      0.000
REMARK INTER + INTRA:          -5.453
REMARK INTER:                  -5.189
REMARK INTRA:                  -0.263
REMARK UNBOUND:                -0.263
REMARK SMILES C=C[C@@H](O)CCCCC
REMARK SMILES IDX 6 1 7 2 8 3 9 4 5 5 3 6 2 7 1 8 4 9
REMARK H PARENT 4 10
REMARK Flexibility Score: inf
ROOT
ATOM      1  C   UNL     1      41.372   8.866   0.437  1.00  0.00     0.003 C 
ENDROOT
BRANCH   1   2
ATOM      2  C   UNL     1      41.112   7.352   0.495  1.00  0.00    -0.000 C 
BRANCH   2   3
ATOM      3  C   UNL     1      40.695   6.876   1.894  1.00  0.00    -0.003 C 
ATOM      4  C   UNL     1      40.435   8.061   2.821  1.00  0.00     0.004 C 
ENDBRANCH   2   3
ENDBRANCH   1   2
BRANCH   1   5
ATOM      5  C   UNL     1      41.085   9.464  -0.952  1.00  0.00     0.036 C 
BRANCH   5   6
ATOM      6  C   UNL     1      41.998   8.868  -2.040  1.00  0.00     0.136 C 
BRANCH   6   7
ATOM      7  C   UNL     1      41.303   8.812  -3.377  1.00  0.00    -0.004 C 
ATOM      8  C   UNL     1      39.987   9.023  -3.480  1.00  0.00     0.007 C 
ENDBRANCH   6   7
BRANCH   6   9
ATOM      9  O   UNL     1      43.151   9.659  -2.168  1.00  0.00    -0.389 OA
ATOM     10  H   UNL     1      42.866  10.521  -2.569  1.00  0.00     0.211 HD
ENDBRANCH   6   9
ENDBRANCH   5   6
ENDBRANCH   1   5
TORSDOF 6
ENDMDL
MODEL 2
REMARK VINA RESULT:    -3.865      8.547      9.352
REMARK INTER + INTRA:          -5.370
REMARK INTER:                  -5.028
REMARK INTRA:                  -0.342
REMARK UNBOUND:                -0.263
REMARK SMILES C=C[C@@H](O)CCCCC
REMARK SMILES IDX 6 1 7 2 8 3 9 4 5 5 3 6 2 7 1 8 4 9
REMARK H PARENT 4 10
REMARK Flexibility Score: inf
ROOT
ATOM      1  C   UNL     1      43.017   2.342  -7.270  1.00  0.00     0.003 C 
ENDROOT
BRANCH   1   2
ATOM      2  C   UNL     1      42.933   2.245  -5.737  1.00  0.00    -0.000 C 
BRANCH   2   3
ATOM      3  C   UNL     1      42.873   0.794  -5.239  1.00  0.00    -0.003 C 
ATOM      4  C   UNL     1      43.066  -0.190  -6.391  1.00  0.00     0.004 C 
ENDBRANCH   2   3
ENDBRANCH   1   2
BRANCH   1   5
ATOM      5  C   UNL     1      41.831   3.109  -7.881  1.00  0.00     0.036 C 
BRANCH   5   6
ATOM      6  C   UNL     1      40.475   2.529  -7.435  1.00  0.00     0.136 C 
BRANCH   6   7
ATOM      7  C   UNL     1      39.327   3.407  -7.871  1.00  0.00    -0.004 C 
ATOM      8  C   UNL     1      38.999   4.505  -7.183  1.00  0.00     0.007 C 
ENDBRANCH   6   7
BRANCH   6   9
ATOM      9  O   UNL     1      40.302   1.255  -7.999  1.00  0.00    -0.389 OA
ATOM     10  H   UNL     1      40.036   1.392  -8.945  1.00  0.00     0.211 HD
ENDBRANCH   6   9
ENDBRANCH   5   6
ENDBRANCH   1   5
TORSDOF 6
ENDMDL
MODEL 3
REMARK VINA RESULT:    -3.793      7.650      9.011
REMARK INTER + INTRA:          -5.276
REMARK INTER:                  -4.940
REMARK INTRA:                  -0.336
REMARK UNBOUND:                -0.263
REMARK SMILES C=C[C@@H](O)CCCCC
REMARK SMILES IDX 6 1 7 2 8 3 9 4 5 5 3 6 2 7 1 8 4 9
REMARK H PARENT 4 10
REMARK Flexibility Score: inf
ROOT
ATOM      1  C   UNL     1      34.742   9.704   3.939  1.00  0.00     0.003 C 
ENDROOT
BRANCH   1   2
ATOM      2  C   UNL     1      34.404   9.230   2.516  1.00  0.00    -0.000 C 
BRANCH   2   3
ATOM      3  C   UNL     1      33.567  10.253   1.735  1.00  0.00    -0.003 C 
ATOM      4  C   UNL     1      33.986  11.681   2.076  1.00  0.00     0.004 C 
ENDBRANCH   2   3
ENDBRANCH   1   2
BRANCH   1   5
ATOM      5  C   UNL     1      34.645   8.573   4.979  1.00  0.00     0.036 C 
BRANCH   5   6
ATOM      6  C   UNL     1      34.566   7.183   4.317  1.00  0.00     0.136 C 
BRANCH   6   7
ATOM      7  C   UNL     1      35.744   6.321   4.700  1.00  0.00    -0.004 C 
ATOM      8  C   UNL     1      36.909   6.419   4.053  1.00  0.00     0.007 C 
ENDBRANCH   6   7
BRANCH   6   9
ATOM      9  O   UNL     1      33.388   6.537   4.725  1.00  0.00    -0.389 OA
ATOM     10  H   UNL     1      33.641   5.901   5.443  1.00  0.00     0.211 HD
ENDBRANCH   6   9
ENDBRANCH   5   6
ENDBRANCH   1   5
TORSDOF 6
ENDMDL
MODEL 4
REMARK VINA RESULT:    -3.793      6.852      7.883
REMARK INTER + INTRA:          -5.275
REMARK INTER:                  -5.072
REMARK INTRA:                  -0.204
REMARK UNBOUND:                -0.263
REMARK SMILES C=C[C@@H](O)CCCCC
REMARK SMILES IDX 6 1 7 2 8 3 9 4 5 5 3 6 2 7 1 8 4 9
REMARK H PARENT 4 10
REMARK Flexibility Score: inf
ROOT
ATOM      1  C   UNL     1      34.376   8.224   4.150  1.00  0.00     0.003 C 
ENDROOT
BRANCH   1   2
ATOM      2  C   UNL     1      35.204   6.966   4.458  1.00  0.00    -0.000 C 
BRANCH   2   3
ATOM      3  C   UNL     1      36.328   6.733   3.438  1.00  0.00    -0.003 C 
ATOM      4  C   UNL     1      37.698   6.799   4.107  1.00  0.00     0.004 C 
ENDBRANCH   2   3
ENDBRANCH   1   2
BRANCH   1   5
ATOM      5  C   UNL     1      34.940   9.030   2.966  1.00  0.00     0.036 C 
BRANCH   5   6
ATOM      6  C   UNL     1      33.827   9.707   2.144  1.00  0.00     0.136 C 
BRANCH   6   7
ATOM      7  C   UNL     1      34.073  11.188   1.994  1.00  0.00    -0.004 C 
ATOM      8  C   UNL     1      33.580  12.063   2.876  1.00  0.00     0.007 C 
ENDBRANCH   6   7
BRANCH   6   9
ATOM      9  O   UNL     1      33.774   9.131   0.865  1.00  0.00    -0.389 OA
ATOM     10  H   UNL     1      34.242   8.257   0.922  1.00  0.00     0.211 HD
ENDBRANCH   6   9
ENDBRANCH   5   6
ENDBRANCH   1   5
TORSDOF 6
ENDMDL
MODEL 5
REMARK VINA RESULT:    -3.736      9.082      9.747
REMARK INTER + INTRA:          -5.200
REMARK INTER:                  -4.886
REMARK INTRA:                  -0.314
REMARK UNBOUND:                -0.263
REMARK SMILES C=C[C@@H](O)CCCCC
REMARK SMILES IDX 6 1 7 2 8 3 9 4 5 5 3 6 2 7 1 8 4 9
REMARK H PARENT 4 10
REMARK Flexibility Score: inf
ROOT
ATOM      1  C   UNL     1      41.112   2.321  -6.490  1.00  0.00     0.003 C 
ENDROOT
BRANCH   1   2
ATOM      2  C   UNL     1      42.587   2.675  -6.740  1.00  0.00    -0.000 C 
BRANCH   2   3
ATOM      3  C   UNL     1      43.537   1.992  -5.744  1.00  0.00    -0.003 C 
ATOM      4  C   UNL     1      43.023   0.607  -5.358  1.00  0.00     0.004 C 
ENDBRANCH   2   3
ENDBRANCH   1   2
BRANCH   1   5
ATOM      5  C   UNL     1      40.153   3.090  -7.416  1.00  0.00     0.036 C 
BRANCH   5   6
ATOM      6  C   UNL     1      39.540   2.182  -8.498  1.00  0.00     0.136 C 
BRANCH   6   7
ATOM      7  C   UNL     1      39.903   2.651  -9.886  1.00  0.00    -0.004 C 
ATOM      8  C   UNL     1      41.178   2.844 -10.237  1.00  0.00     0.007 C 
ENDBRANCH   6   7
BRANCH   6   9
ATOM      9  O   UNL     1      40.012   0.870  -8.332  1.00  0.00    -0.389 OA
ATOM     10  H   UNL     1      39.503   0.298  -8.963  1.00  0.00     0.211 HD
ENDBRANCH   6   9
ENDBRANCH   5   6
ENDBRANCH   1   5
TORSDOF 6
ENDMDL
MODEL 6
REMARK VINA RESULT:    -3.728      1.983      4.235
REMARK INTER + INTRA:          -5.189
REMARK INTER:                  -4.830
REMARK INTRA:                  -0.359
REMARK UNBOUND:                -0.263
REMARK SMILES C=C[C@@H](O)CCCCC
REMARK SMILES IDX 6 1 7 2 8 3 9 4 5 5 3 6 2 7 1 8 4 9
REMARK H PARENT 4 10
REMARK Flexibility Score: inf
ROOT
ATOM      1  C   UNL     1      41.514   8.441  -0.661  1.00  0.00     0.003 C 
ENDROOT
BRANCH   1   2
ATOM      2  C   UNL     1      40.778   8.783  -1.967  1.00  0.00    -0.000 C 
BRANCH   2   3
ATOM      3  C   UNL     1      41.707   8.771  -3.190  1.00  0.00    -0.003 C 
ATOM      4  C   UNL     1      43.171   8.681  -2.765  1.00  0.00     0.004 C 
ENDBRANCH   2   3
ENDBRANCH   1   2
BRANCH   1   5
ATOM      5  C   UNL     1      41.356   9.535   0.411  1.00  0.00     0.036 C 
BRANCH   5   6
ATOM      6  C   UNL     1      41.289  10.945  -0.205  1.00  0.00     0.136 C 
BRANCH   6   7
ATOM      7  C   UNL     1      40.585  11.916   0.710  1.00  0.00    -0.004 C 
ATOM      8  C   UNL     1      40.721  11.836   2.037  1.00  0.00     0.007 C 
ENDBRANCH   6   7
BRANCH   6   9
ATOM      9  O   UNL     1      42.591  11.415  -0.440  1.00  0.00    -0.389 OA
ATOM     10  H   UNL     1      42.555  11.964  -1.267  1.00  0.00     0.211 HD
ENDBRANCH   6   9
ENDBRANCH   5   6
ENDBRANCH   1   5
TORSDOF 6
ENDMDL
MODEL 7
REMARK VINA RESULT:    -3.709      8.196      9.027
REMARK INTER + INTRA:          -5.165
REMARK INTER:                  -4.707
REMARK INTRA:                  -0.458
REMARK UNBOUND:                -0.263
REMARK SMILES C=C[C@@H](O)CCCCC
REMARK SMILES IDX 6 1 7 2 8 3 9 4 5 5 3 6 2 7 1 8 4 9
REMARK H PARENT 4 10
REMARK Flexibility Score: inf
ROOT
ATOM      1  C   UNL     1      33.469  12.125   4.198  1.00  0.00     0.003 C 
ENDROOT
BRANCH   1   2
ATOM      2  C   UNL     1      34.575  12.122   5.265  1.00  0.00    -0.000 C 
BRANCH   2   3
ATOM      3  C   UNL     1      35.580  10.977   5.073  1.00  0.00    -0.003 C 
ATOM      4  C   UNL     1      35.202   9.767   5.923  1.00  0.00     0.004 C 
ENDBRANCH   2   3
ENDBRANCH   1   2
BRANCH   1   5
ATOM      5  C   UNL     1      34.006  11.826   2.787  1.00  0.00     0.036 C 
BRANCH   5   6
ATOM      6  C   UNL     1      33.081  10.875   2.003  1.00  0.00     0.136 C 
BRANCH   6   7
ATOM      7  C   UNL     1      33.818   9.642   1.541  1.00  0.00    -0.004 C 
ATOM      8  C   UNL     1      34.488   8.875   2.405  1.00  0.00     0.007 C 
ENDBRANCH   6   7
BRANCH   6   9
ATOM      9  O   UNL     1      32.015  10.477   2.826  1.00  0.00    -0.389 OA
ATOM     10  H   UNL     1      31.180  10.632   2.311  1.00  0.00     0.211 HD
ENDBRANCH   6   9
ENDBRANCH   5   6
ENDBRANCH   1   5
TORSDOF 6
ENDMDL
MODEL 8
REMARK VINA RESULT:    -3.661      7.994      9.446
REMARK INTER + INTRA:          -5.101
REMARK INTER:                  -4.823
REMARK INTRA:                  -0.277
REMARK UNBOUND:                -0.263
REMARK SMILES C=C[C@@H](O)CCCCC
REMARK SMILES IDX 6 1 7 2 8 3 9 4 5 5 3 6 2 7 1 8 4 9
REMARK H PARENT 4 10
REMARK Flexibility Score: inf
ROOT
ATOM      1  C   UNL     1      34.722   8.667   3.035  1.00  0.00     0.003 C 
ENDROOT
BRANCH   1   2
ATOM      2  C   UNL     1      34.754  10.180   3.307  1.00  0.00    -0.000 C 
BRANCH   2   3
ATOM      3  C   UNL     1      34.383  11.011   2.070  1.00  0.00    -0.003 C 
ATOM      4  C   UNL     1      32.906  10.845   1.721  1.00  0.00     0.004 C 
ENDBRANCH   2   3
ENDBRANCH   1   2
BRANCH   1   5
ATOM      5  C   UNL     1      35.600   7.870   4.017  1.00  0.00     0.036 C 
BRANCH   5   6
ATOM      6  C   UNL     1      34.780   6.850   4.830  1.00  0.00     0.136 C 
BRANCH   6   7
ATOM      7  C   UNL     1      34.808   7.167   6.305  1.00  0.00    -0.004 C 
ATOM      8  C   UNL     1      35.095   8.398   6.740  1.00  0.00     0.007 C 
ENDBRANCH   6   7
BRANCH   6   9
ATOM      9  O   UNL     1      33.446   6.868   4.394  1.00  0.00    -0.389 OA
ATOM     10  H   UNL     1      32.990   6.100   4.829  1.00  0.00     0.211 HD
ENDBRANCH   6   9
ENDBRANCH   5   6
ENDBRANCH   1   5
TORSDOF 6
ENDMDL
MODEL 9
REMARK VINA RESULT:    -3.111      8.609     10.038
REMARK INTER + INTRA:          -4.374
REMARK INTER:                  -4.106
REMARK INTRA:                  -0.269
REMARK UNBOUND:                -0.263
REMARK SMILES C=C[C@@H](O)CCCCC
REMARK SMILES IDX 6 1 7 2 8 3 9 4 5 5 3 6 2 7 1 8 4 9
REMARK H PARENT 4 10
REMARK Flexibility Score: inf
ROOT
ATOM      1  C   UNL     1      41.360   3.230  -8.046  1.00  0.00     0.003 C 
ENDROOT
BRANCH   1   2
ATOM      2  C   UNL     1      40.444   2.979  -9.255  1.00  0.00    -0.000 C 
BRANCH   2   3
ATOM      3  C   UNL     1      39.543   1.750  -9.069  1.00  0.00    -0.003 C 
ATOM      4  C   UNL     1      38.108   2.054  -9.490  1.00  0.00     0.004 C 
ENDBRANCH   2   3
ENDBRANCH   1   2
BRANCH   1   5
ATOM      5  C   UNL     1      40.736   2.755  -6.721  1.00  0.00     0.036 C 
BRANCH   5   6
ATOM      6  C   UNL     1      41.671   1.804  -5.949  1.00  0.00     0.136 C 
BRANCH   6   7
ATOM      7  C   UNL     1      43.079   2.343  -5.885  1.00  0.00    -0.004 C 
ATOM      8  C   UNL     1      44.125   1.523  -5.745  1.00  0.00     0.007 C 
ENDBRANCH   6   7
BRANCH   6   9
ATOM      9  O   UNL     1      41.194   1.643  -4.638  1.00  0.00    -0.389 OA
ATOM     10  H   UNL     1      41.986   1.656  -4.039  1.00  0.00     0.211 HD
ENDBRANCH   6   9
ENDBRANCH   5   6
ENDBRANCH   1   5
TORSDOF 6
ENDMDL
