MODEL 1
REMARK VINA RESULT:    -1.398      0.000      0.000
REMARK INTER + INTRA:          -1.933
REMARK INTER:                  -1.643
REMARK INTRA:                  -0.290
REMARK UNBOUND:                -0.290
REMARK SMILES Oc1ccc(-c2[o+]c3cc(O)cc(O)c3cc2O)cc1
REMARK SMILES IDX 6 1 7 2 8 3 9 4 10 5 12 6 13 7 15 8 16 9 17 10 5 11 4 12
REMARK SMILES IDX 3 13 2 14 19 15 20 16 1 17 18 19 11 21 14 23
REMARK H PARENT 1 18 18 20 11 22 14 24
REMARK Flexibility Score: inf
ROOT
ATOM      1  C   UNL     1       8.632 -33.782  15.332  1.00  0.00     0.401 A 
ATOM      2  O   UNL     1       8.590 -33.655  16.655  1.00  0.00    -0.202 OA
ATOM      3  C   UNL     1       9.174 -32.658  17.311  1.00  0.00     0.368 A 
ATOM      4  C   UNL     1       9.072 -32.609  18.704  1.00  0.00     0.162 A 
ATOM      5  C   UNL     1       9.673 -31.572  19.419  1.00  0.00     0.128 A 
ATOM      6  C   UNL     1      10.382 -30.576  18.739  1.00  0.00     0.093 A 
ATOM      7  C   UNL     1      10.499 -30.602  17.344  1.00  0.00     0.136 A 
ATOM      8  C   UNL     1       9.891 -31.657  16.613  1.00  0.00     0.125 A 
ATOM      9  C   UNL     1       9.968 -31.772  15.215  1.00  0.00     0.078 A 
ATOM     10  C   UNL     1       9.347 -32.843  14.565  1.00  0.00     0.223 A 
ENDROOT
BRANCH   1  11
ATOM     11  C   UNL     1       7.932 -34.933  14.716  1.00  0.00     0.084 A 
ATOM     12  C   UNL     1       8.627 -36.092  14.326  1.00  0.00     0.022 A 
ATOM     13  C   UNL     1       7.947 -37.156  13.726  1.00  0.00     0.047 A 
ATOM     14  C   UNL     1       6.568 -37.071  13.495  1.00  0.00     0.115 A 
ATOM     15  C   UNL     1       6.552 -34.847  14.462  1.00  0.00     0.022 A 
ATOM     16  C   UNL     1       5.875 -35.913  13.862  1.00  0.00     0.047 A 
BRANCH  14  17
ATOM     17  O   UNL     1       5.881 -38.125  12.899  1.00  0.00    -0.508 OA
ATOM     18  H   UNL     1       6.273 -39.057  12.859  1.00  0.00     0.293 HD
ENDBRANCH  14  17
ENDBRANCH   1  11
BRANCH  10  19
ATOM     19  O   UNL     1       9.464 -32.986  13.182  1.00  0.00    -0.500 OA
ATOM     20  H   UNL     1       9.093 -33.794  12.697  1.00  0.00     0.294 HD
ENDBRANCH  10  19
BRANCH   5  21
ATOM     21  O   UNL     1       9.559 -31.540  20.808  1.00  0.00    -0.507 OA
ATOM     22  H   UNL     1       8.691 -31.283  21.262  1.00  0.00     0.293 HD
ENDBRANCH   5  21
BRANCH   7  23
ATOM     23  O   UNL     1      11.220 -29.570  16.738  1.00  0.00    -0.507 OA
ATOM     24  H   UNL     1      11.926 -29.018  17.202  1.00  0.00     0.293 HD
ENDBRANCH   7  23
TORSDOF 5
ENDMDL
MODEL 2
REMARK VINA RESULT:    -0.317      2.455      6.471
REMARK INTER + INTRA:          -0.662
REMARK INTER:                  -0.762
REMARK INTRA:                   0.100
REMARK UNBOUND:                -0.290
REMARK SMILES Oc1ccc(-c2[o+]c3cc(O)cc(O)c3cc2O)cc1
REMARK SMILES IDX 6 1 7 2 8 3 9 4 10 5 12 6 13 7 15 8 16 9 17 10 5 11 4 12
REMARK SMILES IDX 3 13 2 14 19 15 20 16 1 17 18 19 11 21 14 23
REMARK H PARENT 1 18 18 20 11 22 14 24
REMARK Flexibility Score: inf
ROOT
ATOM      1  C   UNL     1       7.988 -34.024  16.032  1.00  0.00     0.401 A 
ATOM      2  O   UNL     1       9.219 -33.970  15.530  1.00  0.00    -0.202 OA
ATOM      3  C   UNL     1       9.707 -34.880  14.695  1.00  0.00     0.368 A 
ATOM      4  C   UNL     1      11.013 -34.735  14.219  1.00  0.00     0.162 A 
ATOM      5  C   UNL     1      11.551 -35.674  13.338  1.00  0.00     0.128 A 
ATOM      6  C   UNL     1      10.780 -36.767  12.928  1.00  0.00     0.093 A 
ATOM      7  C   UNL     1       9.469 -36.935  13.390  1.00  0.00     0.136 A 
ATOM      8  C   UNL     1       8.918 -35.983  14.288  1.00  0.00     0.125 A 
ATOM      9  C   UNL     1       7.619 -36.078  14.813  1.00  0.00     0.078 A 
ATOM     10  C   UNL     1       7.148 -35.103  15.698  1.00  0.00     0.223 A 
ENDROOT
BRANCH   1  11
ATOM     11  C   UNL     1       7.556 -32.942  16.946  1.00  0.00     0.084 A 
ATOM     12  C   UNL     1       6.252 -32.416  16.896  1.00  0.00     0.022 A 
ATOM     13  C   UNL     1       5.875 -31.379  17.754  1.00  0.00     0.047 A 
ATOM     14  C   UNL     1       6.797 -30.845  18.663  1.00  0.00     0.115 A 
ATOM     15  C   UNL     1       8.481 -32.388  17.847  1.00  0.00     0.022 A 
ATOM     16  C   UNL     1       8.100 -31.351  18.704  1.00  0.00     0.047 A 
BRANCH  14  17
ATOM     17  O   UNL     1       6.432 -29.813  19.524  1.00  0.00    -0.508 OA
ATOM     18  H   UNL     1       5.501 -29.757  19.918  1.00  0.00     0.293 HD
ENDBRANCH  14  17
ENDBRANCH   1  11
BRANCH  10  19
ATOM     19  O   UNL     1       5.876 -35.223  16.259  1.00  0.00    -0.500 OA
ATOM     20  H   UNL     1       5.198 -34.473  16.204  1.00  0.00     0.294 HD
ENDBRANCH  10  19
BRANCH   5  21
ATOM     21  O   UNL     1      12.855 -35.512  12.875  1.00  0.00    -0.507 OA
ATOM     22  H   UNL     1      13.653 -35.811  13.424  1.00  0.00     0.293 HD
ENDBRANCH   5  21
BRANCH   7  23
ATOM     23  O   UNL     1       8.762 -38.050  12.932  1.00  0.00    -0.507 OA
ATOM     24  H   UNL     1       7.765 -38.069  12.774  1.00  0.00     0.293 HD
ENDBRANCH   7  23
TORSDOF 5
ENDMDL
MODEL 3
REMARK VINA RESULT:     0.083      1.936      7.040
REMARK INTER + INTRA:          -0.193
REMARK INTER:                  -0.701
REMARK INTRA:                   0.508
REMARK UNBOUND:                -0.290
REMARK SMILES Oc1ccc(-c2[o+]c3cc(O)cc(O)c3cc2O)cc1
REMARK SMILES IDX 6 1 7 2 8 3 9 4 10 5 12 6 13 7 15 8 16 9 17 10 5 11 4 12
REMARK SMILES IDX 3 13 2 14 19 15 20 16 1 17 18 19 11 21 14 23
REMARK H PARENT 1 18 18 20 11 22 14 24
REMARK Flexibility Score: inf
ROOT
ATOM      1  C   UNL     1       8.503 -33.723  17.008  1.00  0.00     0.401 A 
ATOM      2  O   UNL     1       8.559 -34.372  15.848  1.00  0.00    -0.202 OA
ATOM      3  C   UNL     1       7.972 -35.546  15.640  1.00  0.00     0.368 A 
ATOM      4  C   UNL     1       8.085 -36.149  14.385  1.00  0.00     0.162 A 
ATOM      5  C   UNL     1       7.476 -37.380  14.137  1.00  0.00     0.128 A 
ATOM      6  C   UNL     1       6.748 -38.015  15.150  1.00  0.00     0.093 A 
ATOM      7  C   UNL     1       6.620 -37.431  16.416  1.00  0.00     0.136 A 
ATOM      8  C   UNL     1       7.240 -36.180  16.674  1.00  0.00     0.125 A 
ATOM      9  C   UNL     1       7.176 -35.527  17.916  1.00  0.00     0.078 A 
ATOM     10  C   UNL     1       7.818 -34.298  18.095  1.00  0.00     0.223 A 
ENDROOT
BRANCH   1  11
ATOM     11  C   UNL     1       9.191 -32.416  17.113  1.00  0.00     0.084 A 
ATOM     12  C   UNL     1      10.001 -31.927  16.071  1.00  0.00     0.022 A 
ATOM     13  C   UNL     1      10.658 -30.701  16.203  1.00  0.00     0.047 A 
ATOM     14  C   UNL     1      10.527 -29.953  17.380  1.00  0.00     0.115 A 
ATOM     15  C   UNL     1       9.082 -31.670  18.298  1.00  0.00     0.022 A 
ATOM     16  C   UNL     1       9.740 -30.443  18.427  1.00  0.00     0.047 A 
BRANCH  14  17
ATOM     17  O   UNL     1      11.177 -28.730  17.522  1.00  0.00    -0.508 OA
ATOM     18  H   UNL     1      11.721 -28.512  18.348  1.00  0.00     0.293 HD
ENDBRANCH  14  17
ENDBRANCH   1  11
BRANCH  10  19
ATOM     19  O   UNL     1       7.796 -33.673  19.342  1.00  0.00    -0.500 OA
ATOM     20  H   UNL     1       7.158 -32.914  19.546  1.00  0.00     0.294 HD
ENDBRANCH  10  19
BRANCH   5  21
ATOM     21  O   UNL     1       7.600 -37.966  12.879  1.00  0.00    -0.507 OA
ATOM     22  H   UNL     1       6.805 -38.381  12.407  1.00  0.00     0.293 HD
ENDBRANCH   5  21
BRANCH   7  23
ATOM     23  O   UNL     1       5.875 -38.125  17.373  1.00  0.00    -0.507 OA
ATOM     24  H   UNL     1       4.877 -38.271  17.324  1.00  0.00     0.293 HD
ENDBRANCH   7  23
TORSDOF 5
ENDMDL
MODEL 4
REMARK VINA RESULT:     0.903      1.281      2.908
REMARK INTER + INTRA:           0.771
REMARK INTER:                   0.347
REMARK INTRA:                   0.424
REMARK UNBOUND:                -0.290
REMARK SMILES Oc1ccc(-c2[o+]c3cc(O)cc(O)c3cc2O)cc1
REMARK SMILES IDX 6 1 7 2 8 3 9 4 10 5 12 6 13 7 15 8 16 9 17 10 5 11 4 12
REMARK SMILES IDX 3 13 2 14 19 15 20 16 1 17 18 19 11 21 14 23
REMARK H PARENT 1 18 18 20 11 22 14 24
REMARK Flexibility Score: inf
ROOT
ATOM      1  C   UNL     1       7.855 -34.320  16.611  1.00  0.00     0.401 A 
ATOM      2  O   UNL     1       8.661 -33.371  16.145  1.00  0.00    -0.202 OA
ATOM      3  C   UNL     1       9.211 -32.437  16.914  1.00  0.00     0.368 A 
ATOM      4  C   UNL     1      10.047 -31.482  16.330  1.00  0.00     0.162 A 
ATOM      5  C   UNL     1      10.641 -30.492  17.115  1.00  0.00     0.128 A 
ATOM      6  C   UNL     1      10.398 -30.454  18.492  1.00  0.00     0.093 A 
ATOM      7  C   UNL     1       9.564 -31.400  19.100  1.00  0.00     0.136 A 
ATOM      8  C   UNL     1       8.956 -32.408  18.306  1.00  0.00     0.125 A 
ATOM      9  C   UNL     1       8.095 -33.388  18.827  1.00  0.00     0.078 A 
ATOM     10  C   UNL     1       7.530 -34.345  17.980  1.00  0.00     0.223 A 
ENDROOT
BRANCH   1  11
ATOM     11  C   UNL     1       7.312 -35.311  15.654  1.00  0.00     0.084 A 
ATOM     12  C   UNL     1       6.581 -36.431  16.092  1.00  0.00     0.022 A 
ATOM     13  C   UNL     1       6.099 -37.365  15.170  1.00  0.00     0.047 A 
ATOM     14  C   UNL     1       6.351 -37.200  13.802  1.00  0.00     0.115 A 
ATOM     15  C   UNL     1       7.578 -35.165  14.282  1.00  0.00     0.022 A 
ATOM     16  C   UNL     1       7.094 -36.100  13.363  1.00  0.00     0.047 A 
BRANCH  14  17
ATOM     17  O   UNL     1       5.875 -38.124  12.875  1.00  0.00    -0.508 OA
ATOM     18  H   UNL     1       6.494 -38.784  12.420  1.00  0.00     0.293 HD
ENDBRANCH  14  17
ENDBRANCH   1  11
BRANCH  10  19
ATOM     19  O   UNL     1       6.636 -35.289  18.489  1.00  0.00    -0.500 OA
ATOM     20  H   UNL     1       5.911 -35.699  17.913  1.00  0.00     0.294 HD
ENDBRANCH  10  19
BRANCH   5  21
ATOM     21  O   UNL     1      11.472 -29.547  16.514  1.00  0.00    -0.507 OA
ATOM     22  H   UNL     1      11.570 -28.613  16.892  1.00  0.00     0.293 HD
ENDBRANCH   5  21
BRANCH   7  23
ATOM     23  O   UNL     1       9.373 -31.298  20.481  1.00  0.00    -0.507 OA
ATOM     24  H   UNL     1       8.542 -31.602  20.967  1.00  0.00     0.293 HD
ENDBRANCH   7  23
TORSDOF 5
ENDMDL
