MODEL 1
REMARK VINA RESULT:    -4.924      0.000      0.000
REMARK INTER + INTRA:          -5.228
REMARK INTER:                  -5.212
REMARK INTRA:                  -0.016
REMARK UNBOUND:                -0.016
REMARK SMILES O=C([O-])c1cccnc1
REMARK SMILES IDX 4 1 5 2 9 3 6 4 8 5 7 6 2 7 1 8 3 9
REMARK H PARENT
REMARK Flexibility Score: inf
ROOT
ATOM      1  C   UNL     1     128.743 123.829 128.268  1.00  0.00     0.016 A 
ATOM      2  C   UNL     1     129.263 123.423 127.029  1.00  0.00     0.013 A 
ATOM      3  C   UNL     1     129.122 125.086 128.772  1.00  0.00     0.120 A 
ATOM      4  C   UNL     1     130.133 124.258 126.325  1.00  0.00     0.021 A 
ATOM      5  N   UNL     1     129.971 125.880 128.067  1.00  0.00    -0.264 NA
ATOM      6  C   UNL     1     130.479 125.497 126.866  1.00  0.00     0.111 A 
ENDROOT
BRANCH   1   7
ATOM      7  C   UNL     1     127.822 122.953 129.024  1.00  0.00     0.073 C 
ATOM      8  O   UNL     1     128.270 122.031 129.756  1.00  0.00    -0.545 OA
ATOM      9  O   UNL     1     126.446 123.135 128.934  1.00  0.00    -0.545 OA
ENDBRANCH   1   7
TORSDOF 1
ENDMDL
MODEL 2
REMARK VINA RESULT:    -4.812      3.427      4.131
REMARK INTER + INTRA:          -5.110
REMARK INTER:                  -5.086
REMARK INTRA:                  -0.024
REMARK UNBOUND:                -0.016
REMARK SMILES O=C([O-])c1cccnc1
REMARK SMILES IDX 4 1 5 2 9 3 6 4 8 5 7 6 2 7 1 8 3 9
REMARK H PARENT
REMARK Flexibility Score: inf
ROOT
ATOM      1  C   UNL     1     130.382 125.540 127.060  1.00  0.00     0.016 A 
ATOM      2  C   UNL     1     130.260 124.391 126.263  1.00  0.00     0.013 A 
ATOM      3  C   UNL     1     129.664 125.595 128.268  1.00  0.00     0.120 A 
ATOM      4  C   UNL     1     129.442 123.336 126.672  1.00  0.00     0.021 A 
ATOM      5  N   UNL     1     128.873 124.554 128.643  1.00  0.00    -0.264 NA
ATOM      6  C   UNL     1     128.749 123.437 127.879  1.00  0.00     0.111 A 
ENDROOT
BRANCH   1   7
ATOM      7  C   UNL     1     131.246 126.664 126.637  1.00  0.00     0.073 C 
ATOM      8  O   UNL     1     132.020 126.541 125.651  1.00  0.00    -0.545 OA
ATOM      9  O   UNL     1     131.213 127.873 127.323  1.00  0.00    -0.545 OA
ENDBRANCH   1   7
TORSDOF 1
ENDMDL
MODEL 3
REMARK VINA RESULT:    -4.781      2.555      3.378
REMARK INTER + INTRA:          -5.077
REMARK INTER:                  -5.061
REMARK INTRA:                  -0.016
REMARK UNBOUND:                -0.016
REMARK SMILES O=C([O-])c1cccnc1
REMARK SMILES IDX 4 1 5 2 9 3 6 4 8 5 7 6 2 7 1 8 3 9
REMARK H PARENT
REMARK Flexibility Score: inf
ROOT
ATOM      1  C   UNL     1     129.113 124.420 127.809  1.00  0.00     0.016 A 
ATOM      2  C   UNL     1     128.593 123.141 128.068  1.00  0.00     0.013 A 
ATOM      3  C   UNL     1     129.377 125.267 128.900  1.00  0.00     0.120 A 
ATOM      4  C   UNL     1     128.350 122.735 129.381  1.00  0.00     0.021 A 
ATOM      5  N   UNL     1     129.130 124.847 130.169  1.00  0.00    -0.264 NA
ATOM      6  C   UNL     1     128.628 123.611 130.430  1.00  0.00     0.111 A 
ENDROOT
BRANCH   1   7
ATOM      7  C   UNL     1     129.374 124.862 126.422  1.00  0.00     0.073 C 
ATOM      8  O   UNL     1     130.472 124.598 125.862  1.00  0.00    -0.545 OA
ATOM      9  O   UNL     1     128.410 125.574 125.717  1.00  0.00    -0.545 OA
ENDBRANCH   1   7
TORSDOF 1
ENDMDL
MODEL 4
REMARK VINA RESULT:    -4.766      1.395      2.010
REMARK INTER + INTRA:          -5.061
REMARK INTER:                  -5.037
REMARK INTRA:                  -0.024
REMARK UNBOUND:                -0.016
REMARK SMILES O=C([O-])c1cccnc1
REMARK SMILES IDX 4 1 5 2 9 3 6 4 8 5 7 6 2 7 1 8 3 9
REMARK H PARENT
REMARK Flexibility Score: inf
ROOT
ATOM      1  C   UNL     1     128.879 123.939 128.711  1.00  0.00     0.016 A 
ATOM      2  C   UNL     1     129.328 125.265 128.819  1.00  0.00     0.013 A 
ATOM      3  C   UNL     1     128.745 123.381 127.427  1.00  0.00     0.120 A 
ATOM      4  C   UNL     1     129.631 125.999 127.671  1.00  0.00     0.021 A 
ATOM      5  N   UNL     1     129.047 124.118 126.325  1.00  0.00    -0.264 NA
ATOM      6  C   UNL     1     129.483 125.402 126.419  1.00  0.00     0.111 A 
ENDROOT
BRANCH   1   7
ATOM      7  C   UNL     1     128.554 123.152 129.920  1.00  0.00     0.073 C 
ATOM      8  O   UNL     1     128.240 121.935 129.827  1.00  0.00    -0.545 OA
ATOM      9  O   UNL     1     128.591 123.745 131.177  1.00  0.00    -0.545 OA
ENDBRANCH   1   7
TORSDOF 1
ENDMDL
MODEL 5
REMARK VINA RESULT:    -4.740      3.521      4.428
REMARK INTER + INTRA:          -5.033
REMARK INTER:                  -5.010
REMARK INTRA:                  -0.023
REMARK UNBOUND:                -0.016
REMARK SMILES O=C([O-])c1cccnc1
REMARK SMILES IDX 4 1 5 2 9 3 6 4 8 5 7 6 2 7 1 8 3 9
REMARK H PARENT
REMARK Flexibility Score: inf
ROOT
ATOM      1  C   UNL     1     130.429 125.537 127.064  1.00  0.00     0.016 A 
ATOM      2  C   UNL     1     129.694 125.627 128.256  1.00  0.00     0.013 A 
ATOM      3  C   UNL     1     130.299 124.373 126.285  1.00  0.00     0.120 A 
ATOM      4  C   UNL     1     128.858 124.580 128.647  1.00  0.00     0.021 A 
ATOM      5  N   UNL     1     129.478 123.366 126.689  1.00  0.00    -0.264 NA
ATOM      6  C   UNL     1     128.762 123.445 127.841  1.00  0.00     0.111 A 
ENDROOT
BRANCH   1   7
ATOM      7  C   UNL     1     131.319 126.640 126.640  1.00  0.00     0.073 C 
ATOM      8  O   UNL     1     132.160 126.466 125.718  1.00  0.00    -0.545 OA
ATOM      9  O   UNL     1     131.237 127.885 127.254  1.00  0.00    -0.545 OA
ENDBRANCH   1   7
TORSDOF 1
ENDMDL
MODEL 6
REMARK VINA RESULT:    -4.571      2.309      2.947
REMARK INTER + INTRA:          -4.854
REMARK INTER:                  -4.838
REMARK INTRA:                  -0.016
REMARK UNBOUND:                -0.016
REMARK SMILES O=C([O-])c1cccnc1
REMARK SMILES IDX 4 1 5 2 9 3 6 4 8 5 7 6 2 7 1 8 3 9
REMARK H PARENT
REMARK Flexibility Score: inf
ROOT
ATOM      1  C   UNL     1     129.906 125.394 126.718  1.00  0.00     0.016 A 
ATOM      2  C   UNL     1     131.287 125.552 126.517  1.00  0.00     0.013 A 
ATOM      3  C   UNL     1     129.026 125.958 125.778  1.00  0.00     0.120 A 
ATOM      4  C   UNL     1     131.759 126.254 125.407  1.00  0.00     0.021 A 
ATOM      5  N   UNL     1     129.511 126.638 124.705  1.00  0.00    -0.264 NA
ATOM      6  C   UNL     1     130.846 126.796 124.501  1.00  0.00     0.111 A 
ENDROOT
BRANCH   1   7
ATOM      7  C   UNL     1     129.394 124.652 127.890  1.00  0.00     0.073 C 
ATOM      8  O   UNL     1     128.949 123.480 127.762  1.00  0.00    -0.545 OA
ATOM      9  O   UNL     1     129.397 125.239 129.150  1.00  0.00    -0.545 OA
ENDBRANCH   1   7
TORSDOF 1
ENDMDL
MODEL 7
REMARK VINA RESULT:    -4.567      1.926      2.565
REMARK INTER + INTRA:          -4.851
REMARK INTER:                  -4.829
REMARK INTRA:                  -0.022
REMARK UNBOUND:                -0.016
REMARK SMILES O=C([O-])c1cccnc1
REMARK SMILES IDX 4 1 5 2 9 3 6 4 8 5 7 6 2 7 1 8 3 9
REMARK H PARENT
REMARK Flexibility Score: inf
ROOT
ATOM      1  C   UNL     1     130.056 125.211 126.892  1.00  0.00     0.016 A 
ATOM      2  C   UNL     1     130.811 125.183 125.709  1.00  0.00     0.013 A 
ATOM      3  C   UNL     1     130.138 126.352 127.711  1.00  0.00     0.120 A 
ATOM      4  C   UNL     1     131.620 126.268 125.366  1.00  0.00     0.021 A 
ATOM      5  N   UNL     1     130.934 127.395 127.354  1.00  0.00    -0.264 NA
ATOM      6  C   UNL     1     131.669 127.378 126.211  1.00  0.00     0.111 A 
ENDROOT
BRANCH   1   7
ATOM      7  C   UNL     1     129.196 124.067 127.266  1.00  0.00     0.073 C 
ATOM      8  O   UNL     1     128.658 123.353 126.379  1.00  0.00    -0.545 OA
ATOM      9  O   UNL     1     128.970 123.765 128.604  1.00  0.00    -0.545 OA
ENDBRANCH   1   7
TORSDOF 1
ENDMDL
MODEL 8
REMARK VINA RESULT:    -4.471      2.982      4.013
REMARK INTER + INTRA:          -4.749
REMARK INTER:                  -4.732
REMARK INTRA:                  -0.017
REMARK UNBOUND:                -0.016
REMARK SMILES O=C([O-])c1cccnc1
REMARK SMILES IDX 4 1 5 2 9 3 6 4 8 5 7 6 2 7 1 8 3 9
REMARK H PARENT
REMARK Flexibility Score: inf
ROOT
ATOM      1  C   UNL     1     129.136 124.967 128.138  1.00  0.00     0.016 A 
ATOM      2  C   UNL     1     129.245 124.713 129.515  1.00  0.00     0.013 A 
ATOM      3  C   UNL     1     127.989 124.512 127.463  1.00  0.00     0.120 A 
ATOM      4  C   UNL     1     128.231 124.024 130.184  1.00  0.00     0.021 A 
ATOM      5  N   UNL     1     127.016 123.844 128.138  1.00  0.00    -0.264 NA
ATOM      6  C   UNL     1     127.112 123.593 129.471  1.00  0.00     0.111 A 
ENDROOT
BRANCH   1   7
ATOM      7  C   UNL     1     130.204 125.695 127.419  1.00  0.00     0.073 C 
ATOM      8  O   UNL     1     130.388 126.925 127.620  1.00  0.00    -0.545 OA
ATOM      9  O   UNL     1     131.018 125.031 126.509  1.00  0.00    -0.545 OA
ENDBRANCH   1   7
TORSDOF 1
ENDMDL
MODEL 9
REMARK VINA RESULT:    -4.344      3.950      4.871
REMARK INTER + INTRA:          -4.614
REMARK INTER:                  -4.591
REMARK INTRA:                  -0.024
REMARK UNBOUND:                -0.016
REMARK SMILES O=C([O-])c1cccnc1
REMARK SMILES IDX 4 1 5 2 9 3 6 4 8 5 7 6 2 7 1 8 3 9
REMARK H PARENT
REMARK Flexibility Score: inf
ROOT
ATOM      1  C   UNL     1     129.495 126.664 125.779  1.00  0.00     0.016 A 
ATOM      2  C   UNL     1     128.487 125.703 125.959  1.00  0.00     0.013 A 
ATOM      3  C   UNL     1     130.360 126.935 126.853  1.00  0.00     0.120 A 
ATOM      4  C   UNL     1     128.361 125.039 127.181  1.00  0.00     0.021 A 
ATOM      5  N   UNL     1     130.216 126.275 128.033  1.00  0.00    -0.264 NA
ATOM      6  C   UNL     1     129.244 125.342 128.218  1.00  0.00     0.111 A 
ENDROOT
BRANCH   1   7
ATOM      7  C   UNL     1     129.638 127.374 124.489  1.00  0.00     0.073 C 
ATOM      8  O   UNL     1     128.715 127.339 123.633  1.00  0.00    -0.545 OA
ATOM      9  O   UNL     1     130.796 128.089 124.205  1.00  0.00    -0.545 OA
ENDBRANCH   1   7
TORSDOF 1
ENDMDL
