MODEL 1
REMARK VINA RESULT:    -4.517      0.000      0.000
REMARK INTER + INTRA:         -10.239
REMARK INTER:                  -8.213
REMARK INTRA:                  -2.025
REMARK UNBOUND:                -2.025
REMARK SMILES CCCCCCCCCCCCCC[C@@H](C)C(=O)[O-]
REMARK SMILES IDX 9 1 10 2 11 3 12 4 13 5 14 6 15 7 16 8 17 9 18 10 19 11 8 12
REMARK SMILES IDX 7 13 6 14 5 15 4 16 3 17 2 18 1 19
REMARK H PARENT
REMARK Flexibility Score: inf
ROOT
ATOM      1  C   UNL     1      -2.481  10.553 -12.742  1.00  0.00     0.000 C 
ENDROOT
BRANCH   1   2
ATOM      2  C   UNL     1      -1.400  11.287 -13.550  1.00  0.00     0.000 C 
BRANCH   2   3
ATOM      3  C   UNL     1      -0.317  11.855 -12.625  1.00  0.00     0.000 C 
BRANCH   3   4
ATOM      4  C   UNL     1      -0.836  11.991 -11.188  1.00  0.00     0.000 C 
BRANCH   4   5
ATOM      5  C   UNL     1      -0.738  13.445 -10.702  1.00  0.00     0.001 C 
BRANCH   5   6
ATOM      6  C   UNL     1      -0.869  14.472 -11.843  1.00  0.00     0.009 C 
BRANCH   6   7
ATOM      7  C   UNL     1      -2.312  14.705 -12.350  1.00  0.00     0.032 C 
ATOM      8  C   UNL     1      -3.363  14.496 -11.251  1.00  0.00     0.014 C 
BRANCH   7   9
ATOM      9  C   UNL     1      -2.430  16.095 -12.912  1.00  0.00     0.044 C 
ATOM     10  O   UNL     1      -1.629  17.001 -12.557  1.00  0.00    -0.550 OA
ATOM     11  O   UNL     1      -3.422  16.386 -13.841  1.00  0.00    -0.550 OA
ENDBRANCH   7   9
ENDBRANCH   6   7
ENDBRANCH   5   6
ENDBRANCH   4   5
ENDBRANCH   3   4
ENDBRANCH   2   3
ENDBRANCH   1   2
BRANCH   1  12
ATOM     12  C   UNL     1      -3.897  11.066 -13.044  1.00  0.00     0.000 C 
BRANCH  12  13
ATOM     13  C   UNL     1      -4.941  10.550 -12.041  1.00  0.00    -0.000 C 
BRANCH  13  14
ATOM     14  C   UNL     1      -4.320  10.381 -10.645  1.00  0.00    -0.000 C 
BRANCH  14  15
ATOM     15  C   UNL     1      -4.753   9.073  -9.961  1.00  0.00    -0.000 C 
BRANCH  15  16
ATOM     16  C   UNL     1      -3.625   8.439  -9.130  1.00  0.00    -0.000 C 
BRANCH  16  17
ATOM     17  C   UNL     1      -2.320   9.260  -9.200  1.00  0.00    -0.000 C 
BRANCH  17  18
ATOM     18  C   UNL     1      -1.077   8.413  -9.523  1.00  0.00    -0.003 C 
ATOM     19  C   UNL     1      -1.096   7.040  -8.853  1.00  0.00     0.004 C 
ENDBRANCH  17  18
ENDBRANCH  16  17
ENDBRANCH  15  16
ENDBRANCH  14  15
ENDBRANCH  13  14
ENDBRANCH  12  13
ENDBRANCH   1  12
TORSDOF 14
ENDMDL
MODEL 2
REMARK VINA RESULT:    -4.436     13.472     16.362
REMARK INTER + INTRA:         -10.093
REMARK INTER:                  -8.032
REMARK INTRA:                  -2.060
REMARK UNBOUND:                -2.025
REMARK SMILES CCCCCCCCCCCCCC[C@@H](C)C(=O)[O-]
REMARK SMILES IDX 9 1 10 2 11 3 12 4 13 5 14 6 15 7 16 8 17 9 18 10 19 11 8 12
REMARK SMILES IDX 7 13 6 14 5 15 4 16 3 17 2 18 1 19
REMARK H PARENT
REMARK Flexibility Score: inf
ROOT
ATOM      1  C   UNL     1     -15.406  18.560 -15.813  1.00  0.00     0.000 C 
ENDROOT
BRANCH   1   2
ATOM      2  C   UNL     1     -15.923  17.956 -17.127  1.00  0.00     0.000 C 
BRANCH   2   3
ATOM      3  C   UNL     1     -17.232  17.190 -16.901  1.00  0.00     0.000 C 
BRANCH   3   4
ATOM      4  C   UNL     1     -18.325  18.117 -16.352  1.00  0.00     0.000 C 
BRANCH   4   5
ATOM      5  C   UNL     1     -19.108  17.434 -15.220  1.00  0.00     0.001 C 
BRANCH   5   6
ATOM      6  C   UNL     1     -18.243  16.472 -14.384  1.00  0.00     0.009 C 
BRANCH   6   7
ATOM      7  C   UNL     1     -17.466  17.133 -13.221  1.00  0.00     0.032 C 
ATOM      8  C   UNL     1     -18.383  17.914 -12.270  1.00  0.00     0.014 C 
BRANCH   7   9
ATOM      9  C   UNL     1     -16.713  16.080 -12.454  1.00  0.00     0.044 C 
ATOM     10  O   UNL     1     -15.759  15.456 -12.991  1.00  0.00    -0.550 OA
ATOM     11  O   UNL     1     -17.061  15.798 -11.139  1.00  0.00    -0.550 OA
ENDBRANCH   7   9
ENDBRANCH   6   7
ENDBRANCH   5   6
ENDBRANCH   4   5
ENDBRANCH   3   4
ENDBRANCH   2   3
ENDBRANCH   1   2
BRANCH   1  12
ATOM     12  C   UNL     1     -14.276  17.732 -15.184  1.00  0.00     0.000 C 
BRANCH  12  13
ATOM     13  C   UNL     1     -13.621  18.437 -13.986  1.00  0.00    -0.000 C 
BRANCH  13  14
ATOM     14  C   UNL     1     -12.230  18.975 -14.361  1.00  0.00    -0.000 C 
BRANCH  14  15
ATOM     15  C   UNL     1     -12.303  20.243 -15.226  1.00  0.00    -0.000 C 
BRANCH  15  16
ATOM     16  C   UNL     1     -11.908  19.984 -16.690  1.00  0.00    -0.000 C 
BRANCH  16  17
ATOM     17  C   UNL     1     -12.808  20.754 -17.680  1.00  0.00    -0.000 C 
BRANCH  17  18
ATOM     18  C   UNL     1     -13.685  21.824 -17.008  1.00  0.00    -0.003 C 
ATOM     19  C   UNL     1     -15.142  21.776 -17.463  1.00  0.00     0.004 C 
ENDBRANCH  17  18
ENDBRANCH  16  17
ENDBRANCH  15  16
ENDBRANCH  14  15
ENDBRANCH  13  14
ENDBRANCH  12  13
ENDBRANCH   1  12
TORSDOF 14
ENDMDL
MODEL 3
REMARK VINA RESULT:    -4.427      2.980      3.998
REMARK INTER + INTRA:         -10.075
REMARK INTER:                  -7.227
REMARK INTRA:                  -2.848
REMARK UNBOUND:                -2.025
REMARK SMILES CCCCCCCCCCCCCC[C@@H](C)C(=O)[O-]
REMARK SMILES IDX 9 1 10 2 11 3 12 4 13 5 14 6 15 7 16 8 17 9 18 10 19 11 8 12
REMARK SMILES IDX 7 13 6 14 5 15 4 16 3 17 2 18 1 19
REMARK H PARENT
REMARK Flexibility Score: inf
ROOT
ATOM      1  C   UNL     1      -0.413  12.077 -12.029  1.00  0.00     0.000 C 
ENDROOT
BRANCH   1   2
ATOM      2  C   UNL     1      -1.012  13.248 -11.235  1.00  0.00     0.000 C 
BRANCH   2   3
ATOM      3  C   UNL     1      -1.700  14.249 -12.171  1.00  0.00     0.000 C 
BRANCH   3   4
ATOM      4  C   UNL     1      -3.161  14.472 -11.760  1.00  0.00     0.000 C 
BRANCH   4   5
ATOM      5  C   UNL     1      -3.420  13.947 -10.340  1.00  0.00     0.001 C 
BRANCH   5   6
ATOM      6  C   UNL     1      -4.906  14.001  -9.939  1.00  0.00     0.009 C 
BRANCH   6   7
ATOM      7  C   UNL     1      -5.195  13.682  -8.453  1.00  0.00     0.032 C 
ATOM      8  C   UNL     1      -3.982  13.940  -7.549  1.00  0.00     0.014 C 
BRANCH   7   9
ATOM      9  C   UNL     1      -6.368  14.496  -7.980  1.00  0.00     0.044 C 
ATOM     10  O   UNL     1      -6.361  15.025  -6.836  1.00  0.00    -0.550 OA
ATOM     11  O   UNL     1      -7.465  14.681  -8.812  1.00  0.00    -0.550 OA
ENDBRANCH   7   9
ENDBRANCH   6   7
ENDBRANCH   5   6
ENDBRANCH   4   5
ENDBRANCH   3   4
ENDBRANCH   2   3
ENDBRANCH   1   2
BRANCH   1  12
ATOM     12  C   UNL     1      -1.268  11.685 -13.244  1.00  0.00     0.000 C 
BRANCH  12  13
ATOM     13  C   UNL     1      -2.200  10.498 -12.954  1.00  0.00    -0.000 C 
BRANCH  13  14
ATOM     14  C   UNL     1      -3.657  10.967 -12.811  1.00  0.00    -0.000 C 
BRANCH  14  15
ATOM     15  C   UNL     1      -4.278  10.561 -11.465  1.00  0.00    -0.000 C 
BRANCH  15  16
ATOM     16  C   UNL     1      -3.235  10.022 -10.471  1.00  0.00    -0.000 C 
BRANCH  16  17
ATOM     17  C   UNL     1      -3.664  10.239  -9.004  1.00  0.00    -0.000 C 
BRANCH  17  18
ATOM     18  C   UNL     1      -2.517  10.703  -8.091  1.00  0.00    -0.003 C 
ATOM     19  C   UNL     1      -1.139  10.547  -8.732  1.00  0.00     0.004 C 
ENDBRANCH  17  18
ENDBRANCH  16  17
ENDBRANCH  15  16
ENDBRANCH  14  15
ENDBRANCH  13  14
ENDBRANCH  12  13
ENDBRANCH   1  12
TORSDOF 14
ENDMDL
MODEL 4
REMARK VINA RESULT:    -4.413     14.700     16.864
REMARK INTER + INTRA:         -10.050
REMARK INTER:                  -7.715
REMARK INTRA:                  -2.334
REMARK UNBOUND:                -2.025
REMARK SMILES CCCCCCCCCCCCCC[C@@H](C)C(=O)[O-]
REMARK SMILES IDX 9 1 10 2 11 3 12 4 13 5 14 6 15 7 16 8 17 9 18 10 19 11 8 12
REMARK SMILES IDX 7 13 6 14 5 15 4 16 3 17 2 18 1 19
REMARK H PARENT
REMARK Flexibility Score: inf
ROOT
ATOM      1  C   UNL     1     -13.604  20.660 -16.424  1.00  0.00     0.000 C 
ENDROOT
BRANCH   1   2
ATOM      2  C   UNL     1     -14.443  21.529 -17.374  1.00  0.00     0.000 C 
BRANCH   2   3
ATOM      3  C   UNL     1     -15.856  20.958 -17.535  1.00  0.00     0.000 C 
BRANCH   3   4
ATOM      4  C   UNL     1     -15.976  19.586 -16.859  1.00  0.00     0.000 C 
BRANCH   4   5
ATOM      5  C   UNL     1     -16.953  18.679 -17.623  1.00  0.00     0.001 C 
BRANCH   5   6
ATOM      6  C   UNL     1     -16.816  18.799 -19.152  1.00  0.00     0.009 C 
BRANCH   6   7
ATOM      7  C   UNL     1     -17.490  17.665 -19.960  1.00  0.00     0.032 C 
ATOM      8  C   UNL     1     -17.842  16.451 -19.090  1.00  0.00     0.014 C 
BRANCH   7   9
ATOM      9  C   UNL     1     -18.730  18.191 -20.630  1.00  0.00     0.044 C 
ATOM     10  O   UNL     1     -19.135  19.362 -20.399  1.00  0.00    -0.550 OA
ATOM     11  O   UNL     1     -19.431  17.388 -21.521  1.00  0.00    -0.550 OA
ENDBRANCH   7   9
ENDBRANCH   6   7
ENDBRANCH   5   6
ENDBRANCH   4   5
ENDBRANCH   3   4
ENDBRANCH   2   3
ENDBRANCH   1   2
BRANCH   1  12
ATOM     12  C   UNL     1     -12.252  20.253 -17.031  1.00  0.00     0.000 C 
BRANCH  12  13
ATOM     13  C   UNL     1     -12.395  19.617 -18.422  1.00  0.00    -0.000 C 
BRANCH  13  14
ATOM     14  C   UNL     1     -12.951  18.188 -18.317  1.00  0.00    -0.000 C 
BRANCH  14  15
ATOM     15  C   UNL     1     -13.374  17.618 -19.680  1.00  0.00    -0.000 C 
BRANCH  15  16
ATOM     16  C   UNL     1     -13.055  16.119 -19.818  1.00  0.00    -0.000 C 
BRANCH  16  17
ATOM     17  C   UNL     1     -14.308  15.239 -19.621  1.00  0.00    -0.000 C 
BRANCH  17  18
ATOM     18  C   UNL     1     -14.298  14.442 -18.305  1.00  0.00    -0.003 C 
ATOM     19  C   UNL     1     -14.957  15.189 -17.147  1.00  0.00     0.004 C 
ENDBRANCH  17  18
ENDBRANCH  16  17
ENDBRANCH  15  16
ENDBRANCH  14  15
ENDBRANCH  13  14
ENDBRANCH  12  13
ENDBRANCH   1  12
TORSDOF 14
ENDMDL
MODEL 5
REMARK VINA RESULT:    -4.335      2.944      4.978
REMARK INTER + INTRA:          -9.908
REMARK INTER:                  -7.734
REMARK INTRA:                  -2.175
REMARK UNBOUND:                -2.025
REMARK SMILES CCCCCCCCCCCCCC[C@@H](C)C(=O)[O-]
REMARK SMILES IDX 9 1 10 2 11 3 12 4 13 5 14 6 15 7 16 8 17 9 18 10 19 11 8 12
REMARK SMILES IDX 7 13 6 14 5 15 4 16 3 17 2 18 1 19
REMARK H PARENT
REMARK Flexibility Score: inf
ROOT
ATOM      1  C   UNL     1      -2.391  13.611 -10.879  1.00  0.00     0.000 C 
ENDROOT
BRANCH   1   2
ATOM      2  C   UNL     1      -1.555  13.631 -12.168  1.00  0.00     0.000 C 
BRANCH   2   3
ATOM      3  C   UNL     1      -2.162  12.706 -13.229  1.00  0.00     0.000 C 
BRANCH   3   4
ATOM      4  C   UNL     1      -1.341  11.418 -13.372  1.00  0.00     0.000 C 
BRANCH   4   5
ATOM      5  C   UNL     1      -2.063  10.401 -14.268  1.00  0.00     0.001 C 
BRANCH   5   6
ATOM      6  C   UNL     1      -3.407  10.924 -14.811  1.00  0.00     0.009 C 
BRANCH   6   7
ATOM      7  C   UNL     1      -3.429  11.216 -16.330  1.00  0.00     0.032 C 
ATOM      8  C   UNL     1      -2.286  10.518 -17.081  1.00  0.00     0.014 C 
BRANCH   7   9
ATOM      9  C   UNL     1      -4.752  10.792 -16.906  1.00  0.00     0.044 C 
ATOM     10  O   UNL     1      -5.723  11.594 -16.941  1.00  0.00    -0.550 OA
ATOM     11  O   UNL     1      -4.907   9.509 -17.418  1.00  0.00    -0.550 OA
ENDBRANCH   7   9
ENDBRANCH   6   7
ENDBRANCH   5   6
ENDBRANCH   4   5
ENDBRANCH   3   4
ENDBRANCH   2   3
ENDBRANCH   1   2
BRANCH   1  12
ATOM     12  C   UNL     1      -1.645  12.973  -9.697  1.00  0.00     0.000 C 
BRANCH  12  13
ATOM     13  C   UNL     1      -0.170  12.682 -10.016  1.00  0.00    -0.000 C 
BRANCH  13  14
ATOM     14  C   UNL     1       0.114  11.173  -9.960  1.00  0.00    -0.000 C 
BRANCH  14  15
ATOM     15  C   UNL     1      -0.873  10.420  -9.053  1.00  0.00    -0.000 C 
BRANCH  15  16
ATOM     16  C   UNL     1      -1.634   9.312  -9.800  1.00  0.00    -0.000 C 
BRANCH  16  17
ATOM     17  C   UNL     1      -3.011   9.022  -9.163  1.00  0.00    -0.000 C 
BRANCH  17  18
ATOM     18  C   UNL     1      -4.107  10.012  -9.592  1.00  0.00    -0.003 C 
ATOM     19  C   UNL     1      -4.098  10.304 -11.091  1.00  0.00     0.004 C 
ENDBRANCH  17  18
ENDBRANCH  16  17
ENDBRANCH  15  16
ENDBRANCH  14  15
ENDBRANCH  13  14
ENDBRANCH  12  13
ENDBRANCH   1  12
TORSDOF 14
ENDMDL
MODEL 6
REMARK VINA RESULT:    -4.323     15.313     17.705
REMARK INTER + INTRA:          -9.886
REMARK INTER:                  -7.390
REMARK INTRA:                  -2.496
REMARK UNBOUND:                -2.025
REMARK SMILES CCCCCCCCCCCCCC[C@@H](C)C(=O)[O-]
REMARK SMILES IDX 9 1 10 2 11 3 12 4 13 5 14 6 15 7 16 8 17 9 18 10 19 11 8 12
REMARK SMILES IDX 7 13 6 14 5 15 4 16 3 17 2 18 1 19
REMARK H PARENT
REMARK Flexibility Score: inf
ROOT
ATOM      1  C   UNL     1     -19.380  18.714 -19.098  1.00  0.00     0.000 C 
ENDROOT
BRANCH   1   2
ATOM      2  C   UNL     1     -20.113  18.402 -17.785  1.00  0.00     0.000 C 
BRANCH   2   3
ATOM      3  C   UNL     1     -19.125  18.301 -16.617  1.00  0.00     0.000 C 
BRANCH   3   4
ATOM      4  C   UNL     1     -19.620  17.302 -15.562  1.00  0.00     0.000 C 
BRANCH   4   5
ATOM      5  C   UNL     1     -18.828  17.447 -14.253  1.00  0.00     0.001 C 
BRANCH   5   6
ATOM      6  C   UNL     1     -17.411  16.850 -14.338  1.00  0.00     0.009 C 
BRANCH   6   7
ATOM      7  C   UNL     1     -17.208  15.532 -13.554  1.00  0.00     0.032 C 
ATOM      8  C   UNL     1     -16.496  14.456 -14.385  1.00  0.00     0.014 C 
BRANCH   7   9
ATOM      9  C   UNL     1     -16.428  15.807 -12.297  1.00  0.00     0.044 C 
ATOM     10  O   UNL     1     -16.989  15.751 -11.170  1.00  0.00    -0.550 OA
ATOM     11  O   UNL     1     -15.075  16.113 -12.373  1.00  0.00    -0.550 OA
ENDBRANCH   7   9
ENDBRANCH   6   7
ENDBRANCH   5   6
ENDBRANCH   4   5
ENDBRANCH   3   4
ENDBRANCH   2   3
ENDBRANCH   1   2
BRANCH   1  12
ATOM     12  C   UNL     1     -19.637  17.660 -20.186  1.00  0.00     0.000 C 
BRANCH  12  13
ATOM     13  C   UNL     1     -18.392  17.374 -21.040  1.00  0.00    -0.000 C 
BRANCH  13  14
ATOM     14  C   UNL     1     -17.230  18.297 -20.639  1.00  0.00    -0.000 C 
BRANCH  14  15
ATOM     15  C   UNL     1     -16.002  17.518 -20.142  1.00  0.00    -0.000 C 
BRANCH  15  16
ATOM     16  C   UNL     1     -15.609  17.888 -18.702  1.00  0.00    -0.000 C 
BRANCH  16  17
ATOM     17  C   UNL     1     -16.046  16.812 -17.685  1.00  0.00    -0.000 C 
BRANCH  17  18
ATOM     18  C   UNL     1     -16.454  15.480 -18.338  1.00  0.00    -0.003 C 
ATOM     19  C   UNL     1     -17.822  14.981 -17.875  1.00  0.00     0.004 C 
ENDBRANCH  17  18
ENDBRANCH  16  17
ENDBRANCH  15  16
ENDBRANCH  14  15
ENDBRANCH  13  14
ENDBRANCH  12  13
ENDBRANCH   1  12
TORSDOF 14
ENDMDL
MODEL 7
REMARK VINA RESULT:    -4.311      3.261      6.186
REMARK INTER + INTRA:          -9.865
REMARK INTER:                  -7.285
REMARK INTRA:                  -2.579
REMARK UNBOUND:                -2.025
REMARK SMILES CCCCCCCCCCCCCC[C@@H](C)C(=O)[O-]
REMARK SMILES IDX 9 1 10 2 11 3 12 4 13 5 14 6 15 7 16 8 17 9 18 10 19 11 8 12
REMARK SMILES IDX 7 13 6 14 5 15 4 16 3 17 2 18 1 19
REMARK H PARENT
REMARK Flexibility Score: inf
ROOT
ATOM      1  C   UNL     1      -0.960  13.543 -12.684  1.00  0.00     0.000 C 
ENDROOT
BRANCH   1   2
ATOM      2  C   UNL     1      -1.362  14.143 -11.329  1.00  0.00     0.000 C 
BRANCH   2   3
ATOM      3  C   UNL     1      -1.579  13.042 -10.284  1.00  0.00     0.000 C 
BRANCH   3   4
ATOM      4  C   UNL     1      -3.067  12.899  -9.936  1.00  0.00     0.000 C 
BRANCH   4   5
ATOM      5  C   UNL     1      -3.356  11.528  -9.307  1.00  0.00     0.001 C 
BRANCH   5   6
ATOM      6  C   UNL     1      -4.649  10.881  -9.839  1.00  0.00     0.009 C 
BRANCH   6   7
ATOM      7  C   UNL     1      -4.525   9.386 -10.217  1.00  0.00     0.032 C 
ATOM      8  C   UNL     1      -3.904   8.545  -9.094  1.00  0.00     0.014 C 
BRANCH   7   9
ATOM      9  C   UNL     1      -5.881   8.842 -10.573  1.00  0.00     0.044 C 
ATOM     10  O   UNL     1      -6.715   9.554 -11.193  1.00  0.00    -0.550 OA
ATOM     11  O   UNL     1      -6.218   7.538 -10.228  1.00  0.00    -0.550 OA
ENDBRANCH   7   9
ENDBRANCH   6   7
ENDBRANCH   5   6
ENDBRANCH   4   5
ENDBRANCH   3   4
ENDBRANCH   2   3
ENDBRANCH   1   2
BRANCH   1  12
ATOM     12  C   UNL     1      -0.662  12.038 -12.601  1.00  0.00     0.000 C 
BRANCH  12  13
ATOM     13  C   UNL     1      -1.427  11.224 -13.656  1.00  0.00    -0.000 C 
BRANCH  13  14
ATOM     14  C   UNL     1      -2.806  10.801 -13.126  1.00  0.00    -0.000 C 
BRANCH  14  15
ATOM     15  C   UNL     1      -3.954  11.245 -14.048  1.00  0.00    -0.000 C 
BRANCH  15  16
ATOM     16  C   UNL     1      -4.977  12.140 -13.329  1.00  0.00    -0.000 C 
BRANCH  16  17
ATOM     17  C   UNL     1      -4.541  13.621 -13.310  1.00  0.00    -0.000 C 
BRANCH  17  18
ATOM     18  C   UNL     1      -3.850  14.075 -14.607  1.00  0.00    -0.003 C 
ATOM     19  C   UNL     1      -3.805  15.594 -14.762  1.00  0.00     0.004 C 
ENDBRANCH  17  18
ENDBRANCH  16  17
ENDBRANCH  15  16
ENDBRANCH  14  15
ENDBRANCH  13  14
ENDBRANCH  12  13
ENDBRANCH   1  12
TORSDOF 14
ENDMDL
MODEL 8
REMARK VINA RESULT:    -4.266      2.777      4.765
REMARK INTER + INTRA:          -9.783
REMARK INTER:                  -7.219
REMARK INTRA:                  -2.564
REMARK UNBOUND:                -2.025
REMARK SMILES CCCCCCCCCCCCCC[C@@H](C)C(=O)[O-]
REMARK SMILES IDX 9 1 10 2 11 3 12 4 13 5 14 6 15 7 16 8 17 9 18 10 19 11 8 12
REMARK SMILES IDX 7 13 6 14 5 15 4 16 3 17 2 18 1 19
REMARK H PARENT
REMARK Flexibility Score: inf
ROOT
ATOM      1  C   UNL     1      -0.437  13.059 -12.758  1.00  0.00     0.000 C 
ENDROOT
BRANCH   1   2
ATOM      2  C   UNL     1      -0.979  14.144 -11.815  1.00  0.00     0.000 C 
BRANCH   2   3
ATOM      3  C   UNL     1      -2.462  14.417 -12.088  1.00  0.00     0.000 C 
BRANCH   3   4
ATOM      4  C   UNL     1      -2.961  13.598 -13.286  1.00  0.00     0.000 C 
BRANCH   4   5
ATOM      5  C   UNL     1      -4.107  12.662 -12.873  1.00  0.00     0.001 C 
BRANCH   5   6
ATOM      6  C   UNL     1      -4.194  11.394 -13.744  1.00  0.00     0.009 C 
BRANCH   6   7
ATOM      7  C   UNL     1      -3.085  11.260 -14.814  1.00  0.00     0.032 C 
ATOM      8  C   UNL     1      -2.091  10.135 -14.493  1.00  0.00     0.014 C 
BRANCH   7   9
ATOM      9  C   UNL     1      -3.710  11.020 -16.161  1.00  0.00     0.044 C 
ATOM     10  O   UNL     1      -3.024  10.564 -17.114  1.00  0.00    -0.550 OA
ATOM     11  O   UNL     1      -5.059  11.291 -16.359  1.00  0.00    -0.550 OA
ENDBRANCH   7   9
ENDBRANCH   6   7
ENDBRANCH   5   6
ENDBRANCH   4   5
ENDBRANCH   3   4
ENDBRANCH   2   3
ENDBRANCH   1   2
BRANCH   1  12
ATOM     12  C   UNL     1       0.125  11.844 -12.004  1.00  0.00     0.000 C 
BRANCH  12  13
ATOM     13  C   UNL     1      -0.218  11.866 -10.506  1.00  0.00    -0.000 C 
BRANCH  13  14
ATOM     14  C   UNL     1      -0.899  10.556 -10.081  1.00  0.00    -0.000 C 
BRANCH  14  15
ATOM     15  C   UNL     1      -2.305  10.401 -10.683  1.00  0.00    -0.000 C 
BRANCH  15  16
ATOM     16  C   UNL     1      -3.420  10.615  -9.644  1.00  0.00    -0.000 C 
BRANCH  16  17
ATOM     17  C   UNL     1      -3.003  11.611  -8.541  1.00  0.00    -0.000 C 
BRANCH  17  18
ATOM     18  C   UNL     1      -3.404  13.065  -8.843  1.00  0.00    -0.003 C 
ATOM     19  C   UNL     1      -4.035  13.773  -7.645  1.00  0.00     0.004 C 
ENDBRANCH  17  18
ENDBRANCH  16  17
ENDBRANCH  15  16
ENDBRANCH  14  15
ENDBRANCH  13  14
ENDBRANCH  12  13
ENDBRANCH   1  12
TORSDOF 14
ENDMDL
MODEL 9
REMARK VINA RESULT:    -4.265     15.599     17.910
REMARK INTER + INTRA:          -9.781
REMARK INTER:                  -7.184
REMARK INTRA:                  -2.597
REMARK UNBOUND:                -2.025
REMARK SMILES CCCCCCCCCCCCCC[C@@H](C)C(=O)[O-]
REMARK SMILES IDX 9 1 10 2 11 3 12 4 13 5 14 6 15 7 16 8 17 9 18 10 19 11 8 12
REMARK SMILES IDX 7 13 6 14 5 15 4 16 3 17 2 18 1 19
REMARK H PARENT
REMARK Flexibility Score: inf
ROOT
ATOM      1  C   UNL     1     -17.772  18.861 -20.286  1.00  0.00     0.000 C 
ENDROOT
BRANCH   1   2
ATOM      2  C   UNL     1     -18.862  18.859 -19.204  1.00  0.00     0.000 C 
BRANCH   2   3
ATOM      3  C   UNL     1     -19.701  17.577 -19.274  1.00  0.00     0.000 C 
BRANCH   3   4
ATOM      4  C   UNL     1     -20.054  17.072 -17.869  1.00  0.00     0.000 C 
BRANCH   4   5
ATOM      5  C   UNL     1     -19.142  17.710 -16.810  1.00  0.00     0.001 C 
BRANCH   5   6
ATOM      6  C   UNL     1     -19.182  16.973 -15.457  1.00  0.00     0.009 C 
BRANCH   6   7
ATOM      7  C   UNL     1     -17.906  17.116 -14.596  1.00  0.00     0.032 C 
ATOM      8  C   UNL     1     -18.201  17.661 -13.192  1.00  0.00     0.014 C 
BRANCH   7   9
ATOM      9  C   UNL     1     -17.215  15.784 -14.493  1.00  0.00     0.044 C 
ATOM     10  O   UNL     1     -17.491  14.854 -15.297  1.00  0.00    -0.550 OA
ATOM     11  O   UNL     1     -16.253  15.576 -13.512  1.00  0.00    -0.550 OA
ENDBRANCH   7   9
ENDBRANCH   6   7
ENDBRANCH   5   6
ENDBRANCH   4   5
ENDBRANCH   3   4
ENDBRANCH   2   3
ENDBRANCH   1   2
BRANCH   1  12
ATOM     12  C   UNL     1     -17.383  17.445 -20.738  1.00  0.00     0.000 C 
BRANCH  12  13
ATOM     13  C   UNL     1     -16.057  16.970 -20.124  1.00  0.00    -0.000 C 
BRANCH  13  14
ATOM     14  C   UNL     1     -16.302  16.223 -18.804  1.00  0.00    -0.000 C 
BRANCH  14  15
ATOM     15  C   UNL     1     -15.539  16.845 -17.623  1.00  0.00    -0.000 C 
BRANCH  15  16
ATOM     16  C   UNL     1     -15.122  18.302 -17.891  1.00  0.00    -0.000 C 
BRANCH  16  17
ATOM     17  C   UNL     1     -15.683  19.272 -16.830  1.00  0.00    -0.000 C 
BRANCH  17  18
ATOM     18  C   UNL     1     -16.207  20.592 -17.419  1.00  0.00    -0.003 C 
ATOM     19  C   UNL     1     -15.148  21.693 -17.457  1.00  0.00     0.004 C 
ENDBRANCH  17  18
ENDBRANCH  16  17
ENDBRANCH  15  16
ENDBRANCH  14  15
ENDBRANCH  13  14
ENDBRANCH  12  13
ENDBRANCH   1  12
TORSDOF 14
ENDMDL
