MODEL 1
REMARK VINA RESULT:    -4.933      0.000      0.000
REMARK INTER + INTRA:          -8.149
REMARK INTER:                  -7.529
REMARK INTRA:                  -0.621
REMARK UNBOUND:                -0.621
REMARK SMILES CCCCCCCCCCC(=O)[O-]
REMARK SMILES IDX 7 1 8 2 9 3 10 4 11 5 12 6 13 7 6 8 5 9 4 10 3 11 2 12 1 13
REMARK H PARENT
REMARK Flexibility Score: inf
ROOT
ATOM      1  C   UNL     1      49.702  20.856  49.829  1.00  0.00     0.000 C 
ENDROOT
BRANCH   1   2
ATOM      2  C   UNL     1      48.455  20.069  50.255  1.00  0.00     0.000 C 
BRANCH   2   3
ATOM      3  C   UNL     1      47.441  20.931  51.030  1.00  0.00     0.006 C 
BRANCH   3   4
ATOM      4  C   UNL     1      48.051  22.165  51.714  1.00  0.00     0.053 C 
BRANCH   4   5
ATOM      5  C   UNL     1      48.355  21.914  53.159  1.00  0.00     0.041 C 
ATOM      6  O   UNL     1      49.547  21.911  53.566  1.00  0.00    -0.550 OA
ATOM      7  O   UNL     1      47.322  21.650  54.051  1.00  0.00    -0.550 OA
ENDBRANCH   4   5
ENDBRANCH   3   4
ENDBRANCH   2   3
ENDBRANCH   1   2
BRANCH   1   8
ATOM      8  C   UNL     1      50.974  20.231  50.424  1.00  0.00     0.000 C 
BRANCH   8   9
ATOM      9  C   UNL     1      51.910  21.278  51.048  1.00  0.00    -0.000 C 
BRANCH   9  10
ATOM     10  C   UNL     1      53.378  21.089  50.626  1.00  0.00    -0.000 C 
BRANCH  10  11
ATOM     11  C   UNL     1      53.522  20.225  49.364  1.00  0.00    -0.000 C 
BRANCH  11  12
ATOM     12  C   UNL     1      54.968  20.173  48.849  1.00  0.00    -0.003 C 
ATOM     13  C   UNL     1      55.297  21.402  48.007  1.00  0.00     0.004 C 
ENDBRANCH  11  12
ENDBRANCH  10  11
ENDBRANCH   9  10
ENDBRANCH   8   9
ENDBRANCH   1   8
TORSDOF 9
ENDMDL
MODEL 2
REMARK VINA RESULT:    -4.863      1.845      2.393
REMARK INTER + INTRA:          -8.042
REMARK INTER:                  -7.415
REMARK INTRA:                  -0.627
REMARK UNBOUND:                -0.621
REMARK SMILES CCCCCCCCCCC(=O)[O-]
REMARK SMILES IDX 7 1 8 2 9 3 10 4 11 5 12 6 13 7 6 8 5 9 4 10 3 11 2 12 1 13
REMARK H PARENT
REMARK Flexibility Score: inf
ROOT
ATOM      1  C   UNL     1      50.629  21.652  52.834  1.00  0.00     0.000 C 
ENDROOT
BRANCH   1   2
ATOM      2  C   UNL     1      49.649  22.544  52.059  1.00  0.00     0.000 C 
BRANCH   2   3
ATOM      3  C   UNL     1      48.196  22.039  52.133  1.00  0.00     0.006 C 
BRANCH   3   4
ATOM      4  C   UNL     1      47.666  21.439  50.821  1.00  0.00     0.053 C 
BRANCH   4   5
ATOM      5  C   UNL     1      47.634  19.942  50.861  1.00  0.00     0.041 C 
ATOM      6  O   UNL     1      48.564  19.272  50.338  1.00  0.00    -0.550 OA
ATOM      7  O   UNL     1      46.558  19.285  51.446  1.00  0.00    -0.550 OA
ENDBRANCH   4   5
ENDBRANCH   3   4
ENDBRANCH   2   3
ENDBRANCH   1   2
BRANCH   1   8
ATOM      8  C   UNL     1      51.750  21.141  51.916  1.00  0.00     0.000 C 
BRANCH   8   9
ATOM      9  C   UNL     1      51.379  21.227  50.427  1.00  0.00    -0.000 C 
BRANCH   9  10
ATOM     10  C   UNL     1      52.383  20.491  49.522  1.00  0.00    -0.000 C 
BRANCH  10  11
ATOM     11  C   UNL     1      53.838  20.679  49.978  1.00  0.00    -0.000 C 
BRANCH  11  12
ATOM     12  C   UNL     1      54.851  20.180  48.938  1.00  0.00    -0.003 C 
ATOM     13  C   UNL     1      55.265  21.302  47.991  1.00  0.00     0.004 C 
ENDBRANCH  11  12
ENDBRANCH  10  11
ENDBRANCH   9  10
ENDBRANCH   8   9
ENDBRANCH   1   8
TORSDOF 9
ENDMDL
MODEL 3
REMARK VINA RESULT:    -4.657      3.019      3.697
REMARK INTER + INTRA:          -7.727
REMARK INTER:                  -7.560
REMARK INTRA:                  -0.167
REMARK UNBOUND:                -0.621
REMARK SMILES CCCCCCCCCCC(=O)[O-]
REMARK SMILES IDX 7 1 8 2 9 3 10 4 11 5 12 6 13 7 6 8 5 9 4 10 3 11 2 12 1 13
REMARK H PARENT
REMARK Flexibility Score: inf
ROOT
ATOM      1  C   UNL     1      48.445  19.697  50.291  1.00  0.00     0.000 C 
ENDROOT
BRANCH   1   2
ATOM      2  C   UNL     1      47.106  20.197  50.852  1.00  0.00     0.000 C 
BRANCH   2   3
ATOM      3  C   UNL     1      46.329  19.102  51.607  1.00  0.00     0.006 C 
BRANCH   3   4
ATOM      4  C   UNL     1      44.956  18.770  51.004  1.00  0.00     0.053 C 
BRANCH   4   5
ATOM      5  C   UNL     1      44.371  17.523  51.592  1.00  0.00     0.041 C 
ATOM      6  O   UNL     1      43.885  17.536  52.754  1.00  0.00    -0.550 OA
ATOM      7  O   UNL     1      44.393  16.336  50.868  1.00  0.00    -0.550 OA
ENDBRANCH   4   5
ENDBRANCH   3   4
ENDBRANCH   2   3
ENDBRANCH   1   2
BRANCH   1   8
ATOM      8  C   UNL     1      49.510  20.803  50.344  1.00  0.00     0.000 C 
BRANCH   8   9
ATOM      9  C   UNL     1      50.919  20.254  50.620  1.00  0.00    -0.000 C 
BRANCH   9  10
ATOM     10  C   UNL     1      51.954  20.729  49.585  1.00  0.00    -0.000 C 
BRANCH  10  11
ATOM     11  C   UNL     1      53.386  20.732  50.141  1.00  0.00    -0.000 C 
BRANCH  11  12
ATOM     12  C   UNL     1      54.405  20.153  49.147  1.00  0.00    -0.003 C 
ATOM     13  C   UNL     1      55.026  21.255  48.294  1.00  0.00     0.004 C 
ENDBRANCH  11  12
ENDBRANCH  10  11
ENDBRANCH   9  10
ENDBRANCH   8   9
ENDBRANCH   1   8
TORSDOF 9
ENDMDL
MODEL 4
REMARK VINA RESULT:    -4.614      3.663      6.441
REMARK INTER + INTRA:          -7.663
REMARK INTER:                  -7.074
REMARK INTRA:                  -0.588
REMARK UNBOUND:                -0.621
REMARK SMILES CCCCCCCCCCC(=O)[O-]
REMARK SMILES IDX 7 1 8 2 9 3 10 4 11 5 12 6 13 7 6 8 5 9 4 10 3 11 2 12 1 13
REMARK H PARENT
REMARK Flexibility Score: inf
ROOT
ATOM      1  C   UNL     1      50.970  20.793  49.920  1.00  0.00     0.000 C 
ENDROOT
BRANCH   1   2
ATOM      2  C   UNL     1      51.965  21.187  51.020  1.00  0.00     0.000 C 
BRANCH   2   3
ATOM      3  C   UNL     1      53.433  21.003  50.592  1.00  0.00     0.006 C 
BRANCH   3   4
ATOM      4  C   UNL     1      53.613  20.346  49.214  1.00  0.00     0.053 C 
BRANCH   4   5
ATOM      5  C   UNL     1      55.026  20.442  48.727  1.00  0.00     0.041 C 
ATOM      6  O   UNL     1      55.866  19.556  49.036  1.00  0.00    -0.550 OA
ATOM      7  O   UNL     1      55.424  21.530  47.958  1.00  0.00    -0.550 OA
ENDBRANCH   4   5
ENDBRANCH   3   4
ENDBRANCH   2   3
ENDBRANCH   1   2
BRANCH   1   8
ATOM      8  C   UNL     1      50.439  19.369  50.144  1.00  0.00     0.000 C 
BRANCH   8   9
ATOM      9  C   UNL     1      48.906  19.319  50.248  1.00  0.00    -0.000 C 
BRANCH   9  10
ATOM     10  C   UNL     1      48.246  20.668  49.912  1.00  0.00    -0.000 C 
BRANCH  10  11
ATOM     11  C   UNL     1      47.429  21.233  51.085  1.00  0.00    -0.000 C 
BRANCH  11  12
ATOM     12  C   UNL     1      48.317  21.757  52.223  1.00  0.00    -0.003 C 
ATOM     13  C   UNL     1      48.288  23.281  52.286  1.00  0.00     0.004 C 
ENDBRANCH  11  12
ENDBRANCH  10  11
ENDBRANCH   9  10
ENDBRANCH   8   9
ENDBRANCH   1   8
TORSDOF 9
ENDMDL
MODEL 5
REMARK VINA RESULT:    -4.581      1.278      1.735
REMARK INTER + INTRA:          -7.613
REMARK INTER:                  -6.844
REMARK INTRA:                  -0.769
REMARK UNBOUND:                -0.621
REMARK SMILES CCCCCCCCCCC(=O)[O-]
REMARK SMILES IDX 7 1 8 2 9 3 10 4 11 5 12 6 13 7 6 8 5 9 4 10 3 11 2 12 1 13
REMARK H PARENT
REMARK Flexibility Score: inf
ROOT
ATOM      1  C   UNL     1      48.673  20.592  49.851  1.00  0.00     0.000 C 
ENDROOT
BRANCH   1   2
ATOM      2  C   UNL     1      47.710  20.750  51.037  1.00  0.00     0.000 C 
BRANCH   2   3
ATOM      3  C   UNL     1      47.791  22.142  51.690  1.00  0.00     0.006 C 
BRANCH   3   4
ATOM      4  C   UNL     1      48.523  22.167  53.041  1.00  0.00     0.053 C 
BRANCH   4   5
ATOM      5  C   UNL     1      49.863  22.829  52.942  1.00  0.00     0.041 C 
ATOM      6  O   UNL     1      50.739  22.624  53.823  1.00  0.00    -0.550 OA
ATOM      7  O   UNL     1      50.132  23.700  51.893  1.00  0.00    -0.550 OA
ENDBRANCH   4   5
ENDBRANCH   3   4
ENDBRANCH   2   3
ENDBRANCH   1   2
BRANCH   1   8
ATOM      8  C   UNL     1      50.030  20.041  50.316  1.00  0.00     0.000 C 
BRANCH   8   9
ATOM      9  C   UNL     1      51.203  20.954  49.924  1.00  0.00    -0.000 C 
BRANCH   9  10
ATOM     10  C   UNL     1      52.299  21.008  51.004  1.00  0.00    -0.000 C 
BRANCH  10  11
ATOM     11  C   UNL     1      53.715  20.982  50.409  1.00  0.00    -0.000 C 
BRANCH  11  12
ATOM     12  C   UNL     1      53.818  20.080  49.170  1.00  0.00    -0.003 C 
ATOM     13  C   UNL     1      55.275  19.809  48.808  1.00  0.00     0.004 C 
ENDBRANCH  11  12
ENDBRANCH  10  11
ENDBRANCH   9  10
ENDBRANCH   8   9
ENDBRANCH   1   8
TORSDOF 9
ENDMDL
MODEL 6
REMARK VINA RESULT:    -4.491      2.764      3.969
REMARK INTER + INTRA:          -7.475
REMARK INTER:                  -6.635
REMARK INTRA:                  -0.841
REMARK UNBOUND:                -0.621
REMARK SMILES CCCCCCCCCCC(=O)[O-]
REMARK SMILES IDX 7 1 8 2 9 3 10 4 11 5 12 6 13 7 6 8 5 9 4 10 3 11 2 12 1 13
REMARK H PARENT
REMARK Flexibility Score: inf
ROOT
ATOM      1  C   UNL     1      50.283  22.635  51.745  1.00  0.00     0.000 C 
ENDROOT
BRANCH   1   2
ATOM      2  C   UNL     1      51.563  22.741  52.587  1.00  0.00     0.000 C 
BRANCH   2   3
ATOM      3  C   UNL     1      51.825  21.484  53.437  1.00  0.00     0.006 C 
BRANCH   3   4
ATOM      4  C   UNL     1      53.299  21.271  53.815  1.00  0.00     0.053 C 
BRANCH   4   5
ATOM      5  C   UNL     1      53.678  22.032  55.049  1.00  0.00     0.041 C 
ATOM      6  O   UNL     1      52.808  22.304  55.918  1.00  0.00    -0.550 OA
ATOM      7  O   UNL     1      54.985  22.469  55.222  1.00  0.00    -0.550 OA
ENDBRANCH   4   5
ENDBRANCH   3   4
ENDBRANCH   2   3
ENDBRANCH   1   2
BRANCH   1   8
ATOM      8  C   UNL     1      50.191  21.264  51.057  1.00  0.00     0.000 C 
BRANCH   8   9
ATOM      9  C   UNL     1      51.033  21.190  49.774  1.00  0.00    -0.000 C 
BRANCH   9  10
ATOM     10  C   UNL     1      52.183  20.173  49.877  1.00  0.00    -0.000 C 
BRANCH  10  11
ATOM     11  C   UNL     1      53.560  20.847  49.988  1.00  0.00    -0.000 C 
BRANCH  11  12
ATOM     12  C   UNL     1      54.601  20.217  49.050  1.00  0.00    -0.003 C 
ATOM     13  C   UNL     1      55.185  21.258  48.100  1.00  0.00     0.004 C 
ENDBRANCH  11  12
ENDBRANCH  10  11
ENDBRANCH   9  10
ENDBRANCH   8   9
ENDBRANCH   1   8
TORSDOF 9
ENDMDL
MODEL 7
REMARK VINA RESULT:    -4.427      1.265      1.752
REMARK INTER + INTRA:          -7.377
REMARK INTER:                  -6.713
REMARK INTRA:                  -0.664
REMARK UNBOUND:                -0.621
REMARK SMILES CCCCCCCCCCC(=O)[O-]
REMARK SMILES IDX 7 1 8 2 9 3 10 4 11 5 12 6 13 7 6 8 5 9 4 10 3 11 2 12 1 13
REMARK H PARENT
REMARK Flexibility Score: inf
ROOT
ATOM      1  C   UNL     1      49.548  21.115  51.038  1.00  0.00     0.000 C 
ENDROOT
BRANCH   1   2
ATOM      2  C   UNL     1      49.616  22.553  51.571  1.00  0.00     0.000 C 
BRANCH   2   3
ATOM      3  C   UNL     1      48.393  22.932  52.427  1.00  0.00     0.006 C 
BRANCH   3   4
ATOM      4  C   UNL     1      48.120  21.977  53.600  1.00  0.00     0.053 C 
BRANCH   4   5
ATOM      5  C   UNL     1      49.144  22.114  54.685  1.00  0.00     0.041 C 
ATOM      6  O   UNL     1      49.034  23.023  55.550  1.00  0.00    -0.550 OA
ATOM      7  O   UNL     1      50.237  21.257  54.721  1.00  0.00    -0.550 OA
ENDBRANCH   4   5
ENDBRANCH   3   4
ENDBRANCH   2   3
ENDBRANCH   1   2
BRANCH   1   8
ATOM      8  C   UNL     1      50.942  20.469  51.020  1.00  0.00     0.000 C 
BRANCH   8   9
ATOM      9  C   UNL     1      52.030  21.398  51.583  1.00  0.00    -0.000 C 
BRANCH   9  10
ATOM     10  C   UNL     1      53.402  21.174  50.921  1.00  0.00    -0.000 C 
BRANCH  10  11
ATOM     11  C   UNL     1      53.291  20.489  49.550  1.00  0.00    -0.000 C 
BRANCH  11  12
ATOM     12  C   UNL     1      54.663  20.131  48.958  1.00  0.00    -0.003 C 
ATOM     13  C   UNL     1      55.203  21.269  48.096  1.00  0.00     0.004 C 
ENDBRANCH  11  12
ENDBRANCH  10  11
ENDBRANCH   9  10
ENDBRANCH   8   9
ENDBRANCH   1   8
TORSDOF 9
ENDMDL
MODEL 8
REMARK VINA RESULT:    -4.403      4.021      5.321
REMARK INTER + INTRA:          -7.340
REMARK INTER:                  -6.919
REMARK INTRA:                  -0.421
REMARK UNBOUND:                -0.621
REMARK SMILES CCCCCCCCCCC(=O)[O-]
REMARK SMILES IDX 7 1 8 2 9 3 10 4 11 5 12 6 13 7 6 8 5 9 4 10 3 11 2 12 1 13
REMARK H PARENT
REMARK Flexibility Score: inf
ROOT
ATOM      1  C   UNL     1      51.878  21.220  53.237  1.00  0.00     0.000 C 
ENDROOT
BRANCH   1   2
ATOM      2  C   UNL     1      53.339  21.427  53.661  1.00  0.00     0.000 C 
BRANCH   2   3
ATOM      3  C   UNL     1      53.474  21.957  55.101  1.00  0.00     0.006 C 
BRANCH   3   4
ATOM      4  C   UNL     1      54.528  23.062  55.273  1.00  0.00     0.053 C 
BRANCH   4   5
ATOM      5  C   UNL     1      55.552  22.706  56.306  1.00  0.00     0.041 C 
ATOM      6  O   UNL     1      56.759  22.558  55.979  1.00  0.00    -0.550 OA
ATOM      7  O   UNL     1      55.167  22.503  57.626  1.00  0.00    -0.550 OA
ENDBRANCH   4   5
ENDBRANCH   3   4
ENDBRANCH   2   3
ENDBRANCH   1   2
BRANCH   1   8
ATOM      8  C   UNL     1      51.637  21.755  51.817  1.00  0.00     0.000 C 
BRANCH   8   9
ATOM      9  C   UNL     1      51.237  20.648  50.829  1.00  0.00    -0.000 C 
BRANCH   9  10
ATOM     10  C   UNL     1      52.167  20.581  49.604  1.00  0.00    -0.000 C 
BRANCH  10  11
ATOM     11  C   UNL     1      53.648  20.752  49.977  1.00  0.00    -0.000 C 
BRANCH  11  12
ATOM     12  C   UNL     1      54.594  20.205  48.898  1.00  0.00    -0.003 C 
ATOM     13  C   UNL     1      55.168  21.334  48.048  1.00  0.00     0.004 C 
ENDBRANCH  11  12
ENDBRANCH  10  11
ENDBRANCH   9  10
ENDBRANCH   8   9
ENDBRANCH   1   8
TORSDOF 9
ENDMDL
MODEL 9
REMARK VINA RESULT:    -4.375      1.467      2.146
REMARK INTER + INTRA:          -7.298
REMARK INTER:                  -6.725
REMARK INTRA:                  -0.573
REMARK UNBOUND:                -0.621
REMARK SMILES CCCCCCCCCCC(=O)[O-]
REMARK SMILES IDX 7 1 8 2 9 3 10 4 11 5 12 6 13 7 6 8 5 9 4 10 3 11 2 12 1 13
REMARK H PARENT
REMARK Flexibility Score: inf
ROOT
ATOM      1  C   UNL     1      51.139  21.908  53.009  1.00  0.00     0.000 C 
ENDROOT
BRANCH   1   2
ATOM      2  C   UNL     1      50.695  23.192  52.294  1.00  0.00     0.000 C 
BRANCH   2   3
ATOM      3  C   UNL     1      49.168  23.278  52.113  1.00  0.00     0.006 C 
BRANCH   3   4
ATOM      4  C   UNL     1      48.405  22.023  52.564  1.00  0.00     0.053 C 
BRANCH   4   5
ATOM      5  C   UNL     1      47.640  22.256  53.831  1.00  0.00     0.041 C 
ATOM      6  O   UNL     1      47.561  23.414  54.321  1.00  0.00    -0.550 OA
ATOM      7  O   UNL     1      47.042  21.188  54.489  1.00  0.00    -0.550 OA
ENDBRANCH   4   5
ENDBRANCH   3   4
ENDBRANCH   2   3
ENDBRANCH   1   2
BRANCH   1   8
ATOM      8  C   UNL     1      52.021  21.046  52.092  1.00  0.00     0.000 C 
BRANCH   8   9
ATOM      9  C   UNL     1      51.308  20.647  50.791  1.00  0.00    -0.000 C 
BRANCH   9  10
ATOM     10  C   UNL     1      52.257  20.618  49.579  1.00  0.00    -0.000 C 
BRANCH  10  11
ATOM     11  C   UNL     1      53.732  20.767  49.981  1.00  0.00    -0.000 C 
BRANCH  11  12
ATOM     12  C   UNL     1      54.691  20.206  48.921  1.00  0.00    -0.003 C 
ATOM     13  C   UNL     1      55.245  21.320  48.037  1.00  0.00     0.004 C 
ENDBRANCH  11  12
ENDBRANCH  10  11
ENDBRANCH   9  10
ENDBRANCH   8   9
ENDBRANCH   1   8
TORSDOF 9
ENDMDL
