MODEL 1
REMARK VINA RESULT:    -5.141      0.000      0.000
REMARK INTER + INTRA:          -6.324
REMARK INTER:                  -6.043
REMARK INTRA:                  -0.281
REMARK UNBOUND:                -0.281
REMARK SMILES O=C([O-])C=Cc1ccc(O)c(O)c1
REMARK SMILES IDX 6 1 13 2 7 3 11 4 8 5 9 6 5 7 4 8 2 9 1 10 3 11 12 12 10 14
REMARK H PARENT 12 13 10 15
REMARK Flexibility Score: inf
ROOT
ATOM      1  C   UNL     1      -4.227  14.326   6.989  1.00  0.00    -0.022 A 
ATOM      2  C   UNL     1      -3.726  15.452   6.320  1.00  0.00     0.058 A 
ATOM      3  C   UNL     1      -3.562  13.852   8.133  1.00  0.00     0.012 A 
ATOM      4  C   UNL     1      -2.544  16.069   6.756  1.00  0.00     0.157 A 
ATOM      5  C   UNL     1      -2.385  14.464   8.567  1.00  0.00     0.051 A 
ATOM      6  C   UNL     1      -1.870  15.572   7.879  1.00  0.00     0.157 A 
ENDROOT
BRANCH   1   7
ATOM      7  C   UNL     1      -5.502  13.727   6.541  1.00  0.00     0.010 C 
ATOM      8  C   UNL     1      -6.725  14.172   6.867  1.00  0.00     0.025 C 
BRANCH   8   9
ATOM      9  C   UNL     1      -7.017  15.210   7.874  1.00  0.00     0.064 C 
ATOM     10  O   UNL     1      -7.081  14.888   9.089  1.00  0.00    -0.545 OA
ATOM     11  O   UNL     1      -7.153  16.547   7.521  1.00  0.00    -0.545 OA
ENDBRANCH   8   9
ENDBRANCH   1   7
BRANCH   4  12
ATOM     12  O   UNL     1      -2.036  17.177   6.080  1.00  0.00    -0.504 OA
ATOM     13  H   UNL     1      -1.040  17.295   5.929  1.00  0.00     0.293 HD
ENDBRANCH   4  12
BRANCH   6  14
ATOM     14  O   UNL     1      -0.695  16.185   8.307  1.00  0.00    -0.504 OA
ATOM     15  H   UNL     1      -0.707  16.954   8.968  1.00  0.00     0.293 HD
ENDBRANCH   6  14
TORSDOF 4
ENDMDL
MODEL 2
REMARK VINA RESULT:    -5.126      2.114      5.018
REMARK INTER + INTRA:          -6.307
REMARK INTER:                  -6.030
REMARK INTRA:                  -0.276
REMARK UNBOUND:                -0.281
REMARK SMILES O=C([O-])C=Cc1ccc(O)c(O)c1
REMARK SMILES IDX 6 1 13 2 7 3 11 4 8 5 9 6 5 7 4 8 2 9 1 10 3 11 12 12 10 14
REMARK H PARENT 12 13 10 15
REMARK Flexibility Score: inf
ROOT
ATOM      1  C   UNL     1      -5.212  15.009   6.223  1.00  0.00    -0.022 A 
ATOM      2  C   UNL     1      -6.404  15.578   6.693  1.00  0.00     0.058 A 
ATOM      3  C   UNL     1      -5.269  13.861   5.415  1.00  0.00     0.012 A 
ATOM      4  C   UNL     1      -7.639  14.979   6.405  1.00  0.00     0.157 A 
ATOM      5  C   UNL     1      -6.498  13.262   5.129  1.00  0.00     0.051 A 
ATOM      6  C   UNL     1      -7.686  13.816   5.625  1.00  0.00     0.157 A 
ENDROOT
BRANCH   1   7
ATOM      7  C   UNL     1      -3.929  15.691   6.496  1.00  0.00     0.010 C 
ATOM      8  C   UNL     1      -3.077  15.376   7.484  1.00  0.00     0.025 C 
BRANCH   8   9
ATOM      9  C   UNL     1      -3.353  14.430   8.582  1.00  0.00     0.064 C 
ATOM     10  O   UNL     1      -2.707  13.351   8.642  1.00  0.00    -0.545 OA
ATOM     11  O   UNL     1      -4.258  14.734   9.592  1.00  0.00    -0.545 OA
ENDBRANCH   8   9
ENDBRANCH   1   7
BRANCH   4  12
ATOM     12  O   UNL     1      -8.823  15.534   6.888  1.00  0.00    -0.504 OA
ATOM     13  H   UNL     1      -9.415  15.033   7.541  1.00  0.00     0.293 HD
ENDBRANCH   4  12
BRANCH   6  14
ATOM     14  O   UNL     1      -8.914  13.222   5.344  1.00  0.00    -0.504 OA
ATOM     15  H   UNL     1      -9.597  13.046   6.071  1.00  0.00     0.293 HD
ENDBRANCH   6  14
TORSDOF 4
ENDMDL
MODEL 3
REMARK VINA RESULT:    -5.002      2.272      4.838
REMARK INTER + INTRA:          -6.160
REMARK INTER:                  -5.894
REMARK INTRA:                  -0.266
REMARK UNBOUND:                -0.281
REMARK SMILES O=C([O-])C=Cc1ccc(O)c(O)c1
REMARK SMILES IDX 6 1 13 2 7 3 11 4 8 5 9 6 5 7 4 8 2 9 1 10 3 11 12 12 10 14
REMARK H PARENT 12 13 10 15
REMARK Flexibility Score: inf
ROOT
ATOM      1  C   UNL     1      -4.846  15.696   6.463  1.00  0.00    -0.022 A 
ATOM      2  C   UNL     1      -5.131  14.600   5.635  1.00  0.00     0.058 A 
ATOM      3  C   UNL     1      -5.900  16.360   7.113  1.00  0.00     0.012 A 
ATOM      4  C   UNL     1      -6.458  14.203   5.414  1.00  0.00     0.157 A 
ATOM      5  C   UNL     1      -7.222  15.966   6.892  1.00  0.00     0.051 A 
ATOM      6  C   UNL     1      -7.506  14.890   6.041  1.00  0.00     0.157 A 
ENDROOT
BRANCH   1   7
ATOM      7  C   UNL     1      -3.437  16.060   6.722  1.00  0.00     0.010 C 
ATOM      8  C   UNL     1      -2.648  15.498   7.650  1.00  0.00     0.025 C 
BRANCH   8   9
ATOM      9  C   UNL     1      -3.094  14.560   8.698  1.00  0.00     0.064 C 
ATOM     10  O   UNL     1      -2.718  13.360   8.648  1.00  0.00    -0.545 OA
ATOM     11  O   UNL     1      -3.859  14.986   9.776  1.00  0.00    -0.545 OA
ENDBRANCH   8   9
ENDBRANCH   1   7
BRANCH   4  12
ATOM     12  O   UNL     1      -6.742  13.126   4.576  1.00  0.00    -0.504 OA
ATOM     13  H   UNL     1      -7.452  13.188   3.856  1.00  0.00     0.293 HD
ENDBRANCH   4  12
BRANCH   6  14
ATOM     14  O   UNL     1      -8.823  14.495   5.816  1.00  0.00    -0.504 OA
ATOM     15  H   UNL     1      -9.314  14.745   4.966  1.00  0.00     0.293 HD
ENDBRANCH   6  14
TORSDOF 4
ENDMDL
MODEL 4
REMARK VINA RESULT:    -4.951      1.736      4.834
REMARK INTER + INTRA:          -6.101
REMARK INTER:                  -6.065
REMARK INTRA:                  -0.036
REMARK UNBOUND:                -0.281
REMARK SMILES O=C([O-])C=Cc1ccc(O)c(O)c1
REMARK SMILES IDX 6 1 13 2 7 3 11 4 8 5 9 6 5 7 4 8 2 9 1 10 3 11 12 12 10 14
REMARK H PARENT 12 13 10 15
REMARK Flexibility Score: inf
ROOT
ATOM      1  C   UNL     1      -4.747  14.370   7.580  1.00  0.00    -0.022 A 
ATOM      2  C   UNL     1      -4.980  13.777   6.331  1.00  0.00     0.058 A 
ATOM      3  C   UNL     1      -5.825  14.924   8.291  1.00  0.00     0.012 A 
ATOM      4  C   UNL     1      -6.266  13.783   5.771  1.00  0.00     0.157 A 
ATOM      5  C   UNL     1      -7.106  14.931   7.734  1.00  0.00     0.051 A 
ATOM      6  C   UNL     1      -7.331  14.364   6.472  1.00  0.00     0.157 A 
ENDROOT
BRANCH   1   7
ATOM      7  C   UNL     1      -3.394  14.304   8.171  1.00  0.00     0.010 C 
ATOM      8  C   UNL     1      -2.424  15.215   7.995  1.00  0.00     0.025 C 
BRANCH   8   9
ATOM      9  C   UNL     1      -2.467  16.335   7.037  1.00  0.00     0.064 C 
ATOM     10  O   UNL     1      -1.512  16.493   6.232  1.00  0.00    -0.545 OA
ATOM     11  O   UNL     1      -3.569  17.178   6.953  1.00  0.00    -0.545 OA
ENDBRANCH   8   9
ENDBRANCH   1   7
BRANCH   4  12
ATOM     12  O   UNL     1      -6.494  13.210   4.521  1.00  0.00    -0.504 OA
ATOM     13  H   UNL     1      -7.342  13.399   3.998  1.00  0.00     0.293 HD
ENDBRANCH   4  12
BRANCH   6  14
ATOM     14  O   UNL     1      -8.606  14.371   5.912  1.00  0.00    -0.504 OA
ATOM     15  H   UNL     1      -8.863  15.032   5.187  1.00  0.00     0.293 HD
ENDBRANCH   6  14
TORSDOF 4
ENDMDL
MODEL 5
REMARK VINA RESULT:    -4.912      1.444      4.941
REMARK INTER + INTRA:          -6.055
REMARK INTER:                  -5.944
REMARK INTRA:                  -0.110
REMARK UNBOUND:                -0.281
REMARK SMILES O=C([O-])C=Cc1ccc(O)c(O)c1
REMARK SMILES IDX 6 1 13 2 7 3 11 4 8 5 9 6 5 7 4 8 2 9 1 10 3 11 12 12 10 14
REMARK H PARENT 12 13 10 15
REMARK Flexibility Score: inf
ROOT
ATOM      1  C   UNL     1      -4.935  14.183   7.166  1.00  0.00    -0.022 A 
ATOM      2  C   UNL     1      -6.022  14.809   7.793  1.00  0.00     0.058 A 
ATOM      3  C   UNL     1      -5.071  13.730   5.843  1.00  0.00     0.012 A 
ATOM      4  C   UNL     1      -7.250  14.935   7.126  1.00  0.00     0.157 A 
ATOM      5  C   UNL     1      -6.293  13.853   5.179  1.00  0.00     0.051 A 
ATOM      6  C   UNL     1      -7.387  14.453   5.818  1.00  0.00     0.157 A 
ENDROOT
BRANCH   1   7
ATOM      7  C   UNL     1      -3.637  14.111   7.870  1.00  0.00     0.010 C 
ATOM      8  C   UNL     1      -2.705  15.076   7.880  1.00  0.00     0.025 C 
BRANCH   8   9
ATOM      9  C   UNL     1      -2.722  16.291   7.043  1.00  0.00     0.064 C 
ATOM     10  O   UNL     1      -1.814  16.461   6.188  1.00  0.00    -0.545 OA
ATOM     11  O   UNL     1      -3.756  17.215   7.126  1.00  0.00    -0.545 OA
ENDBRANCH   8   9
ENDBRANCH   1   7
BRANCH   4  12
ATOM     12  O   UNL     1      -8.336  15.540   7.756  1.00  0.00    -0.504 OA
ATOM     13  H   UNL     1      -8.277  16.482   8.125  1.00  0.00     0.293 HD
ENDBRANCH   4  12
BRANCH   6  14
ATOM     14  O   UNL     1      -8.609  14.576   5.161  1.00  0.00    -0.504 OA
ATOM     15  H   UNL     1      -9.299  13.835   5.182  1.00  0.00     0.293 HD
ENDBRANCH   6  14
TORSDOF 4
ENDMDL
MODEL 6
REMARK VINA RESULT:    -4.809      1.429      2.312
REMARK INTER + INTRA:          -5.934
REMARK INTER:                  -5.721
REMARK INTRA:                  -0.213
REMARK UNBOUND:                -0.281
REMARK SMILES O=C([O-])C=Cc1ccc(O)c(O)c1
REMARK SMILES IDX 6 1 13 2 7 3 11 4 8 5 9 6 5 7 4 8 2 9 1 10 3 11 12 12 10 14
REMARK H PARENT 12 13 10 15
REMARK Flexibility Score: inf
ROOT
ATOM      1  C   UNL     1      -4.809  15.064   6.522  1.00  0.00    -0.022 A 
ATOM      2  C   UNL     1      -4.327  13.992   7.286  1.00  0.00     0.058 A 
ATOM      3  C   UNL     1      -4.085  16.268   6.491  1.00  0.00     0.012 A 
ATOM      4  C   UNL     1      -3.162  14.135   8.054  1.00  0.00     0.157 A 
ATOM      5  C   UNL     1      -2.926  16.412   7.257  1.00  0.00     0.051 A 
ATOM      6  C   UNL     1      -2.462  15.348   8.043  1.00  0.00     0.157 A 
ENDROOT
BRANCH   1   7
ATOM      7  C   UNL     1      -6.008  14.870   5.679  1.00  0.00     0.010 C 
ATOM      8  C   UNL     1      -7.238  15.326   5.963  1.00  0.00     0.025 C 
BRANCH   8   9
ATOM      9  C   UNL     1      -7.652  15.929   7.244  1.00  0.00     0.064 C 
ATOM     10  O   UNL     1      -8.161  17.081   7.246  1.00  0.00    -0.545 OA
ATOM     11  O   UNL     1      -7.560  15.229   8.441  1.00  0.00    -0.545 OA
ENDBRANCH   8   9
ENDBRANCH   1   7
BRANCH   4  12
ATOM     12  O   UNL     1      -2.693  13.075   8.828  1.00  0.00    -0.504 OA
ATOM     13  H   UNL     1      -2.257  12.263   8.406  1.00  0.00     0.293 HD
ENDBRANCH   4  12
BRANCH   6  14
ATOM     14  O   UNL     1      -1.308  15.488   8.810  1.00  0.00    -0.504 OA
ATOM     15  H   UNL     1      -1.294  15.252   9.795  1.00  0.00     0.293 HD
ENDBRANCH   6  14
TORSDOF 4
ENDMDL
MODEL 7
REMARK VINA RESULT:    -4.733      2.886      4.400
REMARK INTER + INTRA:          -5.844
REMARK INTER:                  -5.590
REMARK INTRA:                  -0.254
REMARK UNBOUND:                -0.281
REMARK SMILES O=C([O-])C=Cc1ccc(O)c(O)c1
REMARK SMILES IDX 6 1 13 2 7 3 11 4 8 5 9 6 5 7 4 8 2 9 1 10 3 11 12 12 10 14
REMARK H PARENT 12 13 10 15
REMARK Flexibility Score: inf
ROOT
ATOM      1  C   UNL     1      -5.176  15.779   7.260  1.00  0.00    -0.022 A 
ATOM      2  C   UNL     1      -6.503  16.007   6.871  1.00  0.00     0.058 A 
ATOM      3  C   UNL     1      -4.457  14.724   6.673  1.00  0.00     0.012 A 
ATOM      4  C   UNL     1      -7.127  15.157   5.945  1.00  0.00     0.157 A 
ATOM      5  C   UNL     1      -5.077  13.877   5.752  1.00  0.00     0.051 A 
ATOM      6  C   UNL     1      -6.414  14.088   5.387  1.00  0.00     0.157 A 
ENDROOT
BRANCH   1   7
ATOM      7  C   UNL     1      -4.525  16.720   8.197  1.00  0.00     0.010 C 
ATOM      8  C   UNL     1      -4.600  16.659   9.535  1.00  0.00     0.025 C 
BRANCH   8   9
ATOM      9  C   UNL     1      -5.491  15.768  10.302  1.00  0.00     0.064 C 
ATOM     10  O   UNL     1      -6.622  16.190  10.661  1.00  0.00    -0.545 OA
ATOM     11  O   UNL     1      -5.141  14.451  10.576  1.00  0.00    -0.545 OA
ENDBRANCH   8   9
ENDBRANCH   1   7
BRANCH   4  12
ATOM     12  O   UNL     1      -8.453  15.372   5.572  1.00  0.00    -0.504 OA
ATOM     13  H   UNL     1      -8.928  16.242   5.782  1.00  0.00     0.293 HD
ENDBRANCH   4  12
BRANCH   6  14
ATOM     14  O   UNL     1      -7.037  13.245   4.470  1.00  0.00    -0.504 OA
ATOM     15  H   UNL     1      -7.969  12.881   4.633  1.00  0.00     0.293 HD
ENDBRANCH   6  14
TORSDOF 4
ENDMDL
MODEL 8
REMARK VINA RESULT:    -4.728      9.538     11.041
REMARK INTER + INTRA:          -5.838
REMARK INTER:                  -5.561
REMARK INTRA:                  -0.277
REMARK UNBOUND:                -0.281
REMARK SMILES O=C([O-])C=Cc1ccc(O)c(O)c1
REMARK SMILES IDX 6 1 13 2 7 3 11 4 8 5 9 6 5 7 4 8 2 9 1 10 3 11 12 12 10 14
REMARK H PARENT 12 13 10 15
REMARK Flexibility Score: inf
ROOT
ATOM      1  C   UNL     1      -1.942  23.886  10.361  1.00  0.00    -0.022 A 
ATOM      2  C   UNL     1      -2.432  25.199  10.358  1.00  0.00     0.058 A 
ATOM      3  C   UNL     1      -2.080  23.101  11.518  1.00  0.00     0.012 A 
ATOM      4  C   UNL     1      -3.008  25.745  11.516  1.00  0.00     0.157 A 
ATOM      5  C   UNL     1      -2.652  23.643  12.672  1.00  0.00     0.051 A 
ATOM      6  C   UNL     1      -3.114  24.966  12.676  1.00  0.00     0.157 A 
ENDROOT
BRANCH   1   7
ATOM      7  C   UNL     1      -1.388  23.318   9.113  1.00  0.00     0.010 C 
ATOM      8  C   UNL     1      -0.085  23.118   8.862  1.00  0.00     0.025 C 
BRANCH   8   9
ATOM      9  C   UNL     1       1.031  23.599   9.698  1.00  0.00     0.064 C 
ATOM     10  O   UNL     1       1.440  24.781   9.555  1.00  0.00    -0.545 OA
ATOM     11  O   UNL     1       1.593  22.803  10.688  1.00  0.00    -0.545 OA
ENDBRANCH   8   9
ENDBRANCH   1   7
BRANCH   4  12
ATOM     12  O   UNL     1      -3.479  27.056  11.519  1.00  0.00    -0.504 OA
ATOM     13  H   UNL     1      -4.058  27.413  10.768  1.00  0.00     0.293 HD
ENDBRANCH   4  12
BRANCH   6  14
ATOM     14  O   UNL     1      -3.684  25.512  13.824  1.00  0.00    -0.504 OA
ATOM     15  H   UNL     1      -3.863  24.948  14.646  1.00  0.00     0.293 HD
ENDBRANCH   6  14
TORSDOF 4
ENDMDL
MODEL 9
REMARK VINA RESULT:    -4.671      3.968      5.528
REMARK INTER + INTRA:          -5.772
REMARK INTER:                  -5.500
REMARK INTRA:                  -0.272
REMARK UNBOUND:                -0.281
REMARK SMILES O=C([O-])C=Cc1ccc(O)c(O)c1
REMARK SMILES IDX 6 1 13 2 7 3 11 4 8 5 9 6 5 7 4 8 2 9 1 10 3 11 12 12 10 14
REMARK H PARENT 12 13 10 15
REMARK Flexibility Score: inf
ROOT
ATOM      1  C   UNL     1      -8.963  16.297   6.921  1.00  0.00    -0.022 A 
ATOM      2  C   UNL     1      -8.733  15.542   5.762  1.00  0.00     0.058 A 
ATOM      3  C   UNL     1      -8.179  16.064   8.063  1.00  0.00     0.012 A 
ATOM      4  C   UNL     1      -7.765  14.527   5.757  1.00  0.00     0.157 A 
ATOM      5  C   UNL     1      -7.215  15.052   8.059  1.00  0.00     0.051 A 
ATOM      6  C   UNL     1      -7.007  14.279   6.909  1.00  0.00     0.157 A 
ENDROOT
BRANCH   1   7
ATOM      7  C   UNL     1      -9.951  17.397   6.883  1.00  0.00     0.010 C 
ATOM      8  C   UNL     1     -11.259  17.274   7.156  1.00  0.00     0.025 C 
BRANCH   8   9
ATOM      9  C   UNL     1     -11.977  16.000   7.352  1.00  0.00     0.064 C 
ATOM     10  O   UNL     1     -12.389  15.366   6.347  1.00  0.00    -0.545 OA
ATOM     11  O   UNL     1     -12.145  15.449   8.617  1.00  0.00    -0.545 OA
ENDBRANCH   8   9
ENDBRANCH   1   7
BRANCH   4  12
ATOM     12  O   UNL     1      -7.549  13.764   4.611  1.00  0.00    -0.504 OA
ATOM     13  H   UNL     1      -8.292  13.217   4.190  1.00  0.00     0.293 HD
ENDBRANCH   4  12
BRANCH   6  14
ATOM     14  O   UNL     1      -6.050  13.267   6.902  1.00  0.00    -0.504 OA
ATOM     15  H   UNL     1      -5.144  13.391   7.339  1.00  0.00     0.293 HD
ENDBRANCH   6  14
TORSDOF 4
ENDMDL
