MODEL 1
REMARK VINA RESULT:    -2.761      0.000      0.000
REMARK INTER + INTRA:          -5.731
REMARK INTER:                  -4.214
REMARK INTRA:                  -1.517
REMARK UNBOUND:                -1.517
REMARK SMILES CCCCCCCCCC=CC(=O)[O-]
REMARK SMILES IDX 7 1 8 2 9 3 10 4 11 5 12 6 13 7 14 8 6 9 5 10 4 11 3 12 2 13
REMARK SMILES IDX 1 14
REMARK H PARENT
REMARK Flexibility Score: inf
ROOT
ATOM      1  C   UNL     1     121.807 122.072 123.435  1.00  0.00     0.000 C 
ENDROOT
BRANCH   1   2
ATOM      2  C   UNL     1     120.938 123.333 123.540  1.00  0.00     0.004 C 
BRANCH   2   3
ATOM      3  C   UNL     1     121.167 124.293 122.361  1.00  0.00     0.027 C 
BRANCH   3   4
ATOM      4  C   UNL     1     122.495 124.999 122.447  1.00  0.00    -0.025 C 
ATOM      5  C   UNL     1     122.762 126.094 123.178  1.00  0.00     0.020 C 
BRANCH   5   6
ATOM      6  C   UNL     1     121.804 126.859 124.002  1.00  0.00     0.064 C 
ATOM      7  O   UNL     1     121.232 127.860 123.498  1.00  0.00    -0.545 OA
ATOM      8  O   UNL     1     121.489 126.493 125.305  1.00  0.00    -0.545 OA
ENDBRANCH   5   6
ENDBRANCH   3   4
ENDBRANCH   2   3
ENDBRANCH   1   2
BRANCH   1   9
ATOM      9  C   UNL     1     121.681 121.432 122.047  1.00  0.00     0.000 C 
BRANCH   9  10
ATOM     10  C   UNL     1     123.055 121.289 121.380  1.00  0.00     0.000 C 
BRANCH  10  11
ATOM     11  C   UNL     1     124.185 121.474 122.400  1.00  0.00    -0.000 C 
BRANCH  11  12
ATOM     12  C   UNL     1     125.227 122.480 121.891  1.00  0.00    -0.000 C 
BRANCH  12  13
ATOM     13  C   UNL     1     125.733 123.419 122.996  1.00  0.00    -0.003 C 
ATOM     14  C   UNL     1     125.165 123.072 124.373  1.00  0.00     0.004 C 
ENDBRANCH  12  13
ENDBRANCH  11  12
ENDBRANCH  10  11
ENDBRANCH   9  10
ENDBRANCH   1   9
TORSDOF 9
ENDMDL
MODEL 2
REMARK VINA RESULT:    -2.649      1.663      2.353
REMARK INTER + INTRA:          -5.559
REMARK INTER:                  -4.024
REMARK INTRA:                  -1.535
REMARK UNBOUND:                -1.517
REMARK SMILES CCCCCCCCCC=CC(=O)[O-]
REMARK SMILES IDX 7 1 8 2 9 3 10 4 11 5 12 6 13 7 14 8 6 9 5 10 4 11 3 12 2 13
REMARK SMILES IDX 1 14
REMARK H PARENT
REMARK Flexibility Score: inf
ROOT
ATOM      1  C   UNL     1     122.608 124.865 121.728  1.00  0.00     0.000 C 
ENDROOT
BRANCH   1   2
ATOM      2  C   UNL     1     121.115 125.093 122.011  1.00  0.00     0.004 C 
BRANCH   2   3
ATOM      3  C   UNL     1     120.890 126.073 123.174  1.00  0.00     0.027 C 
BRANCH   3   4
ATOM      4  C   UNL     1     121.227 125.463 124.510  1.00  0.00    -0.025 C 
ATOM      5  C   UNL     1     121.786 126.100 125.551  1.00  0.00     0.020 C 
BRANCH   5   6
ATOM      6  C   UNL     1     122.233 127.508 125.586  1.00  0.00     0.064 C 
ATOM      7  O   UNL     1     123.455 127.763 125.426  1.00  0.00    -0.545 OA
ATOM      8  O   UNL     1     121.346 128.563 125.759  1.00  0.00    -0.545 OA
ENDBRANCH   5   6
ENDBRANCH   3   4
ENDBRANCH   2   3
ENDBRANCH   1   2
BRANCH   1   9
ATOM      9  C   UNL     1     122.913 123.372 121.559  1.00  0.00     0.000 C 
BRANCH   9  10
ATOM     10  C   UNL     1     121.851 122.511 122.256  1.00  0.00     0.000 C 
BRANCH  10  11
ATOM     11  C   UNL     1     122.353 122.012 123.615  1.00  0.00    -0.000 C 
BRANCH  11  12
ATOM     12  C   UNL     1     123.866 122.236 123.760  1.00  0.00    -0.000 C 
BRANCH  12  13
ATOM     13  C   UNL     1     124.221 123.116 124.968  1.00  0.00    -0.003 C 
ATOM     14  C   UNL     1     124.970 124.389 124.572  1.00  0.00     0.004 C 
ENDBRANCH  12  13
ENDBRANCH  11  12
ENDBRANCH  10  11
ENDBRANCH   9  10
ENDBRANCH   1   9
TORSDOF 9
ENDMDL
MODEL 3
REMARK VINA RESULT:    -2.568      3.077      5.407
REMARK INTER + INTRA:          -5.437
REMARK INTER:                  -4.519
REMARK INTRA:                  -0.917
REMARK UNBOUND:                -1.517
REMARK SMILES CCCCCCCCCC=CC(=O)[O-]
REMARK SMILES IDX 7 1 8 2 9 3 10 4 11 5 12 6 13 7 14 8 6 9 5 10 4 11 3 12 2 13
REMARK SMILES IDX 1 14
REMARK H PARENT
REMARK Flexibility Score: inf
ROOT
ATOM      1  C   UNL     1     121.197 125.644 123.206  1.00  0.00     0.000 C 
ENDROOT
BRANCH   1   2
ATOM      2  C   UNL     1     121.016 124.292 122.501  1.00  0.00     0.004 C 
BRANCH   2   3
ATOM      3  C   UNL     1     120.935 123.126 123.500  1.00  0.00     0.027 C 
BRANCH   3   4
ATOM      4  C   UNL     1     121.876 122.003 123.148  1.00  0.00    -0.025 C 
ATOM      5  C   UNL     1     123.186 121.949 123.439  1.00  0.00     0.020 C 
BRANCH   5   6
ATOM      6  C   UNL     1     123.982 122.995 124.114  1.00  0.00     0.064 C 
ATOM      7  O   UNL     1     124.272 122.848 125.330  1.00  0.00    -0.545 OA
ATOM      8  O   UNL     1     124.449 124.120 123.446  1.00  0.00    -0.545 OA
ENDBRANCH   5   6
ENDBRANCH   3   4
ENDBRANCH   2   3
ENDBRANCH   1   2
BRANCH   1   9
ATOM      9  C   UNL     1     121.149 125.480 124.729  1.00  0.00     0.000 C 
BRANCH   9  10
ATOM     10  C   UNL     1     122.318 126.215 125.398  1.00  0.00     0.000 C 
BRANCH  10  11
ATOM     11  C   UNL     1     121.828 127.089 126.558  1.00  0.00    -0.000 C 
BRANCH  11  12
ATOM     12  C   UNL     1     121.032 126.257 127.575  1.00  0.00    -0.000 C 
BRANCH  12  13
ATOM     13  C   UNL     1     121.881 125.826 128.780  1.00  0.00    -0.003 C 
ATOM     14  C   UNL     1     121.054 125.148 129.873  1.00  0.00     0.004 C 
ENDBRANCH  12  13
ENDBRANCH  11  12
ENDBRANCH  10  11
ENDBRANCH   9  10
ENDBRANCH   1   9
TORSDOF 9
ENDMDL
MODEL 4
REMARK VINA RESULT:    -2.551      2.781      4.311
REMARK INTER + INTRA:          -5.411
REMARK INTER:                  -3.824
REMARK INTRA:                  -1.587
REMARK UNBOUND:                -1.517
REMARK SMILES CCCCCCCCCC=CC(=O)[O-]
REMARK SMILES IDX 7 1 8 2 9 3 10 4 11 5 12 6 13 7 14 8 6 9 5 10 4 11 3 12 2 13
REMARK SMILES IDX 1 14
REMARK H PARENT
REMARK Flexibility Score: inf
ROOT
ATOM      1  C   UNL     1     121.382 125.361 124.708  1.00  0.00     0.000 C 
ENDROOT
BRANCH   1   2
ATOM      2  C   UNL     1     121.021 126.012 123.364  1.00  0.00     0.004 C 
BRANCH   2   3
ATOM      3  C   UNL     1     120.890 124.975 122.237  1.00  0.00     0.027 C 
BRANCH   3   4
ATOM      4  C   UNL     1     122.228 124.467 121.767  1.00  0.00    -0.025 C 
ATOM      5  C   UNL     1     122.659 123.197 121.830  1.00  0.00     0.020 C 
BRANCH   5   6
ATOM      6  C   UNL     1     121.935 122.050 122.417  1.00  0.00     0.064 C 
ATOM      7  O   UNL     1     121.886 121.938 123.669  1.00  0.00    -0.545 OA
ATOM      8  O   UNL     1     121.281 121.107 121.634  1.00  0.00    -0.545 OA
ENDBRANCH   5   6
ENDBRANCH   3   4
ENDBRANCH   2   3
ENDBRANCH   1   2
BRANCH   1   9
ATOM      9  C   UNL     1     122.660 125.976 125.290  1.00  0.00     0.000 C 
BRANCH   9  10
ATOM     10  C   UNL     1     123.797 124.947 125.330  1.00  0.00     0.000 C 
BRANCH  10  11
ATOM     11  C   UNL     1     124.800 125.190 124.196  1.00  0.00    -0.000 C 
BRANCH  11  12
ATOM     12  C   UNL     1     124.683 126.623 123.655  1.00  0.00    -0.000 C 
BRANCH  12  13
ATOM     13  C   UNL     1     125.287 126.776 122.252  1.00  0.00    -0.003 C 
ATOM     14  C   UNL     1     125.765 125.448 121.665  1.00  0.00     0.004 C 
ENDBRANCH  12  13
ENDBRANCH  11  12
ENDBRANCH  10  11
ENDBRANCH   9  10
ENDBRANCH   1   9
TORSDOF 9
ENDMDL
MODEL 5
REMARK VINA RESULT:    -2.532      2.627      5.054
REMARK INTER + INTRA:          -5.381
REMARK INTER:                  -3.845
REMARK INTRA:                  -1.535
REMARK UNBOUND:                -1.517
REMARK SMILES CCCCCCCCCC=CC(=O)[O-]
REMARK SMILES IDX 7 1 8 2 9 3 10 4 11 5 12 6 13 7 14 8 6 9 5 10 4 11 3 12 2 13
REMARK SMILES IDX 1 14
REMARK H PARENT
REMARK Flexibility Score: inf
ROOT
ATOM      1  C   UNL     1     124.789 124.281 123.954  1.00  0.00     0.000 C 
ENDROOT
BRANCH   1   2
ATOM      2  C   UNL     1     124.287 125.313 122.934  1.00  0.00     0.004 C 
BRANCH   2   3
ATOM      3  C   UNL     1     123.446 124.665 121.822  1.00  0.00     0.027 C 
BRANCH   3   4
ATOM      4  C   UNL     1     121.971 124.700 122.126  1.00  0.00    -0.025 C 
ATOM      5  C   UNL     1     121.207 123.647 122.461  1.00  0.00     0.020 C 
BRANCH   5   6
ATOM      6  C   UNL     1     121.641 122.237 122.548  1.00  0.00     0.064 C 
ATOM      7  O   UNL     1     121.690 121.549 121.495  1.00  0.00    -0.545 OA
ATOM      8  O   UNL     1     122.026 121.652 123.748  1.00  0.00    -0.545 OA
ENDBRANCH   5   6
ENDBRANCH   3   4
ENDBRANCH   2   3
ENDBRANCH   1   2
BRANCH   1   9
ATOM      9  C   UNL     1     123.873 124.235 125.183  1.00  0.00     0.000 C 
BRANCH   9  10
ATOM     10  C   UNL     1     123.493 125.649 125.639  1.00  0.00     0.000 C 
BRANCH  10  11
ATOM     11  C   UNL     1     121.972 125.840 125.629  1.00  0.00    -0.000 C 
BRANCH  11  12
ATOM     12  C   UNL     1     121.605 127.326 125.496  1.00  0.00    -0.000 C 
BRANCH  12  13
ATOM     13  C   UNL     1     121.599 127.806 124.037  1.00  0.00    -0.003 C 
ATOM     14  C   UNL     1     122.774 128.730 123.714  1.00  0.00     0.004 C 
ENDBRANCH  12  13
ENDBRANCH  11  12
ENDBRANCH  10  11
ENDBRANCH   9  10
ENDBRANCH   1   9
TORSDOF 9
ENDMDL
MODEL 6
REMARK VINA RESULT:    -2.491      2.112      4.049
REMARK INTER + INTRA:          -5.318
REMARK INTER:                  -3.855
REMARK INTRA:                  -1.463
REMARK UNBOUND:                -1.517
REMARK SMILES CCCCCCCCCC=CC(=O)[O-]
REMARK SMILES IDX 7 1 8 2 9 3 10 4 11 5 12 6 13 7 14 8 6 9 5 10 4 11 3 12 2 13
REMARK SMILES IDX 1 14
REMARK H PARENT
REMARK Flexibility Score: inf
ROOT
ATOM      1  C   UNL     1     122.314 121.713 123.521  1.00  0.00     0.000 C 
ENDROOT
BRANCH   1   2
ATOM      2  C   UNL     1     123.701 121.830 122.871  1.00  0.00     0.004 C 
BRANCH   2   3
ATOM      3  C   UNL     1     124.788 122.204 123.892  1.00  0.00     0.027 C 
BRANCH   3   4
ATOM      4  C   UNL     1     124.268 123.111 124.976  1.00  0.00    -0.025 C 
ATOM      5  C   UNL     1     124.434 124.442 125.039  1.00  0.00     0.020 C 
BRANCH   5   6
ATOM      6  C   UNL     1     125.201 125.281 124.095  1.00  0.00     0.064 C 
ATOM      7  O   UNL     1     124.664 125.619 123.008  1.00  0.00    -0.545 OA
ATOM      8  O   UNL     1     126.483 125.735 124.378  1.00  0.00    -0.545 OA
ENDBRANCH   5   6
ENDBRANCH   3   4
ENDBRANCH   2   3
ENDBRANCH   1   2
BRANCH   1   9
ATOM      9  C   UNL     1     121.266 122.498 122.724  1.00  0.00     0.000 C 
BRANCH   9  10
ATOM     10  C   UNL     1     121.890 123.732 122.060  1.00  0.00     0.000 C 
BRANCH  10  11
ATOM     11  C   UNL     1     121.065 124.991 122.351  1.00  0.00    -0.000 C 
BRANCH  11  12
ATOM     12  C   UNL     1     120.990 125.263 123.860  1.00  0.00    -0.000 C 
BRANCH  12  13
ATOM     13  C   UNL     1     121.519 126.655 124.237  1.00  0.00    -0.003 C 
ATOM     14  C   UNL     1     121.663 126.844 125.748  1.00  0.00     0.004 C 
ENDBRANCH  12  13
ENDBRANCH  11  12
ENDBRANCH  10  11
ENDBRANCH   9  10
ENDBRANCH   1   9
TORSDOF 9
ENDMDL
MODEL 7
REMARK VINA RESULT:    -2.481     12.119     13.492
REMARK INTER + INTRA:          -5.304
REMARK INTER:                  -4.164
REMARK INTRA:                  -1.140
REMARK UNBOUND:                -1.517
REMARK SMILES CCCCCCCCCC=CC(=O)[O-]
REMARK SMILES IDX 7 1 8 2 9 3 10 4 11 5 12 6 13 7 14 8 6 9 5 10 4 11 3 12 2 13
REMARK SMILES IDX 1 14
REMARK H PARENT
REMARK Flexibility Score: inf
ROOT
ATOM      1  C   UNL     1     123.924 123.884 135.339  1.00  0.00     0.000 C 
ENDROOT
BRANCH   1   2
ATOM      2  C   UNL     1     123.851 123.914 136.872  1.00  0.00     0.004 C 
BRANCH   2   3
ATOM      3  C   UNL     1     123.318 125.256 137.399  1.00  0.00     0.027 C 
BRANCH   3   4
ATOM      4  C   UNL     1     121.845 125.430 137.137  1.00  0.00    -0.025 C 
ATOM      5  C   UNL     1     120.875 125.464 138.066  1.00  0.00     0.020 C 
BRANCH   5   6
ATOM      6  C   UNL     1     121.044 125.289 139.523  1.00  0.00     0.064 C 
ATOM      7  O   UNL     1     121.082 124.122 139.995  1.00  0.00    -0.545 OA
ATOM      8  O   UNL     1     121.194 126.366 140.388  1.00  0.00    -0.545 OA
ENDBRANCH   5   6
ENDBRANCH   3   4
ENDBRANCH   2   3
ENDBRANCH   1   2
BRANCH   1   9
ATOM      9  C   UNL     1     123.370 122.565 134.788  1.00  0.00     0.000 C 
BRANCH   9  10
ATOM     10  C   UNL     1     122.194 122.817 133.835  1.00  0.00     0.000 C 
BRANCH  10  11
ATOM     11  C   UNL     1     122.690 123.268 132.457  1.00  0.00    -0.000 C 
BRANCH  11  12
ATOM     12  C   UNL     1     121.952 124.533 131.994  1.00  0.00    -0.000 C 
BRANCH  12  13
ATOM     13  C   UNL     1     121.259 125.270 133.150  1.00  0.00    -0.003 C 
ATOM     14  C   UNL     1     121.972 126.566 133.537  1.00  0.00     0.004 C 
ENDBRANCH  12  13
ENDBRANCH  11  12
ENDBRANCH  10  11
ENDBRANCH   9  10
ENDBRANCH   1   9
TORSDOF 9
ENDMDL
MODEL 8
REMARK VINA RESULT:    -2.468      9.823     11.204
REMARK INTER + INTRA:          -5.283
REMARK INTER:                  -4.281
REMARK INTRA:                  -1.003
REMARK UNBOUND:                -1.517
REMARK SMILES CCCCCCCCCC=CC(=O)[O-]
REMARK SMILES IDX 7 1 8 2 9 3 10 4 11 5 12 6 13 7 14 8 6 9 5 10 4 11 3 12 2 13
REMARK SMILES IDX 1 14
REMARK H PARENT
REMARK Flexibility Score: inf
ROOT
ATOM      1  C   UNL     1     123.497 123.237 133.750  1.00  0.00     0.000 C 
ENDROOT
BRANCH   1   2
ATOM      2  C   UNL     1     121.974 123.042 133.704  1.00  0.00     0.004 C 
BRANCH   2   3
ATOM      3  C   UNL     1     121.223 124.197 134.385  1.00  0.00     0.027 C 
BRANCH   3   4
ATOM      4  C   UNL     1     122.104 125.399 134.611  1.00  0.00    -0.025 C 
ATOM      5  C   UNL     1     122.492 125.882 135.802  1.00  0.00     0.020 C 
BRANCH   5   6
ATOM      6  C   UNL     1     122.097 125.371 137.131  1.00  0.00     0.064 C 
ATOM      7  O   UNL     1     120.887 125.429 137.470  1.00  0.00    -0.545 OA
ATOM      8  O   UNL     1     123.012 124.801 138.008  1.00  0.00    -0.545 OA
ENDBRANCH   5   6
ENDBRANCH   3   4
ENDBRANCH   2   3
ENDBRANCH   1   2
BRANCH   1   9
ATOM      9  C   UNL     1     124.066 123.449 132.342  1.00  0.00     0.000 C 
BRANCH   9  10
ATOM     10  C   UNL     1     123.012 123.140 131.271  1.00  0.00     0.000 C 
BRANCH  10  11
ATOM     11  C   UNL     1     122.744 124.367 130.392  1.00  0.00    -0.000 C 
BRANCH  11  12
ATOM     12  C   UNL     1     121.240 124.670 130.315  1.00  0.00    -0.000 C 
BRANCH  12  13
ATOM     13  C   UNL     1     120.946 126.169 130.153  1.00  0.00    -0.003 C 
ATOM     14  C   UNL     1     120.990 126.927 131.480  1.00  0.00     0.004 C 
ENDBRANCH  12  13
ENDBRANCH  11  12
ENDBRANCH  10  11
ENDBRANCH   9  10
ENDBRANCH   1   9
TORSDOF 9
ENDMDL
MODEL 9
REMARK VINA RESULT:    -1.290      3.136      4.568
REMARK INTER + INTRA:          -3.485
REMARK INTER:                  -2.472
REMARK INTRA:                  -1.014
REMARK UNBOUND:                -1.517
REMARK SMILES CCCCCCCCCC=CC(=O)[O-]
REMARK SMILES IDX 7 1 8 2 9 3 10 4 11 5 12 6 13 7 14 8 6 9 5 10 4 11 3 12 2 13
REMARK SMILES IDX 1 14
REMARK H PARENT
REMARK Flexibility Score: inf
ROOT
ATOM      1  C   UNL     1     121.565 125.585 124.626  1.00  0.00     0.000 C 
ENDROOT
BRANCH   1   2
ATOM      2  C   UNL     1     122.926 125.835 125.293  1.00  0.00     0.004 C 
BRANCH   2   3
ATOM      3  C   UNL     1     122.781 126.235 126.771  1.00  0.00     0.027 C 
BRANCH   3   4
ATOM      4  C   UNL     1     121.340 126.331 127.199  1.00  0.00    -0.025 C 
ATOM      5  C   UNL     1     120.875 126.180 128.450  1.00  0.00     0.020 C 
BRANCH   5   6
ATOM      6  C   UNL     1     121.668 125.839 129.649  1.00  0.00     0.064 C 
ATOM      7  O   UNL     1     122.130 126.771 130.358  1.00  0.00    -0.545 OA
ATOM      8  O   UNL     1     121.895 124.525 130.040  1.00  0.00    -0.545 OA
ENDBRANCH   5   6
ENDBRANCH   3   4
ENDBRANCH   2   3
ENDBRANCH   1   2
BRANCH   1   9
ATOM      9  C   UNL     1     121.673 125.692 123.101  1.00  0.00     0.000 C 
BRANCH   9  10
ATOM     10  C   UNL     1     121.182 124.407 122.423  1.00  0.00     0.000 C 
BRANCH  10  11
ATOM     11  C   UNL     1     120.883 123.317 123.458  1.00  0.00    -0.000 C 
BRANCH  11  12
ATOM     12  C   UNL     1     121.636 122.021 123.126  1.00  0.00    -0.000 C 
BRANCH  12  13
ATOM     13  C   UNL     1     123.132 122.256 122.866  1.00  0.00    -0.003 C 
ATOM     14  C   UNL     1     123.926 122.494 124.151  1.00  0.00     0.004 C 
ENDBRANCH  12  13
ENDBRANCH  11  12
ENDBRANCH  10  11
ENDBRANCH   9  10
ENDBRANCH   1   9
TORSDOF 9
ENDMDL
