MODEL 1
REMARK VINA RESULT:    -2.722      0.000      0.000
REMARK INTER + INTRA:          -4.439
REMARK INTER:                  -4.154
REMARK INTRA:                  -0.284
REMARK UNBOUND:                -0.284
REMARK SMILES CCCCCCCCCCC(=O)[O-]
REMARK SMILES IDX 7 1 8 2 9 3 10 4 11 5 12 6 13 7 6 8 5 9 4 10 3 11 2 12 1 13
REMARK H PARENT
REMARK Flexibility Score: inf
ROOT
ATOM      1  C   UNL     1       4.871   8.039 -10.300  1.00  0.00     0.000 C 
ENDROOT
BRANCH   1   2
ATOM      2  C   UNL     1       4.053   7.254 -11.341  1.00  0.00     0.000 C 
BRANCH   2   3
ATOM      3  C   UNL     1       4.669   7.311 -12.749  1.00  0.00     0.006 C 
BRANCH   3   4
ATOM      4  C   UNL     1       3.722   7.957 -13.770  1.00  0.00     0.053 C 
BRANCH   4   5
ATOM      5  C   UNL     1       2.338   7.389 -13.685  1.00  0.00     0.041 C 
ATOM      6  O   UNL     1       2.100   6.234 -14.125  1.00  0.00    -0.550 OA
ATOM      7  O   UNL     1       1.319   8.125 -13.093  1.00  0.00    -0.550 OA
ENDBRANCH   4   5
ENDBRANCH   3   4
ENDBRANCH   2   3
ENDBRANCH   1   2
BRANCH   1   8
ATOM      8  C   UNL     1       4.468   7.793  -8.832  1.00  0.00     0.000 C 
BRANCH   8   9
ATOM      9  C   UNL     1       4.407   6.311  -8.410  1.00  0.00    -0.000 C 
BRANCH   9  10
ATOM     10  C   UNL     1       3.955   6.067  -6.957  1.00  0.00    -0.000 C 
BRANCH  10  11
ATOM     11  C   UNL     1       2.614   6.723  -6.573  1.00  0.00    -0.000 C 
BRANCH  11  12
ATOM     12  C   UNL     1       2.733   8.125  -5.949  1.00  0.00    -0.003 C 
ATOM     13  C   UNL     1       3.473   8.121  -4.612  1.00  0.00     0.004 C 
ENDBRANCH  11  12
ENDBRANCH  10  11
ENDBRANCH   9  10
ENDBRANCH   8   9
ENDBRANCH   1   8
TORSDOF 9
ENDMDL
MODEL 2
REMARK VINA RESULT:    -1.643     21.837     23.117
REMARK INTER + INTRA:          -2.791
REMARK INTER:                  -2.450
REMARK INTRA:                  -0.341
REMARK UNBOUND:                -0.284
REMARK SMILES CCCCCCCCCCC(=O)[O-]
REMARK SMILES IDX 7 1 8 2 9 3 10 4 11 5 12 6 13 7 6 8 5 9 4 10 3 11 2 12 1 13
REMARK H PARENT
REMARK Flexibility Score: inf
ROOT
ATOM      1  C   UNL     1     -10.565 -11.299  -5.500  1.00  0.00     0.000 C 
ENDROOT
BRANCH   1   2
ATOM      2  C   UNL     1     -10.782 -12.074  -6.812  1.00  0.00     0.000 C 
BRANCH   2   3
ATOM      3  C   UNL     1     -10.774 -11.163  -8.051  1.00  0.00     0.006 C 
BRANCH   3   4
ATOM      4  C   UNL     1     -10.702 -11.964  -9.359  1.00  0.00     0.053 C 
BRANCH   4   5
ATOM      5  C   UNL     1     -10.145 -11.147 -10.485  1.00  0.00     0.041 C 
ATOM      6  O   UNL     1     -10.656 -10.033 -10.770  1.00  0.00    -0.550 OA
ATOM      7  O   UNL     1      -9.044 -11.604 -11.199  1.00  0.00    -0.550 OA
ENDBRANCH   4   5
ENDBRANCH   3   4
ENDBRANCH   2   3
ENDBRANCH   1   2
BRANCH   1   8
ATOM      8  C   UNL     1     -11.124 -11.984  -4.237  1.00  0.00     0.000 C 
BRANCH   8   9
ATOM      9  C   UNL     1     -11.034 -11.145  -2.946  1.00  0.00    -0.000 C 
BRANCH   9  10
ATOM     10  C   UNL     1     -11.029  -9.619  -3.162  1.00  0.00    -0.000 C 
BRANCH  10  11
ATOM     11  C   UNL     1     -10.979  -8.777  -1.871  1.00  0.00    -0.000 C 
BRANCH  11  12
ATOM     12  C   UNL     1      -9.568  -8.359  -1.424  1.00  0.00    -0.003 C 
ATOM     13  C   UNL     1      -8.569  -8.304  -2.578  1.00  0.00     0.004 C 
ENDBRANCH  11  12
ENDBRANCH  10  11
ENDBRANCH   9  10
ENDBRANCH   8   9
ENDBRANCH   1   8
TORSDOF 9
ENDMDL
MODEL 3
REMARK VINA RESULT:    -1.269     20.950     22.946
REMARK INTER + INTRA:          -2.221
REMARK INTER:                  -3.327
REMARK INTRA:                   1.106
REMARK UNBOUND:                -0.284
REMARK SMILES CCCCCCCCCCC(=O)[O-]
REMARK SMILES IDX 7 1 8 2 9 3 10 4 11 5 12 6 13 7 6 8 5 9 4 10 3 11 2 12 1 13
REMARK H PARENT
REMARK Flexibility Score: inf
ROOT
ATOM      1  C   UNL     1     -10.210  -7.541  -2.273  1.00  0.00     0.000 C 
ENDROOT
BRANCH   1   2
ATOM      2  C   UNL     1      -8.743  -7.944  -2.038  1.00  0.00     0.000 C 
BRANCH   2   3
ATOM      3  C   UNL     1      -8.418  -8.176  -0.553  1.00  0.00     0.006 C 
BRANCH   3   4
ATOM      4  C   UNL     1      -6.930  -8.475  -0.325  1.00  0.00     0.053 C 
BRANCH   4   5
ATOM      5  C   UNL     1      -6.244  -8.892  -1.590  1.00  0.00     0.041 C 
ATOM      6  O   UNL     1      -6.661  -8.475  -2.702  1.00  0.00    -0.550 OA
ATOM      7  O   UNL     1      -5.128  -9.718  -1.538  1.00  0.00    -0.550 OA
ENDBRANCH   4   5
ENDBRANCH   3   4
ENDBRANCH   2   3
ENDBRANCH   1   2
BRANCH   1   8
ATOM      8  C   UNL     1     -11.120  -8.665  -2.806  1.00  0.00     0.000 C 
BRANCH   8   9
ATOM      9  C   UNL     1     -10.839 -10.065  -2.222  1.00  0.00    -0.000 C 
BRANCH   9  10
ATOM     10  C   UNL     1     -11.124 -11.238  -3.181  1.00  0.00    -0.000 C 
BRANCH  10  11
ATOM     11  C   UNL     1     -11.107 -10.875  -4.679  1.00  0.00    -0.000 C 
BRANCH  11  12
ATOM     12  C   UNL     1     -10.553 -11.971  -5.606  1.00  0.00    -0.003 C 
ATOM     13  C   UNL     1     -10.561 -11.565  -7.079  1.00  0.00     0.004 C 
ENDBRANCH  11  12
ENDBRANCH  10  11
ENDBRANCH   9  10
ENDBRANCH   8   9
ENDBRANCH   1   8
TORSDOF 9
ENDMDL
MODEL 4
REMARK VINA RESULT:    -0.202     11.630     12.878
REMARK INTER + INTRA:          -0.593
REMARK INTER:                  -0.483
REMARK INTRA:                  -0.110
REMARK UNBOUND:                -0.284
REMARK SMILES CCCCCCCCCCC(=O)[O-]
REMARK SMILES IDX 7 1 8 2 9 3 10 4 11 5 12 6 13 7 6 8 5 9 4 10 3 11 2 12 1 13
REMARK H PARENT
REMARK Flexibility Score: inf
ROOT
ATOM      1  C   UNL     1       6.603  -3.781 -10.907  1.00  0.00     0.000 C 
ENDROOT
BRANCH   1   2
ATOM      2  C   UNL     1       5.560  -2.857 -11.561  1.00  0.00     0.000 C 
BRANCH   2   3
ATOM      3  C   UNL     1       6.140  -2.025 -12.717  1.00  0.00     0.006 C 
BRANCH   3   4
ATOM      4  C   UNL     1       5.423  -2.300 -14.046  1.00  0.00     0.053 C 
BRANCH   4   5
ATOM      5  C   UNL     1       3.977  -1.908 -13.990  1.00  0.00     0.041 C 
ATOM      6  O   UNL     1       3.654  -0.701 -13.849  1.00  0.00    -0.550 OA
ATOM      7  O   UNL     1       2.988  -2.875 -14.124  1.00  0.00    -0.550 OA
ENDBRANCH   4   5
ENDBRANCH   3   4
ENDBRANCH   2   3
ENDBRANCH   1   2
BRANCH   1   8
ATOM      8  C   UNL     1       6.861  -5.106 -11.652  1.00  0.00     0.000 C 
BRANCH   8   9
ATOM      9  C   UNL     1       7.205  -4.958 -13.148  1.00  0.00    -0.000 C 
BRANCH   9  10
ATOM     10  C   UNL     1       6.151  -5.531 -14.117  1.00  0.00    -0.000 C 
BRANCH  10  11
ATOM     11  C   UNL     1       5.097  -6.448 -13.465  1.00  0.00    -0.000 C 
BRANCH  11  12
ATOM     12  C   UNL     1       5.045  -7.879 -14.030  1.00  0.00    -0.003 C 
ATOM     13  C   UNL     1       3.625  -8.437 -14.108  1.00  0.00     0.004 C 
ENDBRANCH  11  12
ENDBRANCH  10  11
ENDBRANCH   9  10
ENDBRANCH   8   9
ENDBRANCH   1   8
TORSDOF 9
ENDMDL
