MODEL 1
REMARK VINA RESULT:    -2.363      0.000      0.000
REMARK INTER + INTRA:          -2.363
REMARK INTER:                  -2.363
REMARK INTRA:                   0.000
REMARK UNBOUND:                 0.000
REMARK SMILES CC(=O)[O-]
REMARK SMILES IDX 1 1 2 2 3 3 4 4
REMARK H PARENT
REMARK Flexibility Score: inf
ROOT
ATOM      1  C   UNL     1       9.433  36.278   0.707  1.00  0.00     0.063 C 
ATOM      2  C   UNL     1       9.788  37.705   0.958  1.00  0.00     0.038 C 
ATOM      3  O   UNL     1       8.900  38.595   0.899  1.00  0.00    -0.550 OA
ATOM      4  O   UNL     1      11.086  38.048   1.312  1.00  0.00    -0.550 OA
ENDROOT
TORSDOF 0
ENDMDL
MODEL 2
REMARK VINA RESULT:    -2.314      1.317      1.789
REMARK INTER + INTRA:          -2.314
REMARK INTER:                  -2.314
REMARK INTRA:                   0.000
REMARK UNBOUND:                 0.000
REMARK SMILES CC(=O)[O-]
REMARK SMILES IDX 1 1 2 2 3 3 4 4
REMARK H PARENT
REMARK Flexibility Score: inf
ROOT
ATOM      1  C   UNL     1      10.981  38.677   1.421  1.00  0.00     0.063 C 
ATOM      2  C   UNL     1       9.777  37.881   1.046  1.00  0.00     0.038 C 
ATOM      3  O   UNL     1       8.660  38.446   0.920  1.00  0.00    -0.550 OA
ATOM      4  O   UNL     1       9.896  36.523   0.781  1.00  0.00    -0.550 OA
ENDROOT
TORSDOF 0
ENDMDL
MODEL 3
REMARK VINA RESULT:    -2.165      1.232      2.461
REMARK INTER + INTRA:          -2.165
REMARK INTER:                  -2.165
REMARK INTRA:                   0.000
REMARK UNBOUND:                 0.000
REMARK SMILES CC(=O)[O-]
REMARK SMILES IDX 1 1 2 2 3 3 4 4
REMARK H PARENT
REMARK Flexibility Score: inf
ROOT
ATOM      1  C   UNL     1      10.876  39.515   1.066  1.00  0.00     0.063 C 
ATOM      2  C   UNL     1      10.074  38.259   1.023  1.00  0.00     0.038 C 
ATOM      3  O   UNL     1      10.651  37.140   1.060  1.00  0.00    -0.550 OA
ATOM      4  O   UNL     1       8.687  38.318   0.996  1.00  0.00    -0.550 OA
ENDROOT
TORSDOF 0
ENDMDL
MODEL 4
REMARK VINA RESULT:    -2.162      1.307      1.353
REMARK INTER + INTRA:          -2.162
REMARK INTER:                  -2.162
REMARK INTRA:                   0.000
REMARK UNBOUND:                 0.000
REMARK SMILES CC(=O)[O-]
REMARK SMILES IDX 1 1 2 2 3 3 4 4
REMARK H PARENT
REMARK Flexibility Score: inf
ROOT
ATOM      1  C   UNL     1       9.007  37.796   1.271  1.00  0.00     0.063 C 
ATOM      2  C   UNL     1      10.179  38.711   1.155  1.00  0.00     0.038 C 
ATOM      3  O   UNL     1      10.056  39.825   0.583  1.00  0.00    -0.550 OA
ATOM      4  O   UNL     1      11.395  38.360   1.727  1.00  0.00    -0.550 OA
ENDROOT
TORSDOF 0
ENDMDL
MODEL 5
REMARK VINA RESULT:    -2.078      8.548      8.992
REMARK INTER + INTRA:          -2.078
REMARK INTER:                  -2.078
REMARK INTRA:                   0.000
REMARK UNBOUND:                 0.000
REMARK SMILES CC(=O)[O-]
REMARK SMILES IDX 1 1 2 2 3 3 4 4
REMARK H PARENT
REMARK Flexibility Score: inf
ROOT
ATOM      1  C   UNL     1       5.526  38.343  -5.589  1.00  0.00     0.063 C 
ATOM      2  C   UNL     1       5.907  39.154  -6.780  1.00  0.00     0.038 C 
ATOM      3  O   UNL     1       7.086  39.117  -7.219  1.00  0.00    -0.550 OA
ATOM      4  O   UNL     1       4.949  39.911  -7.442  1.00  0.00    -0.550 OA
ENDROOT
TORSDOF 0
ENDMDL
MODEL 6
REMARK VINA RESULT:    -2.058      9.888     10.182
REMARK INTER + INTRA:          -2.058
REMARK INTER:                  -2.058
REMARK INTRA:                   0.000
REMARK UNBOUND:                 0.000
REMARK SMILES CC(=O)[O-]
REMARK SMILES IDX 1 1 2 2 3 3 4 4
REMARK H PARENT
REMARK Flexibility Score: inf
ROOT
ATOM      1  C   UNL     1       5.856  39.372  -7.130  1.00  0.00     0.063 C 
ATOM      2  C   UNL     1       4.503  39.986  -7.259  1.00  0.00     0.038 C 
ATOM      3  O   UNL     1       4.385  41.178  -7.646  1.00  0.00    -0.550 OA
ATOM      4  O   UNL     1       3.367  39.228  -7.005  1.00  0.00    -0.550 OA
ENDROOT
TORSDOF 0
ENDMDL
MODEL 7
REMARK VINA RESULT:    -2.011      8.290      8.665
REMARK INTER + INTRA:          -2.011
REMARK INTER:                  -2.011
REMARK INTRA:                   0.000
REMARK UNBOUND:                 0.000
REMARK SMILES CC(=O)[O-]
REMARK SMILES IDX 1 1 2 2 3 3 4 4
REMARK H PARENT
REMARK Flexibility Score: inf
ROOT
ATOM      1  C   UNL     1       4.551  39.760  -6.825  1.00  0.00     0.063 C 
ATOM      2  C   UNL     1       5.712  38.988  -6.297  1.00  0.00     0.038 C 
ATOM      3  O   UNL     1       6.808  38.994  -6.916  1.00  0.00    -0.550 OA
ATOM      4  O   UNL     1       5.605  38.306  -5.092  1.00  0.00    -0.550 OA
ENDROOT
TORSDOF 0
ENDMDL
MODEL 8
REMARK VINA RESULT:    -2.001      8.020      8.297
REMARK INTER + INTRA:          -2.001
REMARK INTER:                  -2.001
REMARK INTRA:                   0.000
REMARK UNBOUND:                 0.000
REMARK SMILES CC(=O)[O-]
REMARK SMILES IDX 1 1 2 2 3 3 4 4
REMARK H PARENT
REMARK Flexibility Score: inf
ROOT
ATOM      1  C   UNL     1      11.109  34.706   8.470  1.00  0.00     0.063 C 
ATOM      2  C   UNL     1      11.226  33.422   7.720  1.00  0.00     0.038 C 
ATOM      3  O   UNL     1      10.519  33.221   6.699  1.00  0.00    -0.550 OA
ATOM      4  O   UNL     1      12.154  32.467   8.115  1.00  0.00    -0.550 OA
ENDROOT
TORSDOF 0
ENDMDL
