MODEL 1
REMARK VINA RESULT:    -5.500      0.000      0.000
REMARK INTER + INTRA:          -6.227
REMARK INTER:                  -5.983
REMARK INTRA:                  -0.244
REMARK UNBOUND:                -0.244
REMARK SMILES O=C([O-])c1ccccc1O
REMARK SMILES IDX 4 1 9 2 5 3 8 4 6 5 7 6 2 7 1 8 3 9 10 10
REMARK H PARENT 10 11
REMARK Flexibility Score: inf
ROOT
ATOM      1  C   UNL     1       1.529  32.918  77.605  1.00  0.00     0.039 A 
ATOM      2  C   UNL     1       0.874  32.312  76.503  1.00  0.00     0.124 A 
ATOM      3  C   UNL     1       2.176  32.097  78.547  1.00  0.00     0.014 A 
ATOM      4  C   UNL     1       0.934  30.923  76.339  1.00  0.00     0.047 A 
ATOM      5  C   UNL     1       2.209  30.710  78.380  1.00  0.00     0.001 A 
ATOM      6  C   UNL     1       1.598  30.125  77.272  1.00  0.00     0.004 A 
ENDROOT
BRANCH   1   7
ATOM      7  C   UNL     1       1.593  34.386  77.783  1.00  0.00     0.075 C 
ATOM      8  O   UNL     1       0.597  35.101  77.496  1.00  0.00    -0.545 OA
ATOM      9  O   UNL     1       2.720  34.987  78.328  1.00  0.00    -0.545 OA
ENDBRANCH   1   7
BRANCH   2  10
ATOM     10  O   UNL     1       0.127  33.045  75.577  1.00  0.00    -0.507 OA
ATOM     11  H   UNL     1       0.322  34.009  75.343  1.00  0.00     0.293 HD
ENDBRANCH   2  10
TORSDOF 2
ENDMDL
MODEL 2
REMARK VINA RESULT:    -5.335      2.256      4.155
REMARK INTER + INTRA:          -6.048
REMARK INTER:                  -5.799
REMARK INTRA:                  -0.248
REMARK UNBOUND:                -0.244
REMARK SMILES O=C([O-])c1ccccc1O
REMARK SMILES IDX 4 1 9 2 5 3 8 4 6 5 7 6 2 7 1 8 3 9 10 10
REMARK H PARENT 10 11
REMARK Flexibility Score: inf
ROOT
ATOM      1  C   UNL     1       1.224  31.631  77.234  1.00  0.00     0.039 A 
ATOM      2  C   UNL     1       2.019  32.347  78.164  1.00  0.00     0.124 A 
ATOM      3  C   UNL     1       0.287  32.336  76.455  1.00  0.00     0.014 A 
ATOM      4  C   UNL     1       1.903  33.740  78.248  1.00  0.00     0.047 A 
ATOM      5  C   UNL     1       0.169  33.724  76.565  1.00  0.00     0.001 A 
ATOM      6  C   UNL     1       0.983  34.426  77.453  1.00  0.00     0.004 A 
ENDROOT
BRANCH   1   7
ATOM      7  C   UNL     1       1.368  30.174  77.020  1.00  0.00     0.075 C 
ATOM      8  O   UNL     1       1.483  29.399  78.006  1.00  0.00    -0.545 OA
ATOM      9  O   UNL     1       1.311  29.633  75.742  1.00  0.00    -0.545 OA
ENDBRANCH   1   7
BRANCH   2  10
ATOM     10  O   UNL     1       2.900  31.714  79.043  1.00  0.00    -0.507 OA
ATOM     11  H   UNL     1       3.499  30.945  78.772  1.00  0.00     0.293 HD
ENDBRANCH   2  10
TORSDOF 2
ENDMDL
MODEL 3
REMARK VINA RESULT:    -5.190      2.165      3.460
REMARK INTER + INTRA:          -5.889
REMARK INTER:                  -5.639
REMARK INTRA:                  -0.251
REMARK UNBOUND:                -0.244
REMARK SMILES O=C([O-])c1ccccc1O
REMARK SMILES IDX 4 1 9 2 5 3 8 4 6 5 7 6 2 7 1 8 3 9 10 10
REMARK H PARENT 10 11
REMARK Flexibility Score: inf
ROOT
ATOM      1  C   UNL     1       1.738  32.208  77.746  1.00  0.00     0.039 A 
ATOM      2  C   UNL     1       0.710  32.448  76.799  1.00  0.00     0.124 A 
ATOM      3  C   UNL     1       2.282  33.299  78.450  1.00  0.00     0.014 A 
ATOM      4  C   UNL     1       0.216  33.746  76.625  1.00  0.00     0.047 A 
ATOM      5  C   UNL     1       1.792  34.592  78.250  1.00  0.00     0.001 A 
ATOM      6  C   UNL     1       0.753  34.813  77.347  1.00  0.00     0.004 A 
ENDROOT
BRANCH   1   7
ATOM      7  C   UNL     1       2.234  30.849  78.053  1.00  0.00     0.075 C 
ATOM      8  O   UNL     1       2.481  30.520  79.244  1.00  0.00    -0.545 OA
ATOM      9  O   UNL     1       2.372  29.898  77.050  1.00  0.00    -0.545 OA
ENDBRANCH   1   7
BRANCH   2  10
ATOM     10  O   UNL     1       0.184  31.438  75.989  1.00  0.00    -0.507 OA
ATOM     11  H   UNL     1      -0.801  31.352  75.777  1.00  0.00     0.293 HD
ENDBRANCH   2  10
TORSDOF 2
ENDMDL
MODEL 4
REMARK VINA RESULT:    -5.047     13.496     14.873
REMARK INTER + INTRA:          -5.734
REMARK INTER:                  -5.481
REMARK INTRA:                  -0.253
REMARK UNBOUND:                -0.244
REMARK SMILES O=C([O-])c1ccccc1O
REMARK SMILES IDX 4 1 9 2 5 3 8 4 6 5 7 6 2 7 1 8 3 9 10 10
REMARK H PARENT 10 11
REMARK Flexibility Score: inf
ROOT
ATOM      1  C   UNL     1      12.855  35.635  85.503  1.00  0.00     0.039 A 
ATOM      2  C   UNL     1      13.032  34.539  86.385  1.00  0.00     0.124 A 
ATOM      3  C   UNL     1      12.602  36.910  86.043  1.00  0.00     0.014 A 
ATOM      4  C   UNL     1      13.014  34.753  87.768  1.00  0.00     0.047 A 
ATOM      5  C   UNL     1      12.566  37.103  87.427  1.00  0.00     0.001 A 
ATOM      6  C   UNL     1      12.782  36.028  88.287  1.00  0.00     0.004 A 
ENDROOT
BRANCH   1   7
ATOM      7  C   UNL     1      12.965  35.499  84.033  1.00  0.00     0.075 C 
ATOM      8  O   UNL     1      13.684  36.297  83.376  1.00  0.00    -0.545 OA
ATOM      9  O   UNL     1      12.336  34.455  83.367  1.00  0.00    -0.545 OA
ENDBRANCH   1   7
BRANCH   2  10
ATOM     10  O   UNL     1      13.190  33.228  85.932  1.00  0.00    -0.507 OA
ATOM     11  H   UNL     1      12.840  32.421  86.430  1.00  0.00     0.293 HD
ENDBRANCH   2  10
TORSDOF 2
ENDMDL
MODEL 5
REMARK VINA RESULT:    -4.887      3.596      4.437
REMARK INTER + INTRA:          -5.560
REMARK INTER:                  -5.311
REMARK INTRA:                  -0.249
REMARK UNBOUND:                -0.244
REMARK SMILES O=C([O-])c1ccccc1O
REMARK SMILES IDX 4 1 9 2 5 3 8 4 6 5 7 6 2 7 1 8 3 9 10 10
REMARK H PARENT 10 11
REMARK Flexibility Score: inf
ROOT
ATOM      1  C   UNL     1       2.356  29.145  79.133  1.00  0.00     0.039 A 
ATOM      2  C   UNL     1       3.106  29.746  78.090  1.00  0.00     0.124 A 
ATOM      3  C   UNL     1       2.545  27.778  79.407  1.00  0.00     0.014 A 
ATOM      4  C   UNL     1       4.060  28.990  77.398  1.00  0.00     0.047 A 
ATOM      5  C   UNL     1       3.486  27.032  78.692  1.00  0.00     0.001 A 
ATOM      6  C   UNL     1       4.249  27.639  77.697  1.00  0.00     0.004 A 
ENDROOT
BRANCH   1   7
ATOM      7  C   UNL     1       1.408  29.911  79.972  1.00  0.00     0.075 C 
ATOM      8  O   UNL     1       0.574  30.688  79.436  1.00  0.00    -0.545 OA
ATOM      9  O   UNL     1       1.376  29.735  81.350  1.00  0.00    -0.545 OA
ENDBRANCH   1   7
BRANCH   2  10
ATOM     10  O   UNL     1       2.910  31.069  77.689  1.00  0.00    -0.507 OA
ATOM     11  H   UNL     1       2.136  31.366  77.110  1.00  0.00     0.293 HD
ENDBRANCH   2  10
TORSDOF 2
ENDMDL
MODEL 6
REMARK VINA RESULT:    -4.831     14.524     16.109
REMARK INTER + INTRA:          -5.499
REMARK INTER:                  -5.291
REMARK INTRA:                  -0.208
REMARK UNBOUND:                -0.244
REMARK SMILES O=C([O-])c1ccccc1O
REMARK SMILES IDX 4 1 9 2 5 3 8 4 6 5 7 6 2 7 1 8 3 9 10 10
REMARK H PARENT 10 11
REMARK Flexibility Score: inf
ROOT
ATOM      1  C   UNL     1      12.896  36.189  87.032  1.00  0.00     0.039 A 
ATOM      2  C   UNL     1      12.852  35.965  88.431  1.00  0.00     0.124 A 
ATOM      3  C   UNL     1      13.107  37.498  86.558  1.00  0.00     0.014 A 
ATOM      4  C   UNL     1      13.079  37.029  89.311  1.00  0.00     0.047 A 
ATOM      5  C   UNL     1      13.311  38.554  87.451  1.00  0.00     0.001 A 
ATOM      6  C   UNL     1      13.307  38.318  88.824  1.00  0.00     0.004 A 
ENDROOT
BRANCH   1   7
ATOM      7  C   UNL     1      12.768  35.092  86.046  1.00  0.00     0.075 C 
ATOM      8  O   UNL     1      12.304  33.976  86.400  1.00  0.00    -0.545 OA
ATOM      9  O   UNL     1      13.091  35.295  84.710  1.00  0.00    -0.545 OA
ENDBRANCH   1   7
BRANCH   2  10
ATOM     10  O   UNL     1      12.552  34.718  88.983  1.00  0.00    -0.507 OA
ATOM     11  H   UNL     1      11.657  34.259  88.868  1.00  0.00     0.293 HD
ENDBRANCH   2  10
TORSDOF 2
ENDMDL
MODEL 7
REMARK VINA RESULT:    -4.827      3.630      4.402
REMARK INTER + INTRA:          -5.494
REMARK INTER:                  -5.247
REMARK INTRA:                  -0.247
REMARK UNBOUND:                -0.244
REMARK SMILES O=C([O-])c1ccccc1O
REMARK SMILES IDX 4 1 9 2 5 3 8 4 6 5 7 6 2 7 1 8 3 9 10 10
REMARK H PARENT 10 11
REMARK Flexibility Score: inf
ROOT
ATOM      1  C   UNL     1       0.950  30.667  79.535  1.00  0.00     0.039 A 
ATOM      2  C   UNL     1       1.866  31.160  78.571  1.00  0.00     0.124 A 
ATOM      3  C   UNL     1      -0.364  31.169  79.545  1.00  0.00     0.014 A 
ATOM      4  C   UNL     1       1.432  32.084  77.612  1.00  0.00     0.047 A 
ATOM      5  C   UNL     1      -0.776  32.107  78.594  1.00  0.00     0.001 A 
ATOM      6  C   UNL     1       0.119  32.556  77.623  1.00  0.00     0.004 A 
ENDROOT
BRANCH   1   7
ATOM      7  C   UNL     1       1.313  29.615  80.511  1.00  0.00     0.075 C 
ATOM      8  O   UNL     1       1.923  28.582  80.129  1.00  0.00    -0.545 OA
ATOM      9  O   UNL     1       1.048  29.778  81.865  1.00  0.00    -0.545 OA
ENDBRANCH   1   7
BRANCH   2  10
ATOM     10  O   UNL     1       3.212  30.788  78.554  1.00  0.00    -0.507 OA
ATOM     11  H   UNL     1       3.877  31.076  79.258  1.00  0.00     0.293 HD
ENDBRANCH   2  10
TORSDOF 2
ENDMDL
MODEL 8
REMARK VINA RESULT:    -4.826     13.975     15.215
REMARK INTER + INTRA:          -5.493
REMARK INTER:                  -5.244
REMARK INTRA:                  -0.249
REMARK UNBOUND:                -0.244
REMARK SMILES O=C([O-])c1ccccc1O
REMARK SMILES IDX 4 1 9 2 5 3 8 4 6 5 7 6 2 7 1 8 3 9 10 10
REMARK H PARENT 10 11
REMARK Flexibility Score: inf
ROOT
ATOM      1  C   UNL     1       7.075  29.437  91.199  1.00  0.00     0.039 A 
ATOM      2  C   UNL     1       6.910  28.845  89.921  1.00  0.00     0.124 A 
ATOM      3  C   UNL     1       8.296  30.066  91.506  1.00  0.00     0.014 A 
ATOM      4  C   UNL     1       7.934  28.949  88.972  1.00  0.00     0.047 A 
ATOM      5  C   UNL     1       9.316  30.143  90.554  1.00  0.00     0.001 A 
ATOM      6  C   UNL     1       9.131  29.595  89.286  1.00  0.00     0.004 A 
ENDROOT
BRANCH   1   7
ATOM      7  C   UNL     1       5.996  29.453  92.212  1.00  0.00     0.075 C 
ATOM      8  O   UNL     1       5.640  30.540  92.739  1.00  0.00    -0.545 OA
ATOM      9  O   UNL     1       5.317  28.289  92.547  1.00  0.00    -0.545 OA
ENDBRANCH   1   7
BRANCH   2  10
ATOM     10  O   UNL     1       5.770  28.118  89.571  1.00  0.00    -0.507 OA
ATOM     11  H   UNL     1       5.801  27.250  89.053  1.00  0.00     0.293 HD
ENDBRANCH   2  10
TORSDOF 2
ENDMDL
MODEL 9
REMARK VINA RESULT:    -4.671     15.042     16.142
REMARK INTER + INTRA:          -5.325
REMARK INTER:                  -5.077
REMARK INTRA:                  -0.248
REMARK UNBOUND:                -0.244
REMARK SMILES O=C([O-])c1ccccc1O
REMARK SMILES IDX 4 1 9 2 5 3 8 4 6 5 7 6 2 7 1 8 3 9 10 10
REMARK H PARENT 10 11
REMARK Flexibility Score: inf
ROOT
ATOM      1  C   UNL     1      13.117  35.530  87.615  1.00  0.00     0.039 A 
ATOM      2  C   UNL     1      12.957  36.636  86.742  1.00  0.00     0.124 A 
ATOM      3  C   UNL     1      13.315  35.770  88.988  1.00  0.00     0.014 A 
ATOM      4  C   UNL     1      12.936  37.935  87.265  1.00  0.00     0.047 A 
ATOM      5  C   UNL     1      13.313  37.074  89.491  1.00  0.00     0.001 A 
ATOM      6  C   UNL     1      13.113  38.153  88.632  1.00  0.00     0.004 A 
ENDROOT
BRANCH   1   7
ATOM      7  C   UNL     1      13.046  34.129  87.145  1.00  0.00     0.075 C 
ATOM      8  O   UNL     1      13.707  33.766  86.136  1.00  0.00    -0.545 OA
ATOM      9  O   UNL     1      12.307  33.181  87.842  1.00  0.00    -0.545 OA
ENDBRANCH   1   7
BRANCH   2  10
ATOM     10  O   UNL     1      12.854  36.491  85.357  1.00  0.00    -0.507 OA
ATOM     11  H   UNL     1      11.988  36.272  84.884  1.00  0.00     0.293 HD
ENDBRANCH   2  10
TORSDOF 2
ENDMDL
