MODEL 1
REMARK VINA RESULT:    -5.446      0.000      0.000
REMARK INTER + INTRA:          -5.605
REMARK INTER:                  -5.605
REMARK INTRA:                   0.000
REMARK UNBOUND:                 0.000
REMARK SMILES Oc1ccc2[nH]ccc2c1
REMARK SMILES IDX 3 1 4 2 5 3 9 4 8 5 7 6 6 7 10 8 2 9 1 11
REMARK H PARENT 6 10 1 12
REMARK Flexibility Score: inf
ROOT
ATOM      1  C   UNL     1       5.129 -26.129 -29.336  1.00  0.00     0.048 A 
ATOM      2  C   UNL     1       5.459 -26.726 -28.105  1.00  0.00     0.030 A 
ATOM      3  C   UNL     1       6.482 -26.149 -27.357  1.00  0.00     0.046 A 
ATOM      4  C   UNL     1       7.155 -25.039 -27.791  1.00  0.00     0.003 A 
ATOM      5  C   UNL     1       8.095 -24.724 -26.835  1.00  0.00     0.028 A 
ATOM      6  C   UNL     1       7.938 -25.687 -25.842  1.00  0.00     0.083 A 
ATOM      7  N   UNL     1       6.952 -26.556 -26.166  1.00  0.00    -0.361 N 
ATOM      8  C   UNL     1       6.854 -24.424 -29.005  1.00  0.00     0.056 A 
ATOM      9  C   UNL     1       5.824 -24.980 -29.788  1.00  0.00     0.116 A 
ATOM     10  H   UNL     1       6.626 -27.372 -25.602  1.00  0.00     0.166 HD
ENDROOT
BRANCH   9  11
ATOM     11  O   UNL     1       5.498 -24.390 -31.006  1.00  0.00    -0.508 OA
ATOM     12  H   UNL     1       5.473 -24.928 -31.864  1.00  0.00     0.293 HD
ENDBRANCH   9  11
TORSDOF 1
ENDMDL
MODEL 2
REMARK VINA RESULT:    -5.283     11.247     12.147
REMARK INTER + INTRA:          -5.438
REMARK INTER:                  -5.438
REMARK INTRA:                   0.000
REMARK UNBOUND:                 0.000
REMARK SMILES Oc1ccc2[nH]ccc2c1
REMARK SMILES IDX 3 1 4 2 5 3 9 4 8 5 7 6 6 7 10 8 2 9 1 11
REMARK H PARENT 6 10 1 12
REMARK Flexibility Score: inf
ROOT
ATOM      1  C   UNL     1       1.595 -33.411 -18.674  1.00  0.00     0.048 A 
ATOM      2  C   UNL     1       2.607 -34.347 -18.958  1.00  0.00     0.030 A 
ATOM      3  C   UNL     1       3.820 -33.865 -19.443  1.00  0.00     0.046 A 
ATOM      4  C   UNL     1       4.036 -32.528 -19.643  1.00  0.00     0.003 A 
ATOM      5  C   UNL     1       5.318 -32.383 -20.124  1.00  0.00     0.028 A 
ATOM      6  C   UNL     1       5.828 -33.677 -20.192  1.00  0.00     0.083 A 
ATOM      7  N   UNL     1       4.909 -34.578 -19.775  1.00  0.00    -0.361 N 
ATOM      8  C   UNL     1       3.055 -31.575 -19.374  1.00  0.00     0.056 A 
ATOM      9  C   UNL     1       1.816 -32.027 -18.881  1.00  0.00     0.116 A 
ATOM     10  H   UNL     1       5.026 -35.615 -19.723  1.00  0.00     0.166 HD
ENDROOT
BRANCH   9  11
ATOM     11  O   UNL     1       0.814 -31.102 -18.601  1.00  0.00    -0.508 OA
ATOM     12  H   UNL     1      -0.005 -31.356 -18.060  1.00  0.00     0.293 HD
ENDBRANCH   9  11
TORSDOF 1
ENDMDL
MODEL 3
REMARK VINA RESULT:    -5.147      0.811      2.186
REMARK INTER + INTRA:          -5.297
REMARK INTER:                  -5.297
REMARK INTRA:                   0.000
REMARK UNBOUND:                 0.000
REMARK SMILES Oc1ccc2[nH]ccc2c1
REMARK SMILES IDX 3 1 4 2 5 3 9 4 8 5 7 6 6 7 10 8 2 9 1 11
REMARK H PARENT 6 10 1 12
REMARK Flexibility Score: inf
ROOT
ATOM      1  C   UNL     1       6.859 -24.279 -29.197  1.00  0.00     0.048 A 
ATOM      2  C   UNL     1       7.263 -24.733 -27.929  1.00  0.00     0.030 A 
ATOM      3  C   UNL     1       6.604 -25.839 -27.395  1.00  0.00     0.046 A 
ATOM      4  C   UNL     1       5.595 -26.472 -28.069  1.00  0.00     0.003 A 
ATOM      5  C   UNL     1       5.159 -27.513 -27.279  1.00  0.00     0.028 A 
ATOM      6  C   UNL     1       5.949 -27.455 -26.135  1.00  0.00     0.083 A 
ATOM      7  N   UNL     1       6.830 -26.431 -26.210  1.00  0.00    -0.361 N 
ATOM      8  C   UNL     1       5.170 -26.047 -29.327  1.00  0.00     0.056 A 
ATOM      9  C   UNL     1       5.814 -24.932 -29.897  1.00  0.00     0.116 A 
ATOM     10  H   UNL     1       7.539 -26.160 -25.492  1.00  0.00     0.166 HD
ENDROOT
BRANCH   9  11
ATOM     11  O   UNL     1       5.415 -24.481 -31.152  1.00  0.00    -0.508 OA
ATOM     12  H   UNL     1       5.471 -23.501 -31.405  1.00  0.00     0.293 HD
ENDBRANCH   9  11
TORSDOF 1
ENDMDL
MODEL 4
REMARK VINA RESULT:    -5.139      2.523      3.578
REMARK INTER + INTRA:          -5.289
REMARK INTER:                  -5.289
REMARK INTRA:                   0.000
REMARK UNBOUND:                 0.000
REMARK SMILES Oc1ccc2[nH]ccc2c1
REMARK SMILES IDX 3 1 4 2 5 3 9 4 8 5 7 6 6 7 10 8 2 9 1 11
REMARK H PARENT 6 10 1 12
REMARK Flexibility Score: inf
ROOT
ATOM      1  C   UNL     1       6.630 -26.769 -26.767  1.00  0.00     0.048 A 
ATOM      2  C   UNL     1       5.726 -26.765 -27.845  1.00  0.00     0.030 A 
ATOM      3  C   UNL     1       5.861 -25.761 -28.803  1.00  0.00     0.046 A 
ATOM      4  C   UNL     1       6.834 -24.803 -28.710  1.00  0.00     0.003 A 
ATOM      5  C   UNL     1       6.698 -23.969 -29.798  1.00  0.00     0.028 A 
ATOM      6  C   UNL     1       5.619 -24.480 -30.513  1.00  0.00     0.083 A 
ATOM      7  N   UNL     1       5.111 -25.575 -29.901  1.00  0.00    -0.361 N 
ATOM      8  C   UNL     1       7.744 -24.777 -27.655  1.00  0.00     0.056 A 
ATOM      9  C   UNL     1       7.638 -25.777 -26.669  1.00  0.00     0.116 A 
ATOM     10  H   UNL     1       4.302 -26.153 -30.221  1.00  0.00     0.166 HD
ENDROOT
BRANCH   9  11
ATOM     11  O   UNL     1       8.531 -25.781 -25.601  1.00  0.00    -0.508 OA
ATOM     12  H   UNL     1       8.293 -26.209 -24.714  1.00  0.00     0.293 HD
ENDBRANCH   9  11
TORSDOF 1
ENDMDL
MODEL 5
REMARK VINA RESULT:    -5.130     11.833     12.793
REMARK INTER + INTRA:          -5.280
REMARK INTER:                  -5.280
REMARK INTRA:                   0.000
REMARK UNBOUND:                 0.000
REMARK SMILES Oc1ccc2[nH]ccc2c1
REMARK SMILES IDX 3 1 4 2 5 3 9 4 8 5 7 6 6 7 10 8 2 9 1 11
REMARK H PARENT 6 10 1 12
REMARK Flexibility Score: inf
ROOT
ATOM      1  C   UNL     1       1.342 -34.026 -19.442  1.00  0.00     0.048 A 
ATOM      2  C   UNL     1       2.010 -34.154 -20.674  1.00  0.00     0.030 A 
ATOM      3  C   UNL     1       3.402 -34.107 -20.667  1.00  0.00     0.046 A 
ATOM      4  C   UNL     1       4.112 -33.941 -19.507  1.00  0.00     0.003 A 
ATOM      5  C   UNL     1       5.449 -33.935 -19.838  1.00  0.00     0.028 A 
ATOM      6  C   UNL     1       5.481 -34.103 -21.220  1.00  0.00     0.083 A 
ATOM      7  N   UNL     1       4.228 -34.207 -21.721  1.00  0.00    -0.361 N 
ATOM      8  C   UNL     1       3.482 -33.810 -18.271  1.00  0.00     0.056 A 
ATOM      9  C   UNL     1       2.074 -33.854 -18.241  1.00  0.00     0.116 A 
ATOM     10  H   UNL     1       3.963 -34.339 -22.723  1.00  0.00     0.166 HD
ENDROOT
BRANCH   9  11
ATOM     11  O   UNL     1       1.413 -33.727 -17.023  1.00  0.00    -0.508 OA
ATOM     12  H   UNL     1       1.212 -34.533 -16.443  1.00  0.00     0.293 HD
ENDBRANCH   9  11
TORSDOF 1
ENDMDL
MODEL 6
REMARK VINA RESULT:    -5.079     11.162     12.228
REMARK INTER + INTRA:          -5.228
REMARK INTER:                  -5.228
REMARK INTRA:                   0.000
REMARK UNBOUND:                 0.000
REMARK SMILES Oc1ccc2[nH]ccc2c1
REMARK SMILES IDX 3 1 4 2 5 3 9 4 8 5 7 6 6 7 10 8 2 9 1 11
REMARK H PARENT 6 10 1 12
REMARK Flexibility Score: inf
ROOT
ATOM      1  C   UNL     1       5.290 -32.456 -20.511  1.00  0.00     0.048 A 
ATOM      2  C   UNL     1       4.249 -31.573 -20.168  1.00  0.00     0.030 A 
ATOM      3  C   UNL     1       3.182 -32.081 -19.430  1.00  0.00     0.046 A 
ATOM      4  C   UNL     1       3.133 -33.394 -19.045  1.00  0.00     0.003 A 
ATOM      5  C   UNL     1       1.963 -33.574 -18.341  1.00  0.00     0.028 A 
ATOM      6  C   UNL     1       1.347 -32.326 -18.335  1.00  0.00     0.083 A 
ATOM      7  N   UNL     1       2.096 -31.417 -19.002  1.00  0.00    -0.361 N 
ATOM      8  C   UNL     1       4.145 -34.295 -19.369  1.00  0.00     0.056 A 
ATOM      9  C   UNL     1       5.240 -33.815 -20.114  1.00  0.00     0.116 A 
ATOM     10  H   UNL     1       1.871 -30.408 -19.151  1.00  0.00     0.166 HD
ENDROOT
BRANCH   9  11
ATOM     11  O   UNL     1       6.270 -34.689 -20.455  1.00  0.00    -0.508 OA
ATOM     12  H   UNL     1       6.503 -35.484 -19.872  1.00  0.00     0.293 HD
ENDBRANCH   9  11
TORSDOF 1
ENDMDL
MODEL 7
REMARK VINA RESULT:    -4.978      1.737      1.928
REMARK INTER + INTRA:          -5.123
REMARK INTER:                  -5.123
REMARK INTRA:                   0.000
REMARK UNBOUND:                 0.000
REMARK SMILES Oc1ccc2[nH]ccc2c1
REMARK SMILES IDX 3 1 4 2 5 3 9 4 8 5 7 6 6 7 10 8 2 9 1 11
REMARK H PARENT 6 10 1 12
REMARK Flexibility Score: inf
ROOT
ATOM      1  C   UNL     1       5.165 -23.578 -28.678  1.00  0.00     0.048 A 
ATOM      2  C   UNL     1       5.131 -23.499 -27.274  1.00  0.00     0.030 A 
ATOM      3  C   UNL     1       6.244 -23.955 -26.570  1.00  0.00     0.046 A 
ATOM      4  C   UNL     1       7.342 -24.466 -27.211  1.00  0.00     0.003 A 
ATOM      5  C   UNL     1       8.255 -24.823 -26.244  1.00  0.00     0.028 A 
ATOM      6  C   UNL     1       7.647 -24.500 -25.034  1.00  0.00     0.083 A 
ATOM      7  N   UNL     1       6.419 -23.970 -25.239  1.00  0.00    -0.361 N 
ATOM      8  C   UNL     1       7.406 -24.560 -28.600  1.00  0.00     0.056 A 
ATOM      9  C   UNL     1       6.298 -24.107 -29.343  1.00  0.00     0.116 A 
ATOM     10  H   UNL     1       5.748 -23.642 -24.508  1.00  0.00     0.166 HD
ENDROOT
BRANCH   9  11
ATOM     11  O   UNL     1       6.330 -24.186 -30.732  1.00  0.00    -0.508 OA
ATOM     12  H   UNL     1       5.480 -24.263 -31.277  1.00  0.00     0.293 HD
ENDBRANCH   9  11
TORSDOF 1
ENDMDL
MODEL 8
REMARK VINA RESULT:    -4.951     10.539     11.538
REMARK INTER + INTRA:          -5.096
REMARK INTER:                  -5.096
REMARK INTRA:                   0.000
REMARK UNBOUND:                 0.000
REMARK SMILES Oc1ccc2[nH]ccc2c1
REMARK SMILES IDX 3 1 4 2 5 3 9 4 8 5 7 6 6 7 10 8 2 9 1 11
REMARK H PARENT 6 10 1 12
REMARK Flexibility Score: inf
ROOT
ATOM      1  C   UNL     1       5.590 -33.048 -20.319  1.00  0.00     0.048 A 
ATOM      2  C   UNL     1       4.807 -33.741 -19.378  1.00  0.00     0.030 A 
ATOM      3  C   UNL     1       3.550 -33.224 -19.071  1.00  0.00     0.046 A 
ATOM      4  C   UNL     1       3.079 -32.079 -19.657  1.00  0.00     0.003 A 
ATOM      5  C   UNL     1       1.823 -31.839 -19.145  1.00  0.00     0.028 A 
ATOM      6  C   UNL     1       1.592 -32.880 -18.250  1.00  0.00     0.083 A 
ATOM      7  N   UNL     1       2.649 -33.723 -18.209  1.00  0.00    -0.361 N 
ATOM      8  C   UNL     1       3.829 -31.368 -20.592  1.00  0.00     0.056 A 
ATOM      9  C   UNL     1       5.105 -31.863 -20.927  1.00  0.00     0.116 A 
ATOM     10  H   UNL     1       2.742 -34.584 -17.624  1.00  0.00     0.166 HD
ENDROOT
BRANCH   9  11
ATOM     11  O   UNL     1       5.881 -31.178 -21.857  1.00  0.00    -0.508 OA
ATOM     12  H   UNL     1       5.961 -31.496 -22.816  1.00  0.00     0.293 HD
ENDBRANCH   9  11
TORSDOF 1
ENDMDL
MODEL 9
REMARK VINA RESULT:    -4.925      2.693      4.169
REMARK INTER + INTRA:          -5.069
REMARK INTER:                  -5.069
REMARK INTRA:                   0.000
REMARK UNBOUND:                 0.000
REMARK SMILES Oc1ccc2[nH]ccc2c1
REMARK SMILES IDX 3 1 4 2 5 3 9 4 8 5 7 6 6 7 10 8 2 9 1 11
REMARK H PARENT 6 10 1 12
REMARK Flexibility Score: inf
ROOT
ATOM      1  C   UNL     1       8.032 -25.694 -25.716  1.00  0.00     0.048 A 
ATOM      2  C   UNL     1       7.999 -24.886 -26.867  1.00  0.00     0.030 A 
ATOM      3  C   UNL     1       7.014 -25.149 -27.817  1.00  0.00     0.046 A 
ATOM      4  C   UNL     1       6.103 -26.157 -27.650  1.00  0.00     0.003 A 
ATOM      5  C   UNL     1       5.278 -26.156 -28.753  1.00  0.00     0.028 A 
ATOM      6  C   UNL     1       5.745 -25.117 -29.554  1.00  0.00     0.083 A 
ATOM      7  N   UNL     1       6.806 -24.506 -28.978  1.00  0.00    -0.361 N 
ATOM      8  C   UNL     1       6.109 -26.977 -26.523  1.00  0.00     0.056 A 
ATOM      9  C   UNL     1       7.090 -26.738 -25.541  1.00  0.00     0.116 A 
ATOM     10  H   UNL     1       7.348 -23.699 -29.360  1.00  0.00     0.166 HD
ENDROOT
BRANCH   9  11
ATOM     11  O   UNL     1       7.125 -27.537 -24.402  1.00  0.00    -0.508 OA
ATOM     12  H   UNL     1       7.888 -27.480 -23.738  1.00  0.00     0.293 HD
ENDBRANCH   9  11
TORSDOF 1
ENDMDL
