MODEL 1
REMARK VINA RESULT:    -3.867      0.000      0.000
REMARK INTER + INTRA:          -5.103
REMARK INTER:                  -5.449
REMARK INTRA:                   0.346
REMARK UNBOUND:                 0.346
REMARK SMILES CC1=CCC(=C(C)C)C(=O)CC(C)=CCC1
REMARK SMILES IDX 12 1 14 2 13 3 15 4 16 5 2 6 1 7 3 8 11 10 9 11 10 12 5 13
REMARK SMILES IDX 6 14 7 15 8 16 4 17
REMARK H PARENT
REMARK Flexibility Score: 60.00
ROOT
ATOM      1  C   UNL     1       0.730 -15.123   9.590  1.00  0.00    -0.070 C 
ATOM      2  C   UNL     1       1.725 -15.829  10.170  1.00  0.00    -0.027 C 
ATOM      3  C   UNL     1      -0.065 -15.791   8.497  1.00  0.00     0.039 C 
ENDROOT
BRANCH   2   4
ATOM      4  C   UNL     1       2.566 -15.370  11.342  1.00  0.00     0.032 C 
BRANCH   4   5
ATOM      5  C   UNL     1       4.012 -14.969  10.984  1.00  0.00     0.034 C 
BRANCH   5   6
ATOM      6  C   UNL     1       4.348 -15.190   9.520  1.00  0.00    -0.077 C 
ATOM      7  C   UNL     1       4.831 -16.558   9.110  1.00  0.00     0.039 C 
ATOM      8  C   UNL     1       4.177 -14.260   8.548  1.00  0.00    -0.023 CG0
ATOM      9  G   UNL     1       3.724 -12.824   8.726  1.00  0.00     0.000 G0
ENDBRANCH   5   6
ENDBRANCH   4   5
ENDBRANCH   2   4
BRANCH   1  10
ATOM     10  C   UNL     1       0.318 -13.738  10.046  1.00  0.00     0.111 C 
BRANCH  10  11
ATOM     11  C   UNL     1       1.434 -12.741   9.873  1.00  0.00     0.163 C 
ATOM     12  O   UNL     1       1.740 -12.015  10.857  1.00  0.00    -0.294 OA
BRANCH  11  13
ATOM     13  C   UNL     1       2.221 -12.630   8.609  1.00  0.00    -0.002 C 
ATOM     14  C   UNL     1       1.612 -12.297   7.432  1.00  0.00    -0.069 C 
ATOM     15  C   UNL     1       2.401 -12.022   6.171  1.00  0.00     0.039 C 
ATOM     16  C   UNL     1       0.107 -12.184   7.332  1.00  0.00     0.039 C 
BRANCH  13  17
ATOM     17  C   UNL     1       3.729 -12.808   8.711  1.00  0.00     0.066 CG0
ATOM     18  G   UNL     1       4.150 -14.255   8.547  1.00  0.00     0.000 G0
ENDBRANCH  13  17
ENDBRANCH  11  13
ENDBRANCH  10  11
ENDBRANCH   1  10
TORSDOF 0
ENDMDL
MODEL 2
REMARK VINA RESULT:    -3.184      1.971      4.266
REMARK INTER + INTRA:          -4.141
REMARK INTER:                  -4.315
REMARK INTRA:                   0.173
REMARK UNBOUND:                 0.346
REMARK SMILES CC1=CCC(=C(C)C)C(=O)CC(C)=CCC1
REMARK SMILES IDX 12 1 14 2 13 3 15 4 16 5 2 6 1 7 3 8 11 10 9 11 10 12 5 13
REMARK SMILES IDX 6 14 7 15 8 16 4 17
REMARK H PARENT
REMARK Flexibility Score: 60.00
ROOT
ATOM      1  C   UNL     1       0.720 -14.310   9.035  1.00  0.00    -0.070 C 
ATOM      2  C   UNL     1       1.409 -13.286   8.486  1.00  0.00    -0.027 C 
ATOM      3  C   UNL     1      -0.325 -14.992   8.189  1.00  0.00     0.039 C 
ENDROOT
BRANCH   2   4
ATOM      4  C   UNL     1       2.556 -12.544   9.137  1.00  0.00     0.032 C 
BRANCH   4   5
ATOM      5  C   UNL     1       3.961 -13.031   8.726  1.00  0.00     0.034 C 
BRANCH   5   6
ATOM      6  C   UNL     1       4.916 -13.155   9.900  1.00  0.00    -0.077 C 
ATOM      7  C   UNL     1       5.629 -11.909  10.359  1.00  0.00     0.039 C 
ATOM      8  C   UNL     1       5.118 -14.296  10.605  1.00  0.00    -0.023 CG0
ATOM      9  G   UNL     1       4.528 -15.664  10.317  1.00  0.00     0.000 G0
ENDBRANCH   5   6
ENDBRANCH   4   5
ENDBRANCH   2   4
BRANCH   1  10
ATOM     10  C   UNL     1       1.009 -14.861  10.417  1.00  0.00     0.111 C 
BRANCH  10  11
ATOM     11  C   UNL     1       1.996 -15.998  10.365  1.00  0.00     0.163 C 
ATOM     12  O   UNL     1       1.737 -16.976   9.613  1.00  0.00    -0.294 OA
BRANCH  11  13
ATOM     13  C   UNL     1       3.285 -15.977  11.119  1.00  0.00    -0.002 C 
ATOM     14  C   UNL     1       3.323 -16.291  12.449  1.00  0.00    -0.069 C 
ATOM     15  C   UNL     1       4.627 -16.432  13.202  1.00  0.00     0.039 C 
ATOM     16  C   UNL     1       2.052 -16.514  13.239  1.00  0.00     0.039 C 
BRANCH  13  17
ATOM     17  C   UNL     1       4.549 -15.689  10.325  1.00  0.00     0.066 CG0
ATOM     18  G   UNL     1       5.103 -14.305  10.607  1.00  0.00     0.000 G0
ENDBRANCH  13  17
ENDBRANCH  11  13
ENDBRANCH  10  11
ENDBRANCH   1  10
TORSDOF 0
ENDMDL
MODEL 3
REMARK VINA RESULT:    -3.081     14.591     16.442
REMARK INTER + INTRA:          -3.995
REMARK INTER:                  -4.173
REMARK INTRA:                   0.178
REMARK UNBOUND:                 0.346
REMARK SMILES CC1=CCC(=C(C)C)C(=O)CC(C)=CCC1
REMARK SMILES IDX 12 1 14 2 13 3 15 4 16 5 2 6 1 7 3 8 11 10 9 11 10 12 5 13
REMARK SMILES IDX 6 14 7 15 8 16 4 17
REMARK H PARENT
REMARK Flexibility Score: 60.00
ROOT
ATOM      1  C   UNL     1      -1.434 -30.751   8.746  1.00  0.00    -0.070 C 
ATOM      2  C   UNL     1      -0.138 -30.373   8.805  1.00  0.00    -0.027 C 
ATOM      3  C   UNL     1      -1.752 -32.088   8.128  1.00  0.00     0.039 C 
ENDROOT
BRANCH   2   4
ATOM      4  C   UNL     1       0.387 -29.119   9.470  1.00  0.00     0.032 C 
BRANCH   4   5
ATOM      5  C   UNL     1       0.534 -29.211  11.003  1.00  0.00     0.034 C 
BRANCH   5   6
ATOM      6  C   UNL     1       0.039 -27.970  11.725  1.00  0.00    -0.077 C 
ATOM      7  C   UNL     1       0.803 -26.688  11.519  1.00  0.00     0.039 C 
ATOM      8  C   UNL     1      -1.081 -27.925  12.488  1.00  0.00    -0.023 CG0
ATOM      9  G   UNL     1      -1.989 -29.086  12.847  1.00  0.00     0.000 G0
ENDBRANCH   5   6
ENDBRANCH   4   5
ENDBRANCH   2   4
BRANCH   1  10
ATOM     10  C   UNL     1      -2.564 -29.942   9.351  1.00  0.00     0.111 C 
BRANCH  10  11
ATOM     11  C   UNL     1      -2.827 -30.338  10.780  1.00  0.00     0.163 C 
ATOM     12  O   UNL     1      -2.759 -31.561  11.080  1.00  0.00    -0.294 OA
BRANCH  11  13
ATOM     13  C   UNL     1      -3.100 -29.336  11.853  1.00  0.00    -0.002 C 
ATOM     14  C   UNL     1      -4.321 -28.730  11.951  1.00  0.00    -0.069 C 
ATOM     15  C   UNL     1      -4.679 -27.833  13.115  1.00  0.00     0.039 C 
ATOM     16  C   UNL     1      -5.382 -28.930  10.892  1.00  0.00     0.039 C 
BRANCH  13  17
ATOM     17  C   UNL     1      -2.000 -29.097  12.877  1.00  0.00     0.066 CG0
ATOM     18  G   UNL     1      -1.086 -27.952  12.484  1.00  0.00     0.000 G0
ENDBRANCH  13  17
ENDBRANCH  11  13
ENDBRANCH  10  11
ENDBRANCH   1  10
TORSDOF 0
ENDMDL
MODEL 4
REMARK VINA RESULT:    -2.995      1.964      4.016
REMARK INTER + INTRA:          -3.875
REMARK INTER:                  -4.027
REMARK INTRA:                   0.152
REMARK UNBOUND:                 0.346
REMARK SMILES CC1=CCC(=C(C)C)C(=O)CC(C)=CCC1
REMARK SMILES IDX 12 1 14 2 13 3 15 4 16 5 2 6 1 7 3 8 11 10 9 11 10 12 5 13
REMARK SMILES IDX 6 14 7 15 8 16 4 17
REMARK H PARENT
REMARK Flexibility Score: 60.00
ROOT
ATOM      1  C   UNL     1       2.635 -12.617   8.434  1.00  0.00    -0.070 C 
ATOM      2  C   UNL     1       3.795 -13.185   8.037  1.00  0.00    -0.027 C 
ATOM      3  C   UNL     1       1.658 -12.188   7.368  1.00  0.00     0.039 C 
ENDROOT
BRANCH   2   4
ATOM      4  C   UNL     1       4.852 -13.765   8.950  1.00  0.00     0.032 C 
BRANCH   4   5
ATOM      5  C   UNL     1       4.689 -15.267   9.261  1.00  0.00     0.034 C 
BRANCH   5   6
ATOM      6  C   UNL     1       4.874 -15.597  10.732  1.00  0.00    -0.077 C 
ATOM      7  C   UNL     1       6.282 -15.644  11.268  1.00  0.00     0.039 C 
ATOM      8  C   UNL     1       3.856 -15.783  11.608  1.00  0.00    -0.023 CG0
ATOM      9  G   UNL     1       2.372 -15.799  11.294  1.00  0.00     0.000 G0
ENDBRANCH   5   6
ENDBRANCH   4   5
ENDBRANCH   2   4
BRANCH   1  10
ATOM     10  C   UNL     1       2.233 -12.477   9.888  1.00  0.00     0.111 C 
BRANCH  10  11
ATOM     11  C   UNL     1       1.380 -13.632  10.342  1.00  0.00     0.163 C 
ATOM     12  O   UNL     1       0.382 -13.947   9.638  1.00  0.00    -0.294 OA
BRANCH  11  13
ATOM     13  C   UNL     1       1.709 -14.447  11.550  1.00  0.00    -0.002 C 
ATOM     14  C   UNL     1       1.357 -14.019  12.799  1.00  0.00    -0.069 C 
ATOM     15  C   UNL     1       1.534 -14.890  14.023  1.00  0.00     0.039 C 
ATOM     16  C   UNL     1       0.768 -12.643  13.020  1.00  0.00     0.039 C 
BRANCH  13  17
ATOM     17  C   UNL     1       2.359 -15.802  11.318  1.00  0.00     0.066 CG0
ATOM     18  G   UNL     1       3.849 -15.781  11.600  1.00  0.00     0.000 G0
ENDBRANCH  13  17
ENDBRANCH  11  13
ENDBRANCH  10  11
ENDBRANCH   1  10
TORSDOF 0
ENDMDL
MODEL 5
REMARK VINA RESULT:    -2.984      2.358      3.872
REMARK INTER + INTRA:          -3.859
REMARK INTER:                  -4.379
REMARK INTRA:                   0.521
REMARK UNBOUND:                 0.346
REMARK SMILES CC1=CCC(=C(C)C)C(=O)CC(C)=CCC1
REMARK SMILES IDX 12 1 14 2 13 3 15 4 16 5 2 6 1 7 3 8 11 10 9 11 10 12 5 13
REMARK SMILES IDX 6 14 7 15 8 16 4 17
REMARK H PARENT
REMARK Flexibility Score: 60.00
ROOT
ATOM      1  C   UNL     1       4.306 -14.791   9.618  1.00  0.00    -0.070 C 
ATOM      2  C   UNL     1       5.133 -14.648  10.677  1.00  0.00    -0.027 C 
ATOM      3  C   UNL     1       4.288 -13.695   8.583  1.00  0.00     0.039 C 
ENDROOT
BRANCH   2   4
ATOM      4  C   UNL     1       5.363 -15.676  11.763  1.00  0.00     0.032 C 
BRANCH   4   5
ATOM      5  C   UNL     1       4.531 -15.464  13.044  1.00  0.00     0.034 C 
BRANCH   5   6
ATOM      6  C   UNL     1       3.224 -16.239  13.042  1.00  0.00    -0.077 C 
ATOM      7  C   UNL     1       3.216 -17.600  13.690  1.00  0.00     0.039 C 
ATOM      8  C   UNL     1       2.052 -15.760  12.557  1.00  0.00    -0.023 CG0
ATOM      9  G   UNL     1       1.828 -14.437  11.850  1.00  0.00     0.000 G0
ENDBRANCH   5   6
ENDBRANCH   4   5
ENDBRANCH   2   4
BRANCH   1  10
ATOM     10  C   UNL     1       3.473 -16.034   9.376  1.00  0.00     0.111 C 
BRANCH  10  11
ATOM     11  C   UNL     1       2.018 -15.795   9.683  1.00  0.00     0.163 C 
ATOM     12  O   UNL     1       1.194 -16.709   9.405  1.00  0.00    -0.294 OA
BRANCH  11  13
ATOM     13  C   UNL     1       1.533 -14.553  10.356  1.00  0.00    -0.002 C 
ATOM     14  C   UNL     1       0.779 -13.638   9.676  1.00  0.00    -0.069 C 
ATOM     15  C   UNL     1       0.142 -12.453  10.368  1.00  0.00     0.039 C 
ATOM     16  C   UNL     1       0.542 -13.768   8.188  1.00  0.00     0.039 C 
BRANCH  13  17
ATOM     17  C   UNL     1       1.833 -14.405  11.840  1.00  0.00     0.066 CG0
ATOM     18  G   UNL     1       2.039 -15.743  12.522  1.00  0.00     0.000 G0
ENDBRANCH  13  17
ENDBRANCH  11  13
ENDBRANCH  10  11
ENDBRANCH   1  10
TORSDOF 0
ENDMDL
MODEL 6
REMARK VINA RESULT:    -2.947      1.770      4.062
REMARK INTER + INTRA:          -3.807
REMARK INTER:                  -4.358
REMARK INTRA:                   0.551
REMARK UNBOUND:                 0.346
REMARK SMILES CC1=CCC(=C(C)C)C(=O)CC(C)=CCC1
REMARK SMILES IDX 12 1 14 2 13 3 15 4 16 5 2 6 1 7 3 8 11 10 9 11 10 12 5 13
REMARK SMILES IDX 6 14 7 15 8 16 4 17
REMARK H PARENT
REMARK Flexibility Score: 60.00
ROOT
ATOM      1  C   UNL     1       1.070 -15.538   9.707  1.00  0.00    -0.070 C 
ATOM      2  C   UNL     1       0.467 -14.366   9.410  1.00  0.00    -0.027 C 
ATOM      3  C   UNL     1       0.697 -16.750   8.891  1.00  0.00     0.039 C 
ENDROOT
BRANCH   2   4
ATOM      4  C   UNL     1       0.775 -13.027  10.046  1.00  0.00     0.032 C 
BRANCH   4   5
ATOM      5  C   UNL     1       1.222 -11.928   9.060  1.00  0.00     0.034 C 
BRANCH   5   6
ATOM      6  C   UNL     1       2.432 -12.325   8.233  1.00  0.00    -0.077 C 
ATOM      7  C   UNL     1       2.336 -12.182   6.735  1.00  0.00     0.039 C 
ATOM      8  C   UNL     1       3.615 -12.733   8.756  1.00  0.00    -0.023 CG0
ATOM      9  G   UNL     1       3.935 -12.967  10.220  1.00  0.00     0.000 G0
ENDBRANCH   5   6
ENDBRANCH   4   5
ENDBRANCH   2   4
BRANCH   1  10
ATOM     10  C   UNL     1       2.161 -15.670  10.749  1.00  0.00     0.111 C 
BRANCH  10  11
ATOM     11  C   UNL     1       3.531 -15.509  10.143  1.00  0.00     0.163 C 
ATOM     12  O   UNL     1       3.890 -16.334   9.259  1.00  0.00    -0.294 OA
BRANCH  11  13
ATOM     13  C   UNL     1       4.441 -14.382  10.505  1.00  0.00    -0.002 C 
ATOM     14  C   UNL     1       5.699 -14.624  10.980  1.00  0.00    -0.069 C 
ATOM     15  C   UNL     1       6.699 -13.511  11.206  1.00  0.00     0.039 C 
ATOM     16  C   UNL     1       6.158 -16.028  11.306  1.00  0.00     0.039 C 
BRANCH  13  17
ATOM     17  C   UNL     1       3.943 -12.971  10.231  1.00  0.00     0.066 CG0
ATOM     18  G   UNL     1       3.618 -12.749   8.767  1.00  0.00     0.000 G0
ENDBRANCH  13  17
ENDBRANCH  11  13
ENDBRANCH  10  11
ENDBRANCH   1  10
TORSDOF 0
ENDMDL
MODEL 7
REMARK VINA RESULT:    -2.748      2.521      3.727
REMARK INTER + INTRA:          -3.526
REMARK INTER:                  -3.692
REMARK INTRA:                   0.166
REMARK UNBOUND:                 0.346
REMARK SMILES CC1=CCC(=C(C)C)C(=O)CC(C)=CCC1
REMARK SMILES IDX 12 1 14 2 13 3 15 4 16 5 2 6 1 7 3 8 11 10 9 11 10 12 5 13
REMARK SMILES IDX 6 14 7 15 8 16 4 17
REMARK H PARENT
REMARK Flexibility Score: 60.00
ROOT
ATOM      1  C   UNL     1       2.352 -17.297  13.706  1.00  0.00    -0.070 C 
ATOM      2  C   UNL     1       3.568 -17.367  14.290  1.00  0.00    -0.027 C 
ATOM      3  C   UNL     1       1.142 -17.593  14.557  1.00  0.00     0.039 C 
ENDROOT
BRANCH   2   4
ATOM      4  C   UNL     1       4.885 -17.014  13.634  1.00  0.00     0.032 C 
BRANCH   4   5
ATOM      5  C   UNL     1       5.148 -15.502  13.479  1.00  0.00     0.034 C 
BRANCH   5   6
ATOM      6  C   UNL     1       5.621 -15.117  12.088  1.00  0.00    -0.077 C 
ATOM      7  C   UNL     1       6.930 -15.692  11.610  1.00  0.00     0.039 C 
ATOM      8  C   UNL     1       4.913 -14.348  11.225  1.00  0.00    -0.023 CG0
ATOM      9  G   UNL     1       3.591 -13.653  11.493  1.00  0.00     0.000 G0
ENDBRANCH   5   6
ENDBRANCH   4   5
ENDBRANCH   2   4
BRANCH   1  10
ATOM     10  C   UNL     1       2.142 -16.848  12.274  1.00  0.00     0.111 C 
BRANCH  10  11
ATOM     11  C   UNL     1       1.814 -15.381  12.195  1.00  0.00     0.163 C 
ATOM     12  O   UNL     1       1.082 -14.885  13.095  1.00  0.00    -0.294 OA
BRANCH  11  13
ATOM     13  C   UNL     1       2.371 -14.490  11.133  1.00  0.00    -0.002 C 
ATOM     14  C   UNL     1       1.759 -14.385   9.916  1.00  0.00    -0.069 C 
ATOM     15  C   UNL     1       2.205 -13.377   8.879  1.00  0.00     0.039 C 
ATOM     16  C   UNL     1       0.595 -15.276   9.544  1.00  0.00     0.039 C 
BRANCH  13  17
ATOM     17  C   UNL     1       3.581 -13.645  11.500  1.00  0.00     0.066 CG0
ATOM     18  G   UNL     1       4.889 -14.362  11.227  1.00  0.00     0.000 G0
ENDBRANCH  13  17
ENDBRANCH  11  13
ENDBRANCH  10  11
ENDBRANCH   1  10
TORSDOF 0
ENDMDL
MODEL 8
REMARK VINA RESULT:    -2.601     14.392     16.385
REMARK INTER + INTRA:          -3.319
REMARK INTER:                  -3.497
REMARK INTRA:                   0.177
REMARK UNBOUND:                 0.346
REMARK SMILES CC1=CCC(=C(C)C)C(=O)CC(C)=CCC1
REMARK SMILES IDX 12 1 14 2 13 3 15 4 16 5 2 6 1 7 3 8 11 10 9 11 10 12 5 13
REMARK SMILES IDX 6 14 7 15 8 16 4 17
REMARK H PARENT
REMARK Flexibility Score: 60.00
ROOT
ATOM      1  C   UNL     1      -2.991 -23.344  17.604  1.00  0.00    -0.070 C 
ATOM      2  C   UNL     1      -3.793 -22.683  18.467  1.00  0.00    -0.027 C 
ATOM      3  C   UNL     1      -1.510 -23.359  17.885  1.00  0.00     0.039 C 
ENDROOT
BRANCH   2   4
ATOM      4  C   UNL     1      -5.304 -22.636  18.410  1.00  0.00     0.032 C 
BRANCH   4   5
ATOM      5  C   UNL     1      -6.019 -23.717  19.247  1.00  0.00     0.034 C 
BRANCH   5   6
ATOM      6  C   UNL     1      -7.198 -24.346  18.526  1.00  0.00    -0.077 C 
ATOM      7  C   UNL     1      -8.490 -23.570  18.485  1.00  0.00     0.039 C 
ATOM      8  C   UNL     1      -7.146 -25.526  17.860  1.00  0.00    -0.023 CG0
ATOM      9  G   UNL     1      -5.970 -26.480  17.781  1.00  0.00     0.000 G0
ENDBRANCH   5   6
ENDBRANCH   4   5
ENDBRANCH   2   4
BRANCH   1  10
ATOM     10  C   UNL     1      -3.516 -24.144  16.428  1.00  0.00     0.111 C 
BRANCH  10  11
ATOM     11  C   UNL     1      -3.774 -25.579  16.805  1.00  0.00     0.163 C 
ATOM     12  O   UNL     1      -2.856 -26.215  17.390  1.00  0.00    -0.294 OA
BRANCH  11  13
ATOM     13  C   UNL     1      -5.089 -26.247  16.565  1.00  0.00    -0.002 C 
ATOM     14  C   UNL     1      -5.431 -26.692  15.319  1.00  0.00    -0.069 C 
ATOM     15  C   UNL     1      -6.680 -27.510  15.076  1.00  0.00     0.039 C 
ATOM     16  C   UNL     1      -4.570 -26.387  14.114  1.00  0.00     0.039 C 
BRANCH  13  17
ATOM     17  C   UNL     1      -5.974 -26.492  17.778  1.00  0.00     0.066 CG0
ATOM     18  G   UNL     1      -7.131 -25.514  17.852  1.00  0.00     0.000 G0
ENDBRANCH  13  17
ENDBRANCH  11  13
ENDBRANCH  10  11
ENDBRANCH   1  10
TORSDOF 0
ENDMDL
MODEL 9
REMARK VINA RESULT:    -2.593      2.860      5.337
REMARK INTER + INTRA:          -3.308
REMARK INTER:                  -3.824
REMARK INTRA:                   0.516
REMARK UNBOUND:                 0.346
REMARK SMILES CC1=CCC(=C(C)C)C(=O)CC(C)=CCC1
REMARK SMILES IDX 12 1 14 2 13 3 15 4 16 5 2 6 1 7 3 8 11 10 9 11 10 12 5 13
REMARK SMILES IDX 6 14 7 15 8 16 4 17
REMARK H PARENT
REMARK Flexibility Score: 60.00
ROOT
ATOM      1  C   UNL     1       1.914 -15.218  10.222  1.00  0.00    -0.070 C 
ATOM      2  C   UNL     1       3.058 -15.000   9.537  1.00  0.00    -0.027 C 
ATOM      3  C   UNL     1       0.759 -14.278   9.985  1.00  0.00     0.039 C 
ENDROOT
BRANCH   2   4
ATOM      4  C   UNL     1       4.286 -15.883   9.565  1.00  0.00     0.032 C 
BRANCH   4   5
ATOM      5  C   UNL     1       5.531 -15.241  10.211  1.00  0.00     0.034 C 
BRANCH   5   6
ATOM      6  C   UNL     1       5.206 -14.416  11.444  1.00  0.00    -0.077 C 
ATOM      7  C   UNL     1       5.350 -12.919  11.344  1.00  0.00     0.039 C 
ATOM      8  C   UNL     1       4.730 -14.931  12.605  1.00  0.00    -0.023 CG0
ATOM      9  G   UNL     1       4.523 -16.396  12.938  1.00  0.00     0.000 G0
ENDBRANCH   5   6
ENDBRANCH   4   5
ENDBRANCH   2   4
BRANCH   1  10
ATOM     10  C   UNL     1       1.708 -16.407  11.138  1.00  0.00     0.111 C 
BRANCH  10  11
ATOM     11  C   UNL     1       1.993 -16.057  12.575  1.00  0.00     0.163 C 
ATOM     12  O   UNL     1       1.239 -15.221  13.144  1.00  0.00    -0.294 OA
BRANCH  11  13
ATOM     13  C   UNL     1       3.087 -16.706  13.357  1.00  0.00    -0.002 C 
ATOM     14  C   UNL     1       2.803 -17.603  14.347  1.00  0.00    -0.069 C 
ATOM     15  C   UNL     1       3.886 -18.394  15.048  1.00  0.00     0.039 C 
ATOM     16  C   UNL     1       1.379 -17.853  14.794  1.00  0.00     0.039 C 
BRANCH  13  17
ATOM     17  C   UNL     1       4.517 -16.398  12.938  1.00  0.00     0.066 CG0
ATOM     18  G   UNL     1       4.717 -14.931  12.609  1.00  0.00     0.000 G0
ENDBRANCH  13  17
ENDBRANCH  11  13
ENDBRANCH  10  11
ENDBRANCH   1  10
TORSDOF 0
ENDMDL
