MODEL 1
REMARK VINA RESULT:    -3.662      0.000      0.000
REMARK INTER + INTRA:          -7.403
REMARK INTER:                  -6.445
REMARK INTRA:                  -0.958
REMARK UNBOUND:                -0.958
REMARK SMILES CCCCCCC=CCCCCCCCC(=O)[O-]
REMARK SMILES IDX 10 1 11 2 12 3 13 4 14 5 15 6 16 7 17 8 18 9 9 10 8 11 7 12
REMARK SMILES IDX 6 13 5 14 4 15 3 16 2 17 1 18
REMARK H PARENT
REMARK Flexibility Score: inf
ROOT
ATOM      1  C   UNL     1     409.002 -85.520 114.632  1.00  0.00     0.004 C 
ENDROOT
BRANCH   1   2
ATOM      2  C   UNL     1     407.638 -85.861 115.260  1.00  0.00     0.000 C 
BRANCH   2   3
ATOM      3  C   UNL     1     406.508 -85.930 114.222  1.00  0.00     0.000 C 
BRANCH   3   4
ATOM      4  C   UNL     1     405.199 -85.369 114.800  1.00  0.00     0.000 C 
BRANCH   4   5
ATOM      5  C   UNL     1     404.254 -84.833 113.714  1.00  0.00     0.006 C 
BRANCH   5   6
ATOM      6  C   UNL     1     404.995 -84.430 112.432  1.00  0.00     0.053 C 
BRANCH   6   7
ATOM      7  C   UNL     1     404.398 -85.119 111.246  1.00  0.00     0.041 C 
ATOM      8  O   UNL     1     404.017 -84.448 110.250  1.00  0.00    -0.550 OA
ATOM      9  O   UNL     1     404.215 -86.496 111.260  1.00  0.00    -0.550 OA
ENDBRANCH   6   7
ENDBRANCH   5   6
ENDBRANCH   4   5
ENDBRANCH   3   4
ENDBRANCH   2   3
ENDBRANCH   1   2
BRANCH   1  10
ATOM     10  C   UNL     1     409.058 -84.151 113.931  1.00  0.00     0.027 C 
BRANCH  10  11
ATOM     11  C   UNL     1     409.977 -84.119 112.732  1.00  0.00    -0.031 C 
ATOM     12  C   UNL     1     411.318 -84.018 112.778  1.00  0.00    -0.031 C 
BRANCH  12  13
ATOM     13  C   UNL     1     412.143 -83.875 114.035  1.00  0.00     0.027 C 
BRANCH  13  14
ATOM     14  C   UNL     1     412.498 -85.241 114.645  1.00  0.00     0.004 C 
BRANCH  14  15
ATOM     15  C   UNL     1     412.142 -85.398 116.138  1.00  0.00     0.000 C 
BRANCH  15  16
ATOM     16  C   UNL     1     413.345 -85.453 117.097  1.00  0.00    -0.000 C 
BRANCH  16  17
ATOM     17  C   UNL     1     413.994 -84.079 117.318  1.00  0.00    -0.003 C 
ATOM     18  C   UNL     1     415.336 -84.215 118.033  1.00  0.00     0.004 C 
ENDBRANCH  16  17
ENDBRANCH  15  16
ENDBRANCH  14  15
ENDBRANCH  13  14
ENDBRANCH  12  13
ENDBRANCH  10  11
ENDBRANCH   1  10
TORSDOF 13
ENDMDL
MODEL 2
REMARK VINA RESULT:    -3.658      5.381      8.846
REMARK INTER + INTRA:          -7.396
REMARK INTER:                  -6.815
REMARK INTRA:                  -0.580
REMARK UNBOUND:                -0.958
REMARK SMILES CCCCCCC=CCCCCCCCC(=O)[O-]
REMARK SMILES IDX 10 1 11 2 12 3 13 4 14 5 15 6 16 7 17 8 18 9 9 10 8 11 7 12
REMARK SMILES IDX 6 13 5 14 4 15 3 16 2 17 1 18
REMARK H PARENT
REMARK Flexibility Score: inf
ROOT
ATOM      1  C   UNL     1     411.915 -83.875 111.381  1.00  0.00     0.004 C 
ENDROOT
BRANCH   1   2
ATOM      2  C   UNL     1     411.059 -83.875 110.101  1.00  0.00     0.000 C 
BRANCH   2   3
ATOM      3  C   UNL     1     411.905 -83.967 108.823  1.00  0.00     0.000 C 
BRANCH   3   4
ATOM      4  C   UNL     1     413.404 -84.009 109.160  1.00  0.00     0.000 C 
BRANCH   4   5
ATOM      5  C   UNL     1     414.244 -84.648 108.044  1.00  0.00     0.006 C 
BRANCH   5   6
ATOM      6  C   UNL     1     415.719 -84.226 108.098  1.00  0.00     0.053 C 
BRANCH   6   7
ATOM      7  C   UNL     1     416.591 -85.413 108.360  1.00  0.00     0.041 C 
ATOM      8  O   UNL     1     416.206 -86.566 108.032  1.00  0.00    -0.550 OA
ATOM      9  O   UNL     1     417.809 -85.252 109.010  1.00  0.00    -0.550 OA
ENDBRANCH   6   7
ENDBRANCH   5   6
ENDBRANCH   4   5
ENDBRANCH   3   4
ENDBRANCH   2   3
ENDBRANCH   1   2
BRANCH   1  10
ATOM     10  C   UNL     1     411.106 -83.877 112.690  1.00  0.00     0.027 C 
BRANCH  10  11
ATOM     11  C   UNL     1     411.349 -85.094 113.552  1.00  0.00    -0.031 C 
ATOM     12  C   UNL     1     410.470 -85.621 114.425  1.00  0.00    -0.031 C 
BRANCH  12  13
ATOM     13  C   UNL     1     409.099 -85.065 114.731  1.00  0.00     0.027 C 
BRANCH  13  14
ATOM     14  C   UNL     1     408.105 -86.174 115.114  1.00  0.00     0.004 C 
BRANCH  14  15
ATOM     15  C   UNL     1     406.622 -85.750 115.097  1.00  0.00     0.000 C 
BRANCH  15  16
ATOM     16  C   UNL     1     406.059 -85.390 113.710  1.00  0.00    -0.000 C 
BRANCH  16  17
ATOM     17  C   UNL     1     404.536 -85.566 113.621  1.00  0.00    -0.003 C 
ATOM     18  C   UNL     1     404.163 -86.580 112.542  1.00  0.00     0.004 C 
ENDBRANCH  16  17
ENDBRANCH  15  16
ENDBRANCH  14  15
ENDBRANCH  13  14
ENDBRANCH  12  13
ENDBRANCH  10  11
ENDBRANCH   1  10
TORSDOF 13
ENDMDL
MODEL 3
REMARK VINA RESULT:    -3.515      1.455      2.045
REMARK INTER + INTRA:          -7.144
REMARK INTER:                  -6.024
REMARK INTRA:                  -1.120
REMARK UNBOUND:                -0.958
REMARK SMILES CCCCCCC=CCCCCCCCC(=O)[O-]
REMARK SMILES IDX 10 1 11 2 12 3 13 4 14 5 15 6 16 7 17 8 18 9 9 10 8 11 7 12
REMARK SMILES IDX 6 13 5 14 4 15 3 16 2 17 1 18
REMARK H PARENT
REMARK Flexibility Score: inf
ROOT
ATOM      1  C   UNL     1     407.675 -85.522 115.634  1.00  0.00     0.004 C 
ENDROOT
BRANCH   1   2
ATOM      2  C   UNL     1     407.259 -84.140 116.169  1.00  0.00     0.000 C 
BRANCH   2   3
ATOM      3  C   UNL     1     406.315 -84.231 117.377  1.00  0.00     0.000 C 
BRANCH   3   4
ATOM      4  C   UNL     1     404.935 -84.760 116.954  1.00  0.00     0.000 C 
BRANCH   4   5
ATOM      5  C   UNL     1     404.438 -84.134 115.641  1.00  0.00     0.006 C 
BRANCH   5   6
ATOM      6  C   UNL     1     403.963 -85.184 114.628  1.00  0.00     0.053 C 
BRANCH   6   7
ATOM      7  C   UNL     1     404.840 -85.174 113.417  1.00  0.00     0.041 C 
ATOM      8  O   UNL     1     404.985 -84.116 112.748  1.00  0.00    -0.550 OA
ATOM      9  O   UNL     1     405.461 -86.345 112.997  1.00  0.00    -0.550 OA
ENDBRANCH   6   7
ENDBRANCH   5   6
ENDBRANCH   4   5
ENDBRANCH   3   4
ENDBRANCH   2   3
ENDBRANCH   1   2
BRANCH   1  10
ATOM     10  C   UNL     1     408.807 -85.490 114.592  1.00  0.00     0.027 C 
BRANCH  10  11
ATOM     11  C   UNL     1     408.807 -84.247 113.733  1.00  0.00    -0.031 C 
ATOM     12  C   UNL     1     409.793 -83.875 112.897  1.00  0.00    -0.031 C 
BRANCH  12  13
ATOM     13  C   UNL     1     411.097 -84.612 112.698  1.00  0.00     0.027 C 
BRANCH  13  14
ATOM     14  C   UNL     1     412.074 -84.371 113.860  1.00  0.00     0.004 C 
BRANCH  14  15
ATOM     15  C   UNL     1     412.350 -85.606 114.743  1.00  0.00     0.000 C 
BRANCH  15  16
ATOM     16  C   UNL     1     412.510 -85.314 116.246  1.00  0.00    -0.000 C 
BRANCH  16  17
ATOM     17  C   UNL     1     413.622 -86.147 116.900  1.00  0.00    -0.003 C 
ATOM     18  C   UNL     1     414.137 -85.474 118.170  1.00  0.00     0.004 C 
ENDBRANCH  16  17
ENDBRANCH  15  16
ENDBRANCH  14  15
ENDBRANCH  13  14
ENDBRANCH  12  13
ENDBRANCH  10  11
ENDBRANCH   1  10
TORSDOF 13
ENDMDL
MODEL 4
REMARK VINA RESULT:    -3.454      5.205      9.057
REMARK INTER + INTRA:          -7.037
REMARK INTER:                  -6.407
REMARK INTRA:                  -0.629
REMARK UNBOUND:                -0.958
REMARK SMILES CCCCCCC=CCCCCCCCC(=O)[O-]
REMARK SMILES IDX 10 1 11 2 12 3 13 4 14 5 15 6 16 7 17 8 18 9 9 10 8 11 7 12
REMARK SMILES IDX 6 13 5 14 4 15 3 16 2 17 1 18
REMARK H PARENT
REMARK Flexibility Score: inf
ROOT
ATOM      1  C   UNL     1     416.470 -84.180 117.738  1.00  0.00     0.004 C 
ENDROOT
BRANCH   1   2
ATOM      2  C   UNL     1     415.154 -84.064 118.529  1.00  0.00     0.000 C 
BRANCH   2   3
ATOM      3  C   UNL     1     414.116 -85.115 118.110  1.00  0.00     0.000 C 
BRANCH   3   4
ATOM      4  C   UNL     1     413.341 -84.652 116.866  1.00  0.00     0.000 C 
BRANCH   4   5
ATOM      5  C   UNL     1     412.797 -85.827 116.037  1.00  0.00     0.006 C 
BRANCH   5   6
ATOM      6  C   UNL     1     412.497 -85.435 114.584  1.00  0.00     0.053 C 
BRANCH   6   7
ATOM      7  C   UNL     1     411.021 -85.406 114.346  1.00  0.00     0.041 C 
ATOM      8  O   UNL     1     410.565 -84.987 113.249  1.00  0.00    -0.550 OA
ATOM      9  O   UNL     1     410.146 -85.794 115.353  1.00  0.00    -0.550 OA
ENDBRANCH   6   7
ENDBRANCH   5   6
ENDBRANCH   4   5
ENDBRANCH   3   4
ENDBRANCH   2   3
ENDBRANCH   1   2
BRANCH   1  10
ATOM     10  C   UNL     1     417.741 -83.945 118.573  1.00  0.00     0.027 C 
BRANCH  10  11
ATOM     11  C   UNL     1     418.910 -84.804 118.154  1.00  0.00    -0.031 C 
ATOM     12  C   UNL     1     419.839 -85.318 118.981  1.00  0.00    -0.031 C 
BRANCH  12  13
ATOM     13  C   UNL     1     419.903 -85.093 120.474  1.00  0.00     0.027 C 
BRANCH  13  14
ATOM     14  C   UNL     1     420.139 -86.404 121.241  1.00  0.00     0.004 C 
BRANCH  14  15
ATOM     15  C   UNL     1     420.300 -87.656 120.355  1.00  0.00     0.000 C 
BRANCH  15  16
ATOM     16  C   UNL     1     420.571 -88.967 121.115  1.00  0.00    -0.000 C 
BRANCH  16  17
ATOM     17  C   UNL     1     422.015 -89.464 120.951  1.00  0.00    -0.003 C 
ATOM     18  C   UNL     1     422.979 -88.638 121.799  1.00  0.00     0.004 C 
ENDBRANCH  16  17
ENDBRANCH  15  16
ENDBRANCH  14  15
ENDBRANCH  13  14
ENDBRANCH  12  13
ENDBRANCH  10  11
ENDBRANCH   1  10
TORSDOF 13
ENDMDL
MODEL 5
REMARK VINA RESULT:    -3.345      2.443      4.897
REMARK INTER + INTRA:          -6.845
REMARK INTER:                  -6.432
REMARK INTRA:                  -0.413
REMARK UNBOUND:                -0.958
REMARK SMILES CCCCCCC=CCCCCCCCC(=O)[O-]
REMARK SMILES IDX 10 1 11 2 12 3 13 4 14 5 15 6 16 7 17 8 18 9 9 10 8 11 7 12
REMARK SMILES IDX 6 13 5 14 4 15 3 16 2 17 1 18
REMARK H PARENT
REMARK Flexibility Score: inf
ROOT
ATOM      1  C   UNL     1     412.483 -85.751 114.918  1.00  0.00     0.004 C 
ENDROOT
BRANCH   1   2
ATOM      2  C   UNL     1     411.949 -84.882 113.766  1.00  0.00     0.000 C 
BRANCH   2   3
ATOM      3  C   UNL     1     410.439 -84.621 113.870  1.00  0.00     0.000 C 
BRANCH   3   4
ATOM      4  C   UNL     1     409.793 -85.555 114.906  1.00  0.00     0.000 C 
BRANCH   4   5
ATOM      5  C   UNL     1     408.376 -85.110 115.300  1.00  0.00     0.006 C 
BRANCH   5   6
ATOM      6  C   UNL     1     407.481 -84.840 114.084  1.00  0.00     0.053 C 
BRANCH   6   7
ATOM      7  C   UNL     1     406.164 -85.531 114.241  1.00  0.00     0.041 C 
ATOM      8  O   UNL     1     405.641 -86.129 113.263  1.00  0.00    -0.550 OA
ATOM      9  O   UNL     1     405.489 -85.475 115.455  1.00  0.00    -0.550 OA
ENDBRANCH   6   7
ENDBRANCH   5   6
ENDBRANCH   4   5
ENDBRANCH   3   4
ENDBRANCH   2   3
ENDBRANCH   1   2
BRANCH   1  10
ATOM     10  C   UNL     1     412.694 -84.997 116.243  1.00  0.00     0.027 C 
BRANCH  10  11
ATOM     11  C   UNL     1     413.490 -85.774 117.264  1.00  0.00    -0.031 C 
ATOM     12  C   UNL     1     414.567 -85.316 117.930  1.00  0.00    -0.031 C 
BRANCH  12  13
ATOM     13  C   UNL     1     415.198 -83.957 117.743  1.00  0.00     0.027 C 
BRANCH  13  14
ATOM     14  C   UNL     1     416.586 -83.875 118.399  1.00  0.00     0.004 C 
BRANCH  14  15
ATOM     15  C   UNL     1     417.692 -84.676 117.680  1.00  0.00     0.000 C 
BRANCH  15  16
ATOM     16  C   UNL     1     419.133 -84.310 118.083  1.00  0.00    -0.000 C 
BRANCH  16  17
ATOM     17  C   UNL     1     419.451 -84.661 119.543  1.00  0.00    -0.003 C 
ATOM     18  C   UNL     1     420.219 -85.978 119.636  1.00  0.00     0.004 C 
ENDBRANCH  16  17
ENDBRANCH  15  16
ENDBRANCH  14  15
ENDBRANCH  13  14
ENDBRANCH  12  13
ENDBRANCH  10  11
ENDBRANCH   1  10
TORSDOF 13
ENDMDL
MODEL 6
REMARK VINA RESULT:    -3.338      6.889     11.808
REMARK INTER + INTRA:          -6.833
REMARK INTER:                  -6.035
REMARK INTRA:                  -0.798
REMARK UNBOUND:                -0.958
REMARK SMILES CCCCCCC=CCCCCCCCC(=O)[O-]
REMARK SMILES IDX 10 1 11 2 12 3 13 4 14 5 15 6 16 7 17 8 18 9 9 10 8 11 7 12
REMARK SMILES IDX 6 13 5 14 4 15 3 16 2 17 1 18
REMARK H PARENT
REMARK Flexibility Score: inf
ROOT
ATOM      1  C   UNL     1     416.500 -83.875 118.335  1.00  0.00     0.004 C 
ENDROOT
BRANCH   1   2
ATOM      2  C   UNL     1     417.612 -84.131 117.302  1.00  0.00     0.000 C 
BRANCH   2   3
ATOM      3  C   UNL     1     419.013 -84.151 117.932  1.00  0.00     0.000 C 
BRANCH   3   4
ATOM      4  C   UNL     1     418.923 -84.251 119.463  1.00  0.00     0.000 C 
BRANCH   4   5
ATOM      5  C   UNL     1     420.216 -84.788 120.098  1.00  0.00     0.006 C 
BRANCH   5   6
ATOM      6  C   UNL     1     420.564 -86.204 119.621  1.00  0.00     0.053 C 
BRANCH   6   7
ATOM      7  C   UNL     1     420.254 -87.205 120.688  1.00  0.00     0.041 C 
ATOM      8  O   UNL     1     420.083 -88.417 120.390  1.00  0.00    -0.550 OA
ATOM      9  O   UNL     1     420.104 -86.792 122.007  1.00  0.00    -0.550 OA
ENDBRANCH   6   7
ENDBRANCH   5   6
ENDBRANCH   4   5
ENDBRANCH   3   4
ENDBRANCH   2   3
ENDBRANCH   1   2
BRANCH   1  10
ATOM     10  C   UNL     1     415.071 -83.979 117.774  1.00  0.00     0.027 C 
BRANCH  10  11
ATOM     11  C   UNL     1     414.407 -85.309 118.047  1.00  0.00    -0.031 C 
ATOM     12  C   UNL     1     413.462 -85.883 117.280  1.00  0.00    -0.031 C 
BRANCH  12  13
ATOM     13  C   UNL     1     412.865 -85.281 116.030  1.00  0.00     0.027 C 
BRANCH  13  14
ATOM     14  C   UNL     1     411.499 -84.630 116.303  1.00  0.00     0.004 C 
BRANCH  14  15
ATOM     15  C   UNL     1     410.745 -84.149 115.046  1.00  0.00     0.000 C 
BRANCH  15  16
ATOM     16  C   UNL     1     410.087 -85.262 114.210  1.00  0.00    -0.000 C 
BRANCH  16  17
ATOM     17  C   UNL     1     409.121 -86.131 115.029  1.00  0.00    -0.003 C 
ATOM     18  C   UNL     1     407.758 -85.457 115.162  1.00  0.00     0.004 C 
ENDBRANCH  16  17
ENDBRANCH  15  16
ENDBRANCH  14  15
ENDBRANCH  13  14
ENDBRANCH  12  13
ENDBRANCH  10  11
ENDBRANCH   1  10
TORSDOF 13
ENDMDL
MODEL 7
REMARK VINA RESULT:    -3.286      4.433      8.637
REMARK INTER + INTRA:          -6.741
REMARK INTER:                  -5.492
REMARK INTRA:                  -1.248
REMARK UNBOUND:                -0.958
REMARK SMILES CCCCCCC=CCCCCCCCC(=O)[O-]
REMARK SMILES IDX 10 1 11 2 12 3 13 4 14 5 15 6 16 7 17 8 18 9 9 10 8 11 7 12
REMARK SMILES IDX 6 13 5 14 4 15 3 16 2 17 1 18
REMARK H PARENT
REMARK Flexibility Score: inf
ROOT
ATOM      1  C   UNL     1     409.659 -84.741 114.619  1.00  0.00     0.004 C 
ENDROOT
BRANCH   1   2
ATOM      2  C   UNL     1     410.692 -84.759 113.478  1.00  0.00     0.000 C 
BRANCH   2   3
ATOM      3  C   UNL     1     412.132 -84.933 113.984  1.00  0.00     0.000 C 
BRANCH   3   4
ATOM      4  C   UNL     1     412.255 -84.487 115.450  1.00  0.00     0.000 C 
BRANCH   4   5
ATOM      5  C   UNL     1     412.436 -85.669 116.415  1.00  0.00     0.006 C 
BRANCH   5   6
ATOM      6  C   UNL     1     413.910 -85.944 116.742  1.00  0.00     0.053 C 
BRANCH   6   7
ATOM      7  C   UNL     1     414.362 -85.082 117.878  1.00  0.00     0.041 C 
ATOM      8  O   UNL     1     414.061 -85.387 119.063  1.00  0.00    -0.550 OA
ATOM      9  O   UNL     1     415.073 -83.915 117.626  1.00  0.00    -0.550 OA
ENDBRANCH   6   7
ENDBRANCH   5   6
ENDBRANCH   4   5
ENDBRANCH   3   4
ENDBRANCH   2   3
ENDBRANCH   1   2
BRANCH   1  10
ATOM     10  C   UNL     1     408.219 -85.062 114.182  1.00  0.00     0.027 C 
BRANCH  10  11
ATOM     11  C   UNL     1     407.474 -85.950 115.151  1.00  0.00    -0.031 C 
ATOM     12  C   UNL     1     406.572 -85.533 116.059  1.00  0.00    -0.031 C 
BRANCH  12  13
ATOM     13  C   UNL     1     406.174 -84.096 116.301  1.00  0.00     0.027 C 
BRANCH  13  14
ATOM     14  C   UNL     1     404.665 -83.878 116.102  1.00  0.00     0.004 C 
BRANCH  14  15
ATOM     15  C   UNL     1     404.022 -84.749 115.003  1.00  0.00     0.000 C 
BRANCH  15  16
ATOM     16  C   UNL     1     404.066 -84.151 113.584  1.00  0.00    -0.000 C 
BRANCH  16  17
ATOM     17  C   UNL     1     404.944 -84.965 112.622  1.00  0.00    -0.003 C 
ATOM     18  C   UNL     1     404.560 -86.442 112.645  1.00  0.00     0.004 C 
ENDBRANCH  16  17
ENDBRANCH  15  16
ENDBRANCH  14  15
ENDBRANCH  13  14
ENDBRANCH  12  13
ENDBRANCH  10  11
ENDBRANCH   1  10
TORSDOF 13
ENDMDL
MODEL 8
REMARK VINA RESULT:    -3.154     13.354     15.741
REMARK INTER + INTRA:          -6.510
REMARK INTER:                  -4.294
REMARK INTRA:                  -2.216
REMARK UNBOUND:                -0.958
REMARK SMILES CCCCCCC=CCCCCCCCC(=O)[O-]
REMARK SMILES IDX 10 1 11 2 12 3 13 4 14 5 15 6 16 7 17 8 18 9 9 10 8 11 7 12
REMARK SMILES IDX 6 13 5 14 4 15 3 16 2 17 1 18
REMARK H PARENT
REMARK Flexibility Score: inf
ROOT
ATOM      1  C   UNL     1     420.383 -86.093 119.413  1.00  0.00     0.004 C 
ENDROOT
BRANCH   1   2
ATOM      2  C   UNL     1     421.417 -86.795 120.312  1.00  0.00     0.000 C 
BRANCH   2   3
ATOM      3  C   UNL     1     422.854 -86.647 119.790  1.00  0.00     0.000 C 
BRANCH   3   4
ATOM      4  C   UNL     1     423.776 -87.703 120.421  1.00  0.00     0.000 C 
BRANCH   4   5
ATOM      5  C   UNL     1     423.488 -89.122 119.909  1.00  0.00     0.006 C 
BRANCH   5   6
ATOM      6  C   UNL     1     423.110 -90.092 121.036  1.00  0.00     0.053 C 
BRANCH   6   7
ATOM      7  C   UNL     1     421.809 -90.764 120.732  1.00  0.00     0.041 C 
ATOM      8  O   UNL     1     420.721 -90.177 120.975  1.00  0.00    -0.550 OA
ATOM      9  O   UNL     1     421.795 -92.058 120.226  1.00  0.00    -0.550 OA
ENDBRANCH   6   7
ENDBRANCH   5   6
ENDBRANCH   4   5
ENDBRANCH   3   4
ENDBRANCH   2   3
ENDBRANCH   1   2
BRANCH   1  10
ATOM     10  C   UNL     1     419.659 -84.908 120.077  1.00  0.00     0.027 C 
BRANCH  10  11
ATOM     11  C   UNL     1     420.539 -84.096 120.997  1.00  0.00    -0.031 C 
ATOM     12  C   UNL     1     420.388 -83.987 122.330  1.00  0.00    -0.031 C 
BRANCH  12  13
ATOM     13  C   UNL     1     419.284 -84.624 123.140  1.00  0.00     0.027 C 
BRANCH  13  14
ATOM     14  C   UNL     1     419.655 -86.045 123.597  1.00  0.00     0.004 C 
BRANCH  14  15
ATOM     15  C   UNL     1     420.992 -86.153 124.359  1.00  0.00     0.000 C 
BRANCH  15  16
ATOM     16  C   UNL     1     421.975 -87.205 123.813  1.00  0.00    -0.000 C 
BRANCH  16  17
ATOM     17  C   UNL     1     423.440 -86.753 123.899  1.00  0.00    -0.003 C 
ATOM     18  C   UNL     1     423.620 -85.359 123.303  1.00  0.00     0.004 C 
ENDBRANCH  16  17
ENDBRANCH  15  16
ENDBRANCH  14  15
ENDBRANCH  13  14
ENDBRANCH  12  13
ENDBRANCH  10  11
ENDBRANCH   1  10
TORSDOF 13
ENDMDL
