MODEL 1
REMARK VINA RESULT:    -3.543      0.000      0.000
REMARK INTER + INTRA:          -4.453
REMARK INTER:                  -4.372
REMARK INTRA:                  -0.081
REMARK UNBOUND:                -0.081
REMARK SMILES CCCCCC(=O)[O-]
REMARK SMILES IDX 4 1 5 2 6 3 7 4 8 5 3 6 2 7 1 8
REMARK H PARENT
REMARK Flexibility Score: inf
ROOT
ATOM      1  C   UNL     1      17.547 -10.181  13.011  1.00  0.00     0.006 C 
ENDROOT
BRANCH   1   2
ATOM      2  C   UNL     1      18.837  -9.392  13.253  1.00  0.00     0.053 C 
BRANCH   2   3
ATOM      3  C   UNL     1      18.666  -8.442  14.395  1.00  0.00     0.041 C 
ATOM      4  O   UNL     1      19.656  -8.115  15.101  1.00  0.00    -0.550 OA
ATOM      5  O   UNL     1      17.423  -7.878  14.649  1.00  0.00    -0.550 OA
ENDBRANCH   2   3
ENDBRANCH   1   2
BRANCH   1   6
ATOM      6  C   UNL     1      17.651 -11.027  11.733  1.00  0.00     0.000 C 
BRANCH   6   7
ATOM      7  C   UNL     1      18.915 -11.899  11.704  1.00  0.00    -0.003 C 
ATOM      8  C   UNL     1      18.616 -13.362  11.379  1.00  0.00     0.004 C 
ENDBRANCH   6   7
ENDBRANCH   1   6
TORSDOF 4
ENDMDL
MODEL 2
REMARK VINA RESULT:    -3.502      7.605      8.738
REMARK INTER + INTRA:          -4.402
REMARK INTER:                  -4.273
REMARK INTRA:                  -0.129
REMARK UNBOUND:                -0.081
REMARK SMILES CCCCCC(=O)[O-]
REMARK SMILES IDX 4 1 5 2 6 3 7 4 8 5 3 6 2 7 1 8
REMARK H PARENT
REMARK Flexibility Score: inf
ROOT
ATOM      1  C   UNL     1      10.910 -12.229  14.454  1.00  0.00     0.006 C 
ENDROOT
BRANCH   1   2
ATOM      2  C   UNL     1      12.383 -12.037  14.829  1.00  0.00     0.053 C 
BRANCH   2   3
ATOM      3  C   UNL     1      12.709 -12.793  16.077  1.00  0.00     0.041 C 
ATOM      4  O   UNL     1      11.930 -12.750  17.066  1.00  0.00    -0.550 OA
ATOM      5  O   UNL     1      13.847 -13.587  16.132  1.00  0.00    -0.550 OA
ENDBRANCH   2   3
ENDBRANCH   1   2
BRANCH   1   6
ATOM      6  C   UNL     1      10.114 -10.934  14.674  1.00  0.00     0.000 C 
BRANCH   6   7
ATOM      7  C   UNL     1       9.077 -11.062  15.801  1.00  0.00    -0.003 C 
ATOM      8  C   UNL     1       8.443  -9.723  16.177  1.00  0.00     0.004 C 
ENDBRANCH   6   7
ENDBRANCH   1   6
TORSDOF 4
ENDMDL
MODEL 3
REMARK VINA RESULT:    -3.492      8.780     11.364
REMARK INTER + INTRA:          -4.389
REMARK INTER:                  -4.268
REMARK INTRA:                  -0.121
REMARK UNBOUND:                -0.081
REMARK SMILES CCCCCC(=O)[O-]
REMARK SMILES IDX 4 1 5 2 6 3 7 4 8 5 3 6 2 7 1 8
REMARK H PARENT
REMARK Flexibility Score: inf
ROOT
ATOM      1  C   UNL     1      19.816  -3.096  21.385  1.00  0.00     0.006 C 
ENDROOT
BRANCH   1   2
ATOM      2  C   UNL     1      18.736  -4.170  21.223  1.00  0.00     0.053 C 
BRANCH   2   3
ATOM      3  C   UNL     1      18.673  -4.642  19.806  1.00  0.00     0.041 C 
ATOM      4  O   UNL     1      19.732  -4.886  19.171  1.00  0.00    -0.550 OA
ATOM      5  O   UNL     1      17.442  -4.859  19.201  1.00  0.00    -0.550 OA
ENDBRANCH   2   3
ENDBRANCH   1   2
BRANCH   1   6
ATOM      6  C   UNL     1      20.722  -3.403  22.587  1.00  0.00     0.000 C 
BRANCH   6   7
ATOM      7  C   UNL     1      21.066  -2.148  23.404  1.00  0.00    -0.003 C 
ATOM      8  C   UNL     1      20.052  -1.021  23.210  1.00  0.00     0.004 C 
ENDBRANCH   6   7
ENDBRANCH   1   6
TORSDOF 4
ENDMDL
MODEL 4
REMARK VINA RESULT:    -3.403     10.739     12.665
REMARK INTER + INTRA:          -4.280
REMARK INTER:                  -4.012
REMARK INTRA:                  -0.268
REMARK UNBOUND:                -0.081
REMARK SMILES CCCCCC(=O)[O-]
REMARK SMILES IDX 4 1 5 2 6 3 7 4 8 5 3 6 2 7 1 8
REMARK H PARENT
REMARK Flexibility Score: inf
ROOT
ATOM      1  C   UNL     1      20.998  -3.403  22.979  1.00  0.00     0.006 C 
ENDROOT
BRANCH   1   2
ATOM      2  C   UNL     1      20.106  -3.368  21.735  1.00  0.00     0.053 C 
BRANCH   2   3
ATOM      3  C   UNL     1      20.885  -2.910  20.544  1.00  0.00     0.041 C 
ATOM      4  O   UNL     1      21.756  -3.660  20.029  1.00  0.00    -0.550 OA
ATOM      5  O   UNL     1      20.615  -1.675  19.969  1.00  0.00    -0.550 OA
ENDBRANCH   2   3
ENDBRANCH   1   2
BRANCH   1   6
ATOM      6  C   UNL     1      21.398  -1.983  23.409  1.00  0.00     0.000 C 
BRANCH   6   7
ATOM      7  C   UNL     1      20.185  -1.116  23.783  1.00  0.00    -0.003 C 
ATOM      8  C   UNL     1      20.138   0.200  23.007  1.00  0.00     0.004 C 
ENDBRANCH   6   7
ENDBRANCH   1   6
TORSDOF 4
ENDMDL
MODEL 5
REMARK VINA RESULT:    -3.387      2.886      4.262
REMARK INTER + INTRA:          -4.260
REMARK INTER:                  -4.103
REMARK INTRA:                  -0.156
REMARK UNBOUND:                -0.081
REMARK SMILES CCCCCC(=O)[O-]
REMARK SMILES IDX 4 1 5 2 6 3 7 4 8 5 3 6 2 7 1 8
REMARK H PARENT
REMARK Flexibility Score: inf
ROOT
ATOM      1  C   UNL     1      16.897 -10.477  12.942  1.00  0.00     0.006 C 
ENDROOT
BRANCH   1   2
ATOM      2  C   UNL     1      17.943 -10.742  11.855  1.00  0.00     0.053 C 
BRANCH   2   3
ATOM      3  C   UNL     1      18.515 -12.116  12.000  1.00  0.00     0.041 C 
ATOM      4  O   UNL     1      19.427 -12.338  12.839  1.00  0.00    -0.550 OA
ATOM      5  O   UNL     1      18.005 -13.163  11.244  1.00  0.00    -0.550 OA
ENDBRANCH   2   3
ENDBRANCH   1   2
BRANCH   1   6
ATOM      6  C   UNL     1      17.316  -9.296  13.832  1.00  0.00     0.000 C 
BRANCH   6   7
ATOM      7  C   UNL     1      18.745  -8.813  13.538  1.00  0.00    -0.003 C 
ATOM      8  C   UNL     1      19.476  -8.335  14.792  1.00  0.00     0.004 C 
ENDBRANCH   6   7
ENDBRANCH   1   6
TORSDOF 4
ENDMDL
MODEL 6
REMARK VINA RESULT:    -3.368      8.495     10.706
REMARK INTER + INTRA:          -4.237
REMARK INTER:                  -4.161
REMARK INTRA:                  -0.076
REMARK UNBOUND:                -0.081
REMARK SMILES CCCCCC(=O)[O-]
REMARK SMILES IDX 4 1 5 2 6 3 7 4 8 5 3 6 2 7 1 8
REMARK H PARENT
REMARK Flexibility Score: inf
ROOT
ATOM      1  C   UNL     1      20.944  -2.946  20.110  1.00  0.00     0.006 C 
ENDROOT
BRANCH   1   2
ATOM      2  C   UNL     1      21.429  -4.199  19.375  1.00  0.00     0.053 C 
BRANCH   2   3
ATOM      3  C   UNL     1      21.344  -4.005  17.895  1.00  0.00     0.041 C 
ATOM      4  O   UNL     1      22.207  -4.522  17.137  1.00  0.00    -0.550 OA
ATOM      5  O   UNL     1      20.283  -3.295  17.347  1.00  0.00    -0.550 OA
ENDBRANCH   2   3
ENDBRANCH   1   2
BRANCH   1   6
ATOM      6  C   UNL     1      20.124  -3.321  21.354  1.00  0.00     0.000 C 
BRANCH   6   7
ATOM      7  C   UNL     1      20.977  -3.371  22.631  1.00  0.00    -0.003 C 
ATOM      8  C   UNL     1      20.971  -2.049  23.397  1.00  0.00     0.004 C 
ENDBRANCH   6   7
ENDBRANCH   1   6
TORSDOF 4
ENDMDL
MODEL 7
REMARK VINA RESULT:    -3.355      7.387      9.107
REMARK INTER + INTRA:          -4.221
REMARK INTER:                  -4.104
REMARK INTRA:                  -0.117
REMARK UNBOUND:                -0.081
REMARK SMILES CCCCCC(=O)[O-]
REMARK SMILES IDX 4 1 5 2 6 3 7 4 8 5 3 6 2 7 1 8
REMARK H PARENT
REMARK Flexibility Score: inf
ROOT
ATOM      1  C   UNL     1      19.540  -4.324  18.767  1.00  0.00     0.006 C 
ENDROOT
BRANCH   1   2
ATOM      2  C   UNL     1      21.010  -4.744  18.849  1.00  0.00     0.053 C 
BRANCH   2   3
ATOM      3  C   UNL     1      21.486  -5.249  17.524  1.00  0.00     0.041 C 
ATOM      4  O   UNL     1      22.445  -4.682  16.937  1.00  0.00    -0.550 OA
ATOM      5  O   UNL     1      20.904  -6.377  16.961  1.00  0.00    -0.550 OA
ENDBRANCH   2   3
ENDBRANCH   1   2
BRANCH   1   6
ATOM      6  C   UNL     1      18.739  -4.894  19.949  1.00  0.00     0.000 C 
BRANCH   6   7
ATOM      7  C   UNL     1      17.960  -3.811  20.711  1.00  0.00    -0.003 C 
ATOM      8  C   UNL     1      18.838  -2.628  21.118  1.00  0.00     0.004 C 
ENDBRANCH   6   7
ENDBRANCH   1   6
TORSDOF 4
ENDMDL
MODEL 8
REMARK VINA RESULT:    -3.336      8.406     10.323
REMARK INTER + INTRA:          -4.197
REMARK INTER:                  -3.924
REMARK INTRA:                  -0.273
REMARK UNBOUND:                -0.081
REMARK SMILES CCCCCC(=O)[O-]
REMARK SMILES IDX 4 1 5 2 6 3 7 4 8 5 3 6 2 7 1 8
REMARK H PARENT
REMARK Flexibility Score: inf
ROOT
ATOM      1  C   UNL     1      18.773  -4.400  21.067  1.00  0.00     0.006 C 
ENDROOT
BRANCH   1   2
ATOM      2  C   UNL     1      18.675  -4.902  19.623  1.00  0.00     0.053 C 
BRANCH   2   3
ATOM      3  C   UNL     1      19.861  -4.455  18.831  1.00  0.00     0.041 C 
ATOM      4  O   UNL     1      19.704  -3.778  17.781  1.00  0.00    -0.550 OA
ATOM      5  O   UNL     1      21.144  -4.743  19.279  1.00  0.00    -0.550 OA
ENDBRANCH   2   3
ENDBRANCH   1   2
BRANCH   1   6
ATOM      6  C   UNL     1      18.762  -2.864  21.116  1.00  0.00     0.000 C 
BRANCH   6   7
ATOM      7  C   UNL     1      19.977  -2.289  21.862  1.00  0.00    -0.003 C 
ATOM      8  C   UNL     1      20.761  -3.355  22.625  1.00  0.00     0.004 C 
ENDBRANCH   6   7
ENDBRANCH   1   6
TORSDOF 4
ENDMDL
MODEL 9
REMARK VINA RESULT:    -3.319     11.215     13.016
REMARK INTER + INTRA:          -4.176
REMARK INTER:                  -3.900
REMARK INTRA:                  -0.276
REMARK UNBOUND:                -0.081
REMARK SMILES CCCCCC(=O)[O-]
REMARK SMILES IDX 4 1 5 2 6 3 7 4 8 5 3 6 2 7 1 8
REMARK H PARENT
REMARK Flexibility Score: inf
ROOT
ATOM      1  C   UNL     1      21.036  -1.836  23.597  1.00  0.00     0.006 C 
ENDROOT
BRANCH   1   2
ATOM      2  C   UNL     1      21.099  -3.252  23.017  1.00  0.00     0.053 C 
BRANCH   2   3
ATOM      3  C   UNL     1      20.762  -3.237  21.561  1.00  0.00     0.041 C 
ATOM      4  O   UNL     1      19.616  -2.881  21.179  1.00  0.00    -0.550 OA
ATOM      5  O   UNL     1      21.728  -3.569  20.620  1.00  0.00    -0.550 OA
ENDBRANCH   2   3
ENDBRANCH   1   2
BRANCH   1   6
ATOM      6  C   UNL     1      22.168  -0.961  23.037  1.00  0.00     0.000 C 
BRANCH   6   7
ATOM      7  C   UNL     1      21.646   0.296  22.323  1.00  0.00    -0.003 C 
ATOM      8  C   UNL     1      21.868   0.252  20.812  1.00  0.00     0.004 C 
ENDBRANCH   6   7
ENDBRANCH   1   6
TORSDOF 4
ENDMDL
