MODEL 1
REMARK VINA RESULT:    -4.255      0.000      0.000
REMARK INTER + INTRA:          -5.191
REMARK INTER:                  -5.001
REMARK INTRA:                  -0.190
REMARK UNBOUND:                -0.190
REMARK SMILES C=CC(C)=CCC=C(C)C
REMARK SMILES IDX 5 1 3 2 4 3 6 4 7 5 9 6 8 7 10 8 2 9 1 10
REMARK H PARENT
REMARK Flexibility Score: inf
ROOT
ATOM      1  C   UNL     1     -14.826  -1.999  20.696  1.00  0.00    -0.020 C 
ATOM      2  C   UNL     1     -14.151  -2.043  21.863  1.00  0.00    -0.055 C 
ATOM      3  C   UNL     1     -12.676  -2.374  21.924  1.00  0.00     0.044 C 
ENDROOT
BRANCH   1   4
ATOM      4  C   UNL     1     -14.236  -2.294  19.342  1.00  0.00     0.055 C 
BRANCH   4   5
ATOM      5  C   UNL     1     -15.222  -2.026  18.230  1.00  0.00    -0.024 C 
ATOM      6  C   UNL     1     -16.055  -1.912  15.921  1.00  0.00     0.039 C 
ATOM      7  C   UNL     1     -14.961  -2.204  16.916  1.00  0.00    -0.080 C 
ATOM      8  C   UNL     1     -13.621  -2.695  16.424  1.00  0.00     0.039 C 
ENDBRANCH   4   5
ENDBRANCH   1   4
BRANCH   2   9
ATOM      9  C   UNL     1     -14.883  -1.670  23.101  1.00  0.00    -0.005 C 
ATOM     10  C   UNL     1     -14.934  -0.429  23.585  1.00  0.00     0.009 C 
ENDBRANCH   2   9
TORSDOF 3
ENDMDL
MODEL 2
REMARK VINA RESULT:    -3.988      0.543      5.350
REMARK INTER + INTRA:          -4.878
REMARK INTER:                  -4.660
REMARK INTRA:                  -0.218
REMARK UNBOUND:                -0.190
REMARK SMILES C=CC(C)=CCC=C(C)C
REMARK SMILES IDX 5 1 3 2 4 3 6 4 7 5 9 6 8 7 10 8 2 9 1 10
REMARK H PARENT
REMARK Flexibility Score: inf
ROOT
ATOM      1  C   UNL     1     -15.109  -2.066  18.477  1.00  0.00    -0.020 C 
ATOM      2  C   UNL     1     -14.793  -2.202  17.173  1.00  0.00    -0.055 C 
ATOM      3  C   UNL     1     -13.470  -2.783  16.725  1.00  0.00     0.044 C 
ENDROOT
BRANCH   1   4
ATOM      4  C   UNL     1     -14.208  -2.429  19.629  1.00  0.00     0.055 C 
BRANCH   4   5
ATOM      5  C   UNL     1     -14.680  -1.814  20.925  1.00  0.00    -0.024 C 
ATOM      6  C   UNL     1     -14.560  -1.128  23.282  1.00  0.00     0.039 C 
ATOM      7  C   UNL     1     -13.963  -1.798  22.071  1.00  0.00    -0.080 C 
ATOM      8  C   UNL     1     -12.588  -2.415  22.164  1.00  0.00     0.039 C 
ENDBRANCH   4   5
ENDBRANCH   1   4
BRANCH   2   9
ATOM      9  C   UNL     1     -15.827  -1.841  16.170  1.00  0.00    -0.005 C 
ATOM     10  C   UNL     1     -16.792  -0.947  16.391  1.00  0.00     0.009 C 
ENDBRANCH   2   9
TORSDOF 3
ENDMDL
MODEL 3
REMARK VINA RESULT:    -3.292      1.500      5.681
REMARK INTER + INTRA:          -4.060
REMARK INTER:                  -3.849
REMARK INTRA:                  -0.212
REMARK UNBOUND:                -0.190
REMARK SMILES C=CC(C)=CCC=C(C)C
REMARK SMILES IDX 5 1 3 2 4 3 6 4 7 5 9 6 8 7 10 8 2 9 1 10
REMARK H PARENT
REMARK Flexibility Score: inf
ROOT
ATOM      1  C   UNL     1     -15.010  -2.883  17.606  1.00  0.00    -0.020 C 
ATOM      2  C   UNL     1     -14.467  -3.335  16.457  1.00  0.00    -0.055 C 
ATOM      3  C   UNL     1     -13.050  -2.994  16.052  1.00  0.00     0.044 C 
ENDROOT
BRANCH   1   4
ATOM      4  C   UNL     1     -14.318  -1.983  18.596  1.00  0.00     0.055 C 
BRANCH   4   5
ATOM      5  C   UNL     1     -14.928  -2.091  19.973  1.00  0.00    -0.024 C 
ATOM      6  C   UNL     1     -14.978  -2.140  22.430  1.00  0.00     0.039 C 
ATOM      7  C   UNL     1     -14.227  -2.037  21.128  1.00  0.00    -0.080 C 
ATOM      8  C   UNL     1     -12.727  -1.864  21.147  1.00  0.00     0.039 C 
ENDBRANCH   4   5
ENDBRANCH   1   4
BRANCH   2   9
ATOM      9  C   UNL     1     -15.279  -4.259  15.624  1.00  0.00    -0.005 C 
ATOM     10  C   UNL     1     -14.900  -5.498  15.312  1.00  0.00     0.009 C 
ENDBRANCH   2   9
TORSDOF 3
ENDMDL
MODEL 4
REMARK VINA RESULT:    -3.281      1.138      1.324
REMARK INTER + INTRA:          -4.047
REMARK INTER:                  -3.804
REMARK INTRA:                  -0.243
REMARK UNBOUND:                -0.190
REMARK SMILES C=CC(C)=CCC=C(C)C
REMARK SMILES IDX 5 1 3 2 4 3 6 4 7 5 9 6 8 7 10 8 2 9 1 10
REMARK H PARENT
REMARK Flexibility Score: inf
ROOT
ATOM      1  C   UNL     1     -14.990  -2.009  19.835  1.00  0.00    -0.020 C 
ATOM      2  C   UNL     1     -14.219  -2.039  20.941  1.00  0.00    -0.055 C 
ATOM      3  C   UNL     1     -12.713  -1.911  20.872  1.00  0.00     0.044 C 
ENDROOT
BRANCH   1   4
ATOM      4  C   UNL     1     -14.477  -1.882  18.424  1.00  0.00     0.055 C 
BRANCH   4   5
ATOM      5  C   UNL     1     -15.035  -2.959  17.526  1.00  0.00    -0.024 C 
ATOM      6  C   UNL     1     -15.086  -4.531  15.637  1.00  0.00     0.039 C 
ATOM      7  C   UNL     1     -14.412  -3.438  16.425  1.00  0.00    -0.080 C 
ATOM      8  C   UNL     1     -13.066  -2.920  15.978  1.00  0.00     0.039 C 
ENDBRANCH   4   5
ENDBRANCH   1   4
BRANCH   2   9
ATOM      9  C   UNL     1     -14.901  -2.117  22.258  1.00  0.00    -0.005 C 
ATOM     10  C   UNL     1     -14.828  -1.163  23.187  1.00  0.00     0.009 C 
ENDBRANCH   2   9
TORSDOF 3
ENDMDL
MODEL 5
REMARK VINA RESULT:    -3.227      0.937      5.686
REMARK INTER + INTRA:          -3.983
REMARK INTER:                  -3.760
REMARK INTRA:                  -0.223
REMARK UNBOUND:                -0.190
REMARK SMILES C=CC(C)=CCC=C(C)C
REMARK SMILES IDX 5 1 3 2 4 3 6 4 7 5 9 6 8 7 10 8 2 9 1 10
REMARK H PARENT
REMARK Flexibility Score: inf
ROOT
ATOM      1  C   UNL     1     -14.581  -2.472  18.713  1.00  0.00    -0.020 C 
ATOM      2  C   UNL     1     -15.083  -2.008  17.551  1.00  0.00    -0.055 C 
ATOM      3  C   UNL     1     -16.112  -0.900  17.507  1.00  0.00     0.044 C 
ENDROOT
BRANCH   1   4
ATOM      4  C   UNL     1     -14.982  -1.991  20.083  1.00  0.00     0.055 C 
BRANCH   4   5
ATOM      5  C   UNL     1     -13.862  -2.152  21.084  1.00  0.00    -0.024 C 
ATOM      6  C   UNL     1     -12.704  -1.935  23.240  1.00  0.00     0.039 C 
ATOM      7  C   UNL     1     -13.893  -1.680  22.350  1.00  0.00    -0.080 C 
ATOM      8  C   UNL     1     -15.081  -0.923  22.894  1.00  0.00     0.039 C 
ENDBRANCH   4   5
ENDBRANCH   1   4
BRANCH   2   9
ATOM      9  C   UNL     1     -14.532  -2.564  16.288  1.00  0.00    -0.005 C 
ATOM     10  C   UNL     1     -13.240  -2.835  16.101  1.00  0.00     0.009 C 
ENDBRANCH   2   9
TORSDOF 3
ENDMDL
MODEL 6
REMARK VINA RESULT:    -2.760      1.896      3.678
REMARK INTER + INTRA:          -3.435
REMARK INTER:                  -2.979
REMARK INTRA:                  -0.456
REMARK UNBOUND:                -0.190
REMARK SMILES C=CC(C)=CCC=C(C)C
REMARK SMILES IDX 5 1 3 2 4 3 6 4 7 5 9 6 8 7 10 8 2 9 1 10
REMARK H PARENT
REMARK Flexibility Score: inf
ROOT
ATOM      1  C   UNL     1     -13.873  -2.672  17.828  1.00  0.00    -0.020 C 
ATOM      2  C   UNL     1     -14.842  -1.945  18.419  1.00  0.00    -0.055 C 
ATOM      3  C   UNL     1     -15.882  -1.191  17.619  1.00  0.00     0.044 C 
ENDROOT
BRANCH   1   4
ATOM      4  C   UNL     1     -13.676  -2.805  16.340  1.00  0.00     0.055 C 
BRANCH   4   5
ATOM      5  C   UNL     1     -13.861  -4.230  15.876  1.00  0.00    -0.024 C 
ATOM      6  C   UNL     1     -15.052  -6.182  14.974  1.00  0.00     0.039 C 
ATOM      7  C   UNL     1     -15.027  -4.743  15.421  1.00  0.00    -0.080 C 
ATOM      8  C   UNL     1     -16.287  -3.916  15.339  1.00  0.00     0.039 C 
ENDBRANCH   4   5
ENDBRANCH   1   4
BRANCH   2   9
ATOM      9  C   UNL     1     -14.918  -1.969  19.903  1.00  0.00    -0.005 C 
ATOM     10  C   UNL     1     -13.856  -2.121  20.695  1.00  0.00     0.009 C 
ENDBRANCH   2   9
TORSDOF 3
ENDMDL
MODEL 7
REMARK VINA RESULT:    -2.436      1.298      2.279
REMARK INTER + INTRA:          -3.054
REMARK INTER:                  -3.147
REMARK INTRA:                   0.093
REMARK UNBOUND:                -0.190
REMARK SMILES C=CC(C)=CCC=C(C)C
REMARK SMILES IDX 5 1 3 2 4 3 6 4 7 5 9 6 8 7 10 8 2 9 1 10
REMARK H PARENT
REMARK Flexibility Score: inf
ROOT
ATOM      1  C   UNL     1     -13.631  -2.321  19.086  1.00  0.00    -0.020 C 
ATOM      2  C   UNL     1     -14.061  -2.338  20.363  1.00  0.00    -0.055 C 
ATOM      3  C   UNL     1     -15.530  -2.433  20.714  1.00  0.00     0.044 C 
ENDROOT
BRANCH   1   4
ATOM      4  C   UNL     1     -14.521  -2.360  17.871  1.00  0.00     0.055 C 
BRANCH   4   5
ATOM      5  C   UNL     1     -15.486  -1.199  17.845  1.00  0.00    -0.024 C 
ATOM      6  C   UNL     1     -17.300   0.219  16.987  1.00  0.00     0.039 C 
ATOM      7  C   UNL     1     -16.388  -0.974  16.864  1.00  0.00    -0.080 C 
ATOM      8  C   UNL     1     -16.514  -1.887  15.668  1.00  0.00     0.039 C 
ENDBRANCH   4   5
ENDBRANCH   1   4
BRANCH   2   9
ATOM      9  C   UNL     1     -13.037  -2.345  21.439  1.00  0.00    -0.005 C 
ATOM     10  C   UNL     1     -13.218  -1.789  22.637  1.00  0.00     0.009 C 
ENDBRANCH   2   9
TORSDOF 3
ENDMDL
MODEL 8
REMARK VINA RESULT:    -2.199      3.282      4.577
REMARK INTER + INTRA:          -2.776
REMARK INTER:                  -2.418
REMARK INTRA:                  -0.358
REMARK UNBOUND:                -0.190
REMARK SMILES C=CC(C)=CCC=C(C)C
REMARK SMILES IDX 5 1 3 2 4 3 6 4 7 5 9 6 8 7 10 8 2 9 1 10
REMARK H PARENT
REMARK Flexibility Score: inf
ROOT
ATOM      1  C   UNL     1     -15.515  -1.305  17.995  1.00  0.00    -0.020 C 
ATOM      2  C   UNL     1     -16.349  -0.868  17.029  1.00  0.00    -0.055 C 
ATOM      3  C   UNL     1     -16.680  -1.708  15.815  1.00  0.00     0.044 C 
ENDROOT
BRANCH   1   4
ATOM      4  C   UNL     1     -14.798  -2.630  17.986  1.00  0.00     0.055 C 
BRANCH   4   5
ATOM      5  C   UNL     1     -13.589  -2.606  17.082  1.00  0.00    -0.024 C 
ATOM      6  C   UNL     1     -12.161  -3.262  15.193  1.00  0.00     0.039 C 
ATOM      7  C   UNL     1     -13.415  -3.416  16.014  1.00  0.00    -0.080 C 
ATOM      8  C   UNL     1     -14.440  -4.452  15.618  1.00  0.00     0.039 C 
ENDBRANCH   4   5
ENDBRANCH   1   4
BRANCH   2   9
ATOM      9  C   UNL     1     -17.011   0.447  17.229  1.00  0.00    -0.005 C 
ATOM     10  C   UNL     1     -16.373   1.540  17.650  1.00  0.00     0.009 C 
ENDBRANCH   2   9
TORSDOF 3
ENDMDL
