MODEL 1
REMARK VINA RESULT:    -3.805      0.000      0.000
REMARK INTER + INTRA:          -9.144
REMARK INTER:                  -6.920
REMARK INTRA:                  -2.224
REMARK UNBOUND:                -2.224
REMARK SMILES CCCCCCCCCCCCCCCC(=O)[O-]
REMARK SMILES IDX 9 1 10 2 11 3 12 4 13 5 14 6 15 7 16 8 17 9 18 10 8 11 7 12
REMARK SMILES IDX 6 13 5 14 4 15 3 16 2 17 1 18
REMARK H PARENT
REMARK Flexibility Score: inf
ROOT
ATOM      1  C   UNL     1     -21.789   8.424  18.613  1.00  0.00     0.000 C 
ENDROOT
BRANCH   1   2
ATOM      2  C   UNL     1     -22.139   8.275  20.105  1.00  0.00     0.000 C 
BRANCH   2   3
ATOM      3  C   UNL     1     -23.639   8.072  20.409  1.00  0.00     0.000 C 
BRANCH   3   4
ATOM      4  C   UNL     1     -23.990   6.740  21.097  1.00  0.00     0.000 C 
BRANCH   4   5
ATOM      5  C   UNL     1     -22.807   5.767  21.267  1.00  0.00     0.000 C 
BRANCH   5   6
ATOM      6  C   UNL     1     -22.748   4.666  20.187  1.00  0.00     0.006 C 
BRANCH   6   7
ATOM      7  C   UNL     1     -21.324   4.144  19.958  1.00  0.00     0.053 C 
BRANCH   7   8
ATOM      8  C   UNL     1     -21.222   2.707  20.366  1.00  0.00     0.041 C 
ATOM      9  O   UNL     1     -20.121   2.102  20.283  1.00  0.00    -0.550 OA
ATOM     10  O   UNL     1     -22.355   2.024  20.791  1.00  0.00    -0.550 OA
ENDBRANCH   7   8
ENDBRANCH   6   7
ENDBRANCH   5   6
ENDBRANCH   4   5
ENDBRANCH   3   4
ENDBRANCH   2   3
ENDBRANCH   1   2
BRANCH   1  11
ATOM     11  C   UNL     1     -22.454   7.355  17.732  1.00  0.00     0.000 C 
BRANCH  11  12
ATOM     12  C   UNL     1     -21.406   6.418  17.122  1.00  0.00    -0.000 C 
BRANCH  12  13
ATOM     13  C   UNL     1     -20.518   7.165  16.115  1.00  0.00    -0.000 C 
BRANCH  13  14
ATOM     14  C   UNL     1     -19.114   6.554  15.995  1.00  0.00    -0.000 C 
BRANCH  14  15
ATOM     15  C   UNL     1     -18.640   5.899  17.303  1.00  0.00    -0.000 C 
BRANCH  15  16
ATOM     16  C   UNL     1     -17.575   6.760  17.993  1.00  0.00    -0.000 C 
BRANCH  16  17
ATOM     17  C   UNL     1     -18.213   7.714  19.009  1.00  0.00    -0.003 C 
ATOM     18  C   UNL     1     -18.617   6.974  20.281  1.00  0.00     0.004 C 
ENDBRANCH  16  17
ENDBRANCH  15  16
ENDBRANCH  14  15
ENDBRANCH  13  14
ENDBRANCH  12  13
ENDBRANCH  11  12
ENDBRANCH   1  11
TORSDOF 14
ENDMDL
MODEL 2
REMARK VINA RESULT:    -3.673      1.594      2.761
REMARK INTER + INTRA:          -8.902
REMARK INTER:                  -6.488
REMARK INTRA:                  -2.414
REMARK UNBOUND:                -2.224
REMARK SMILES CCCCCCCCCCCCCCCC(=O)[O-]
REMARK SMILES IDX 9 1 10 2 11 3 12 4 13 5 14 6 15 7 16 8 17 9 18 10 8 11 7 12
REMARK SMILES IDX 6 13 5 14 4 15 3 16 2 17 1 18
REMARK H PARENT
REMARK Flexibility Score: inf
ROOT
ATOM      1  C   UNL     1     -21.828   6.379  17.575  1.00  0.00     0.000 C 
ENDROOT
BRANCH   1   2
ATOM      2  C   UNL     1     -22.033   7.867  17.915  1.00  0.00     0.000 C 
BRANCH   2   3
ATOM      3  C   UNL     1     -21.277   8.363  19.165  1.00  0.00     0.000 C 
BRANCH   3   4
ATOM      4  C   UNL     1     -21.977   8.078  20.507  1.00  0.00     0.000 C 
BRANCH   4   5
ATOM      5  C   UNL     1     -23.516   8.127  20.458  1.00  0.00     0.000 C 
BRANCH   5   6
ATOM      6  C   UNL     1     -24.198   6.903  21.107  1.00  0.00     0.006 C 
BRANCH   6   7
ATOM      7  C   UNL     1     -23.351   5.629  20.992  1.00  0.00     0.053 C 
BRANCH   7   8
ATOM      8  C   UNL     1     -23.545   4.762  22.196  1.00  0.00     0.041 C 
ATOM      9  O   UNL     1     -22.746   3.818  22.433  1.00  0.00    -0.550 OA
ATOM     10  O   UNL     1     -24.637   4.967  23.030  1.00  0.00    -0.550 OA
ENDBRANCH   7   8
ENDBRANCH   6   7
ENDBRANCH   5   6
ENDBRANCH   4   5
ENDBRANCH   3   4
ENDBRANCH   2   3
ENDBRANCH   1   2
BRANCH   1  11
ATOM     11  C   UNL     1     -21.266   6.159  16.163  1.00  0.00     0.000 C 
BRANCH  11  12
ATOM     12  C   UNL     1     -19.949   6.920  15.971  1.00  0.00    -0.000 C 
BRANCH  12  13
ATOM     13  C   UNL     1     -18.779   6.168  16.625  1.00  0.00    -0.000 C 
BRANCH  13  14
ATOM     14  C   UNL     1     -18.044   7.014  17.676  1.00  0.00    -0.000 C 
BRANCH  14  15
ATOM     15  C   UNL     1     -18.212   6.464  19.101  1.00  0.00    -0.000 C 
BRANCH  15  16
ATOM     16  C   UNL     1     -18.658   4.996  19.073  1.00  0.00    -0.000 C 
BRANCH  16  17
ATOM     17  C   UNL     1     -19.899   4.782  19.948  1.00  0.00    -0.003 C 
ATOM     18  C   UNL     1     -19.570   4.973  21.426  1.00  0.00     0.004 C 
ENDBRANCH  16  17
ENDBRANCH  15  16
ENDBRANCH  14  15
ENDBRANCH  13  14
ENDBRANCH  12  13
ENDBRANCH  11  12
ENDBRANCH   1  11
TORSDOF 14
ENDMDL
MODEL 3
REMARK VINA RESULT:    -3.610      2.398      4.993
REMARK INTER + INTRA:          -8.788
REMARK INTER:                  -6.799
REMARK INTRA:                  -1.989
REMARK UNBOUND:                -2.224
REMARK SMILES CCCCCCCCCCCCCCCC(=O)[O-]
REMARK SMILES IDX 9 1 10 2 11 3 12 4 13 5 14 6 15 7 16 8 17 9 18 10 8 11 7 12
REMARK SMILES IDX 6 13 5 14 4 15 3 16 2 17 1 18
REMARK H PARENT
REMARK Flexibility Score: inf
ROOT
ATOM      1  C   UNL     1     -22.195   8.171  20.593  1.00  0.00     0.000 C 
ENDROOT
BRANCH   1   2
ATOM      2  C   UNL     1     -21.343   8.311  19.319  1.00  0.00     0.000 C 
BRANCH   2   3
ATOM      3  C   UNL     1     -22.069   7.964  18.003  1.00  0.00     0.000 C 
BRANCH   3   4
ATOM      4  C   UNL     1     -21.870   6.519  17.509  1.00  0.00     0.000 C 
BRANCH   4   5
ATOM      5  C   UNL     1     -21.056   6.386  16.208  1.00  0.00     0.000 C 
BRANCH   5   6
ATOM      6  C   UNL     1     -19.696   7.114  16.249  1.00  0.00     0.006 C 
BRANCH   6   7
ATOM      7  C   UNL     1     -18.535   6.173  16.594  1.00  0.00     0.053 C 
BRANCH   7   8
ATOM      8  C   UNL     1     -17.763   6.701  17.762  1.00  0.00     0.041 C 
ATOM      9  O   UNL     1     -18.186   7.700  18.402  1.00  0.00    -0.550 OA
ATOM     10  O   UNL     1     -16.551   6.120  18.114  1.00  0.00    -0.550 OA
ENDBRANCH   7   8
ENDBRANCH   6   7
ENDBRANCH   5   6
ENDBRANCH   4   5
ENDBRANCH   3   4
ENDBRANCH   2   3
ENDBRANCH   1   2
BRANCH   1  11
ATOM     11  C   UNL     1     -23.687   7.959  20.295  1.00  0.00     0.000 C 
BRANCH  11  12
ATOM     12  C   UNL     1     -24.248   6.786  21.108  1.00  0.00    -0.000 C 
BRANCH  12  13
ATOM     13  C   UNL     1     -23.124   5.834  21.547  1.00  0.00    -0.000 C 
BRANCH  13  14
ATOM     14  C   UNL     1     -23.531   4.355  21.454  1.00  0.00    -0.000 C 
BRANCH  14  15
ATOM     15  C   UNL     1     -22.485   3.498  20.723  1.00  0.00    -0.000 C 
BRANCH  15  16
ATOM     16  C   UNL     1     -21.571   4.372  19.854  1.00  0.00    -0.000 C 
BRANCH  16  17
ATOM     17  C   UNL     1     -20.095   4.107  20.171  1.00  0.00    -0.003 C 
ATOM     18  C   UNL     1     -19.424   5.350  20.749  1.00  0.00     0.004 C 
ENDBRANCH  16  17
ENDBRANCH  15  16
ENDBRANCH  14  15
ENDBRANCH  13  14
ENDBRANCH  12  13
ENDBRANCH  11  12
ENDBRANCH   1  11
TORSDOF 14
ENDMDL
MODEL 4
REMARK VINA RESULT:    -3.592      1.822      5.149
REMARK INTER + INTRA:          -8.755
REMARK INTER:                  -7.090
REMARK INTRA:                  -1.665
REMARK UNBOUND:                -2.224
REMARK SMILES CCCCCCCCCCCCCCCC(=O)[O-]
REMARK SMILES IDX 9 1 10 2 11 3 12 4 13 5 14 6 15 7 16 8 17 9 18 10 8 11 7 12
REMARK SMILES IDX 6 13 5 14 4 15 3 16 2 17 1 18
REMARK H PARENT
REMARK Flexibility Score: inf
ROOT
ATOM      1  C   UNL     1     -22.011   8.191  20.521  1.00  0.00     0.000 C 
ENDROOT
BRANCH   1   2
ATOM      2  C   UNL     1     -21.074   8.214  19.300  1.00  0.00     0.000 C 
BRANCH   2   3
ATOM      3  C   UNL     1     -21.767   7.996  17.938  1.00  0.00     0.000 C 
BRANCH   3   4
ATOM      4  C   UNL     1     -21.412   6.677  17.228  1.00  0.00     0.000 C 
BRANCH   4   5
ATOM      5  C   UNL     1     -20.627   6.840  15.913  1.00  0.00     0.000 C 
BRANCH   5   6
ATOM      6  C   UNL     1     -19.198   6.256  15.966  1.00  0.00     0.006 C 
BRANCH   6   7
ATOM      7  C   UNL     1     -18.294   7.004  16.954  1.00  0.00     0.053 C 
BRANCH   7   8
ATOM      8  C   UNL     1     -17.716   6.054  17.956  1.00  0.00     0.041 C 
ATOM      9  O   UNL     1     -16.498   6.125  18.267  1.00  0.00    -0.550 OA
ATOM     10  O   UNL     1     -18.512   5.060  18.509  1.00  0.00    -0.550 OA
ENDBRANCH   7   8
ENDBRANCH   6   7
ENDBRANCH   5   6
ENDBRANCH   4   5
ENDBRANCH   3   4
ENDBRANCH   2   3
ENDBRANCH   1   2
BRANCH   1  11
ATOM     11  C   UNL     1     -23.488   8.010  20.140  1.00  0.00     0.000 C 
BRANCH  11  12
ATOM     12  C   UNL     1     -24.118   6.852  20.922  1.00  0.00    -0.000 C 
BRANCH  12  13
ATOM     13  C   UNL     1     -23.039   5.898  21.457  1.00  0.00    -0.000 C 
BRANCH  13  14
ATOM     14  C   UNL     1     -23.006   4.559  20.705  1.00  0.00    -0.000 C 
BRANCH  14  15
ATOM     15  C   UNL     1     -21.695   4.347  19.931  1.00  0.00    -0.000 C 
BRANCH  15  16
ATOM     16  C   UNL     1     -20.965   3.091  20.423  1.00  0.00    -0.000 C 
BRANCH  16  17
ATOM     17  C   UNL     1     -21.960   1.973  20.758  1.00  0.00    -0.003 C 
ATOM     18  C   UNL     1     -21.311   0.599  20.622  1.00  0.00     0.004 C 
ENDBRANCH  16  17
ENDBRANCH  15  16
ENDBRANCH  14  15
ENDBRANCH  13  14
ENDBRANCH  12  13
ENDBRANCH  11  12
ENDBRANCH   1  11
TORSDOF 14
ENDMDL
MODEL 5
REMARK VINA RESULT:    -3.583      2.037      5.176
REMARK INTER + INTRA:          -8.740
REMARK INTER:                  -6.488
REMARK INTRA:                  -2.252
REMARK UNBOUND:                -2.224
REMARK SMILES CCCCCCCCCCCCCCCC(=O)[O-]
REMARK SMILES IDX 9 1 10 2 11 3 12 4 13 5 14 6 15 7 16 8 17 9 18 10 8 11 7 12
REMARK SMILES IDX 6 13 5 14 4 15 3 16 2 17 1 18
REMARK H PARENT
REMARK Flexibility Score: inf
ROOT
ATOM      1  C   UNL     1     -21.026   7.958  19.582  1.00  0.00     0.000 C 
ENDROOT
BRANCH   1   2
ATOM      2  C   UNL     1     -21.925   8.371  18.403  1.00  0.00     0.000 C 
BRANCH   2   3
ATOM      3  C   UNL     1     -22.272   7.237  17.415  1.00  0.00     0.000 C 
BRANCH   3   4
ATOM      4  C   UNL     1     -21.144   6.218  17.169  1.00  0.00     0.000 C 
BRANCH   4   5
ATOM      5  C   UNL     1     -20.142   6.614  16.068  1.00  0.00     0.000 C 
BRANCH   5   6
ATOM      6  C   UNL     1     -18.703   6.827  16.585  1.00  0.00     0.006 C 
BRANCH   6   7
ATOM      7  C   UNL     1     -18.283   5.767  17.610  1.00  0.00     0.053 C 
BRANCH   7   8
ATOM      8  C   UNL     1     -17.683   6.416  18.818  1.00  0.00     0.041 C 
ATOM      9  O   UNL     1     -17.373   5.723  19.822  1.00  0.00    -0.550 OA
ATOM     10  O   UNL     1     -17.513   7.795  18.852  1.00  0.00    -0.550 OA
ENDBRANCH   7   8
ENDBRANCH   6   7
ENDBRANCH   5   6
ENDBRANCH   4   5
ENDBRANCH   3   4
ENDBRANCH   2   3
ENDBRANCH   1   2
BRANCH   1  11
ATOM     11  C   UNL     1     -21.787   7.872  20.914  1.00  0.00     0.000 C 
BRANCH  11  12
ATOM     12  C   UNL     1     -23.233   8.354  20.752  1.00  0.00    -0.000 C 
BRANCH  12  13
ATOM     13  C   UNL     1     -24.228   7.230  21.079  1.00  0.00    -0.000 C 
BRANCH  13  14
ATOM     14  C   UNL     1     -23.726   5.847  20.635  1.00  0.00    -0.000 C 
BRANCH  14  15
ATOM     15  C   UNL     1     -23.561   4.871  21.811  1.00  0.00    -0.000 C 
BRANCH  15  16
ATOM     16  C   UNL     1     -22.578   3.748  21.458  1.00  0.00    -0.000 C 
BRANCH  16  17
ATOM     17  C   UNL     1     -21.967   3.970  20.069  1.00  0.00    -0.003 C 
ATOM     18  C   UNL     1     -20.443   4.006  20.138  1.00  0.00     0.004 C 
ENDBRANCH  16  17
ENDBRANCH  15  16
ENDBRANCH  14  15
ENDBRANCH  13  14
ENDBRANCH  12  13
ENDBRANCH  11  12
ENDBRANCH   1  11
TORSDOF 14
ENDMDL
MODEL 6
REMARK VINA RESULT:    -3.570      1.330      1.974
REMARK INTER + INTRA:          -8.715
REMARK INTER:                  -6.867
REMARK INTRA:                  -1.848
REMARK UNBOUND:                -2.224
REMARK SMILES CCCCCCCCCCCCCCCC(=O)[O-]
REMARK SMILES IDX 9 1 10 2 11 3 12 4 13 5 14 6 15 7 16 8 17 9 18 10 8 11 7 12
REMARK SMILES IDX 6 13 5 14 4 15 3 16 2 17 1 18
REMARK H PARENT
REMARK Flexibility Score: inf
ROOT
ATOM      1  C   UNL     1     -22.060   8.223  20.015  1.00  0.00     0.000 C 
ENDROOT
BRANCH   1   2
ATOM      2  C   UNL     1     -23.547   7.987  20.336  1.00  0.00     0.000 C 
BRANCH   2   3
ATOM      3  C   UNL     1     -23.863   6.642  21.023  1.00  0.00     0.000 C 
BRANCH   3   4
ATOM      4  C   UNL     1     -22.669   5.679  21.153  1.00  0.00     0.000 C 
BRANCH   4   5
ATOM      5  C   UNL     1     -22.636   4.543  20.114  1.00  0.00     0.000 C 
BRANCH   5   6
ATOM      6  C   UNL     1     -22.289   3.163  20.712  1.00  0.00     0.006 C 
BRANCH   6   7
ATOM      7  C   UNL     1     -23.478   2.523  21.440  1.00  0.00     0.053 C 
BRANCH   7   8
ATOM      8  C   UNL     1     -23.194   1.084  21.741  1.00  0.00     0.041 C 
ATOM      9  O   UNL     1     -22.404   0.775  22.671  1.00  0.00    -0.550 OA
ATOM     10  O   UNL     1     -23.764   0.086  20.960  1.00  0.00    -0.550 OA
ENDBRANCH   7   8
ENDBRANCH   6   7
ENDBRANCH   5   6
ENDBRANCH   4   5
ENDBRANCH   3   4
ENDBRANCH   2   3
ENDBRANCH   1   2
BRANCH   1  11
ATOM     11  C   UNL     1     -21.787   8.362  18.509  1.00  0.00     0.000 C 
BRANCH  11  12
ATOM     12  C   UNL     1     -22.538   7.287  17.714  1.00  0.00    -0.000 C 
BRANCH  12  13
ATOM     13  C   UNL     1     -21.557   6.350  16.993  1.00  0.00    -0.000 C 
BRANCH  13  14
ATOM     14  C   UNL     1     -20.507   7.112  16.170  1.00  0.00    -0.000 C 
BRANCH  14  15
ATOM     15  C   UNL     1     -19.117   6.460  16.235  1.00  0.00    -0.000 C 
BRANCH  15  16
ATOM     16  C   UNL     1     -18.400   6.825  17.542  1.00  0.00    -0.000 C 
BRANCH  16  17
ATOM     17  C   UNL     1     -18.252   5.598  18.449  1.00  0.00    -0.003 C 
ATOM     18  C   UNL     1     -19.092   5.743  19.714  1.00  0.00     0.004 C 
ENDBRANCH  16  17
ENDBRANCH  15  16
ENDBRANCH  14  15
ENDBRANCH  13  14
ENDBRANCH  12  13
ENDBRANCH  11  12
ENDBRANCH   1  11
TORSDOF 14
ENDMDL
MODEL 7
REMARK VINA RESULT:    -3.558      2.207      4.308
REMARK INTER + INTRA:          -8.693
REMARK INTER:                  -6.528
REMARK INTRA:                  -2.166
REMARK UNBOUND:                -2.224
REMARK SMILES CCCCCCCCCCCCCCCC(=O)[O-]
REMARK SMILES IDX 9 1 10 2 11 3 12 4 13 5 14 6 15 7 16 8 17 9 18 10 8 11 7 12
REMARK SMILES IDX 6 13 5 14 4 15 3 16 2 17 1 18
REMARK H PARENT
REMARK Flexibility Score: inf
ROOT
ATOM      1  C   UNL     1     -23.122   5.793  21.497  1.00  0.00     0.000 C 
ENDROOT
BRANCH   1   2
ATOM      2  C   UNL     1     -23.649   4.548  22.232  1.00  0.00     0.000 C 
BRANCH   2   3
ATOM      3  C   UNL     1     -23.251   3.197  21.600  1.00  0.00     0.000 C 
BRANCH   3   4
ATOM      4  C   UNL     1     -22.263   3.293  20.423  1.00  0.00     0.000 C 
BRANCH   4   5
ATOM      5  C   UNL     1     -20.952   2.506  20.611  1.00  0.00     0.000 C 
BRANCH   5   6
ATOM      6  C   UNL     1     -19.683   3.378  20.496  1.00  0.00     0.006 C 
BRANCH   6   7
ATOM      7  C   UNL     1     -19.951   4.718  19.800  1.00  0.00     0.053 C 
BRANCH   7   8
ATOM      8  C   UNL     1     -18.664   5.356  19.380  1.00  0.00     0.041 C 
ATOM      9  O   UNL     1     -17.988   6.023  20.207  1.00  0.00    -0.550 OA
ATOM     10  O   UNL     1     -18.236   5.254  18.062  1.00  0.00    -0.550 OA
ENDBRANCH   7   8
ENDBRANCH   6   7
ENDBRANCH   5   6
ENDBRANCH   4   5
ENDBRANCH   3   4
ENDBRANCH   2   3
ENDBRANCH   1   2
BRANCH   1  11
ATOM     11  C   UNL     1     -24.237   6.774  21.105  1.00  0.00     0.000 C 
BRANCH  11  12
ATOM     12  C   UNL     1     -23.651   8.095  20.593  1.00  0.00    -0.000 C 
BRANCH  12  13
ATOM     13  C   UNL     1     -22.146   8.181  20.888  1.00  0.00    -0.000 C 
BRANCH  13  14
ATOM     14  C   UNL     1     -21.327   8.626  19.667  1.00  0.00    -0.000 C 
BRANCH  14  15
ATOM     15  C   UNL     1     -21.999   8.254  18.336  1.00  0.00    -0.000 C 
BRANCH  15  16
ATOM     16  C   UNL     1     -21.017   7.524  17.411  1.00  0.00    -0.000 C 
BRANCH  16  17
ATOM     17  C   UNL     1     -21.632   6.229  16.868  1.00  0.00    -0.003 C 
ATOM     18  C   UNL     1     -22.805   5.772  17.731  1.00  0.00     0.004 C 
ENDBRANCH  16  17
ENDBRANCH  15  16
ENDBRANCH  14  15
ENDBRANCH  13  14
ENDBRANCH  12  13
ENDBRANCH  11  12
ENDBRANCH   1  11
TORSDOF 14
ENDMDL
MODEL 8
REMARK VINA RESULT:    -3.544      1.405      3.328
REMARK INTER + INTRA:          -8.669
REMARK INTER:                  -7.028
REMARK INTRA:                  -1.641
REMARK UNBOUND:                -2.224
REMARK SMILES CCCCCCCCCCCCCCCC(=O)[O-]
REMARK SMILES IDX 9 1 10 2 11 3 12 4 13 5 14 6 15 7 16 8 17 9 18 10 8 11 7 12
REMARK SMILES IDX 6 13 5 14 4 15 3 16 2 17 1 18
REMARK H PARENT
REMARK Flexibility Score: inf
ROOT
ATOM      1  C   UNL     1     -23.853   6.787  20.739  1.00  0.00     0.000 C 
ENDROOT
BRANCH   1   2
ATOM      2  C   UNL     1     -23.082   5.550  21.237  1.00  0.00     0.000 C 
BRANCH   2   3
ATOM      3  C   UNL     1     -22.615   4.581  20.131  1.00  0.00     0.000 C 
BRANCH   3   4
ATOM      4  C   UNL     1     -21.098   4.316  20.093  1.00  0.00     0.000 C 
BRANCH   4   5
ATOM      5  C   UNL     1     -20.687   2.858  20.369  1.00  0.00     0.000 C 
BRANCH   5   6
ATOM      6  C   UNL     1     -21.396   2.233  21.590  1.00  0.00     0.006 C 
BRANCH   6   7
ATOM      7  C   UNL     1     -21.757   0.758  21.370  1.00  0.00     0.053 C 
BRANCH   7   8
ATOM      8  C   UNL     1     -23.208   0.620  21.030  1.00  0.00     0.041 C 
ATOM      9  O   UNL     1     -24.013   1.551  21.298  1.00  0.00    -0.550 OA
ATOM     10  O   UNL     1     -23.679  -0.556  20.461  1.00  0.00    -0.550 OA
ENDBRANCH   7   8
ENDBRANCH   6   7
ENDBRANCH   5   6
ENDBRANCH   4   5
ENDBRANCH   3   4
ENDBRANCH   2   3
ENDBRANCH   1   2
BRANCH   1  11
ATOM     11  C   UNL     1     -23.012   8.072  20.777  1.00  0.00     0.000 C 
BRANCH  11  12
ATOM     12  C   UNL     1     -22.939   8.721  19.391  1.00  0.00    -0.000 C 
BRANCH  12  13
ATOM     13  C   UNL     1     -21.786   8.130  18.566  1.00  0.00    -0.000 C 
BRANCH  13  14
ATOM     14  C   UNL     1     -22.278   7.263  17.396  1.00  0.00    -0.000 C 
BRANCH  14  15
ATOM     15  C   UNL     1     -21.257   6.190  16.984  1.00  0.00    -0.000 C 
BRANCH  15  16
ATOM     16  C   UNL     1     -20.318   6.718  15.892  1.00  0.00    -0.000 C 
BRANCH  16  17
ATOM     17  C   UNL     1     -18.850   6.521  16.288  1.00  0.00    -0.003 C 
ATOM     18  C   UNL     1     -18.713   6.265  17.786  1.00  0.00     0.004 C 
ENDBRANCH  16  17
ENDBRANCH  15  16
ENDBRANCH  14  15
ENDBRANCH  13  14
ENDBRANCH  12  13
ENDBRANCH  11  12
ENDBRANCH   1  11
TORSDOF 14
ENDMDL
MODEL 9
REMARK VINA RESULT:    -3.512      1.276      3.542
REMARK INTER + INTRA:          -8.610
REMARK INTER:                  -6.301
REMARK INTRA:                  -2.309
REMARK UNBOUND:                -2.224
REMARK SMILES CCCCCCCCCCCCCCCC(=O)[O-]
REMARK SMILES IDX 9 1 10 2 11 3 12 4 13 5 14 6 15 7 16 8 17 9 18 10 8 11 7 12
REMARK SMILES IDX 6 13 5 14 4 15 3 16 2 17 1 18
REMARK H PARENT
REMARK Flexibility Score: inf
ROOT
ATOM      1  C   UNL     1     -18.385   5.521  18.267  1.00  0.00     0.000 C 
ENDROOT
BRANCH   1   2
ATOM      2  C   UNL     1     -18.923   6.299  19.482  1.00  0.00     0.000 C 
BRANCH   2   3
ATOM      3  C   UNL     1     -19.922   5.523  20.367  1.00  0.00     0.000 C 
BRANCH   3   4
ATOM      4  C   UNL     1     -20.788   4.490  19.622  1.00  0.00     0.000 C 
BRANCH   4   5
ATOM      5  C   UNL     1     -22.294   4.562  19.935  1.00  0.00     0.000 C 
BRANCH   5   6
ATOM      6  C   UNL     1     -22.714   3.727  21.164  1.00  0.00     0.006 C 
BRANCH   6   7
ATOM      7  C   UNL     1     -21.804   2.513  21.388  1.00  0.00     0.053 C 
BRANCH   7   8
ATOM      8  C   UNL     1     -22.476   1.261  20.915  1.00  0.00     0.041 C 
ATOM      9  O   UNL     1     -23.715   1.108  21.076  1.00  0.00    -0.550 OA
ATOM     10  O   UNL     1     -21.724   0.245  20.339  1.00  0.00    -0.550 OA
ENDBRANCH   7   8
ENDBRANCH   6   7
ENDBRANCH   5   6
ENDBRANCH   4   5
ENDBRANCH   3   4
ENDBRANCH   2   3
ENDBRANCH   1   2
BRANCH   1  11
ATOM     11  C   UNL     1     -18.586   6.268  16.941  1.00  0.00     0.000 C 
BRANCH  11  12
ATOM     12  C   UNL     1     -19.762   7.247  17.035  1.00  0.00    -0.000 C 
BRANCH  12  13
ATOM     13  C   UNL     1     -21.067   6.586  16.566  1.00  0.00    -0.000 C 
BRANCH  13  14
ATOM     14  C   UNL     1     -22.289   7.046  17.377  1.00  0.00    -0.000 C 
BRANCH  14  15
ATOM     15  C   UNL     1     -21.956   8.185  18.353  1.00  0.00    -0.000 C 
BRANCH  15  16
ATOM     16  C   UNL     1     -23.109   8.418  19.337  1.00  0.00    -0.000 C 
BRANCH  16  17
ATOM     17  C   UNL     1     -22.686   8.078  20.771  1.00  0.00    -0.003 C 
ATOM     18  C   UNL     1     -21.388   8.788  21.146  1.00  0.00     0.004 C 
ENDBRANCH  16  17
ENDBRANCH  15  16
ENDBRANCH  14  15
ENDBRANCH  13  14
ENDBRANCH  12  13
ENDBRANCH  11  12
ENDBRANCH   1  11
TORSDOF 14
ENDMDL
