MODEL 1
REMARK VINA RESULT:     0.342      0.000      0.000
REMARK INTER + INTRA:          -0.646
REMARK INTER:                   0.482
REMARK INTRA:                  -1.128
REMARK UNBOUND:                -1.128
REMARK SMILES C=C(CC[C@@H](C(=O)[O-])[C@@H]1[C@H](O)C[C@]2(C)C3=C(CC[C@@]12C)[C@]1(C)CC[C@@H](O)C(C)(C)[C@@H]1CC3)C(C)C
REMARK SMILES IDX 4 1 5 2 6 3 7 4 8 5 9 6 10 7 19 8 12 9 13 10 18 11 20 12
REMARK SMILES IDX 14 13 15 14 17 15 16 16 32 17 21 18 31 19 30 20 23 21 22 22
REMARK SMILES IDX 27 23 24 24 25 25 28 26 29 27 11 28 26 30 3 32 2 33 1 34
REMARK SMILES IDX 33 35 34 36 35 37
REMARK H PARENT 11 29 26 31
REMARK Flexibility Score: inf
ROOT
ATOM      1  C   UNL     1       2.400  40.054  12.105  1.00  0.00     0.014 C 
ENDROOT
BRANCH   1   2
ATOM      2  C   UNL     1       3.598  40.961  12.488  1.00  0.00     0.042 C 
BRANCH   2   3
ATOM      3  C   UNL     1       4.858  40.126  12.602  1.00  0.00     0.045 C 
ATOM      4  O   UNL     1       5.861  40.557  13.239  1.00  0.00    -0.550 OA
ATOM      5  O   UNL     1       4.886  38.846  12.073  1.00  0.00    -0.550 OA
ENDBRANCH   2   3
BRANCH   2   6
ATOM      6  C   UNL     1       3.876  42.247  11.608  1.00  0.00     0.033 C 
ATOM      7  C   UNL     1       4.883  43.270  12.197  1.00  0.00     0.119 C 
ATOM      8  C   UNL     1       2.752  43.153  11.021  1.00  0.00    -0.017 C 
ATOM      9  C   UNL     1       4.593  44.621  11.484  1.00  0.00     0.043 C 
ATOM     10  C   UNL     1       3.601  44.285  10.351  1.00  0.00    -0.003 C 
ATOM     11  C   UNL     1       1.867  42.530   9.938  1.00  0.00     0.012 C 
ATOM     12  C   UNL     1       1.823  43.723  12.163  1.00  0.00     0.013 C 
ATOM     13  C   UNL     1       4.433  43.881   9.087  1.00  0.00     0.017 C 
ATOM     14  C   UNL     1       2.673  45.404   9.888  1.00  0.00    -0.064 C 
ATOM     15  C   UNL     1       1.015  43.615   9.215  1.00  0.00     0.032 C 
ATOM     16  C   UNL     1       1.427  45.107   9.415  1.00  0.00    -0.064 C 
ATOM     17  C   UNL     1       3.207  46.810   9.853  1.00  0.00     0.032 C 
ATOM     18  C   UNL     1       0.390  46.226   9.081  1.00  0.00    -0.008 C 
ATOM     19  C   UNL     1       2.538  47.606   8.743  1.00  0.00     0.009 C 
ATOM     20  C   UNL     1       1.025  47.700   9.035  1.00  0.00     0.007 C 
ATOM     21  C   UNL     1      -0.250  45.841   7.714  1.00  0.00     0.014 C 
ATOM     22  C   UNL     1      -0.677  46.167  10.215  1.00  0.00     0.016 C 
ATOM     23  C   UNL     1       0.259  48.797   8.152  1.00  0.00    -0.006 C 
ATOM     24  C   UNL     1      -1.125  46.928   7.103  1.00  0.00     0.033 C 
ATOM     25  C   UNL     1      -0.294  48.181   6.838  1.00  0.00     0.120 C 
ATOM     26  C   UNL     1      -0.879  49.455   8.988  1.00  0.00     0.014 C 
ATOM     27  C   UNL     1       1.192  49.971   7.746  1.00  0.00     0.014 C 
BRANCH   7  28
ATOM     28  O   UNL     1       4.711  43.407  13.580  1.00  0.00    -0.393 OA
ATOM     29  H   UNL     1       5.608  43.315  13.989  1.00  0.00     0.210 HD
ENDBRANCH   7  28
BRANCH  25  30
ATOM     30  O   UNL     1      -1.066  49.130   6.144  1.00  0.00    -0.393 OA
ATOM     31  H   UNL     1      -0.519  49.445   5.377  1.00  0.00     0.210 HD
ENDBRANCH  25  30
ENDBRANCH   2   6
ENDBRANCH   1   2
BRANCH   1  32
ATOM     32  C   UNL     1       1.763  39.298  13.297  1.00  0.00     0.031 C 
BRANCH  32  33
ATOM     33  C   UNL     1       0.367  39.774  13.631  1.00  0.00    -0.075 C 
ATOM     34  C   UNL     1      -0.688  38.967  13.394  1.00  0.00     0.008 C 
BRANCH  33  35
ATOM     35  C   UNL     1       0.161  41.134  14.275  1.00  0.00     0.008 C 
ATOM     36  C   UNL     1       0.039  41.029  15.803  1.00  0.00     0.012 C 
ATOM     37  C   UNL     1      -1.046  41.861  13.655  1.00  0.00     0.012 C 
ENDBRANCH  33  35
ENDBRANCH  32  33
ENDBRANCH   1  32
TORSDOF 8
ENDMDL
MODEL 2
REMARK VINA RESULT:     1.505      1.293      1.878
REMARK INTER + INTRA:           0.993
REMARK INTER:                   1.531
REMARK INTRA:                  -0.538
REMARK UNBOUND:                -1.128
REMARK SMILES C=C(CC[C@@H](C(=O)[O-])[C@@H]1[C@H](O)C[C@]2(C)C3=C(CC[C@@]12C)[C@]1(C)CC[C@@H](O)C(C)(C)[C@@H]1CC3)C(C)C
REMARK SMILES IDX 4 1 5 2 6 3 7 4 8 5 9 6 10 7 19 8 12 9 13 10 18 11 20 12
REMARK SMILES IDX 14 13 15 14 17 15 16 16 32 17 21 18 31 19 30 20 23 21 22 22
REMARK SMILES IDX 27 23 24 24 25 25 28 26 29 27 11 28 26 30 3 32 2 33 1 34
REMARK SMILES IDX 33 35 34 36 35 37
REMARK H PARENT 11 29 26 31
REMARK Flexibility Score: inf
ROOT
ATOM      1  C   UNL     1       2.590  39.717  12.054  1.00  0.00     0.014 C 
ENDROOT
BRANCH   1   2
ATOM      2  C   UNL     1       3.674  40.732  12.503  1.00  0.00     0.042 C 
BRANCH   2   3
ATOM      3  C   UNL     1       4.972  40.004  12.787  1.00  0.00     0.045 C 
ATOM      4  O   UNL     1       5.704  40.348  13.758  1.00  0.00    -0.550 OA
ATOM      5  O   UNL     1       5.323  38.900  12.028  1.00  0.00    -0.550 OA
ENDBRANCH   2   3
BRANCH   2   6
ATOM      6  C   UNL     1       3.947  41.991  11.582  1.00  0.00     0.033 C 
ATOM      7  C   UNL     1       5.015  42.992  12.100  1.00  0.00     0.119 C 
ATOM      8  C   UNL     1       2.824  42.922  11.034  1.00  0.00    -0.017 C 
ATOM      9  C   UNL     1       4.732  44.338  11.374  1.00  0.00     0.043 C 
ATOM     10  C   UNL     1       3.674  44.012  10.299  1.00  0.00    -0.003 C 
ATOM     11  C   UNL     1       1.867  42.307  10.009  1.00  0.00     0.012 C 
ATOM     12  C   UNL     1       1.972  43.543  12.208  1.00  0.00     0.013 C 
ATOM     13  C   UNL     1       4.428  43.558   9.004  1.00  0.00     0.017 C 
ATOM     14  C   UNL     1       2.759  45.152   9.860  1.00  0.00    -0.064 C 
ATOM     15  C   UNL     1       1.013  43.405   9.308  1.00  0.00     0.032 C 
ATOM     16  C   UNL     1       1.482  44.886   9.456  1.00  0.00    -0.064 C 
ATOM     17  C   UNL     1       3.335  46.539   9.769  1.00  0.00     0.032 C 
ATOM     18  C   UNL     1       0.465  46.033   9.150  1.00  0.00    -0.008 C 
ATOM     19  C   UNL     1       2.636  47.335   8.677  1.00  0.00     0.009 C 
ATOM     20  C   UNL     1       1.143  47.483   9.042  1.00  0.00     0.007 C 
ATOM     21  C   UNL     1      -0.255  45.642   7.825  1.00  0.00     0.014 C 
ATOM     22  C   UNL     1      -0.544  46.030  10.338  1.00  0.00     0.016 C 
ATOM     23  C   UNL     1       0.369  48.588   8.176  1.00  0.00    -0.006 C 
ATOM     24  C   UNL     1      -1.124  46.744   7.237  1.00  0.00     0.033 C 
ATOM     25  C   UNL     1      -0.269  47.965   6.904  1.00  0.00     0.120 C 
ATOM     26  C   UNL     1      -0.705  49.298   9.054  1.00  0.00     0.014 C 
ATOM     27  C   UNL     1       1.316  49.723   7.700  1.00  0.00     0.014 C 
BRANCH   7  28
ATOM     28  O   UNL     1       4.917  43.161  13.487  1.00  0.00    -0.393 OA
ATOM     29  H   UNL     1       4.593  44.084  13.639  1.00  0.00     0.210 HD
ENDBRANCH   7  28
BRANCH  25  30
ATOM     30  O   UNL     1      -1.045  48.925   6.230  1.00  0.00    -0.393 OA
ATOM     31  H   UNL     1      -0.442  49.682   6.007  1.00  0.00     0.210 HD
ENDBRANCH  25  30
ENDBRANCH   2   6
ENDBRANCH   1   2
BRANCH   1  32
ATOM     32  C   UNL     1       2.446  38.485  12.981  1.00  0.00     0.031 C 
BRANCH  32  33
ATOM     33  C   UNL     1       1.938  37.254  12.266  1.00  0.00    -0.075 C 
ATOM     34  C   UNL     1       2.727  36.629  11.368  1.00  0.00     0.008 C 
BRANCH  33  35
ATOM     35  C   UNL     1       0.563  36.697  12.595  1.00  0.00     0.008 C 
ATOM     36  C   UNL     1       0.179  35.537  11.664  1.00  0.00     0.012 C 
ATOM     37  C   UNL     1      -0.499  37.811  12.586  1.00  0.00     0.012 C 
ENDBRANCH  33  35
ENDBRANCH  32  33
ENDBRANCH   1  32
TORSDOF 8
ENDMDL
MODEL 3
REMARK VINA RESULT:     2.069      2.704      8.586
REMARK INTER + INTRA:           1.787
REMARK INTER:                   2.593
REMARK INTRA:                  -0.806
REMARK UNBOUND:                -1.128
REMARK SMILES C=C(CC[C@@H](C(=O)[O-])[C@@H]1[C@H](O)C[C@]2(C)C3=C(CC[C@@]12C)[C@]1(C)CC[C@@H](O)C(C)(C)[C@@H]1CC3)C(C)C
REMARK SMILES IDX 4 1 5 2 6 3 7 4 8 5 9 6 10 7 19 8 12 9 13 10 18 11 20 12
REMARK SMILES IDX 14 13 15 14 17 15 16 16 32 17 21 18 31 19 30 20 23 21 22 22
REMARK SMILES IDX 27 23 24 24 25 25 28 26 29 27 11 28 26 30 3 32 2 33 1 34
REMARK SMILES IDX 33 35 34 36 35 37
REMARK H PARENT 11 29 26 31
REMARK Flexibility Score: inf
ROOT
ATOM      1  C   UNL     1       5.145  47.537   8.019  1.00  0.00     0.014 C 
ENDROOT
BRANCH   1   2
ATOM      2  C   UNL     1       3.722  48.130   8.186  1.00  0.00     0.042 C 
BRANCH   2   3
ATOM      3  C   UNL     1       3.347  48.923   6.950  1.00  0.00     0.045 C 
ATOM      4  O   UNL     1       3.758  48.569   5.808  1.00  0.00    -0.550 OA
ATOM      5  O   UNL     1       2.481  49.998   7.057  1.00  0.00    -0.550 OA
ENDBRANCH   2   3
BRANCH   2   6
ATOM      6  C   UNL     1       2.543  47.148   8.578  1.00  0.00     0.033 C 
ATOM      7  C   UNL     1       1.214  47.821   9.013  1.00  0.00     0.119 C 
ATOM      8  C   UNL     1       2.696  45.976   9.594  1.00  0.00    -0.017 C 
ATOM      9  C   UNL     1       0.438  46.753   9.836  1.00  0.00     0.043 C 
ATOM     10  C   UNL     1       1.226  45.439   9.652  1.00  0.00    -0.003 C 
ATOM     11  C   UNL     1       3.599  44.815   9.167  1.00  0.00     0.012 C 
ATOM     12  C   UNL     1       3.180  46.499  11.002  1.00  0.00     0.013 C 
ATOM     13  C   UNL     1       0.687  44.730   8.364  1.00  0.00     0.017 C 
ATOM     14  C   UNL     1       1.113  44.403  10.767  1.00  0.00    -0.064 C 
ATOM     15  C   UNL     1       3.414  43.585  10.103  1.00  0.00     0.032 C 
ATOM     16  C   UNL     1       2.161  43.569  11.034  1.00  0.00    -0.064 C 
ATOM     17  C   UNL     1      -0.209  44.246  11.467  1.00  0.00     0.032 C 
ATOM     18  C   UNL     1       2.147  42.605  12.263  1.00  0.00    -0.008 C 
ATOM     19  C   UNL     1      -0.399  42.808  11.930  1.00  0.00     0.009 C 
ATOM     20  C   UNL     1       0.704  42.461  12.952  1.00  0.00     0.007 C 
ATOM     21  C   UNL     1       2.671  41.230  11.751  1.00  0.00     0.014 C 
ATOM     22  C   UNL     1       3.144  43.217  13.292  1.00  0.00     0.016 C 
ATOM     23  C   UNL     1       0.423  41.118  13.781  1.00  0.00    -0.006 C 
ATOM     24  C   UNL     1       2.517  40.090  12.748  1.00  0.00     0.033 C 
ATOM     25  C   UNL     1       1.042  39.879  13.078  1.00  0.00     0.120 C 
ATOM     26  C   UNL     1       0.959  41.266  15.236  1.00  0.00     0.014 C 
ATOM     27  C   UNL     1      -1.097  40.839  13.937  1.00  0.00     0.014 C 
BRANCH   7  28
ATOM     28  O   UNL     1       1.456  48.954   9.799  1.00  0.00    -0.393 OA
ATOM     29  H   UNL     1       0.717  49.009  10.456  1.00  0.00     0.210 HD
ENDBRANCH   7  28
BRANCH  25  30
ATOM     30  O   UNL     1       0.889  38.736  13.885  1.00  0.00    -0.393 OA
ATOM     31  H   UNL     1       0.890  37.950  13.280  1.00  0.00     0.210 HD
ENDBRANCH  25  30
ENDBRANCH   2   6
ENDBRANCH   1   2
BRANCH   1  32
ATOM     32  C   UNL     1       5.945  47.414   9.339  1.00  0.00     0.031 C 
BRANCH  32  33
ATOM     33  C   UNL     1       6.938  48.535   9.545  1.00  0.00    -0.075 C 
ATOM     34  C   UNL     1       8.259  48.266   9.544  1.00  0.00     0.008 C 
BRANCH  33  35
ATOM     35  C   UNL     1       6.447  49.965   9.703  1.00  0.00     0.008 C 
ATOM     36  C   UNL     1       6.661  50.786   8.422  1.00  0.00     0.012 C 
ATOM     37  C   UNL     1       7.095  50.638  10.926  1.00  0.00     0.012 C 
ENDBRANCH  33  35
ENDBRANCH  32  33
ENDBRANCH   1  32
TORSDOF 8
ENDMDL
MODEL 4
REMARK VINA RESULT:     2.472      2.231      8.613
REMARK INTER + INTRA:           2.355
REMARK INTER:                   1.906
REMARK INTRA:                   0.449
REMARK UNBOUND:                -1.128
REMARK SMILES C=C(CC[C@@H](C(=O)[O-])[C@@H]1[C@H](O)C[C@]2(C)C3=C(CC[C@@]12C)[C@]1(C)CC[C@@H](O)C(C)(C)[C@@H]1CC3)C(C)C
REMARK SMILES IDX 4 1 5 2 6 3 7 4 8 5 9 6 10 7 19 8 12 9 13 10 18 11 20 12
REMARK SMILES IDX 14 13 15 14 17 15 16 16 32 17 21 18 31 19 30 20 23 21 22 22
REMARK SMILES IDX 27 23 24 24 25 25 28 26 29 27 11 28 26 30 3 32 2 33 1 34
REMARK SMILES IDX 33 35 34 36 35 37
REMARK H PARENT 11 29 26 31
REMARK Flexibility Score: inf
ROOT
ATOM      1  C   UNL     1       3.512  48.281   7.166  1.00  0.00     0.014 C 
ENDROOT
BRANCH   1   2
ATOM      2  C   UNL     1       2.302  48.713   8.032  1.00  0.00     0.042 C 
BRANCH   2   3
ATOM      3  C   UNL     1       1.524  49.802   7.320  1.00  0.00     0.045 C 
ATOM      4  O   UNL     1       0.265  49.736   7.223  1.00  0.00    -0.550 OA
ATOM      5  O   UNL     1       2.185  50.922   6.843  1.00  0.00    -0.550 OA
ENDBRANCH   2   3
BRANCH   2   6
ATOM      6  C   UNL     1       1.312  47.591   8.551  1.00  0.00     0.033 C 
ATOM      7  C   UNL     1      -0.005  48.092   9.200  1.00  0.00     0.119 C 
ATOM      8  C   UNL     1       1.745  46.421   9.485  1.00  0.00    -0.017 C 
ATOM      9  C   UNL     1      -0.524  46.922  10.082  1.00  0.00     0.043 C 
ATOM     10  C   UNL     1       0.371  45.714   9.734  1.00  0.00    -0.003 C 
ATOM     11  C   UNL     1       2.701  45.386   8.886  1.00  0.00     0.012 C 
ATOM     12  C   UNL     1       2.371  46.964  10.829  1.00  0.00     0.013 C 
ATOM     13  C   UNL     1      -0.270  44.977   8.509  1.00  0.00     0.017 C 
ATOM     14  C   UNL     1       0.541  44.646  10.810  1.00  0.00    -0.064 C 
ATOM     15  C   UNL     1       2.797  44.120   9.789  1.00  0.00     0.032 C 
ATOM     16  C   UNL     1       1.705  43.936  10.889  1.00  0.00    -0.064 C 
ATOM     17  C   UNL     1      -0.636  44.318  11.687  1.00  0.00     0.032 C 
ATOM     18  C   UNL     1       1.982  42.948  12.067  1.00  0.00    -0.008 C 
ATOM     19  C   UNL     1      -0.591  42.858  12.114  1.00  0.00     0.009 C 
ATOM     20  C   UNL     1       0.683  42.619  12.951  1.00  0.00     0.007 C 
ATOM     21  C   UNL     1       2.577  41.656  11.430  1.00  0.00     0.014 C 
ATOM     22  C   UNL     1       3.045  43.649  12.966  1.00  0.00     0.016 C 
ATOM     23  C   UNL     1       0.681  41.233  13.757  1.00  0.00    -0.006 C 
ATOM     24  C   UNL     1       2.703  40.484  12.393  1.00  0.00     0.033 C 
ATOM     25  C   UNL     1       1.326  40.092  12.923  1.00  0.00     0.120 C 
ATOM     26  C   UNL     1       1.407  41.410  15.124  1.00  0.00     0.014 C 
ATOM     27  C   UNL     1      -0.757  40.774  14.120  1.00  0.00     0.014 C 
BRANCH   7  28
ATOM     28  O   UNL     1       0.221  49.228   9.988  1.00  0.00    -0.393 OA
ATOM     29  H   UNL     1      -0.630  49.426  10.452  1.00  0.00     0.210 HD
ENDBRANCH   7  28
BRANCH  25  30
ATOM     30  O   UNL     1       1.425  38.921  13.697  1.00  0.00    -0.393 OA
ATOM     31  H   UNL     1       1.993  38.284  13.190  1.00  0.00     0.210 HD
ENDBRANCH  25  30
ENDBRANCH   2   6
ENDBRANCH   1   2
BRANCH   1  32
ATOM     32  C   UNL     1       4.873  48.849   7.641  1.00  0.00     0.031 C 
BRANCH  32  33
ATOM     33  C   UNL     1       5.510  48.034   8.744  1.00  0.00    -0.075 C 
ATOM     34  C   UNL     1       5.178  46.735   8.892  1.00  0.00     0.008 C 
BRANCH  33  35
ATOM     35  C   UNL     1       6.554  48.666   9.649  1.00  0.00     0.008 C 
ATOM     36  C   UNL     1       6.745  50.159   9.343  1.00  0.00     0.012 C 
ATOM     37  C   UNL     1       7.884  47.895   9.578  1.00  0.00     0.012 C 
ENDBRANCH  33  35
ENDBRANCH  32  33
ENDBRANCH   1  32
TORSDOF 8
ENDMDL
