MODEL 1
REMARK VINA RESULT:    -5.932      0.000      0.000
REMARK INTER + INTRA:          -8.503
REMARK INTER:                  -8.013
REMARK INTRA:                  -0.491
REMARK UNBOUND:                -0.491
REMARK SMILES COc1ccc(-c2cc(=O)c3c(OC)c(OC)c(OC)c(OC)c3o2)cc1
REMARK SMILES IDX 7 1 8 2 9 3 10 4 11 5 24 6 25 7 21 8 18 9 15 10 12 11 6 12
REMARK SMILES IDX 3 13 4 14 27 15 5 16 26 17 2 18 1 19 22 20 23 21 13 22 14 23
REMARK SMILES IDX 19 24 20 25 16 26 17 27
REMARK H PARENT
REMARK Flexibility Score: inf
ROOT
ATOM      1  C   UNL     1      53.118  11.777  88.136  1.00  0.00     0.138 A 
ATOM      2  C   UNL     1      53.875  10.622  87.891  1.00  0.00     0.100 A 
ATOM      3  C   UNL     1      53.914   9.612  88.849  1.00  0.00     0.197 A 
ATOM      4  O   UNL     1      54.592   8.576  88.611  1.00  0.00    -0.289 OA
ATOM      5  C   UNL     1      53.190   9.759  90.051  1.00  0.00     0.115 A 
ATOM      6  C   UNL     1      52.419  10.933  90.212  1.00  0.00     0.188 A 
ATOM      7  O   UNL     1      52.423  11.872  89.268  1.00  0.00    -0.452 OA
ATOM      8  C   UNL     1      51.661  11.131  91.379  1.00  0.00     0.209 A 
ATOM      9  C   UNL     1      51.694  10.168  92.415  1.00  0.00     0.211 A 
ATOM     10  C   UNL     1      52.433   8.988  92.246  1.00  0.00     0.208 A 
ATOM     11  C   UNL     1      53.222   8.801  91.088  1.00  0.00     0.179 A 
ENDROOT
BRANCH   1  12
ATOM     12  C   UNL     1      53.061  12.893  87.157  1.00  0.00     0.018 A 
ATOM     13  C   UNL     1      52.936  14.984  85.259  1.00  0.00     0.118 A 
ATOM     14  C   UNL     1      53.244  15.260  86.603  1.00  0.00     0.047 A 
ATOM     15  C   UNL     1      52.682  13.663  84.878  1.00  0.00     0.047 A 
ATOM     16  C   UNL     1      53.300  14.227  87.543  1.00  0.00     0.016 A 
ATOM     17  C   UNL     1      52.738  12.627  85.815  1.00  0.00     0.016 A 
BRANCH  13  18
ATOM     18  O   UNL     1      52.873  15.986  84.280  1.00  0.00    -0.497 OA
ATOM     19  C   UNL     1      53.480  15.894  82.995  1.00  0.00     0.278 C 
ENDBRANCH  13  18
ENDBRANCH   1  12
BRANCH   8  20
ATOM     20  O   UNL     1      50.888  12.289  91.508  1.00  0.00    -0.490 OA
ATOM     21  C   UNL     1      51.472  13.578  91.661  1.00  0.00     0.278 C 
ENDBRANCH   8  20
BRANCH  11  22
ATOM     22  O   UNL     1      54.067   7.695  90.992  1.00  0.00    -0.492 OA
ATOM     23  C   UNL     1      55.279   7.631  91.736  1.00  0.00     0.278 C 
ENDBRANCH  11  22
BRANCH   9  24
ATOM     24  O   UNL     1      50.996  10.305  93.632  1.00  0.00    -0.490 OA
ATOM     25  C   UNL     1      51.373  11.115  94.740  1.00  0.00     0.279 C 
ENDBRANCH   9  24
BRANCH  10  26
ATOM     26  O   UNL     1      52.350   8.025  93.266  1.00  0.00    -0.490 OA
ATOM     27  C   UNL     1      51.536   6.858  93.216  1.00  0.00     0.278 C 
ENDBRANCH  10  26
TORSDOF 6
ENDMDL
MODEL 2
REMARK VINA RESULT:    -5.856      2.510      7.835
REMARK INTER + INTRA:          -8.401
REMARK INTER:                  -7.745
REMARK INTRA:                  -0.655
REMARK UNBOUND:                -0.491
REMARK SMILES COc1ccc(-c2cc(=O)c3c(OC)c(OC)c(OC)c(OC)c3o2)cc1
REMARK SMILES IDX 7 1 8 2 9 3 10 4 11 5 24 6 25 7 21 8 18 9 15 10 12 11 6 12
REMARK SMILES IDX 3 13 4 14 27 15 5 16 26 17 2 18 1 19 22 20 23 21 13 22 14 23
REMARK SMILES IDX 19 24 20 25 16 26 17 27
REMARK H PARENT
REMARK Flexibility Score: inf
ROOT
ATOM      1  C   UNL     1      52.553   9.264  91.104  1.00  0.00     0.138 A 
ATOM      2  C   UNL     1      52.939  10.122  92.144  1.00  0.00     0.100 A 
ATOM      3  C   UNL     1      53.339  11.422  91.846  1.00  0.00     0.197 A 
ATOM      4  O   UNL     1      53.674  12.186  92.791  1.00  0.00    -0.289 OA
ATOM      5  C   UNL     1      53.351  11.861  90.504  1.00  0.00     0.115 A 
ATOM      6  C   UNL     1      52.913  10.953  89.514  1.00  0.00     0.188 A 
ATOM      7  O   UNL     1      52.547   9.717  89.852  1.00  0.00    -0.452 OA
ATOM      8  C   UNL     1      52.884  11.335  88.161  1.00  0.00     0.209 A 
ATOM      9  C   UNL     1      53.325  12.625  87.782  1.00  0.00     0.211 A 
ATOM     10  C   UNL     1      53.730  13.539  88.766  1.00  0.00     0.208 A 
ATOM     11  C   UNL     1      53.792  13.147  90.122  1.00  0.00     0.179 A 
ENDROOT
BRANCH   1  12
ATOM     12  C   UNL     1      52.139   7.861  91.366  1.00  0.00     0.018 A 
ATOM     13  C   UNL     1      51.329   5.191  91.821  1.00  0.00     0.118 A 
ATOM     14  C   UNL     1      52.204   5.831  92.716  1.00  0.00     0.047 A 
ATOM     15  C   UNL     1      50.875   5.890  90.697  1.00  0.00     0.047 A 
ATOM     16  C   UNL     1      52.609   7.150  92.488  1.00  0.00     0.016 A 
ATOM     17  C   UNL     1      51.278   7.209  90.468  1.00  0.00     0.016 A 
BRANCH  13  18
ATOM     18  O   UNL     1      50.891   3.873  92.009  1.00  0.00    -0.497 OA
ATOM     19  C   UNL     1      51.352   2.757  91.254  1.00  0.00     0.278 C 
ENDBRANCH  13  18
ENDBRANCH   1  12
BRANCH   8  20
ATOM     20  O   UNL     1      52.427  10.429  87.201  1.00  0.00    -0.490 OA
ATOM     21  C   UNL     1      51.072  10.406  86.763  1.00  0.00     0.278 C 
ENDBRANCH   8  20
BRANCH  11  22
ATOM     22  O   UNL     1      54.334  14.013  91.073  1.00  0.00    -0.492 OA
ATOM     23  C   UNL     1      55.742  14.178  91.196  1.00  0.00     0.278 C 
ENDBRANCH  11  22
BRANCH   9  24
ATOM     24  O   UNL     1      53.365  13.076  86.448  1.00  0.00    -0.490 OA
ATOM     25  C   UNL     1      52.309  13.706  85.732  1.00  0.00     0.279 C 
ENDBRANCH   9  24
BRANCH  10  26
ATOM     26  O   UNL     1      54.064  14.836  88.339  1.00  0.00    -0.490 OA
ATOM     27  C   UNL     1      53.240  15.985  88.512  1.00  0.00     0.278 C 
ENDBRANCH  10  26
TORSDOF 6
ENDMDL
MODEL 3
REMARK VINA RESULT:    -5.545      1.550      3.116
REMARK INTER + INTRA:          -7.980
REMARK INTER:                  -7.775
REMARK INTRA:                  -0.205
REMARK UNBOUND:                -0.491
REMARK SMILES COc1ccc(-c2cc(=O)c3c(OC)c(OC)c(OC)c(OC)c3o2)cc1
REMARK SMILES IDX 7 1 8 2 9 3 10 4 11 5 24 6 25 7 21 8 18 9 15 10 12 11 6 12
REMARK SMILES IDX 3 13 4 14 27 15 5 16 26 17 2 18 1 19 22 20 23 21 13 22 14 23
REMARK SMILES IDX 19 24 20 25 16 26 17 27
REMARK H PARENT
REMARK Flexibility Score: inf
ROOT
ATOM      1  C   UNL     1      52.926  12.955  88.766  1.00  0.00     0.138 A 
ATOM      2  C   UNL     1      53.219  13.555  89.999  1.00  0.00     0.100 A 
ATOM      3  C   UNL     1      53.230  12.777  91.154  1.00  0.00     0.197 A 
ATOM      4  O   UNL     1      53.503  13.327  92.255  1.00  0.00    -0.289 OA
ATOM      5  C   UNL     1      52.949  11.396  91.070  1.00  0.00     0.115 A 
ATOM      6  C   UNL     1      52.701  10.855  89.788  1.00  0.00     0.188 A 
ATOM      7  O   UNL     1      52.695  11.645  88.716  1.00  0.00    -0.452 OA
ATOM      8  C   UNL     1      52.433   9.483  89.636  1.00  0.00     0.209 A 
ATOM      9  C   UNL     1      52.379   8.643  90.773  1.00  0.00     0.211 A 
ATOM     10  C   UNL     1      52.656   9.171  92.043  1.00  0.00     0.208 A 
ATOM     11  C   UNL     1      52.893  10.555  92.203  1.00  0.00     0.179 A 
ENDROOT
BRANCH   1  12
ATOM     12  C   UNL     1      52.880  13.746  87.508  1.00  0.00     0.018 A 
ATOM     13  C   UNL     1      52.778  15.207  85.091  1.00  0.00     0.118 A 
ATOM     14  C   UNL     1      52.949  15.872  86.318  1.00  0.00     0.047 A 
ATOM     15  C   UNL     1      52.648  13.815  85.085  1.00  0.00     0.047 A 
ATOM     16  C   UNL     1      52.993  15.150  87.514  1.00  0.00     0.016 A 
ATOM     17  C   UNL     1      52.693  13.090  86.279  1.00  0.00     0.016 A 
BRANCH  13  18
ATOM     18  O   UNL     1      52.732  15.887  83.865  1.00  0.00    -0.497 OA
ATOM     19  C   UNL     1      53.649  15.679  82.796  1.00  0.00     0.278 C 
ENDBRANCH  13  18
ENDBRANCH   1  12
BRANCH   8  20
ATOM     20  O   UNL     1      52.212   8.964  88.357  1.00  0.00    -0.490 OA
ATOM     21  C   UNL     1      50.931   8.996  87.736  1.00  0.00     0.278 C 
ENDBRANCH   8  20
BRANCH  11  22
ATOM     22  O   UNL     1      53.022  11.095  93.483  1.00  0.00    -0.492 OA
ATOM     23  C   UNL     1      51.901  11.193  94.354  1.00  0.00     0.278 C 
ENDBRANCH  11  22
BRANCH   9  24
ATOM     24  O   UNL     1      52.080   7.267  90.714  1.00  0.00    -0.490 OA
ATOM     25  C   UNL     1      50.881   6.679  90.223  1.00  0.00     0.279 C 
ENDBRANCH   9  24
BRANCH  10  26
ATOM     26  O   UNL     1      52.683   8.270  93.121  1.00  0.00    -0.490 OA
ATOM     27  C   UNL     1      51.531   7.793  93.810  1.00  0.00     0.278 C 
ENDBRANCH  10  26
TORSDOF 6
ENDMDL
MODEL 4
REMARK VINA RESULT:    -5.538      2.272      7.916
REMARK INTER + INTRA:          -7.971
REMARK INTER:                  -7.466
REMARK INTRA:                  -0.505
REMARK UNBOUND:                -0.491
REMARK SMILES COc1ccc(-c2cc(=O)c3c(OC)c(OC)c(OC)c(OC)c3o2)cc1
REMARK SMILES IDX 7 1 8 2 9 3 10 4 11 5 24 6 25 7 21 8 18 9 15 10 12 11 6 12
REMARK SMILES IDX 3 13 4 14 27 15 5 16 26 17 2 18 1 19 22 20 23 21 13 22 14 23
REMARK SMILES IDX 19 24 20 25 16 26 17 27
REMARK H PARENT
REMARK Flexibility Score: inf
ROOT
ATOM      1  C   UNL     1      51.811   9.232  91.697  1.00  0.00     0.138 A 
ATOM      2  C   UNL     1      51.650   8.518  90.501  1.00  0.00     0.100 A 
ATOM      3  C   UNL     1      51.875   9.160  89.285  1.00  0.00     0.197 A 
ATOM      4  O   UNL     1      51.736   8.505  88.217  1.00  0.00    -0.289 OA
ATOM      5  C   UNL     1      52.263  10.517  89.271  1.00  0.00     0.115 A 
ATOM      6  C   UNL     1      52.442  11.160  90.517  1.00  0.00     0.188 A 
ATOM      7  O   UNL     1      52.206  10.503  91.651  1.00  0.00    -0.452 OA
ATOM      8  C   UNL     1      52.845  12.506  90.571  1.00  0.00     0.209 A 
ATOM      9  C   UNL     1      53.043  13.233  89.374  1.00  0.00     0.211 A 
ATOM     10  C   UNL     1      52.897  12.589  88.136  1.00  0.00     0.208 A 
ATOM     11  C   UNL     1      52.460  11.247  88.078  1.00  0.00     0.179 A 
ENDROOT
BRANCH   1  12
ATOM     12  C   UNL     1      51.561   8.600  93.019  1.00  0.00     0.018 A 
ATOM     13  C   UNL     1      51.106   7.355  95.515  1.00  0.00     0.118 A 
ATOM     14  C   UNL     1      50.927   8.742  95.369  1.00  0.00     0.047 A 
ATOM     15  C   UNL     1      51.523   6.604  94.412  1.00  0.00     0.047 A 
ATOM     16  C   UNL     1      51.158   9.359  94.136  1.00  0.00     0.016 A 
ATOM     17  C   UNL     1      51.754   7.217  93.178  1.00  0.00     0.016 A 
BRANCH  13  18
ATOM     18  O   UNL     1      50.882   6.691  96.730  1.00  0.00    -0.497 OA
ATOM     19  C   UNL     1      51.519   7.026  97.959  1.00  0.00     0.278 C 
ENDBRANCH  13  18
ENDBRANCH   1  12
BRANCH   8  20
ATOM     20  O   UNL     1      53.037  13.116  91.814  1.00  0.00    -0.490 OA
ATOM     21  C   UNL     1      54.334  13.335  92.360  1.00  0.00     0.278 C 
ENDBRANCH   8  20
BRANCH  11  22
ATOM     22  O   UNL     1      52.176  10.659  86.844  1.00  0.00    -0.492 OA
ATOM     23  C   UNL     1      50.901  10.818  86.232  1.00  0.00     0.278 C 
ENDBRANCH  11  22
BRANCH   9  24
ATOM     24  O   UNL     1      53.409  14.593  89.337  1.00  0.00    -0.490 OA
ATOM     25  C   UNL     1      52.552  15.710  89.545  1.00  0.00     0.279 C 
ENDBRANCH   9  24
BRANCH  10  26
ATOM     26  O   UNL     1      53.201  13.335  86.984  1.00  0.00    -0.490 OA
ATOM     27  C   UNL     1      52.275  14.161  86.284  1.00  0.00     0.278 C 
ENDBRANCH  10  26
TORSDOF 6
ENDMDL
MODEL 5
REMARK VINA RESULT:    -5.492      2.290      8.267
REMARK INTER + INTRA:          -7.909
REMARK INTER:                  -8.108
REMARK INTRA:                   0.199
REMARK UNBOUND:                -0.491
REMARK SMILES COc1ccc(-c2cc(=O)c3c(OC)c(OC)c(OC)c(OC)c3o2)cc1
REMARK SMILES IDX 7 1 8 2 9 3 10 4 11 5 24 6 25 7 21 8 18 9 15 10 12 11 6 12
REMARK SMILES IDX 3 13 4 14 27 15 5 16 26 17 2 18 1 19 22 20 23 21 13 22 14 23
REMARK SMILES IDX 19 24 20 25 16 26 17 27
REMARK H PARENT
REMARK Flexibility Score: inf
ROOT
ATOM      1  C   UNL     1      52.498  10.450  92.455  1.00  0.00     0.138 A 
ATOM      2  C   UNL     1      53.234  11.560  92.895  1.00  0.00     0.100 A 
ATOM      3  C   UNL     1      53.619  12.534  91.976  1.00  0.00     0.197 A 
ATOM      4  O   UNL     1      54.273  13.531  92.386  1.00  0.00    -0.289 OA
ATOM      5  C   UNL     1      53.264  12.394  90.617  1.00  0.00     0.115 A 
ATOM      6  C   UNL     1      52.488  11.269  90.255  1.00  0.00     0.188 A 
ATOM      7  O   UNL     1      52.153  10.363  91.172  1.00  0.00    -0.452 OA
ATOM      8  C   UNL     1      52.086  11.082  88.921  1.00  0.00     0.209 A 
ATOM      9  C   UNL     1      52.485  12.007  87.927  1.00  0.00     0.211 A 
ATOM     10  C   UNL     1      53.228  13.140  88.288  1.00  0.00     0.208 A 
ATOM     11  C   UNL     1      53.661  13.314  89.622  1.00  0.00     0.179 A 
ENDROOT
BRANCH   1  12
ATOM     12  C   UNL     1      52.082   9.373  93.390  1.00  0.00     0.018 A 
ATOM     13  C   UNL     1      51.275   7.359  95.202  1.00  0.00     0.118 A 
ATOM     14  C   UNL     1      51.698   7.021  93.904  1.00  0.00     0.047 A 
ATOM     15  C   UNL     1      51.247   8.705  95.578  1.00  0.00     0.047 A 
ATOM     16  C   UNL     1      52.092   8.017  93.006  1.00  0.00     0.016 A 
ATOM     17  C   UNL     1      51.641   9.704  94.683  1.00  0.00     0.016 A 
BRANCH  13  18
ATOM     18  O   UNL     1      50.875   6.395  96.139  1.00  0.00    -0.497 OA
ATOM     19  C   UNL     1      50.885   6.593  97.549  1.00  0.00     0.278 C 
ENDBRANCH  13  18
ENDBRANCH   1  12
BRANCH   8  20
ATOM     20  O   UNL     1      51.302   9.974  88.589  1.00  0.00    -0.490 OA
ATOM     21  C   UNL     1      51.643   8.653  88.997  1.00  0.00     0.278 C 
ENDBRANCH   8  20
BRANCH  11  22
ATOM     22  O   UNL     1      54.521  14.365  89.944  1.00  0.00    -0.492 OA
ATOM     23  C   UNL     1      55.621  14.695  89.105  1.00  0.00     0.278 C 
ENDBRANCH  11  22
BRANCH   9  24
ATOM     24  O   UNL     1      52.159  11.875  86.562  1.00  0.00    -0.490 OA
ATOM     25  C   UNL     1      50.882  12.078  85.971  1.00  0.00     0.279 C 
ENDBRANCH   9  24
BRANCH  10  26
ATOM     26  O   UNL     1      53.512  14.073  87.275  1.00  0.00    -0.490 OA
ATOM     27  C   UNL     1      52.744  15.243  87.011  1.00  0.00     0.278 C 
ENDBRANCH  10  26
TORSDOF 6
ENDMDL
MODEL 6
REMARK VINA RESULT:    -5.139      2.222      2.824
REMARK INTER + INTRA:          -7.433
REMARK INTER:                  -7.276
REMARK INTRA:                  -0.157
REMARK UNBOUND:                -0.491
REMARK SMILES COc1ccc(-c2cc(=O)c3c(OC)c(OC)c(OC)c(OC)c3o2)cc1
REMARK SMILES IDX 7 1 8 2 9 3 10 4 11 5 24 6 25 7 21 8 18 9 15 10 12 11 6 12
REMARK SMILES IDX 3 13 4 14 27 15 5 16 26 17 2 18 1 19 22 20 23 21 13 22 14 23
REMARK SMILES IDX 19 24 20 25 16 26 17 27
REMARK H PARENT
REMARK Flexibility Score: inf
ROOT
ATOM      1  C   UNL     1      53.082  12.920  89.555  1.00  0.00     0.138 A 
ATOM      2  C   UNL     1      53.585  12.084  88.548  1.00  0.00     0.100 A 
ATOM      3  C   UNL     1      53.774  10.730  88.813  1.00  0.00     0.197 A 
ATOM      4  O   UNL     1      54.219   9.988  87.896  1.00  0.00    -0.289 OA
ATOM      5  C   UNL     1      53.456  10.215  90.088  1.00  0.00     0.115 A 
ATOM      6  C   UNL     1      52.917  11.111  91.040  1.00  0.00     0.188 A 
ATOM      7  O   UNL     1      52.764  12.399  90.738  1.00  0.00    -0.452 OA
ATOM      8  C   UNL     1      52.562  10.656  92.322  1.00  0.00     0.209 A 
ATOM      9  C   UNL     1      52.774   9.303  92.676  1.00  0.00     0.211 A 
ATOM     10  C   UNL     1      53.279   8.405  91.724  1.00  0.00     0.208 A 
ATOM     11  C   UNL     1      53.667   8.866  90.445  1.00  0.00     0.179 A 
ENDROOT
BRANCH   1  12
ATOM     12  C   UNL     1      52.883  14.376  89.330  1.00  0.00     0.018 A 
ATOM     13  C   UNL     1      52.541  17.143  88.866  1.00  0.00     0.118 A 
ATOM     14  C   UNL     1      51.673  16.454  89.732  1.00  0.00     0.047 A 
ATOM     15  C   UNL     1      53.566  16.438  88.229  1.00  0.00     0.047 A 
ATOM     16  C   UNL     1      51.839  15.085  89.957  1.00  0.00     0.016 A 
ATOM     17  C   UNL     1      53.735  15.068  88.453  1.00  0.00     0.016 A 
BRANCH  13  18
ATOM     18  O   UNL     1      52.417  18.516  88.612  1.00  0.00    -0.497 OA
ATOM     19  C   UNL     1      52.400  19.522  89.621  1.00  0.00     0.278 C 
ENDBRANCH  13  18
ENDBRANCH   1  12
BRANCH   8  20
ATOM     20  O   UNL     1      52.011  11.554  93.241  1.00  0.00    -0.490 OA
ATOM     21  C   UNL     1      50.875  12.355  92.932  1.00  0.00     0.278 C 
ENDBRANCH   8  20
BRANCH  11  22
ATOM     22  O   UNL     1      54.303   7.998  89.556  1.00  0.00    -0.492 OA
ATOM     23  C   UNL     1      55.680   7.674  89.707  1.00  0.00     0.278 C 
ENDBRANCH  11  22
BRANCH   9  24
ATOM     24  O   UNL     1      52.483   8.774  93.949  1.00  0.00    -0.490 OA
ATOM     25  C   UNL     1      51.196   8.641  94.540  1.00  0.00     0.279 C 
ENDBRANCH   9  24
BRANCH  10  26
ATOM     26  O   UNL     1      53.377   7.055  92.101  1.00  0.00    -0.490 OA
ATOM     27  C   UNL     1      52.304   6.118  92.050  1.00  0.00     0.278 C 
ENDBRANCH  10  26
TORSDOF 6
ENDMDL
MODEL 7
REMARK VINA RESULT:    -5.011      1.984      7.662
REMARK INTER + INTRA:          -7.260
REMARK INTER:                  -6.953
REMARK INTRA:                  -0.307
REMARK UNBOUND:                -0.491
REMARK SMILES COc1ccc(-c2cc(=O)c3c(OC)c(OC)c(OC)c(OC)c3o2)cc1
REMARK SMILES IDX 7 1 8 2 9 3 10 4 11 5 24 6 25 7 21 8 18 9 15 10 12 11 6 12
REMARK SMILES IDX 3 13 4 14 27 15 5 16 26 17 2 18 1 19 22 20 23 21 13 22 14 23
REMARK SMILES IDX 19 24 20 25 16 26 17 27
REMARK H PARENT
REMARK Flexibility Score: inf
ROOT
ATOM      1  C   UNL     1      52.650  10.410  90.789  1.00  0.00     0.138 A 
ATOM      2  C   UNL     1      53.042   9.905  89.541  1.00  0.00     0.100 A 
ATOM      3  C   UNL     1      53.270  10.786  88.486  1.00  0.00     0.197 A 
ATOM      4  O   UNL     1      53.631  10.319  87.372  1.00  0.00    -0.289 OA
ATOM      5  C   UNL     1      53.107  12.173  88.686  1.00  0.00     0.115 A 
ATOM      6  C   UNL     1      52.748  12.611  89.981  1.00  0.00     0.188 A 
ATOM      7  O   UNL     1      52.533  11.726  90.953  1.00  0.00    -0.452 OA
ATOM      8  C   UNL     1      52.587  13.982  90.249  1.00  0.00     0.209 A 
ATOM      9  C   UNL     1      52.754  14.929  89.210  1.00  0.00     0.211 A 
ATOM     10  C   UNL     1      53.142  14.500  87.932  1.00  0.00     0.208 A 
ATOM     11  C   UNL     1      53.272  13.121  87.652  1.00  0.00     0.179 A 
ENDROOT
BRANCH   1  12
ATOM     12  C   UNL     1      52.373   9.511  91.940  1.00  0.00     0.018 A 
ATOM     13  C   UNL     1      51.879   7.769  94.110  1.00  0.00     0.118 A 
ATOM     14  C   UNL     1      51.328   9.062  94.096  1.00  0.00     0.047 A 
ATOM     15  C   UNL     1      52.684   7.362  93.041  1.00  0.00     0.047 A 
ATOM     16  C   UNL     1      51.576   9.926  93.026  1.00  0.00     0.016 A 
ATOM     17  C   UNL     1      52.934   8.223  91.969  1.00  0.00     0.016 A 
BRANCH  13  18
ATOM     18  O   UNL     1      51.654   6.865  95.158  1.00  0.00    -0.497 OA
ATOM     19  C   UNL     1      50.911   7.168  96.335  1.00  0.00     0.278 C 
ENDBRANCH  13  18
ENDBRANCH   1  12
BRANCH   8  20
ATOM     20  O   UNL     1      52.252  14.395  91.541  1.00  0.00    -0.490 OA
ATOM     21  C   UNL     1      50.905  14.629  91.938  1.00  0.00     0.278 C 
ENDBRANCH   8  20
BRANCH  11  22
ATOM     22  O   UNL     1      53.514  12.696  86.345  1.00  0.00    -0.492 OA
ATOM     23  C   UNL     1      52.462  12.630  85.389  1.00  0.00     0.278 C 
ENDBRANCH  11  22
BRANCH   9  24
ATOM     24  O   UNL     1      52.575  16.316  89.383  1.00  0.00    -0.490 OA
ATOM     25  C   UNL     1      51.396  17.062  89.102  1.00  0.00     0.279 C 
ENDBRANCH   9  24
BRANCH  10  26
ATOM     26  O   UNL     1      53.388  15.493  86.968  1.00  0.00    -0.490 OA
ATOM     27  C   UNL     1      52.481  15.862  85.934  1.00  0.00     0.278 C 
ENDBRANCH  10  26
TORSDOF 6
ENDMDL
MODEL 8
REMARK VINA RESULT:    -4.776      3.416      4.983
REMARK INTER + INTRA:          -6.942
REMARK INTER:                  -6.436
REMARK INTRA:                  -0.506
REMARK UNBOUND:                -0.491
REMARK SMILES COc1ccc(-c2cc(=O)c3c(OC)c(OC)c(OC)c(OC)c3o2)cc1
REMARK SMILES IDX 7 1 8 2 9 3 10 4 11 5 24 6 25 7 21 8 18 9 15 10 12 11 6 12
REMARK SMILES IDX 3 13 4 14 27 15 5 16 26 17 2 18 1 19 22 20 23 21 13 22 14 23
REMARK SMILES IDX 19 24 20 25 16 26 17 27
REMARK H PARENT
REMARK Flexibility Score: inf
ROOT
ATOM      1  C   UNL     1      51.884  15.247  88.954  1.00  0.00     0.138 A 
ATOM      2  C   UNL     1      51.737  14.862  87.613  1.00  0.00     0.100 A 
ATOM      3  C   UNL     1      51.751  13.508  87.285  1.00  0.00     0.197 A 
ATOM      4  O   UNL     1      51.608  13.175  86.077  1.00  0.00    -0.289 OA
ATOM      5  C   UNL     1      51.911  12.542  88.302  1.00  0.00     0.115 A 
ATOM      6  C   UNL     1      52.015  13.005  89.633  1.00  0.00     0.188 A 
ATOM      7  O   UNL     1      52.004  14.311  89.893  1.00  0.00    -0.452 OA
ATOM      8  C   UNL     1      52.159  12.092  90.694  1.00  0.00     0.209 A 
ATOM      9  C   UNL     1      52.231  10.705  90.426  1.00  0.00     0.211 A 
ATOM     10  C   UNL     1      52.096  10.241  89.109  1.00  0.00     0.208 A 
ATOM     11  C   UNL     1      51.985  11.157  88.039  1.00  0.00     0.179 A 
ENDROOT
BRANCH   1  12
ATOM     12  C   UNL     1      51.898  16.679  89.354  1.00  0.00     0.018 A 
ATOM     13  C   UNL     1      51.901  19.388  90.158  1.00  0.00     0.118 A 
ATOM     14  C   UNL     1      52.613  18.985  89.014  1.00  0.00     0.047 A 
ATOM     15  C   UNL     1      51.203  18.429  90.898  1.00  0.00     0.047 A 
ATOM     16  C   UNL     1      52.616  17.644  88.620  1.00  0.00     0.016 A 
ATOM     17  C   UNL     1      51.203  17.087  90.505  1.00  0.00     0.016 A 
BRANCH  13  18
ATOM     18  O   UNL     1      51.864  20.722  90.590  1.00  0.00    -0.497 OA
ATOM     19  C   UNL     1      51.612  21.125  91.933  1.00  0.00     0.278 C 
ENDBRANCH  13  18
ENDBRANCH   1  12
BRANCH   8  20
ATOM     20  O   UNL     1      52.238  12.570  92.005  1.00  0.00    -0.490 OA
ATOM     21  C   UNL     1      53.472  12.642  92.712  1.00  0.00     0.278 C 
ENDBRANCH   8  20
BRANCH  11  22
ATOM     22  O   UNL     1      51.999  10.694  86.722  1.00  0.00    -0.492 OA
ATOM     23  C   UNL     1      53.226  10.451  86.044  1.00  0.00     0.278 C 
ENDBRANCH  11  22
BRANCH   9  24
ATOM     24  O   UNL     1      52.412   9.726  91.424  1.00  0.00    -0.490 OA
ATOM     25  C   UNL     1      51.470   9.343  92.419  1.00  0.00     0.279 C 
ENDBRANCH   9  24
BRANCH  10  26
ATOM     26  O   UNL     1      52.078   8.849  88.916  1.00  0.00    -0.490 OA
ATOM     27  C   UNL     1      50.914   8.033  88.998  1.00  0.00     0.278 C 
ENDBRANCH  10  26
TORSDOF 6
ENDMDL
