MODEL 1
REMARK VINA RESULT:    -4.065      0.000      0.000
REMARK INTER + INTRA:          -7.448
REMARK INTER:                  -6.203
REMARK INTRA:                  -1.245
REMARK UNBOUND:                -1.245
REMARK SMILES CCCCCCCCCCC(=O)[O-]
REMARK SMILES IDX 7 1 8 2 9 3 10 4 11 5 12 6 13 7 6 8 5 9 4 10 3 11 2 12 1 13
REMARK H PARENT
REMARK Flexibility Score: inf
ROOT
ATOM      1  C   UNL     1      15.735 -32.646  23.885  1.00  0.00     0.000 C 
ENDROOT
BRANCH   1   2
ATOM      2  C   UNL     1      16.335 -33.138  22.555  1.00  0.00     0.000 C 
BRANCH   2   3
ATOM      3  C   UNL     1      15.643 -34.407  22.024  1.00  0.00     0.006 C 
BRANCH   3   4
ATOM      4  C   UNL     1      15.144 -34.301  20.574  1.00  0.00     0.053 C 
BRANCH   4   5
ATOM      5  C   UNL     1      16.040 -35.023  19.617  1.00  0.00     0.041 C 
ATOM      6  O   UNL     1      16.093 -36.281  19.625  1.00  0.00    -0.550 OA
ATOM      7  O   UNL     1      16.842 -34.307  18.737  1.00  0.00    -0.550 OA
ENDBRANCH   4   5
ENDBRANCH   3   4
ENDBRANCH   2   3
ENDBRANCH   1   2
BRANCH   1   8
ATOM      8  C   UNL     1      14.200 -32.723  23.902  1.00  0.00     0.000 C 
BRANCH   8   9
ATOM      9  C   UNL     1      13.538 -31.380  23.543  1.00  0.00    -0.000 C 
BRANCH   9  10
ATOM     10  C   UNL     1      13.047 -31.336  22.087  1.00  0.00    -0.000 C 
BRANCH  10  11
ATOM     11  C   UNL     1      14.030 -30.612  21.150  1.00  0.00    -0.000 C 
BRANCH  11  12
ATOM     12  C   UNL     1      14.766 -29.458  21.848  1.00  0.00    -0.003 C 
ATOM     13  C   UNL     1      16.285 -29.551  21.699  1.00  0.00     0.004 C 
ENDBRANCH  11  12
ENDBRANCH  10  11
ENDBRANCH   9  10
ENDBRANCH   8   9
ENDBRANCH   1   8
TORSDOF 9
ENDMDL
MODEL 2
REMARK VINA RESULT:    -4.023      1.829      2.676
REMARK INTER + INTRA:          -7.384
REMARK INTER:                  -7.027
REMARK INTRA:                  -0.357
REMARK UNBOUND:                -1.245
REMARK SMILES CCCCCCCCCCC(=O)[O-]
REMARK SMILES IDX 7 1 8 2 9 3 10 4 11 5 12 6 13 7 6 8 5 9 4 10 3 11 2 12 1 13
REMARK H PARENT
REMARK Flexibility Score: inf
ROOT
ATOM      1  C   UNL     1      14.741 -32.909  22.051  1.00  0.00     0.000 C 
ENDROOT
BRANCH   1   2
ATOM      2  C   UNL     1      15.434 -34.266  21.833  1.00  0.00     0.000 C 
BRANCH   2   3
ATOM      3  C   UNL     1      15.196 -34.835  20.421  1.00  0.00     0.006 C 
BRANCH   3   4
ATOM      4  C   UNL     1      16.473 -35.019  19.586  1.00  0.00     0.053 C 
BRANCH   4   5
ATOM      5  C   UNL     1      17.110 -36.354  19.820  1.00  0.00     0.041 C 
ATOM      6  O   UNL     1      17.340 -37.124  18.851  1.00  0.00    -0.550 OA
ATOM      7  O   UNL     1      17.419 -36.761  21.112  1.00  0.00    -0.550 OA
ENDBRANCH   4   5
ENDBRANCH   3   4
ENDBRANCH   2   3
ENDBRANCH   1   2
BRANCH   1   8
ATOM      8  C   UNL     1      13.847 -32.507  20.867  1.00  0.00     0.000 C 
BRANCH   8   9
ATOM      9  C   UNL     1      13.079 -31.198  21.126  1.00  0.00    -0.000 C 
BRANCH   9  10
ATOM     10  C   UNL     1      12.798 -30.965  22.619  1.00  0.00    -0.000 C 
BRANCH  10  11
ATOM     11  C   UNL     1      13.363 -29.627  23.128  1.00  0.00    -0.000 C 
BRANCH  11  12
ATOM     12  C   UNL     1      12.361 -28.862  24.007  1.00  0.00    -0.003 C 
ATOM     13  C   UNL     1      11.174 -28.317  23.212  1.00  0.00     0.004 C 
ENDBRANCH  11  12
ENDBRANCH  10  11
ENDBRANCH   9  10
ENDBRANCH   8   9
ENDBRANCH   1   8
TORSDOF 9
ENDMDL
MODEL 3
REMARK VINA RESULT:    -3.981      2.215      3.114
REMARK INTER + INTRA:          -7.321
REMARK INTER:                  -6.419
REMARK INTRA:                  -0.903
REMARK UNBOUND:                -1.245
REMARK SMILES CCCCCCCCCCC(=O)[O-]
REMARK SMILES IDX 7 1 8 2 9 3 10 4 11 5 12 6 13 7 6 8 5 9 4 10 3 11 2 12 1 13
REMARK H PARENT
REMARK Flexibility Score: inf
ROOT
ATOM      1  C   UNL     1      16.923 -30.442  21.431  1.00  0.00     0.000 C 
ENDROOT
BRANCH   1   2
ATOM      2  C   UNL     1      17.596 -31.813  21.625  1.00  0.00     0.000 C 
BRANCH   2   3
ATOM      3  C   UNL     1      17.287 -32.794  20.478  1.00  0.00     0.006 C 
BRANCH   3   4
ATOM      4  C   UNL     1      16.556 -34.074  20.916  1.00  0.00     0.053 C 
BRANCH   4   5
ATOM      5  C   UNL     1      15.124 -33.813  21.267  1.00  0.00     0.041 C 
ATOM      6  O   UNL     1      14.273 -33.627  20.358  1.00  0.00    -0.550 OA
ATOM      7  O   UNL     1      14.735 -33.741  22.599  1.00  0.00    -0.550 OA
ENDBRANCH   4   5
ENDBRANCH   3   4
ENDBRANCH   2   3
ENDBRANCH   1   2
BRANCH   1   8
ATOM      8  C   UNL     1      15.656 -30.282  22.287  1.00  0.00     0.000 C 
BRANCH   8   9
ATOM      9  C   UNL     1      14.380 -30.159  21.435  1.00  0.00    -0.000 C 
BRANCH   9  10
ATOM     10  C   UNL     1      13.110 -30.527  22.219  1.00  0.00    -0.000 C 
BRANCH  10  11
ATOM     11  C   UNL     1      13.225 -30.207  23.720  1.00  0.00    -0.000 C 
BRANCH  11  12
ATOM     12  C   UNL     1      12.535 -28.887  24.095  1.00  0.00    -0.003 C 
ATOM     13  C   UNL     1      11.280 -28.620  23.263  1.00  0.00     0.004 C 
ENDBRANCH  11  12
ENDBRANCH  10  11
ENDBRANCH   9  10
ENDBRANCH   8   9
ENDBRANCH   1   8
TORSDOF 9
ENDMDL
MODEL 4
REMARK VINA RESULT:    -3.976      1.968      2.458
REMARK INTER + INTRA:          -7.313
REMARK INTER:                  -6.461
REMARK INTRA:                  -0.852
REMARK UNBOUND:                -1.245
REMARK SMILES CCCCCCCCCCC(=O)[O-]
REMARK SMILES IDX 7 1 8 2 9 3 10 4 11 5 12 6 13 7 6 8 5 9 4 10 3 11 2 12 1 13
REMARK H PARENT
REMARK Flexibility Score: inf
ROOT
ATOM      1  C   UNL     1      15.102 -32.557  23.924  1.00  0.00     0.000 C 
ENDROOT
BRANCH   1   2
ATOM      2  C   UNL     1      15.442 -33.966  23.405  1.00  0.00     0.000 C 
BRANCH   2   3
ATOM      3  C   UNL     1      16.585 -33.960  22.374  1.00  0.00     0.006 C 
BRANCH   3   4
ATOM      4  C   UNL     1      16.216 -33.334  21.019  1.00  0.00     0.053 C 
BRANCH   4   5
ATOM      5  C   UNL     1      15.030 -34.001  20.395  1.00  0.00     0.041 C 
ATOM      6  O   UNL     1      15.079 -35.220  20.084  1.00  0.00    -0.550 OA
ATOM      7  O   UNL     1      13.881 -33.268  20.125  1.00  0.00    -0.550 OA
ENDBRANCH   4   5
ENDBRANCH   3   4
ENDBRANCH   2   3
ENDBRANCH   1   2
BRANCH   1   8
ATOM      8  C   UNL     1      13.605 -32.228  23.796  1.00  0.00     0.000 C 
BRANCH   8   9
ATOM      9  C   UNL     1      13.337 -31.083  22.802  1.00  0.00    -0.000 C 
BRANCH   9  10
ATOM     10  C   UNL     1      14.365 -29.947  22.920  1.00  0.00    -0.000 C 
BRANCH  10  11
ATOM     11  C   UNL     1      13.710 -28.577  23.169  1.00  0.00    -0.000 C 
BRANCH  11  12
ATOM     12  C   UNL     1      12.499 -28.666  24.110  1.00  0.00    -0.003 C 
ATOM     13  C   UNL     1      11.210 -28.163  23.461  1.00  0.00     0.004 C 
ENDBRANCH  11  12
ENDBRANCH  10  11
ENDBRANCH   9  10
ENDBRANCH   8   9
ENDBRANCH   1   8
TORSDOF 9
ENDMDL
MODEL 5
REMARK VINA RESULT:    -3.914      3.784      5.311
REMARK INTER + INTRA:          -7.219
REMARK INTER:                  -5.843
REMARK INTRA:                  -1.376
REMARK UNBOUND:                -1.245
REMARK SMILES CCCCCCCCCCC(=O)[O-]
REMARK SMILES IDX 7 1 8 2 9 3 10 4 11 5 12 6 13 7 6 8 5 9 4 10 3 11 2 12 1 13
REMARK H PARENT
REMARK Flexibility Score: inf
ROOT
ATOM      1  C   UNL     1      14.393 -32.836  21.091  1.00  0.00     0.000 C 
ENDROOT
BRANCH   1   2
ATOM      2  C   UNL     1      13.453 -31.640  21.327  1.00  0.00     0.000 C 
BRANCH   2   3
ATOM      3  C   UNL     1      13.161 -31.399  22.820  1.00  0.00     0.006 C 
BRANCH   3   4
ATOM      4  C   UNL     1      13.602 -30.021  23.340  1.00  0.00     0.053 C 
BRANCH   4   5
ATOM      5  C   UNL     1      12.436 -29.121  23.608  1.00  0.00     0.041 C 
ATOM      6  O   UNL     1      12.446 -28.351  24.604  1.00  0.00    -0.550 OA
ATOM      7  O   UNL     1      11.322 -29.158  22.778  1.00  0.00    -0.550 OA
ENDBRANCH   4   5
ENDBRANCH   3   4
ENDBRANCH   2   3
ENDBRANCH   1   2
BRANCH   1   8
ATOM      8  C   UNL     1      14.707 -33.603  22.386  1.00  0.00     0.000 C 
BRANCH   8   9
ATOM      9  C   UNL     1      16.216 -33.666  22.683  1.00  0.00    -0.000 C 
BRANCH   9  10
ATOM     10  C   UNL     1      16.594 -32.930  23.979  1.00  0.00    -0.000 C 
BRANCH  10  11
ATOM     11  C   UNL     1      16.930 -31.447  23.743  1.00  0.00    -0.000 C 
BRANCH  11  12
ATOM     12  C   UNL     1      17.558 -31.198  22.363  1.00  0.00    -0.003 C 
ATOM     13  C   UNL     1      16.908 -30.029  21.622  1.00  0.00     0.004 C 
ENDBRANCH  11  12
ENDBRANCH  10  11
ENDBRANCH   9  10
ENDBRANCH   8   9
ENDBRANCH   1   8
TORSDOF 9
ENDMDL
MODEL 6
REMARK VINA RESULT:    -3.877      2.663      4.092
REMARK INTER + INTRA:          -7.162
REMARK INTER:                  -5.831
REMARK INTRA:                  -1.332
REMARK UNBOUND:                -1.245
REMARK SMILES CCCCCCCCCCC(=O)[O-]
REMARK SMILES IDX 7 1 8 2 9 3 10 4 11 5 12 6 13 7 6 8 5 9 4 10 3 11 2 12 1 13
REMARK H PARENT
REMARK Flexibility Score: inf
ROOT
ATOM      1  C   UNL     1      15.666 -33.555  24.077  1.00  0.00     0.000 C 
ENDROOT
BRANCH   1   2
ATOM      2  C   UNL     1      14.204 -33.161  23.800  1.00  0.00     0.000 C 
BRANCH   2   3
ATOM      3  C   UNL     1      13.988 -31.636  23.813  1.00  0.00     0.006 C 
BRANCH   3   4
ATOM      4  C   UNL     1      14.137 -30.960  22.441  1.00  0.00     0.053 C 
BRANCH   4   5
ATOM      5  C   UNL     1      12.975 -31.248  21.542  1.00  0.00     0.041 C 
ATOM      6  O   UNL     1      13.146 -31.880  20.467  1.00  0.00    -0.550 OA
ATOM      7  O   UNL     1      11.706 -30.789  21.875  1.00  0.00    -0.550 OA
ENDBRANCH   4   5
ENDBRANCH   3   4
ENDBRANCH   2   3
ENDBRANCH   1   2
BRANCH   1   8
ATOM      8  C   UNL     1      16.296 -34.336  22.912  1.00  0.00     0.000 C 
BRANCH   8   9
ATOM      9  C   UNL     1      15.400 -34.353  21.661  1.00  0.00    -0.000 C 
BRANCH   9  10
ATOM     10  C   UNL     1      16.104 -33.772  20.424  1.00  0.00    -0.000 C 
BRANCH  10  11
ATOM     11  C   UNL     1      17.442 -33.092  20.767  1.00  0.00    -0.000 C 
BRANCH  11  12
ATOM     12  C   UNL     1      17.338 -31.559  20.772  1.00  0.00    -0.003 C 
ATOM     13  C   UNL     1      17.944 -30.932  22.028  1.00  0.00     0.004 C 
ENDBRANCH  11  12
ENDBRANCH  10  11
ENDBRANCH   9  10
ENDBRANCH   8   9
ENDBRANCH   1   8
TORSDOF 9
ENDMDL
MODEL 7
REMARK VINA RESULT:    -3.869      3.805      5.745
REMARK INTER + INTRA:          -7.150
REMARK INTER:                  -5.976
REMARK INTRA:                  -1.173
REMARK UNBOUND:                -1.245
REMARK SMILES CCCCCCCCCCC(=O)[O-]
REMARK SMILES IDX 7 1 8 2 9 3 10 4 11 5 12 6 13 7 6 8 5 9 4 10 3 11 2 12 1 13
REMARK H PARENT
REMARK Flexibility Score: inf
ROOT
ATOM      1  C   UNL     1      15.482 -29.535  22.222  1.00  0.00     0.000 C 
ENDROOT
BRANCH   1   2
ATOM      2  C   UNL     1      14.469 -30.218  21.285  1.00  0.00     0.000 C 
BRANCH   2   3
ATOM      3  C   UNL     1      13.215 -30.716  22.027  1.00  0.00     0.006 C 
BRANCH   3   4
ATOM      4  C   UNL     1      13.137 -30.289  23.501  1.00  0.00     0.053 C 
BRANCH   4   5
ATOM      5  C   UNL     1      12.320 -29.048  23.685  1.00  0.00     0.041 C 
ATOM      6  O   UNL     1      11.240 -28.901  23.055  1.00  0.00    -0.550 OA
ATOM      7  O   UNL     1      12.769 -28.037  24.527  1.00  0.00    -0.550 OA
ENDBRANCH   4   5
ENDBRANCH   3   4
ENDBRANCH   2   3
ENDBRANCH   1   2
BRANCH   1   8
ATOM      8  C   UNL     1      16.817 -30.293  22.300  1.00  0.00     0.000 C 
BRANCH   8   9
ATOM      9  C   UNL     1      16.928 -31.402  21.237  1.00  0.00    -0.000 C 
BRANCH   9  10
ATOM     10  C   UNL     1      17.276 -32.769  21.846  1.00  0.00    -0.000 C 
BRANCH  10  11
ATOM     11  C   UNL     1      16.321 -33.885  21.387  1.00  0.00    -0.000 C 
BRANCH  11  12
ATOM     12  C   UNL     1      15.012 -33.906  22.190  1.00  0.00    -0.003 C 
ATOM     13  C   UNL     1      15.223 -33.587  23.671  1.00  0.00     0.004 C 
ENDBRANCH  11  12
ENDBRANCH  10  11
ENDBRANCH   9  10
ENDBRANCH   8   9
ENDBRANCH   1   8
TORSDOF 9
ENDMDL
MODEL 8
REMARK VINA RESULT:    -3.868      3.937      6.077
REMARK INTER + INTRA:          -7.148
REMARK INTER:                  -6.480
REMARK INTRA:                  -0.668
REMARK UNBOUND:                -1.245
REMARK SMILES CCCCCCCCCCC(=O)[O-]
REMARK SMILES IDX 7 1 8 2 9 3 10 4 11 5 12 6 13 7 6 8 5 9 4 10 3 11 2 12 1 13
REMARK H PARENT
REMARK Flexibility Score: inf
ROOT
ATOM      1  C   UNL     1      15.029 -31.275  21.518  1.00  0.00     0.000 C 
ENDROOT
BRANCH   1   2
ATOM      2  C   UNL     1      13.522 -31.534  21.349  1.00  0.00     0.000 C 
BRANCH   2   3
ATOM      3  C   UNL     1      12.697 -31.059  22.560  1.00  0.00     0.006 C 
BRANCH   3   4
ATOM      4  C   UNL     1      13.421 -30.050  23.465  1.00  0.00     0.053 C 
BRANCH   4   5
ATOM      5  C   UNL     1      12.621 -28.801  23.669  1.00  0.00     0.041 C 
ATOM      6  O   UNL     1      11.407 -28.765  23.335  1.00  0.00    -0.550 OA
ATOM      7  O   UNL     1      13.224 -27.665  24.195  1.00  0.00    -0.550 OA
ENDBRANCH   4   5
ENDBRANCH   3   4
ENDBRANCH   2   3
ENDBRANCH   1   2
BRANCH   1   8
ATOM      8  C   UNL     1      15.861 -32.566  21.449  1.00  0.00     0.000 C 
BRANCH   8   9
ATOM      9  C   UNL     1      14.990 -33.833  21.543  1.00  0.00    -0.000 C 
BRANCH   9  10
ATOM     10  C   UNL     1      15.109 -34.723  20.295  1.00  0.00    -0.000 C 
BRANCH  10  11
ATOM     11  C   UNL     1      16.268 -34.302  19.373  1.00  0.00    -0.000 C 
BRANCH  11  12
ATOM     12  C   UNL     1      17.415 -35.323  19.366  1.00  0.00    -0.003 C 
ATOM     13  C   UNL     1      16.969 -36.715  19.814  1.00  0.00     0.004 C 
ENDBRANCH  11  12
ENDBRANCH  10  11
ENDBRANCH   9  10
ENDBRANCH   8   9
ENDBRANCH   1   8
TORSDOF 9
ENDMDL
MODEL 9
REMARK VINA RESULT:    -3.847      1.510      2.767
REMARK INTER + INTRA:          -7.116
REMARK INTER:                  -6.030
REMARK INTRA:                  -1.086
REMARK UNBOUND:                -1.245
REMARK SMILES CCCCCCCCCCC(=O)[O-]
REMARK SMILES IDX 7 1 8 2 9 3 10 4 11 5 12 6 13 7 6 8 5 9 4 10 3 11 2 12 1 13
REMARK H PARENT
REMARK Flexibility Score: inf
ROOT
ATOM      1  C   UNL     1      17.314 -31.316  22.064  1.00  0.00     0.000 C 
ENDROOT
BRANCH   1   2
ATOM      2  C   UNL     1      18.179 -31.928  20.948  1.00  0.00     0.000 C 
BRANCH   2   3
ATOM      3  C   UNL     1      17.521 -33.156  20.293  1.00  0.00     0.006 C 
BRANCH   3   4
ATOM      4  C   UNL     1      16.252 -33.653  21.004  1.00  0.00     0.053 C 
BRANCH   4   5
ATOM      5  C   UNL     1      15.352 -34.417  20.083  1.00  0.00     0.041 C 
ATOM      6  O   UNL     1      14.274 -33.905  19.682  1.00  0.00    -0.550 OA
ATOM      7  O   UNL     1      15.687 -35.708  19.693  1.00  0.00    -0.550 OA
ENDBRANCH   4   5
ENDBRANCH   3   4
ENDBRANCH   2   3
ENDBRANCH   1   2
BRANCH   1   8
ATOM      8  C   UNL     1      16.767 -29.928  21.691  1.00  0.00     0.000 C 
BRANCH   8   9
ATOM      9  C   UNL     1      15.368 -29.668  22.278  1.00  0.00    -0.000 C 
BRANCH   9  10
ATOM     10  C   UNL     1      14.242 -30.170  21.359  1.00  0.00    -0.000 C 
BRANCH  10  11
ATOM     11  C   UNL     1      13.478 -31.367  21.955  1.00  0.00    -0.000 C 
BRANCH  11  12
ATOM     12  C   UNL     1      13.588 -31.432  23.485  1.00  0.00    -0.003 C 
ATOM     13  C   UNL     1      14.113 -32.779  23.982  1.00  0.00     0.004 C 
ENDBRANCH  11  12
ENDBRANCH  10  11
ENDBRANCH   9  10
ENDBRANCH   8   9
ENDBRANCH   1   8
TORSDOF 9
ENDMDL
