MODEL 1
REMARK VINA RESULT:    -3.860      0.000      0.000
REMARK INTER + INTRA:         -12.599
REMARK INTER:                  -8.372
REMARK INTRA:                  -4.227
REMARK UNBOUND:                -4.227
REMARK SMILES CCCCCCCCCCCCCCCCCCCCCC(=O)[O-]
REMARK SMILES IDX 12 1 11 2 10 3 9 4 8 5 7 6 6 7 5 8 4 9 3 10 2 11 1 12 13 13
REMARK SMILES IDX 14 14 15 15 16 16 17 17 18 18 19 19 20 20 21 21 22 22 23 23
REMARK SMILES IDX 24 24
REMARK H PARENT
REMARK Flexibility Score: inf
ROOT
ATOM      1  C   UNL     1      -9.375  -9.561  16.337  1.00  0.00     0.000 C 
ENDROOT
BRANCH   1   2
ATOM      2  C   UNL     1      -9.588  -9.918  17.818  1.00  0.00     0.000 C 
BRANCH   2   3
ATOM      3  C   UNL     1      -9.527  -8.694  18.744  1.00  0.00     0.000 C 
BRANCH   3   4
ATOM      4  C   UNL     1      -8.819  -7.519  18.063  1.00  0.00    -0.000 C 
BRANCH   4   5
ATOM      5  C   UNL     1      -7.484  -7.210  18.757  1.00  0.00    -0.000 C 
BRANCH   5   6
ATOM      6  C   UNL     1      -6.285  -7.894  18.081  1.00  0.00    -0.000 C 
BRANCH   6   7
ATOM      7  C   UNL     1      -5.422  -8.763  19.017  1.00  0.00    -0.000 C 
BRANCH   7   8
ATOM      8  C   UNL     1      -5.992 -10.178  19.258  1.00  0.00    -0.000 C 
BRANCH   8   9
ATOM      9  C   UNL     1      -6.135 -10.497  20.757  1.00  0.00    -0.000 C 
BRANCH   9  10
ATOM     10  C   UNL     1      -7.512 -10.110  21.321  1.00  0.00    -0.000 C 
BRANCH  10  11
ATOM     11  C   UNL     1      -7.474  -8.816  22.147  1.00  0.00    -0.003 C 
ATOM     12  C   UNL     1      -8.882  -8.274  22.381  1.00  0.00     0.004 C 
ENDBRANCH  10  11
ENDBRANCH   9  10
ENDBRANCH   8   9
ENDBRANCH   7   8
ENDBRANCH   6   7
ENDBRANCH   5   6
ENDBRANCH   4   5
ENDBRANCH   3   4
ENDBRANCH   2   3
ENDBRANCH   1   2
BRANCH   1  13
ATOM     13  C   UNL     1      -8.573 -10.594  15.524  1.00  0.00     0.000 C 
BRANCH  13  14
ATOM     14  C   UNL     1      -7.052 -10.385  15.619  1.00  0.00     0.000 C 
BRANCH  14  15
ATOM     15  C   UNL     1      -6.308 -11.669  16.021  1.00  0.00     0.000 C 
BRANCH  15  16
ATOM     16  C   UNL     1      -7.256 -12.862  16.215  1.00  0.00     0.000 C 
BRANCH  16  17
ATOM     17  C   UNL     1      -7.164 -13.410  17.645  1.00  0.00     0.000 C 
BRANCH  17  18
ATOM     18  C   UNL     1      -8.538 -13.396  18.328  1.00  0.00     0.000 C 
BRANCH  18  19
ATOM     19  C   UNL     1      -9.590 -14.101  17.459  1.00  0.00     0.000 C 
BRANCH  19  20
ATOM     20  C   UNL     1     -10.953 -13.392  17.485  1.00  0.00     0.006 C 
BRANCH  20  21
ATOM     21  C   UNL     1     -11.344 -12.810  16.118  1.00  0.00     0.053 C 
BRANCH  21  22
ATOM     22  C   UNL     1     -11.975 -13.861  15.257  1.00  0.00     0.041 C 
ATOM     23  O   UNL     1     -11.820 -13.833  14.007  1.00  0.00    -0.550 OA
ATOM     24  O   UNL     1     -12.754 -14.858  15.832  1.00  0.00    -0.550 OA
ENDBRANCH  21  22
ENDBRANCH  20  21
ENDBRANCH  19  20
ENDBRANCH  18  19
ENDBRANCH  17  18
ENDBRANCH  16  17
ENDBRANCH  15  16
ENDBRANCH  14  15
ENDBRANCH  13  14
ENDBRANCH   1  13
TORSDOF 20
ENDMDL
MODEL 2
REMARK VINA RESULT:    -3.808      1.530      2.797
REMARK INTER + INTRA:         -12.488
REMARK INTER:                  -8.752
REMARK INTRA:                  -3.736
REMARK UNBOUND:                -4.227
REMARK SMILES CCCCCCCCCCCCCCCCCCCCCC(=O)[O-]
REMARK SMILES IDX 12 1 11 2 10 3 9 4 8 5 7 6 6 7 5 8 4 9 3 10 2 11 1 12 13 13
REMARK SMILES IDX 14 14 15 15 16 16 17 17 18 18 19 19 20 20 21 21 22 22 23 23
REMARK SMILES IDX 24 24
REMARK H PARENT
REMARK Flexibility Score: inf
ROOT
ATOM      1  C   UNL     1      -9.476 -10.718  17.671  1.00  0.00     0.000 C 
ENDROOT
BRANCH   1   2
ATOM      2  C   UNL     1      -9.378  -9.920  16.360  1.00  0.00     0.000 C 
BRANCH   2   3
ATOM      3  C   UNL     1      -7.936  -9.775  15.852  1.00  0.00     0.000 C 
BRANCH   3   4
ATOM      4  C   UNL     1      -7.746  -8.456  15.094  1.00  0.00    -0.000 C 
BRANCH   4   5
ATOM      5  C   UNL     1      -7.132  -7.387  16.008  1.00  0.00    -0.000 C 
BRANCH   5   6
ATOM      6  C   UNL     1      -6.355  -7.985  17.193  1.00  0.00    -0.000 C 
BRANCH   6   7
ATOM      7  C   UNL     1      -6.733  -7.410  18.572  1.00  0.00    -0.000 C 
BRANCH   7   8
ATOM      8  C   UNL     1      -8.255  -7.344  18.825  1.00  0.00    -0.000 C 
BRANCH   8   9
ATOM      9  C   UNL     1      -8.598  -7.448  20.322  1.00  0.00    -0.000 C 
BRANCH   9  10
ATOM     10  C   UNL     1      -8.927  -8.885  20.760  1.00  0.00    -0.000 C 
BRANCH  10  11
ATOM     11  C   UNL     1      -7.930  -9.436  21.791  1.00  0.00    -0.003 C 
ATOM     12  C   UNL     1      -6.815 -10.223  21.108  1.00  0.00     0.004 C 
ENDBRANCH  10  11
ENDBRANCH   9  10
ENDBRANCH   8   9
ENDBRANCH   7   8
ENDBRANCH   6   7
ENDBRANCH   5   6
ENDBRANCH   4   5
ENDBRANCH   3   4
ENDBRANCH   2   3
ENDBRANCH   1   2
BRANCH   1  13
ATOM     13  C   UNL     1      -8.252 -11.595  17.995  1.00  0.00     0.000 C 
BRANCH  13  14
ATOM     14  C   UNL     1      -8.630 -13.022  18.427  1.00  0.00     0.000 C 
BRANCH  14  15
ATOM     15  C   UNL     1      -8.053 -14.092  17.486  1.00  0.00     0.000 C 
BRANCH  15  16
ATOM     16  C   UNL     1      -7.298 -13.483  16.294  1.00  0.00     0.000 C 
BRANCH  16  17
ATOM     17  C   UNL     1      -7.887 -13.970  14.965  1.00  0.00     0.000 C 
BRANCH  17  18
ATOM     18  C   UNL     1      -8.949 -12.993  14.443  1.00  0.00     0.000 C 
BRANCH  18  19
ATOM     19  C   UNL     1      -9.924 -13.700  13.489  1.00  0.00     0.000 C 
BRANCH  19  20
ATOM     20  C   UNL     1     -11.373 -13.680  14.000  1.00  0.00     0.006 C 
BRANCH  20  21
ATOM     21  C   UNL     1     -11.539 -12.844  15.278  1.00  0.00     0.053 C 
BRANCH  21  22
ATOM     22  C   UNL     1     -11.675 -13.731  16.477  1.00  0.00     0.041 C 
ATOM     23  O   UNL     1     -11.541 -14.979  16.360  1.00  0.00    -0.550 OA
ATOM     24  O   UNL     1     -11.974 -13.183  17.718  1.00  0.00    -0.550 OA
ENDBRANCH  21  22
ENDBRANCH  20  21
ENDBRANCH  19  20
ENDBRANCH  18  19
ENDBRANCH  17  18
ENDBRANCH  16  17
ENDBRANCH  15  16
ENDBRANCH  14  15
ENDBRANCH  13  14
ENDBRANCH   1  13
TORSDOF 20
ENDMDL
MODEL 3
REMARK VINA RESULT:    -3.801      3.108      6.805
REMARK INTER + INTRA:         -12.471
REMARK INTER:                  -8.728
REMARK INTRA:                  -3.743
REMARK UNBOUND:                -4.227
REMARK SMILES CCCCCCCCCCCCCCCCCCCCCC(=O)[O-]
REMARK SMILES IDX 12 1 11 2 10 3 9 4 8 5 7 6 6 7 5 8 4 9 3 10 2 11 1 12 13 13
REMARK SMILES IDX 14 14 15 15 16 16 17 17 18 18 19 19 20 20 21 21 22 22 23 23
REMARK SMILES IDX 24 24
REMARK H PARENT
REMARK Flexibility Score: inf
ROOT
ATOM      1  C   UNL     1      -9.446  -9.668  16.558  1.00  0.00     0.000 C 
ENDROOT
BRANCH   1   2
ATOM      2  C   UNL     1      -8.740 -10.521  15.489  1.00  0.00     0.000 C 
BRANCH   2   3
ATOM      3  C   UNL     1      -7.211 -10.515  15.633  1.00  0.00     0.000 C 
BRANCH   3   4
ATOM      4  C   UNL     1      -6.669 -11.935  15.832  1.00  0.00    -0.000 C 
BRANCH   4   5
ATOM      5  C   UNL     1      -7.496 -12.951  15.031  1.00  0.00    -0.000 C 
BRANCH   5   6
ATOM      6  C   UNL     1      -7.857 -14.205  15.846  1.00  0.00    -0.000 C 
BRANCH   6   7
ATOM      7  C   UNL     1      -7.883 -13.999  17.373  1.00  0.00    -0.000 C 
BRANCH   7   8
ATOM      8  C   UNL     1      -9.305 -13.895  17.965  1.00  0.00    -0.000 C 
BRANCH   8   9
ATOM      9  C   UNL     1     -10.378 -14.413  16.990  1.00  0.00    -0.000 C 
BRANCH   9  10
ATOM     10  C   UNL     1     -11.564 -13.446  16.840  1.00  0.00    -0.000 C 
BRANCH  10  11
ATOM     11  C   UNL     1     -11.611 -12.770  15.462  1.00  0.00    -0.003 C 
ATOM     12  C   UNL     1     -11.250 -13.757  14.355  1.00  0.00     0.004 C 
ENDBRANCH  10  11
ENDBRANCH   9  10
ENDBRANCH   8   9
ENDBRANCH   7   8
ENDBRANCH   6   7
ENDBRANCH   5   6
ENDBRANCH   4   5
ENDBRANCH   3   4
ENDBRANCH   2   3
ENDBRANCH   1   2
BRANCH   1  13
ATOM     13  C   UNL     1      -9.583 -10.334  17.940  1.00  0.00     0.000 C 
BRANCH  13  14
ATOM     14  C   UNL     1      -9.203  -9.399  19.100  1.00  0.00     0.000 C 
BRANCH  14  15
ATOM     15  C   UNL     1      -9.328  -7.914  18.721  1.00  0.00     0.000 C 
BRANCH  15  16
ATOM     16  C   UNL     1      -8.128  -7.082  19.198  1.00  0.00     0.000 C 
BRANCH  16  17
ATOM     17  C   UNL     1      -6.832  -7.900  19.134  1.00  0.00     0.000 C 
BRANCH  17  18
ATOM     18  C   UNL     1      -6.270  -7.927  17.707  1.00  0.00     0.000 C 
BRANCH  18  19
ATOM     19  C   UNL     1      -5.634  -6.577  17.341  1.00  0.00     0.000 C 
BRANCH  19  20
ATOM     20  C   UNL     1      -6.366  -5.870  16.189  1.00  0.00     0.006 C 
BRANCH  20  21
ATOM     21  C   UNL     1      -7.405  -6.772  15.505  1.00  0.00     0.053 C 
BRANCH  21  22
ATOM     22  C   UNL     1      -7.343  -6.616  14.017  1.00  0.00     0.041 C 
ATOM     23  O   UNL     1      -6.523  -7.294  13.342  1.00  0.00    -0.550 OA
ATOM     24  O   UNL     1      -8.174  -5.703  13.378  1.00  0.00    -0.550 OA
ENDBRANCH  21  22
ENDBRANCH  20  21
ENDBRANCH  19  20
ENDBRANCH  18  19
ENDBRANCH  17  18
ENDBRANCH  16  17
ENDBRANCH  15  16
ENDBRANCH  14  15
ENDBRANCH  13  14
ENDBRANCH   1  13
TORSDOF 20
ENDMDL
MODEL 4
REMARK VINA RESULT:    -3.789      3.209      5.414
REMARK INTER + INTRA:         -12.447
REMARK INTER:                  -8.732
REMARK INTRA:                  -3.715
REMARK UNBOUND:                -4.227
REMARK SMILES CCCCCCCCCCCCCCCCCCCCCC(=O)[O-]
REMARK SMILES IDX 12 1 11 2 10 3 9 4 8 5 7 6 6 7 5 8 4 9 3 10 2 11 1 12 13 13
REMARK SMILES IDX 14 14 15 15 16 16 17 17 18 18 19 19 20 20 21 21 22 22 23 23
REMARK SMILES IDX 24 24
REMARK H PARENT
REMARK Flexibility Score: inf
ROOT
ATOM      1  C   UNL     1     -11.441 -13.728  14.413  1.00  0.00     0.000 C 
ENDROOT
BRANCH   1   2
ATOM      2  C   UNL     1     -11.345 -14.697  15.604  1.00  0.00     0.000 C 
BRANCH   2   3
ATOM      3  C   UNL     1     -11.285 -13.977  16.959  1.00  0.00     0.000 C 
BRANCH   3   4
ATOM      4  C   UNL     1      -9.909 -14.144  17.613  1.00  0.00    -0.000 C 
BRANCH   4   5
ATOM      5  C   UNL     1      -9.427 -12.815  18.214  1.00  0.00    -0.000 C 
BRANCH   5   6
ATOM      6  C   UNL     1     -10.104 -11.590  17.578  1.00  0.00    -0.000 C 
BRANCH   6   7
ATOM      7  C   UNL     1      -9.334 -10.265  17.744  1.00  0.00    -0.000 C 
BRANCH   7   8
ATOM      8  C   UNL     1      -8.551 -10.160  19.072  1.00  0.00    -0.000 C 
BRANCH   8   9
ATOM      9  C   UNL     1      -8.727  -8.784  19.740  1.00  0.00    -0.000 C 
BRANCH   9  10
ATOM     10  C   UNL     1      -9.353  -7.740  18.800  1.00  0.00    -0.000 C 
BRANCH  10  11
ATOM     11  C   UNL     1      -8.699  -6.357  18.929  1.00  0.00    -0.003 C 
ATOM     12  C   UNL     1      -7.645  -6.145  17.844  1.00  0.00     0.004 C 
ENDBRANCH  10  11
ENDBRANCH   9  10
ENDBRANCH   8   9
ENDBRANCH   7   8
ENDBRANCH   6   7
ENDBRANCH   5   6
ENDBRANCH   4   5
ENDBRANCH   3   4
ENDBRANCH   2   3
ENDBRANCH   1   2
BRANCH   1  13
ATOM     13  C   UNL     1     -10.150 -12.947  14.101  1.00  0.00     0.000 C 
BRANCH  13  14
ATOM     14  C   UNL     1      -9.017 -13.843  13.572  1.00  0.00     0.000 C 
BRANCH  14  15
ATOM     15  C   UNL     1      -7.839 -13.939  14.553  1.00  0.00     0.000 C 
BRANCH  15  16
ATOM     16  C   UNL     1      -7.454 -12.575  15.148  1.00  0.00     0.000 C 
BRANCH  16  17
ATOM     17  C   UNL     1      -6.512 -12.743  16.346  1.00  0.00     0.000 C 
BRANCH  17  18
ATOM     18  C   UNL     1      -5.903 -11.397  16.759  1.00  0.00     0.000 C 
BRANCH  18  19
ATOM     19  C   UNL     1      -5.844 -10.432  15.566  1.00  0.00     0.000 C 
BRANCH  19  20
ATOM     20  C   UNL     1      -6.353  -9.024  15.917  1.00  0.00     0.006 C 
BRANCH  20  21
ATOM     21  C   UNL     1      -7.498  -8.563  15.003  1.00  0.00     0.053 C 
BRANCH  21  22
ATOM     22  C   UNL     1      -7.061  -7.416  14.146  1.00  0.00     0.041 C 
ATOM     23  O   UNL     1      -5.964  -7.468  13.527  1.00  0.00    -0.550 OA
ATOM     24  O   UNL     1      -7.853  -6.278  14.048  1.00  0.00    -0.550 OA
ENDBRANCH  21  22
ENDBRANCH  20  21
ENDBRANCH  19  20
ENDBRANCH  18  19
ENDBRANCH  17  18
ENDBRANCH  16  17
ENDBRANCH  15  16
ENDBRANCH  14  15
ENDBRANCH  13  14
ENDBRANCH   1  13
TORSDOF 20
ENDMDL
MODEL 5
REMARK VINA RESULT:    -3.729      2.006      3.750
REMARK INTER + INTRA:         -12.315
REMARK INTER:                  -8.996
REMARK INTRA:                  -3.319
REMARK UNBOUND:                -4.227
REMARK SMILES CCCCCCCCCCCCCCCCCCCCCC(=O)[O-]
REMARK SMILES IDX 12 1 11 2 10 3 9 4 8 5 7 6 6 7 5 8 4 9 3 10 2 11 1 12 13 13
REMARK SMILES IDX 14 14 15 15 16 16 17 17 18 18 19 19 20 20 21 21 22 22 23 23
REMARK SMILES IDX 24 24
REMARK H PARENT
REMARK Flexibility Score: inf
ROOT
ATOM      1  C   UNL     1      -9.541 -10.537  16.218  1.00  0.00     0.000 C 
ENDROOT
BRANCH   1   2
ATOM      2  C   UNL     1      -9.408 -10.926  17.701  1.00  0.00     0.000 C 
BRANCH   2   3
ATOM      3  C   UNL     1     -10.267 -10.053  18.628  1.00  0.00     0.000 C 
BRANCH   3   4
ATOM      4  C   UNL     1      -9.393  -9.131  19.485  1.00  0.00    -0.000 C 
BRANCH   4   5
ATOM      5  C   UNL     1      -7.960  -9.674  19.584  1.00  0.00    -0.000 C 
BRANCH   5   6
ATOM      6  C   UNL     1      -6.962  -8.635  20.121  1.00  0.00    -0.000 C 
BRANCH   6   7
ATOM      7  C   UNL     1      -6.837  -7.356  19.270  1.00  0.00    -0.000 C 
BRANCH   7   8
ATOM      8  C   UNL     1      -6.497  -7.623  17.787  1.00  0.00    -0.000 C 
BRANCH   8   9
ATOM      9  C   UNL     1      -7.551  -7.028  16.835  1.00  0.00    -0.000 C 
BRANCH   9  10
ATOM     10  C   UNL     1      -6.930  -6.397  15.578  1.00  0.00    -0.000 C 
BRANCH  10  11
ATOM     11  C   UNL     1      -7.634  -6.832  14.284  1.00  0.00    -0.003 C 
ATOM     12  C   UNL     1      -7.893  -5.635  13.372  1.00  0.00     0.004 C 
ENDBRANCH  10  11
ENDBRANCH   9  10
ENDBRANCH   8   9
ENDBRANCH   7   8
ENDBRANCH   6   7
ENDBRANCH   5   6
ENDBRANCH   4   5
ENDBRANCH   3   4
ENDBRANCH   2   3
ENDBRANCH   1   2
BRANCH   1  13
ATOM     13  C   UNL     1      -8.209 -10.324  15.476  1.00  0.00     0.000 C 
BRANCH  13  14
ATOM     14  C   UNL     1      -7.022 -11.031  16.153  1.00  0.00     0.000 C 
BRANCH  14  15
ATOM     15  C   UNL     1      -6.700 -12.387  15.505  1.00  0.00     0.000 C 
BRANCH  15  16
ATOM     16  C   UNL     1      -7.292 -13.570  16.287  1.00  0.00     0.000 C 
BRANCH  16  17
ATOM     17  C   UNL     1      -8.504 -14.161  15.556  1.00  0.00     0.000 C 
BRANCH  17  18
ATOM     18  C   UNL     1      -8.444 -13.853  14.054  1.00  0.00     0.000 C 
BRANCH  18  19
ATOM     19  C   UNL     1      -9.751 -13.204  13.575  1.00  0.00     0.000 C 
BRANCH  19  20
ATOM     20  C   UNL     1     -10.997 -13.990  14.010  1.00  0.00     0.006 C 
BRANCH  20  21
ATOM     21  C   UNL     1     -11.879 -13.206  14.993  1.00  0.00     0.053 C 
BRANCH  21  22
ATOM     22  C   UNL     1     -12.098 -13.991  16.250  1.00  0.00     0.041 C 
ATOM     23  O   UNL     1     -12.635 -15.131  16.200  1.00  0.00    -0.550 OA
ATOM     24  O   UNL     1     -11.731 -13.456  17.478  1.00  0.00    -0.550 OA
ENDBRANCH  21  22
ENDBRANCH  20  21
ENDBRANCH  19  20
ENDBRANCH  18  19
ENDBRANCH  17  18
ENDBRANCH  16  17
ENDBRANCH  15  16
ENDBRANCH  14  15
ENDBRANCH  13  14
ENDBRANCH   1  13
TORSDOF 20
ENDMDL
MODEL 6
REMARK VINA RESULT:    -3.721      1.445      2.699
REMARK INTER + INTRA:         -12.298
REMARK INTER:                  -8.146
REMARK INTRA:                  -4.153
REMARK UNBOUND:                -4.227
REMARK SMILES CCCCCCCCCCCCCCCCCCCCCC(=O)[O-]
REMARK SMILES IDX 12 1 11 2 10 3 9 4 8 5 7 6 6 7 5 8 4 9 3 10 2 11 1 12 13 13
REMARK SMILES IDX 14 14 15 15 16 16 17 17 18 18 19 19 20 20 21 21 22 22 23 23
REMARK SMILES IDX 24 24
REMARK H PARENT
REMARK Flexibility Score: inf
ROOT
ATOM      1  C   UNL     1      -9.958 -10.819  17.075  1.00  0.00     0.000 C 
ENDROOT
BRANCH   1   2
ATOM      2  C   UNL     1      -9.434 -10.164  15.785  1.00  0.00     0.000 C 
BRANCH   2   3
ATOM      3  C   UNL     1      -8.661  -8.862  16.044  1.00  0.00     0.000 C 
BRANCH   3   4
ATOM      4  C   UNL     1      -7.530  -8.678  15.028  1.00  0.00    -0.000 C 
BRANCH   4   5
ATOM      5  C   UNL     1      -6.161  -8.711  15.724  1.00  0.00    -0.000 C 
BRANCH   5   6
ATOM      6  C   UNL     1      -5.819 -10.093  16.306  1.00  0.00    -0.000 C 
BRANCH   6   7
ATOM      7  C   UNL     1      -5.345 -10.078  17.772  1.00  0.00    -0.000 C 
BRANCH   7   8
ATOM      8  C   UNL     1      -5.682  -8.772  18.525  1.00  0.00    -0.000 C 
BRANCH   8   9
ATOM      9  C   UNL     1      -6.180  -9.041  19.957  1.00  0.00    -0.000 C 
BRANCH   9  10
ATOM     10  C   UNL     1      -7.326  -8.105  20.375  1.00  0.00    -0.000 C 
BRANCH  10  11
ATOM     11  C   UNL     1      -7.451  -6.874  19.465  1.00  0.00    -0.003 C 
ATOM     12  C   UNL     1      -8.852  -6.775  18.866  1.00  0.00     0.004 C 
ENDBRANCH  10  11
ENDBRANCH   9  10
ENDBRANCH   8   9
ENDBRANCH   7   8
ENDBRANCH   6   7
ENDBRANCH   5   6
ENDBRANCH   4   5
ENDBRANCH   3   4
ENDBRANCH   2   3
ENDBRANCH   1   2
BRANCH   1  13
ATOM     13  C   UNL     1      -9.015 -10.718  18.289  1.00  0.00     0.000 C 
BRANCH  13  14
ATOM     14  C   UNL     1      -8.360 -12.061  18.656  1.00  0.00     0.000 C 
BRANCH  14  15
ATOM     15  C   UNL     1      -9.157 -13.265  18.131  1.00  0.00     0.000 C 
BRANCH  15  16
ATOM     16  C   UNL     1      -8.291 -14.233  17.310  1.00  0.00     0.000 C 
BRANCH  16  17
ATOM     17  C   UNL     1      -7.081 -13.509  16.706  1.00  0.00     0.000 C 
BRANCH  17  18
ATOM     18  C   UNL     1      -7.298 -13.226  15.214  1.00  0.00     0.000 C 
BRANCH  18  19
ATOM     19  C   UNL     1      -8.482 -14.037  14.668  1.00  0.00     0.000 C 
BRANCH  19  20
ATOM     20  C   UNL     1      -9.554 -13.153  14.012  1.00  0.00     0.006 C 
BRANCH  20  21
ATOM     21  C   UNL     1     -10.902 -13.874  13.855  1.00  0.00     0.053 C 
BRANCH  21  22
ATOM     22  C   UNL     1     -11.682 -13.819  15.132  1.00  0.00     0.041 C 
ATOM     23  O   UNL     1     -12.322 -12.777  15.440  1.00  0.00    -0.550 OA
ATOM     24  O   UNL     1     -11.684 -14.908  15.995  1.00  0.00    -0.550 OA
ENDBRANCH  21  22
ENDBRANCH  20  21
ENDBRANCH  19  20
ENDBRANCH  18  19
ENDBRANCH  17  18
ENDBRANCH  16  17
ENDBRANCH  15  16
ENDBRANCH  14  15
ENDBRANCH  13  14
ENDBRANCH   1  13
TORSDOF 20
ENDMDL
MODEL 7
REMARK VINA RESULT:    -3.691      2.350      4.047
REMARK INTER + INTRA:         -12.234
REMARK INTER:                  -8.968
REMARK INTRA:                  -3.266
REMARK UNBOUND:                -4.227
REMARK SMILES CCCCCCCCCCCCCCCCCCCCCC(=O)[O-]
REMARK SMILES IDX 12 1 11 2 10 3 9 4 8 5 7 6 6 7 5 8 4 9 3 10 2 11 1 12 13 13
REMARK SMILES IDX 14 14 15 15 16 16 17 17 18 18 19 19 20 20 21 21 22 22 23 23
REMARK SMILES IDX 24 24
REMARK H PARENT
REMARK Flexibility Score: inf
ROOT
ATOM      1  C   UNL     1      -9.707 -10.497  16.085  1.00  0.00     0.000 C 
ENDROOT
BRANCH   1   2
ATOM      2  C   UNL     1      -8.669  -9.387  15.843  1.00  0.00     0.000 C 
BRANCH   2   3
ATOM      3  C   UNL     1      -7.244  -9.802  16.238  1.00  0.00     0.000 C 
BRANCH   3   4
ATOM      4  C   UNL     1      -6.327  -8.581  16.364  1.00  0.00    -0.000 C 
BRANCH   4   5
ATOM      5  C   UNL     1      -6.984  -7.339  15.744  1.00  0.00    -0.000 C 
BRANCH   5   6
ATOM      6  C   UNL     1      -6.857  -6.089  16.631  1.00  0.00    -0.000 C 
BRANCH   6   7
ATOM      7  C   UNL     1      -7.011  -6.348  18.142  1.00  0.00    -0.000 C 
BRANCH   7   8
ATOM      8  C   UNL     1      -8.459  -6.194  18.658  1.00  0.00    -0.000 C 
BRANCH   8   9
ATOM      9  C   UNL     1      -9.122  -7.555  18.938  1.00  0.00    -0.000 C 
BRANCH   9  10
ATOM     10  C   UNL     1      -8.189  -8.533  19.670  1.00  0.00    -0.000 C 
BRANCH  10  11
ATOM     11  C   UNL     1      -8.765  -9.016  21.010  1.00  0.00    -0.003 C 
ATOM     12  C   UNL     1      -8.821  -7.876  22.025  1.00  0.00     0.004 C 
ENDBRANCH  10  11
ENDBRANCH   9  10
ENDBRANCH   8   9
ENDBRANCH   7   8
ENDBRANCH   6   7
ENDBRANCH   5   6
ENDBRANCH   4   5
ENDBRANCH   3   4
ENDBRANCH   2   3
ENDBRANCH   1   2
BRANCH   1  13
ATOM     13  C   UNL     1      -9.917 -10.884  17.560  1.00  0.00     0.000 C 
BRANCH  13  14
ATOM     14  C   UNL     1     -10.207 -12.382  17.754  1.00  0.00     0.000 C 
BRANCH  14  15
ATOM     15  C   UNL     1     -11.633 -12.763  17.326  1.00  0.00     0.000 C 
BRANCH  15  16
ATOM     16  C   UNL     1     -11.661 -13.976  16.383  1.00  0.00     0.000 C 
BRANCH  16  17
ATOM     17  C   UNL     1     -12.230 -13.594  15.012  1.00  0.00     0.000 C 
BRANCH  17  18
ATOM     18  C   UNL     1     -11.228 -13.908  13.893  1.00  0.00     0.000 C 
BRANCH  18  19
ATOM     19  C   UNL     1      -9.990 -13.005  13.995  1.00  0.00     0.000 C 
BRANCH  19  20
ATOM     20  C   UNL     1      -8.673 -13.798  13.972  1.00  0.00     0.006 C 
BRANCH  20  21
ATOM     21  C   UNL     1      -8.216 -14.228  15.373  1.00  0.00     0.053 C 
BRANCH  21  22
ATOM     22  C   UNL     1      -7.015 -13.442  15.802  1.00  0.00     0.041 C 
ATOM     23  O   UNL     1      -6.803 -13.225  17.025  1.00  0.00    -0.550 OA
ATOM     24  O   UNL     1      -6.142 -12.929  14.850  1.00  0.00    -0.550 OA
ENDBRANCH  21  22
ENDBRANCH  20  21
ENDBRANCH  19  20
ENDBRANCH  18  19
ENDBRANCH  17  18
ENDBRANCH  16  17
ENDBRANCH  15  16
ENDBRANCH  14  15
ENDBRANCH  13  14
ENDBRANCH   1  13
TORSDOF 20
ENDMDL
MODEL 8
REMARK VINA RESULT:    -3.657      2.971      6.768
REMARK INTER + INTRA:         -12.158
REMARK INTER:                  -8.831
REMARK INTRA:                  -3.327
REMARK UNBOUND:                -4.227
REMARK SMILES CCCCCCCCCCCCCCCCCCCCCC(=O)[O-]
REMARK SMILES IDX 12 1 11 2 10 3 9 4 8 5 7 6 6 7 5 8 4 9 3 10 2 11 1 12 13 13
REMARK SMILES IDX 14 14 15 15 16 16 17 17 18 18 19 19 20 20 21 21 22 22 23 23
REMARK SMILES IDX 24 24
REMARK H PARENT
REMARK Flexibility Score: inf
ROOT
ATOM      1  C   UNL     1      -7.697 -10.624  15.683  1.00  0.00     0.000 C 
ENDROOT
BRANCH   1   2
ATOM      2  C   UNL     1      -6.607 -10.701  16.767  1.00  0.00     0.000 C 
BRANCH   2   3
ATOM      3  C   UNL     1      -6.802 -11.881  17.730  1.00  0.00     0.000 C 
BRANCH   3   4
ATOM      4  C   UNL     1      -7.035 -13.188  16.965  1.00  0.00    -0.000 C 
BRANCH   4   5
ATOM      5  C   UNL     1      -8.249 -13.941  17.528  1.00  0.00    -0.000 C 
BRANCH   5   6
ATOM      6  C   UNL     1      -9.233 -13.020  18.270  1.00  0.00    -0.000 C 
BRANCH   6   7
ATOM      7  C   UNL     1     -10.393 -12.484  17.408  1.00  0.00    -0.000 C 
BRANCH   7   8
ATOM      8  C   UNL     1     -11.634 -13.404  17.388  1.00  0.00    -0.000 C 
BRANCH   8   9
ATOM      9  C   UNL     1     -11.646 -14.333  16.161  1.00  0.00    -0.000 C 
BRANCH   9  10
ATOM     10  C   UNL     1     -12.091 -13.618  14.875  1.00  0.00    -0.000 C 
BRANCH  10  11
ATOM     11  C   UNL     1     -11.134 -13.858  13.699  1.00  0.00    -0.003 C 
ATOM     12  C   UNL     1      -9.746 -13.299  13.999  1.00  0.00     0.004 C 
ENDBRANCH  10  11
ENDBRANCH   9  10
ENDBRANCH   8   9
ENDBRANCH   7   8
ENDBRANCH   6   7
ENDBRANCH   5   6
ENDBRANCH   4   5
ENDBRANCH   3   4
ENDBRANCH   2   3
ENDBRANCH   1   2
BRANCH   1  13
ATOM     13  C   UNL     1      -7.927  -9.223  15.086  1.00  0.00     0.000 C 
BRANCH  13  14
ATOM     14  C   UNL     1      -6.728  -8.280  15.282  1.00  0.00     0.000 C 
BRANCH  14  15
ATOM     15  C   UNL     1      -7.129  -6.798  15.212  1.00  0.00     0.000 C 
BRANCH  15  16
ATOM     16  C   UNL     1      -6.644  -5.999  16.432  1.00  0.00     0.000 C 
BRANCH  16  17
ATOM     17  C   UNL     1      -6.804  -6.813  17.721  1.00  0.00     0.000 C 
BRANCH  17  18
ATOM     18  C   UNL     1      -7.668  -6.061  18.742  1.00  0.00     0.000 C 
BRANCH  18  19
ATOM     19  C   UNL     1      -9.018  -6.765  18.943  1.00  0.00     0.000 C 
BRANCH  19  20
ATOM     20  C   UNL     1      -9.078  -8.139  18.255  1.00  0.00     0.006 C 
BRANCH  20  21
ATOM     21  C   UNL     1      -9.433  -9.273  19.228  1.00  0.00     0.053 C 
BRANCH  21  22
ATOM     22  C   UNL     1      -8.517  -9.260  20.413  1.00  0.00     0.041 C 
ATOM     23  O   UNL     1      -7.282  -9.460  20.262  1.00  0.00    -0.550 OA
ATOM     24  O   UNL     1      -9.030  -9.051  21.687  1.00  0.00    -0.550 OA
ENDBRANCH  21  22
ENDBRANCH  20  21
ENDBRANCH  19  20
ENDBRANCH  18  19
ENDBRANCH  17  18
ENDBRANCH  16  17
ENDBRANCH  15  16
ENDBRANCH  14  15
ENDBRANCH  13  14
ENDBRANCH   1  13
TORSDOF 20
ENDMDL
MODEL 9
REMARK VINA RESULT:    -3.646      1.931      3.217
REMARK INTER + INTRA:         -12.136
REMARK INTER:                  -8.086
REMARK INTRA:                  -4.051
REMARK UNBOUND:                -4.227
REMARK SMILES CCCCCCCCCCCCCCCCCCCCCC(=O)[O-]
REMARK SMILES IDX 12 1 11 2 10 3 9 4 8 5 7 6 6 7 5 8 4 9 3 10 2 11 1 12 13 13
REMARK SMILES IDX 14 14 15 15 16 16 17 17 18 18 19 19 20 20 21 21 22 22 23 23
REMARK SMILES IDX 24 24
REMARK H PARENT
REMARK Flexibility Score: inf
ROOT
ATOM      1  C   UNL     1      -7.315  -9.920  15.605  1.00  0.00     0.000 C 
ENDROOT
BRANCH   1   2
ATOM      2  C   UNL     1      -7.937  -8.597  15.125  1.00  0.00     0.000 C 
BRANCH   2   3
ATOM      3  C   UNL     1      -6.887  -7.571  14.674  1.00  0.00     0.000 C 
BRANCH   3   4
ATOM      4  C   UNL     1      -6.883  -6.344  15.592  1.00  0.00    -0.000 C 
BRANCH   4   5
ATOM      5  C   UNL     1      -5.773  -6.457  16.647  1.00  0.00    -0.000 C 
BRANCH   5   6
ATOM      6  C   UNL     1      -6.319  -6.670  18.069  1.00  0.00    -0.000 C 
BRANCH   6   7
ATOM      7  C   UNL     1      -7.851  -6.561  18.198  1.00  0.00    -0.000 C 
BRANCH   7   8
ATOM      8  C   UNL     1      -8.483  -7.654  19.087  1.00  0.00    -0.000 C 
BRANCH   8   9
ATOM      9  C   UNL     1      -9.593  -8.428  18.352  1.00  0.00    -0.000 C 
BRANCH   9  10
ATOM     10  C   UNL     1      -9.752  -9.870  18.862  1.00  0.00    -0.000 C 
BRANCH  10  11
ATOM     11  C   UNL     1     -10.219 -10.840  17.767  1.00  0.00    -0.003 C 
ATOM     12  C   UNL     1     -11.397 -11.683  18.247  1.00  0.00     0.004 C 
ENDBRANCH  10  11
ENDBRANCH   9  10
ENDBRANCH   8   9
ENDBRANCH   7   8
ENDBRANCH   6   7
ENDBRANCH   5   6
ENDBRANCH   4   5
ENDBRANCH   3   4
ENDBRANCH   2   3
ENDBRANCH   1   2
BRANCH   1  13
ATOM     13  C   UNL     1      -5.776  -9.958  15.602  1.00  0.00     0.000 C 
BRANCH  13  14
ATOM     14  C   UNL     1      -5.176 -10.189  16.999  1.00  0.00     0.000 C 
BRANCH  14  15
ATOM     15  C   UNL     1      -6.236 -10.610  18.030  1.00  0.00     0.000 C 
BRANCH  15  16
ATOM     16  C   UNL     1      -6.095 -12.081  18.451  1.00  0.00     0.000 C 
BRANCH  16  17
ATOM     17  C   UNL     1      -7.228 -12.932  17.864  1.00  0.00     0.000 C 
BRANCH  17  18
ATOM     18  C   UNL     1      -6.815 -13.549  16.522  1.00  0.00     0.000 C 
BRANCH  18  19
ATOM     19  C   UNL     1      -8.048 -13.902  15.677  1.00  0.00     0.000 C 
BRANCH  19  20
ATOM     20  C   UNL     1      -9.301 -14.150  16.532  1.00  0.00     0.006 C 
BRANCH  20  21
ATOM     21  C   UNL     1     -10.528 -14.527  15.689  1.00  0.00     0.053 C 
BRANCH  21  22
ATOM     22  C   UNL     1     -10.724 -13.548  14.573  1.00  0.00     0.041 C 
ATOM     23  O   UNL     1     -10.877 -12.322  14.825  1.00  0.00    -0.550 OA
ATOM     24  O   UNL     1     -10.762 -13.991  13.257  1.00  0.00    -0.550 OA
ENDBRANCH  21  22
ENDBRANCH  20  21
ENDBRANCH  19  20
ENDBRANCH  18  19
ENDBRANCH  17  18
ENDBRANCH  16  17
ENDBRANCH  15  16
ENDBRANCH  14  15
ENDBRANCH  13  14
ENDBRANCH   1  13
TORSDOF 20
ENDMDL
