MODEL 1
REMARK VINA RESULT:     4.768      0.000      0.000
REMARK INTER + INTRA:           9.455
REMARK INTER:                   8.392
REMARK INTRA:                   1.063
REMARK UNBOUND:                 1.063
REMARK SMILES CCCCCCCCCCCCCCC(=O)[O-]
REMARK SMILES IDX 9 1 10 2 11 3 12 4 13 5 14 6 15 7 16 8 17 9 8 10 7 11 6 12
REMARK SMILES IDX 5 13 4 14 3 15 2 16 1 17
REMARK H PARENT
REMARK Flexibility Score: inf
ROOT
ATOM      1  C   UNL     1      16.092  39.034  47.458  1.00  0.00     0.000 C 
ENDROOT
BRANCH   1   2
ATOM      2  C   UNL     1      15.012  40.125  47.550  1.00  0.00     0.000 C 
BRANCH   2   3
ATOM      3  C   UNL     1      13.997  40.049  46.396  1.00  0.00     0.000 C 
BRANCH   3   4
ATOM      4  C   UNL     1      13.173  38.752  46.420  1.00  0.00     0.000 C 
BRANCH   4   5
ATOM      5  C   UNL     1      13.722  37.717  47.417  1.00  0.00     0.006 C 
BRANCH   5   6
ATOM      6  C   UNL     1      12.711  36.601  47.709  1.00  0.00     0.053 C 
BRANCH   6   7
ATOM      7  C   UNL     1      13.372  35.260  47.792  1.00  0.00     0.041 C 
ATOM      8  O   UNL     1      14.385  35.097  48.522  1.00  0.00    -0.550 OA
ATOM      9  O   UNL     1      12.848  34.180  47.093  1.00  0.00    -0.550 OA
ENDBRANCH   6   7
ENDBRANCH   5   6
ENDBRANCH   4   5
ENDBRANCH   3   4
ENDBRANCH   2   3
ENDBRANCH   1   2
BRANCH   1  10
ATOM     10  C   UNL     1      16.408  38.638  46.005  1.00  0.00     0.000 C 
BRANCH  10  11
ATOM     11  C   UNL     1      17.877  38.230  45.812  1.00  0.00    -0.000 C 
BRANCH  11  12
ATOM     12  C   UNL     1      18.823  38.919  46.807  1.00  0.00    -0.000 C 
BRANCH  12  13
ATOM     13  C   UNL     1      20.006  38.011  47.160  1.00  0.00    -0.000 C 
BRANCH  13  14
ATOM     14  C   UNL     1      19.747  36.567  46.706  1.00  0.00    -0.000 C 
BRANCH  14  15
ATOM     15  C   UNL     1      20.162  36.320  45.247  1.00  0.00    -0.000 C 
BRANCH  15  16
ATOM     16  C   UNL     1      20.556  34.860  44.983  1.00  0.00    -0.003 C 
ATOM     17  C   UNL     1      21.317  34.726  43.666  1.00  0.00     0.004 C 
ENDBRANCH  15  16
ENDBRANCH  14  15
ENDBRANCH  13  14
ENDBRANCH  12  13
ENDBRANCH  11  12
ENDBRANCH  10  11
ENDBRANCH   1  10
TORSDOF 13
ENDMDL
MODEL 2
REMARK VINA RESULT:     5.058      0.479      1.359
REMARK INTER + INTRA:           9.964
REMARK INTER:                  10.406
REMARK INTRA:                  -0.442
REMARK UNBOUND:                 1.063
REMARK SMILES CCCCCCCCCCCCCCC(=O)[O-]
REMARK SMILES IDX 9 1 10 2 11 3 12 4 13 5 14 6 15 7 16 8 17 9 8 10 7 11 6 12
REMARK SMILES IDX 5 13 4 14 3 15 2 16 1 17
REMARK H PARENT
REMARK Flexibility Score: inf
ROOT
ATOM      1  C   UNL     1      16.358  39.000  46.145  1.00  0.00     0.000 C 
ENDROOT
BRANCH   1   2
ATOM      2  C   UNL     1      15.616  39.779  47.244  1.00  0.00     0.000 C 
BRANCH   2   3
ATOM      3  C   UNL     1      14.136  40.022  46.899  1.00  0.00     0.000 C 
BRANCH   3   4
ATOM      4  C   UNL     1      13.373  38.715  46.630  1.00  0.00     0.000 C 
BRANCH   4   5
ATOM      5  C   UNL     1      13.874  37.544  47.494  1.00  0.00     0.006 C 
BRANCH   5   6
ATOM      6  C   UNL     1      12.791  36.479  47.709  1.00  0.00     0.053 C 
BRANCH   6   7
ATOM      7  C   UNL     1      13.380  35.110  47.855  1.00  0.00     0.041 C 
ATOM      8  O   UNL     1      12.866  34.132  47.251  1.00  0.00    -0.550 OA
ATOM      9  O   UNL     1      14.518  34.920  48.628  1.00  0.00    -0.550 OA
ENDBRANCH   6   7
ENDBRANCH   5   6
ENDBRANCH   4   5
ENDBRANCH   3   4
ENDBRANCH   2   3
ENDBRANCH   1   2
BRANCH   1  10
ATOM     10  C   UNL     1      17.511  38.148  46.702  1.00  0.00     0.000 C 
BRANCH  10  11
ATOM     11  C   UNL     1      18.852  38.899  46.705  1.00  0.00    -0.000 C 
BRANCH  11  12
ATOM     12  C   UNL     1      20.054  37.972  46.940  1.00  0.00    -0.000 C 
BRANCH  12  13
ATOM     13  C   UNL     1      19.696  36.516  46.620  1.00  0.00    -0.000 C 
BRANCH  13  14
ATOM     14  C   UNL     1      20.330  36.072  45.293  1.00  0.00    -0.000 C 
BRANCH  14  15
ATOM     15  C   UNL     1      20.562  34.554  45.225  1.00  0.00    -0.000 C 
BRANCH  15  16
ATOM     16  C   UNL     1      21.490  34.149  44.070  1.00  0.00    -0.003 C 
ATOM     17  C   UNL     1      21.457  35.186  42.951  1.00  0.00     0.004 C 
ENDBRANCH  15  16
ENDBRANCH  14  15
ENDBRANCH  13  14
ENDBRANCH  12  13
ENDBRANCH  11  12
ENDBRANCH  10  11
ENDBRANCH   1  10
TORSDOF 13
ENDMDL
MODEL 3
REMARK VINA RESULT:     5.066      0.758      1.421
REMARK INTER + INTRA:           9.979
REMARK INTER:                  10.250
REMARK INTRA:                  -0.271
REMARK UNBOUND:                 1.063
REMARK SMILES CCCCCCCCCCCCCCC(=O)[O-]
REMARK SMILES IDX 9 1 10 2 11 3 12 4 13 5 14 6 15 7 16 8 17 9 8 10 7 11 6 12
REMARK SMILES IDX 5 13 4 14 3 15 2 16 1 17
REMARK H PARENT
REMARK Flexibility Score: inf
ROOT
ATOM      1  C   UNL     1      16.388  38.967  46.300  1.00  0.00     0.000 C 
ENDROOT
BRANCH   1   2
ATOM      2  C   UNL     1      15.883  39.521  47.643  1.00  0.00     0.000 C 
BRANCH   2   3
ATOM      3  C   UNL     1      14.471  40.125  47.538  1.00  0.00     0.000 C 
BRANCH   3   4
ATOM      4  C   UNL     1      13.750  39.716  46.243  1.00  0.00     0.000 C 
BRANCH   4   5
ATOM      5  C   UNL     1      13.526  38.197  46.141  1.00  0.00     0.006 C 
BRANCH   5   6
ATOM      6  C   UNL     1      12.992  37.601  47.450  1.00  0.00     0.053 C 
BRANCH   6   7
ATOM      7  C   UNL     1      13.761  36.384  47.861  1.00  0.00     0.041 C 
ATOM      8  O   UNL     1      14.891  36.501  48.403  1.00  0.00    -0.550 OA
ATOM      9  O   UNL     1      13.213  35.120  47.680  1.00  0.00    -0.550 OA
ENDBRANCH   6   7
ENDBRANCH   5   6
ENDBRANCH   4   5
ENDBRANCH   3   4
ENDBRANCH   2   3
ENDBRANCH   1   2
BRANCH   1  10
ATOM     10  C   UNL     1      17.582  38.012  46.468  1.00  0.00     0.000 C 
BRANCH  10  11
ATOM     11  C   UNL     1      18.886  38.752  46.809  1.00  0.00    -0.000 C 
BRANCH  11  12
ATOM     12  C   UNL     1      20.097  37.812  46.902  1.00  0.00    -0.000 C 
BRANCH  12  13
ATOM     13  C   UNL     1      19.725  36.390  46.468  1.00  0.00    -0.000 C 
BRANCH  13  14
ATOM     14  C   UNL     1      20.421  36.016  45.152  1.00  0.00    -0.000 C 
BRANCH  14  15
ATOM     15  C   UNL     1      20.529  34.496  44.948  1.00  0.00    -0.000 C 
BRANCH  15  16
ATOM     16  C   UNL     1      21.653  34.108  43.976  1.00  0.00    -0.003 C 
ATOM     17  C   UNL     1      21.607  34.966  42.714  1.00  0.00     0.004 C 
ENDBRANCH  15  16
ENDBRANCH  14  15
ENDBRANCH  13  14
ENDBRANCH  12  13
ENDBRANCH  11  12
ENDBRANCH  10  11
ENDBRANCH   1  10
TORSDOF 13
ENDMDL
MODEL 4
REMARK VINA RESULT:     5.641      1.104      1.950
REMARK INTER + INTRA:          10.990
REMARK INTER:                  11.016
REMARK INTRA:                  -0.026
REMARK UNBOUND:                 1.063
REMARK SMILES CCCCCCCCCCCCCCC(=O)[O-]
REMARK SMILES IDX 9 1 10 2 11 3 12 4 13 5 14 6 15 7 16 8 17 9 8 10 7 11 6 12
REMARK SMILES IDX 5 13 4 14 3 15 2 16 1 17
REMARK H PARENT
REMARK Flexibility Score: inf
ROOT
ATOM      1  C   UNL     1      14.666  40.125  47.675  1.00  0.00     0.000 C 
ENDROOT
BRANCH   1   2
ATOM      2  C   UNL     1      13.848  39.892  46.394  1.00  0.00     0.000 C 
BRANCH   2   3
ATOM      3  C   UNL     1      13.591  38.399  46.120  1.00  0.00     0.000 C 
BRANCH   3   4
ATOM      4  C   UNL     1      12.763  37.732  47.230  1.00  0.00     0.000 C 
BRANCH   4   5
ATOM      5  C   UNL     1      13.425  36.457  47.781  1.00  0.00     0.006 C 
BRANCH   5   6
ATOM      6  C   UNL     1      14.751  36.753  48.493  1.00  0.00     0.053 C 
BRANCH   6   7
ATOM      7  C   UNL     1      15.195  35.602  49.343  1.00  0.00     0.041 C 
ATOM      8  O   UNL     1      14.919  34.422  49.005  1.00  0.00    -0.550 OA
ATOM      9  O   UNL     1      15.945  35.832  50.489  1.00  0.00    -0.550 OA
ENDBRANCH   6   7
ENDBRANCH   5   6
ENDBRANCH   4   5
ENDBRANCH   3   4
ENDBRANCH   2   3
ENDBRANCH   1   2
BRANCH   1  10
ATOM     10  C   UNL     1      16.075  39.512  47.594  1.00  0.00     0.000 C 
BRANCH  10  11
ATOM     11  C   UNL     1      16.353  38.849  46.235  1.00  0.00    -0.000 C 
BRANCH  11  12
ATOM     12  C   UNL     1      17.556  37.896  46.272  1.00  0.00    -0.000 C 
BRANCH  12  13
ATOM     13  C   UNL     1      18.800  38.601  46.826  1.00  0.00    -0.000 C 
BRANCH  13  14
ATOM     14  C   UNL     1      20.004  37.648  46.863  1.00  0.00    -0.000 C 
BRANCH  14  15
ATOM     15  C   UNL     1      19.694  36.277  46.242  1.00  0.00    -0.000 C 
BRANCH  15  16
ATOM     16  C   UNL     1      20.436  36.047  44.917  1.00  0.00    -0.003 C 
ATOM     17  C   UNL     1      20.761  34.569  44.719  1.00  0.00     0.004 C 
ENDBRANCH  15  16
ENDBRANCH  14  15
ENDBRANCH  13  14
ENDBRANCH  12  13
ENDBRANCH  11  12
ENDBRANCH  10  11
ENDBRANCH   1  10
TORSDOF 13
ENDMDL
MODEL 5
REMARK VINA RESULT:     6.967      3.586      5.582
REMARK INTER + INTRA:          13.324
REMARK INTER:                  14.064
REMARK INTRA:                  -0.740
REMARK UNBOUND:                 1.063
REMARK SMILES CCCCCCCCCCCCCCC(=O)[O-]
REMARK SMILES IDX 9 1 10 2 11 3 12 4 13 5 14 6 15 7 16 8 17 9 8 10 7 11 6 12
REMARK SMILES IDX 5 13 4 14 3 15 2 16 1 17
REMARK H PARENT
REMARK Flexibility Score: inf
ROOT
ATOM      1  C   UNL     1      15.186  35.995  48.601  1.00  0.00     0.000 C 
ENDROOT
BRANCH   1   2
ATOM      2  C   UNL     1      15.352  35.150  49.875  1.00  0.00     0.000 C 
BRANCH   2   3
ATOM      3  C   UNL     1      14.938  33.682  49.668  1.00  0.00     0.000 C 
BRANCH   3   4
ATOM      4  C   UNL     1      15.925  32.696  50.312  1.00  0.00     0.000 C 
BRANCH   4   5
ATOM      5  C   UNL     1      15.228  31.462  50.911  1.00  0.00     0.006 C 
BRANCH   5   6
ATOM      6  C   UNL     1      14.030  31.007  50.067  1.00  0.00     0.053 C 
BRANCH   6   7
ATOM      7  C   UNL     1      13.654  29.586  50.356  1.00  0.00     0.041 C 
ATOM      8  O   UNL     1      13.317  28.817  49.418  1.00  0.00    -0.550 OA
ATOM      9  O   UNL     1      13.712  29.101  51.656  1.00  0.00    -0.550 OA
ENDBRANCH   6   7
ENDBRANCH   5   6
ENDBRANCH   4   5
ENDBRANCH   3   4
ENDBRANCH   2   3
ENDBRANCH   1   2
BRANCH   1  10
ATOM     10  C   UNL     1      13.710  36.221  48.231  1.00  0.00     0.000 C 
BRANCH  10  11
ATOM     11  C   UNL     1      13.506  37.467  47.355  1.00  0.00    -0.000 C 
BRANCH  11  12
ATOM     12  C   UNL     1      14.490  38.598  47.689  1.00  0.00    -0.000 C 
BRANCH  12  13
ATOM     13  C   UNL     1      15.388  38.919  46.488  1.00  0.00    -0.000 C 
BRANCH  13  14
ATOM     14  C   UNL     1      16.858  39.039  46.915  1.00  0.00    -0.000 C 
BRANCH  14  15
ATOM     15  C   UNL     1      17.738  37.921  46.333  1.00  0.00    -0.000 C 
BRANCH  15  16
ATOM     16  C   UNL     1      19.189  37.991  46.833  1.00  0.00    -0.003 C 
ATOM     17  C   UNL     1      19.685  39.434  46.878  1.00  0.00     0.004 C 
ENDBRANCH  15  16
ENDBRANCH  14  15
ENDBRANCH  13  14
ENDBRANCH  12  13
ENDBRANCH  11  12
ENDBRANCH  10  11
ENDBRANCH   1  10
TORSDOF 13
ENDMDL
MODEL 6
REMARK VINA RESULT:     7.031      4.002      6.704
REMARK INTER + INTRA:          13.438
REMARK INTER:                  14.049
REMARK INTRA:                  -0.612
REMARK UNBOUND:                 1.063
REMARK SMILES CCCCCCCCCCCCCCC(=O)[O-]
REMARK SMILES IDX 9 1 10 2 11 3 12 4 13 5 14 6 15 7 16 8 17 9 8 10 7 11 6 12
REMARK SMILES IDX 5 13 4 14 3 15 2 16 1 17
REMARK H PARENT
REMARK Flexibility Score: inf
ROOT
ATOM      1  C   UNL     1      13.773  36.070  48.175  1.00  0.00     0.000 C 
ENDROOT
BRANCH   1   2
ATOM      2  C   UNL     1      13.512  37.350  47.362  1.00  0.00     0.000 C 
BRANCH   2   3
ATOM      3  C   UNL     1      14.481  38.488  47.727  1.00  0.00     0.000 C 
BRANCH   3   4
ATOM      4  C   UNL     1      14.908  39.312  46.502  1.00  0.00     0.000 C 
BRANCH   4   5
ATOM      5  C   UNL     1      16.299  38.919  45.976  1.00  0.00     0.006 C 
BRANCH   5   6
ATOM      6  C   UNL     1      17.124  38.165  47.026  1.00  0.00     0.053 C 
BRANCH   6   7
ATOM      7  C   UNL     1      18.589  38.210  46.720  1.00  0.00     0.041 C 
ATOM      8  O   UNL     1      19.180  37.183  46.295  1.00  0.00    -0.550 OA
ATOM      9  O   UNL     1      19.296  39.397  46.869  1.00  0.00    -0.550 OA
ENDBRANCH   6   7
ENDBRANCH   5   6
ENDBRANCH   4   5
ENDBRANCH   3   4
ENDBRANCH   2   3
ENDBRANCH   1   2
BRANCH   1  10
ATOM     10  C   UNL     1      15.188  36.032  48.776  1.00  0.00     0.000 C 
BRANCH  10  11
ATOM     11  C   UNL     1      15.269  35.160  50.040  1.00  0.00    -0.000 C 
BRANCH  11  12
ATOM     12  C   UNL     1      15.275  33.656  49.726  1.00  0.00    -0.000 C 
BRANCH  12  13
ATOM     13  C   UNL     1      15.506  32.831  50.998  1.00  0.00    -0.000 C 
BRANCH  13  14
ATOM     14  C   UNL     1      15.449  31.326  50.696  1.00  0.00    -0.000 C 
BRANCH  14  15
ATOM     15  C   UNL     1      14.016  30.820  50.471  1.00  0.00    -0.000 C 
BRANCH  15  16
ATOM     16  C   UNL     1      13.911  29.289  50.549  1.00  0.00    -0.003 C 
ATOM     17  C   UNL     1      13.071  28.738  49.399  1.00  0.00     0.004 C 
ENDBRANCH  15  16
ENDBRANCH  14  15
ENDBRANCH  13  14
ENDBRANCH  12  13
ENDBRANCH  11  12
ENDBRANCH  10  11
ENDBRANCH   1  10
TORSDOF 13
ENDMDL
MODEL 7
REMARK VINA RESULT:     7.294      2.913      6.441
REMARK INTER + INTRA:          13.900
REMARK INTER:                  14.319
REMARK INTRA:                  -0.418
REMARK UNBOUND:                 1.063
REMARK SMILES CCCCCCCCCCCCCCC(=O)[O-]
REMARK SMILES IDX 9 1 10 2 11 3 12 4 13 5 14 6 15 7 16 8 17 9 8 10 7 11 6 12
REMARK SMILES IDX 5 13 4 14 3 15 2 16 1 17
REMARK H PARENT
REMARK Flexibility Score: inf
ROOT
ATOM      1  C   UNL     1      16.360  38.944  46.189  1.00  0.00     0.000 C 
ENDROOT
BRANCH   1   2
ATOM      2  C   UNL     1      17.535  37.957  46.290  1.00  0.00     0.000 C 
BRANCH   2   3
ATOM      3  C   UNL     1      18.830  38.630  46.780  1.00  0.00     0.000 C 
BRANCH   3   4
ATOM      4  C   UNL     1      19.966  37.620  47.013  1.00  0.00     0.000 C 
BRANCH   4   5
ATOM      5  C   UNL     1      19.754  36.300  46.251  1.00  0.00     0.006 C 
BRANCH   5   6
ATOM      6  C   UNL     1      20.365  36.338  44.845  1.00  0.00     0.053 C 
BRANCH   6   7
ATOM      7  C   UNL     1      20.809  34.980  44.395  1.00  0.00     0.041 C 
ATOM      8  O   UNL     1      20.809  34.014  45.201  1.00  0.00    -0.550 OA
ATOM      9  O   UNL     1      21.189  34.774  43.075  1.00  0.00    -0.550 OA
ENDBRANCH   6   7
ENDBRANCH   5   6
ENDBRANCH   4   5
ENDBRANCH   3   4
ENDBRANCH   2   3
ENDBRANCH   1   2
BRANCH   1  10
ATOM     10  C   UNL     1      15.916  39.475  47.563  1.00  0.00     0.000 C 
BRANCH  10  11
ATOM     11  C   UNL     1      14.523  40.125  47.522  1.00  0.00    -0.000 C 
BRANCH  11  12
ATOM     12  C   UNL     1      13.762  39.820  46.223  1.00  0.00    -0.000 C 
BRANCH  12  13
ATOM     13  C   UNL     1      13.351  38.345  46.159  1.00  0.00    -0.000 C 
BRANCH  13  14
ATOM     14  C   UNL     1      13.085  37.786  47.565  1.00  0.00    -0.000 C 
BRANCH  14  15
ATOM     15  C   UNL     1      13.703  36.395  47.778  1.00  0.00    -0.000 C 
BRANCH  15  16
ATOM     16  C   UNL     1      15.030  36.451  48.548  1.00  0.00    -0.003 C 
ATOM     17  C   UNL     1      15.211  35.210  49.419  1.00  0.00     0.004 C 
ENDBRANCH  15  16
ENDBRANCH  14  15
ENDBRANCH  13  14
ENDBRANCH  12  13
ENDBRANCH  11  12
ENDBRANCH  10  11
ENDBRANCH   1  10
TORSDOF 13
ENDMDL
MODEL 8
REMARK VINA RESULT:     7.312      3.392      6.128
REMARK INTER + INTRA:          13.931
REMARK INTER:                  14.423
REMARK INTRA:                  -0.492
REMARK UNBOUND:                 1.063
REMARK SMILES CCCCCCCCCCCCCCC(=O)[O-]
REMARK SMILES IDX 9 1 10 2 11 3 12 4 13 5 14 6 15 7 16 8 17 9 8 10 7 11 6 12
REMARK SMILES IDX 5 13 4 14 3 15 2 16 1 17
REMARK H PARENT
REMARK Flexibility Score: inf
ROOT
ATOM      1  C   UNL     1      14.525  40.088  47.694  1.00  0.00     0.000 C 
ENDROOT
BRANCH   1   2
ATOM      2  C   UNL     1      15.951  39.612  47.370  1.00  0.00     0.000 C 
BRANCH   2   3
ATOM      3  C   UNL     1      15.992  38.642  46.176  1.00  0.00     0.000 C 
BRANCH   3   4
ATOM      4  C   UNL     1      17.428  38.281  45.761  1.00  0.00     0.000 C 
BRANCH   4   5
ATOM      5  C   UNL     1      18.244  37.667  46.912  1.00  0.00     0.006 C 
BRANCH   5   6
ATOM      6  C   UNL     1      19.753  37.872  46.725  1.00  0.00     0.053 C 
BRANCH   6   7
ATOM      7  C   UNL     1      20.126  39.322  46.768  1.00  0.00     0.041 C 
ATOM      8  O   UNL     1      20.649  39.811  47.804  1.00  0.00    -0.550 OA
ATOM      9  O   UNL     1      19.931  40.125  45.652  1.00  0.00    -0.550 OA
ENDBRANCH   6   7
ENDBRANCH   5   6
ENDBRANCH   4   5
ENDBRANCH   3   4
ENDBRANCH   2   3
ENDBRANCH   1   2
BRANCH   1  10
ATOM     10  C   UNL     1      13.564  39.923  46.504  1.00  0.00     0.000 C 
BRANCH  10  11
ATOM     11  C   UNL     1      13.097  38.470  46.320  1.00  0.00    -0.000 C 
BRANCH  11  12
ATOM     12  C   UNL     1      13.071  37.682  47.638  1.00  0.00    -0.000 C 
BRANCH  12  13
ATOM     13  C   UNL     1      13.042  36.171  47.375  1.00  0.00    -0.000 C 
BRANCH  13  14
ATOM     14  C   UNL     1      14.053  35.437  48.269  1.00  0.00    -0.000 C 
BRANCH  14  15
ATOM     15  C   UNL     1      15.009  36.396  48.996  1.00  0.00    -0.000 C 
BRANCH  15  16
ATOM     16  C   UNL     1      15.934  35.672  49.985  1.00  0.00    -0.003 C 
ATOM     17  C   UNL     1      16.597  36.660  50.940  1.00  0.00     0.004 C 
ENDBRANCH  15  16
ENDBRANCH  14  15
ENDBRANCH  13  14
ENDBRANCH  12  13
ENDBRANCH  11  12
ENDBRANCH  10  11
ENDBRANCH   1  10
TORSDOF 13
ENDMDL
MODEL 9
REMARK VINA RESULT:     7.333      3.194      5.907
REMARK INTER + INTRA:          13.968
REMARK INTER:                  13.611
REMARK INTRA:                   0.357
REMARK UNBOUND:                 1.063
REMARK SMILES CCCCCCCCCCCCCCC(=O)[O-]
REMARK SMILES IDX 9 1 10 2 11 3 12 4 13 5 14 6 15 7 16 8 17 9 8 10 7 11 6 12
REMARK SMILES IDX 5 13 4 14 3 15 2 16 1 17
REMARK H PARENT
REMARK Flexibility Score: inf
ROOT
ATOM      1  C   UNL     1      13.434  38.773  46.349  1.00  0.00     0.000 C 
ENDROOT
BRANCH   1   2
ATOM      2  C   UNL     1      14.154  40.125  46.487  1.00  0.00     0.000 C 
BRANCH   2   3
ATOM      3  C   UNL     1      15.226  40.112  47.590  1.00  0.00     0.000 C 
BRANCH   3   4
ATOM      4  C   UNL     1      16.098  38.847  47.549  1.00  0.00     0.000 C 
BRANCH   4   5
ATOM      5  C   UNL     1      16.859  38.691  46.221  1.00  0.00     0.006 C 
BRANCH   5   6
ATOM      6  C   UNL     1      18.076  37.767  46.356  1.00  0.00     0.053 C 
BRANCH   6   7
ATOM      7  C   UNL     1      19.284  38.506  46.844  1.00  0.00     0.041 C 
ATOM      8  O   UNL     1      19.268  39.762  46.927  1.00  0.00    -0.550 OA
ATOM      9  O   UNL     1      20.415  37.805  47.243  1.00  0.00    -0.550 OA
ENDBRANCH   6   7
ENDBRANCH   5   6
ENDBRANCH   4   5
ENDBRANCH   3   4
ENDBRANCH   2   3
ENDBRANCH   1   2
BRANCH   1  10
ATOM     10  C   UNL     1      13.701  37.838  47.541  1.00  0.00     0.000 C 
BRANCH  10  11
ATOM     11  C   UNL     1      12.887  36.536  47.463  1.00  0.00    -0.000 C 
BRANCH  11  12
ATOM     12  C   UNL     1      13.598  35.349  48.132  1.00  0.00    -0.000 C 
BRANCH  12  13
ATOM     13  C   UNL     1      14.919  35.790  48.772  1.00  0.00    -0.000 C 
BRANCH  13  14
ATOM     14  C   UNL     1      15.259  34.917  49.990  1.00  0.00    -0.000 C 
BRANCH  14  15
ATOM     15  C   UNL     1      15.537  33.453  49.611  1.00  0.00    -0.000 C 
BRANCH  15  16
ATOM     16  C   UNL     1      15.882  32.584  50.829  1.00  0.00    -0.003 C 
ATOM     17  C   UNL     1      15.111  31.267  50.800  1.00  0.00     0.004 C 
ENDBRANCH  15  16
ENDBRANCH  14  15
ENDBRANCH  13  14
ENDBRANCH  12  13
ENDBRANCH  11  12
ENDBRANCH  10  11
ENDBRANCH   1  10
TORSDOF 13
ENDMDL
