MODEL 1
REMARK VINA RESULT:    -4.856      0.000      0.000
REMARK INTER + INTRA:          -5.978
REMARK INTER:                  -6.843
REMARK INTRA:                   0.864
REMARK UNBOUND:                 0.864
REMARK SMILES CC1=CCC(=C(C)C)C(=O)CC(C)=CCC1
REMARK SMILES IDX 12 1 14 2 13 3 15 4 16 5 2 6 1 7 3 8 11 10 9 11 10 12 5 13
REMARK SMILES IDX 6 14 7 15 8 16 4 17
REMARK H PARENT
REMARK Flexibility Score: 60.00
ROOT
ATOM      1  C   UNL     1      -2.526 -23.105  -9.527  1.00  0.00    -0.070 C 
ATOM      2  C   UNL     1      -1.251 -23.328  -9.095  1.00  0.00    -0.027 C 
ATOM      3  C   UNL     1      -3.192 -21.836  -9.046  1.00  0.00     0.039 C 
ENDROOT
BRANCH   2   4
ATOM      4  C   UNL     1      -0.298 -24.497  -9.315  1.00  0.00     0.032 C 
BRANCH   4   5
ATOM      5  C   UNL     1       0.646 -24.414 -10.520  1.00  0.00     0.034 C 
BRANCH   5   6
ATOM      6  C   UNL     1       0.049 -24.616 -11.920  1.00  0.00    -0.077 C 
ATOM      7  C   UNL     1       0.402 -25.945 -12.554  1.00  0.00     0.039 C 
ATOM      8  C   UNL     1      -0.633 -23.720 -12.695  1.00  0.00    -0.023 CG0
ATOM      9  G   UNL     1      -1.133 -22.323 -12.384  1.00  0.00     0.000 G0
ENDBRANCH   5   6
ENDBRANCH   4   5
ENDBRANCH   2   4
BRANCH   1  10
ATOM     10  C   UNL     1      -3.346 -23.993 -10.452  1.00  0.00     0.111 C 
BRANCH  10  11
ATOM     11  C   UNL     1      -3.309 -23.509 -11.868  1.00  0.00     0.163 C 
ATOM     12  O   UNL     1      -3.834 -24.216 -12.772  1.00  0.00    -0.294 OA
BRANCH  11  13
ATOM     13  C   UNL     1      -2.629 -22.235 -12.216  1.00  0.00    -0.002 C 
ATOM     14  C   UNL     1      -3.328 -21.076 -12.391  1.00  0.00    -0.069 C 
ATOM     15  C   UNL     1      -4.814 -21.012 -12.115  1.00  0.00     0.039 C 
ATOM     16  C   UNL     1      -2.654 -19.804 -12.851  1.00  0.00     0.039 C 
BRANCH  13  17
ATOM     17  C   UNL     1      -1.126 -22.310 -12.384  1.00  0.00     0.066 CG0
ATOM     18  G   UNL     1      -0.651 -23.718 -12.685  1.00  0.00     0.000 G0
ENDBRANCH  13  17
ENDBRANCH  11  13
ENDBRANCH  10  11
ENDBRANCH   1  10
TORSDOF 0
ENDMDL
MODEL 2
REMARK VINA RESULT:    -4.452      2.938      5.307
REMARK INTER + INTRA:          -5.410
REMARK INTER:                  -5.641
REMARK INTRA:                   0.231
REMARK UNBOUND:                 0.864
REMARK SMILES CC1=CCC(=C(C)C)C(=O)CC(C)=CCC1
REMARK SMILES IDX 12 1 14 2 13 3 15 4 16 5 2 6 1 7 3 8 11 10 9 11 10 12 5 13
REMARK SMILES IDX 6 14 7 15 8 16 4 17
REMARK H PARENT
REMARK Flexibility Score: 60.00
ROOT
ATOM      1  C   UNL     1       1.842 -27.700 -12.718  1.00  0.00    -0.070 C 
ATOM      2  C   UNL     1       2.946 -27.821 -11.926  1.00  0.00    -0.027 C 
ATOM      3  C   UNL     1       1.916 -28.344 -14.084  1.00  0.00     0.039 C 
ENDROOT
BRANCH   2   4
ATOM      4  C   UNL     1       3.263 -27.270 -10.540  1.00  0.00     0.032 C 
BRANCH   4   5
ATOM      5  C   UNL     1       4.275 -26.120 -10.459  1.00  0.00     0.034 C 
BRANCH   5   6
ATOM      6  C   UNL     1       3.748 -24.718 -10.120  1.00  0.00    -0.077 C 
ATOM      7  C   UNL     1       4.825 -23.656 -10.051  1.00  0.00     0.039 C 
ATOM      8  C   UNL     1       2.484 -24.346  -9.757  1.00  0.00    -0.023 CG0
ATOM      9  G   UNL     1       1.194 -25.142  -9.706  1.00  0.00     0.000 G0
ENDBRANCH   5   6
ENDBRANCH   4   5
ENDBRANCH   2   4
BRANCH   1  10
ATOM     10  C   UNL     1       0.539 -26.996 -12.369  1.00  0.00     0.111 C 
BRANCH  10  11
ATOM     11  C   UNL     1       0.732 -25.522 -12.188  1.00  0.00     0.163 C 
ATOM     12  O   UNL     1       1.284 -24.859 -13.109  1.00  0.00    -0.294 OA
BRANCH  11  13
ATOM     13  C   UNL     1       0.320 -24.852 -10.929  1.00  0.00    -0.002 C 
ATOM     14  C   UNL     1      -0.764 -24.024 -10.882  1.00  0.00    -0.069 C 
ATOM     15  C   UNL     1      -1.666 -23.850 -12.083  1.00  0.00     0.039 C 
ATOM     16  C   UNL     1      -1.122 -23.256  -9.629  1.00  0.00     0.039 C 
BRANCH  13  17
ATOM     17  C   UNL     1       1.184 -25.129  -9.716  1.00  0.00     0.066 CG0
ATOM     18  G   UNL     1       2.485 -24.350  -9.748  1.00  0.00     0.000 G0
ENDBRANCH  13  17
ENDBRANCH  11  13
ENDBRANCH  10  11
ENDBRANCH   1  10
TORSDOF 0
ENDMDL
MODEL 3
REMARK VINA RESULT:    -4.146      4.415      7.152
REMARK INTER + INTRA:          -4.978
REMARK INTER:                  -5.847
REMARK INTRA:                   0.869
REMARK UNBOUND:                 0.864
REMARK SMILES CC1=CCC(=C(C)C)C(=O)CC(C)=CCC1
REMARK SMILES IDX 12 1 14 2 13 3 15 4 16 5 2 6 1 7 3 8 11 10 9 11 10 12 5 13
REMARK SMILES IDX 6 14 7 15 8 16 4 17
REMARK H PARENT
REMARK Flexibility Score: 60.00
ROOT
ATOM      1  C   UNL     1       0.710 -25.265 -10.333  1.00  0.00    -0.070 C 
ATOM      2  C   UNL     1       0.551 -24.949 -11.651  1.00  0.00    -0.027 C 
ATOM      3  C   UNL     1      -0.133 -24.492  -9.345  1.00  0.00     0.039 C 
ENDROOT
BRANCH   2   4
ATOM      4  C   UNL     1       1.251 -25.459 -12.905  1.00  0.00     0.032 C 
BRANCH   4   5
ATOM      5  C   UNL     1       0.856 -26.851 -13.411  1.00  0.00     0.034 C 
BRANCH   5   6
ATOM      6  C   UNL     1       1.978 -27.849 -13.730  1.00  0.00    -0.077 C 
ATOM      7  C   UNL     1       2.167 -28.111 -15.209  1.00  0.00     0.039 C 
ATOM      8  C   UNL     1       2.719 -28.606 -12.865  1.00  0.00    -0.023 CG0
ATOM      9  G   UNL     1       2.775 -28.607 -11.350  1.00  0.00     0.000 G0
ENDBRANCH   5   6
ENDBRANCH   4   5
ENDBRANCH   2   4
BRANCH   1  10
ATOM     10  C   UNL     1       1.638 -26.322  -9.752  1.00  0.00     0.111 C 
BRANCH  10  11
ATOM     11  C   UNL     1       3.003 -26.265 -10.365  1.00  0.00     0.163 C 
ATOM     12  O   UNL     1       3.552 -25.142 -10.535  1.00  0.00    -0.294 OA
BRANCH  11  13
ATOM     13  C   UNL     1       3.687 -27.507 -10.807  1.00  0.00    -0.002 C 
ATOM     14  C   UNL     1       5.045 -27.634 -10.748  1.00  0.00    -0.069 C 
ATOM     15  C   UNL     1       5.902 -26.562 -10.112  1.00  0.00     0.039 C 
ATOM     16  C   UNL     1       5.752 -28.852 -11.297  1.00  0.00     0.039 C 
BRANCH  13  17
ATOM     17  C   UNL     1       2.790 -28.604 -11.342  1.00  0.00     0.066 CG0
ATOM     18  G   UNL     1       2.724 -28.604 -12.857  1.00  0.00     0.000 G0
ENDBRANCH  13  17
ENDBRANCH  11  13
ENDBRANCH  10  11
ENDBRANCH   1  10
TORSDOF 0
ENDMDL
MODEL 4
REMARK VINA RESULT:    -4.113      1.578      4.638
REMARK INTER + INTRA:          -4.932
REMARK INTER:                  -5.826
REMARK INTRA:                   0.895
REMARK UNBOUND:                 0.864
REMARK SMILES CC1=CCC(=C(C)C)C(=O)CC(C)=CCC1
REMARK SMILES IDX 12 1 14 2 13 3 15 4 16 5 2 6 1 7 3 8 11 10 9 11 10 12 5 13
REMARK SMILES IDX 6 14 7 15 8 16 4 17
REMARK H PARENT
REMARK Flexibility Score: 60.00
ROOT
ATOM      1  C   UNL     1      -2.571 -22.495 -13.051  1.00  0.00    -0.070 C 
ATOM      2  C   UNL     1      -2.789 -21.283 -12.464  1.00  0.00    -0.027 C 
ATOM      3  C   UNL     1      -3.779 -23.190 -13.637  1.00  0.00     0.039 C 
ENDROOT
BRANCH   2   4
ATOM      4  C   UNL     1      -1.851 -20.331 -11.730  1.00  0.00     0.032 C 
BRANCH   4   5
ATOM      5  C   UNL     1      -1.428 -20.722 -10.309  1.00  0.00     0.034 C 
BRANCH   5   6
ATOM      6  C   UNL     1      -1.915 -22.068  -9.756  1.00  0.00    -0.077 C 
ATOM      7  C   UNL     1      -3.308 -22.023  -9.162  1.00  0.00     0.039 C 
ATOM      8  C   UNL     1      -1.219 -23.237  -9.618  1.00  0.00    -0.023 CG0
ATOM      9  G   UNL     1       0.173 -23.620 -10.080  1.00  0.00     0.000 G0
ENDBRANCH   5   6
ENDBRANCH   4   5
ENDBRANCH   2   4
BRANCH   1  10
ATOM     10  C   UNL     1      -1.239 -23.218 -13.190  1.00  0.00     0.111 C 
BRANCH  10  11
ATOM     11  C   UNL     1      -1.096 -24.321 -12.188  1.00  0.00     0.163 C 
ATOM     12  O   UNL     1      -2.054 -25.125 -12.021  1.00  0.00    -0.294 OA
BRANCH  11  13
ATOM     13  C   UNL     1       0.137 -24.446 -11.370  1.00  0.00    -0.002 C 
ATOM     14  C   UNL     1       1.161 -25.269 -11.742  1.00  0.00    -0.069 C 
ATOM     15  C   UNL     1       1.136 -25.993 -13.069  1.00  0.00     0.039 C 
ATOM     16  C   UNL     1       2.369 -25.482 -10.858  1.00  0.00     0.039 C 
BRANCH  13  17
ATOM     17  C   UNL     1       0.175 -23.626 -10.097  1.00  0.00     0.066 CG0
ATOM     18  G   UNL     1      -1.212 -23.238  -9.622  1.00  0.00     0.000 G0
ENDBRANCH  13  17
ENDBRANCH  11  13
ENDBRANCH  10  11
ENDBRANCH   1  10
TORSDOF 0
ENDMDL
MODEL 5
REMARK VINA RESULT:    -4.088      1.669      4.269
REMARK INTER + INTRA:          -4.897
REMARK INTER:                  -5.735
REMARK INTRA:                   0.839
REMARK UNBOUND:                 0.864
REMARK SMILES CC1=CCC(=C(C)C)C(=O)CC(C)=CCC1
REMARK SMILES IDX 12 1 14 2 13 3 15 4 16 5 2 6 1 7 3 8 11 10 9 11 10 12 5 13
REMARK SMILES IDX 6 14 7 15 8 16 4 17
REMARK H PARENT
REMARK Flexibility Score: 60.00
ROOT
ATOM      1  C   UNL     1      -2.516 -21.719 -10.256  1.00  0.00    -0.070 C 
ATOM      2  C   UNL     1      -3.224 -21.100 -11.244  1.00  0.00    -0.027 C 
ATOM      3  C   UNL     1      -3.307 -22.217  -9.067  1.00  0.00     0.039 C 
ENDROOT
BRANCH   2   4
ATOM      4  C   UNL     1      -2.779 -20.430 -12.539  1.00  0.00     0.032 C 
BRANCH   4   5
ATOM      5  C   UNL     1      -2.987 -21.214 -13.841  1.00  0.00     0.034 C 
BRANCH   5   6
ATOM      6  C   UNL     1      -2.961 -22.747 -13.772  1.00  0.00    -0.077 C 
ATOM      7  C   UNL     1      -4.279 -23.402 -14.127  1.00  0.00     0.039 C 
ATOM      8  C   UNL     1      -1.963 -23.565 -13.318  1.00  0.00    -0.023 CG0
ATOM      9  G   UNL     1      -0.547 -23.248 -12.880  1.00  0.00     0.000 G0
ENDBRANCH   5   6
ENDBRANCH   4   5
ENDBRANCH   2   4
BRANCH   1  10
ATOM     10  C   UNL     1      -1.016 -21.972 -10.226  1.00  0.00     0.111 C 
BRANCH  10  11
ATOM     11  C   UNL     1      -0.693 -23.430 -10.334  1.00  0.00     0.163 C 
ATOM     12  O   UNL     1      -0.842 -24.168  -9.321  1.00  0.00    -0.294 OA
BRANCH  11  13
ATOM     13  C   UNL     1      -0.166 -23.999 -11.601  1.00  0.00    -0.002 C 
ATOM     14  C   UNL     1       0.627 -25.109 -11.610  1.00  0.00    -0.069 C 
ATOM     15  C   UNL     1       0.901 -25.883 -10.340  1.00  0.00     0.039 C 
ATOM     16  C   UNL     1       1.253 -25.626 -12.886  1.00  0.00     0.039 C 
BRANCH  13  17
ATOM     17  C   UNL     1      -0.546 -23.260 -12.867  1.00  0.00     0.066 CG0
ATOM     18  G   UNL     1      -1.962 -23.570 -13.311  1.00  0.00     0.000 G0
ENDBRANCH  13  17
ENDBRANCH  11  13
ENDBRANCH  10  11
ENDBRANCH   1  10
TORSDOF 0
ENDMDL
MODEL 6
REMARK VINA RESULT:    -4.079      4.258      7.381
REMARK INTER + INTRA:          -4.884
REMARK INTER:                  -5.157
REMARK INTRA:                   0.272
REMARK UNBOUND:                 0.864
REMARK SMILES CC1=CCC(=C(C)C)C(=O)CC(C)=CCC1
REMARK SMILES IDX 12 1 14 2 13 3 15 4 16 5 2 6 1 7 3 8 11 10 9 11 10 12 5 13
REMARK SMILES IDX 6 14 7 15 8 16 4 17
REMARK H PARENT
REMARK Flexibility Score: 60.00
ROOT
ATOM      1  C   UNL     1       1.575 -27.866 -12.375  1.00  0.00    -0.070 C 
ATOM      2  C   UNL     1       0.739 -26.813 -12.606  1.00  0.00    -0.027 C 
ATOM      3  C   UNL     1       0.929 -29.226 -12.242  1.00  0.00     0.039 C 
ENDROOT
BRANCH   2   4
ATOM      4  C   UNL     1       1.007 -25.318 -12.737  1.00  0.00     0.032 C 
BRANCH   4   5
ATOM      5  C   UNL     1       0.711 -24.444 -11.512  1.00  0.00     0.034 C 
BRANCH   5   6
ATOM      6  C   UNL     1       1.164 -24.951 -10.136  1.00  0.00    -0.077 C 
ATOM      7  C   UNL     1       0.033 -25.153  -9.150  1.00  0.00     0.039 C 
ATOM      8  C   UNL     1       2.437 -25.114  -9.663  1.00  0.00    -0.023 CG0
ATOM      9  G   UNL     1       3.776 -24.988 -10.363  1.00  0.00     0.000 G0
ENDBRANCH   5   6
ENDBRANCH   4   5
ENDBRANCH   2   4
BRANCH   1  10
ATOM     10  C   UNL     1       3.091 -27.819 -12.247  1.00  0.00     0.111 C 
BRANCH  10  11
ATOM     11  C   UNL     1       3.523 -27.473 -10.856  1.00  0.00     0.163 C 
ATOM     12  O   UNL     1       3.069 -28.142  -9.889  1.00  0.00    -0.294 OA
BRANCH  11  13
ATOM     13  C   UNL     1       4.441 -26.331 -10.610  1.00  0.00    -0.002 C 
ATOM     14  C   UNL     1       5.796 -26.494 -10.600  1.00  0.00    -0.069 C 
ATOM     15  C   UNL     1       6.426 -27.820 -10.962  1.00  0.00     0.039 C 
ATOM     16  C   UNL     1       6.729 -25.358 -10.243  1.00  0.00     0.039 C 
BRANCH  13  17
ATOM     17  C   UNL     1       3.781 -24.993 -10.354  1.00  0.00     0.066 CG0
ATOM     18  G   UNL     1       2.438 -25.137  -9.664  1.00  0.00     0.000 G0
ENDBRANCH  13  17
ENDBRANCH  11  13
ENDBRANCH  10  11
ENDBRANCH   1  10
TORSDOF 0
ENDMDL
MODEL 7
REMARK VINA RESULT:    -4.074      2.790      4.798
REMARK INTER + INTRA:          -4.876
REMARK INTER:                  -5.709
REMARK INTRA:                   0.833
REMARK UNBOUND:                 0.864
REMARK SMILES CC1=CCC(=C(C)C)C(=O)CC(C)=CCC1
REMARK SMILES IDX 12 1 14 2 13 3 15 4 16 5 2 6 1 7 3 8 11 10 9 11 10 12 5 13
REMARK SMILES IDX 6 14 7 15 8 16 4 17
REMARK H PARENT
REMARK Flexibility Score: 60.00
ROOT
ATOM      1  C   UNL     1       3.708 -24.489 -10.104  1.00  0.00    -0.070 C 
ATOM      2  C   UNL     1       4.064 -25.717 -10.582  1.00  0.00    -0.027 C 
ATOM      3  C   UNL     1       4.746 -23.395 -10.208  1.00  0.00     0.039 C 
ENDROOT
BRANCH   2   4
ATOM      4  C   UNL     1       3.325 -27.050 -10.597  1.00  0.00     0.032 C 
BRANCH   4   5
ATOM      5  C   UNL     1       3.017 -27.664 -11.968  1.00  0.00     0.034 C 
BRANCH   5   6
ATOM      6  C   UNL     1       1.571 -27.604 -12.478  1.00  0.00    -0.077 C 
ATOM      7  C   UNL     1       0.984 -28.955 -12.827  1.00  0.00     0.039 C 
ATOM      8  C   UNL     1       0.814 -26.503 -12.771  1.00  0.00    -0.023 CG0
ATOM      9  G   UNL     1       1.092 -25.028 -12.563  1.00  0.00     0.000 G0
ENDBRANCH   5   6
ENDBRANCH   4   5
ENDBRANCH   2   4
BRANCH   1  10
ATOM     10  C   UNL     1       2.372 -24.101  -9.488  1.00  0.00     0.111 C 
BRANCH  10  11
ATOM     11  C   UNL     1       1.243 -24.908 -10.047  1.00  0.00     0.163 C 
ATOM     12  O   UNL     1       0.915 -25.983  -9.474  1.00  0.00    -0.294 OA
BRANCH  11  13
ATOM     13  C   UNL     1       0.542 -24.476 -11.283  1.00  0.00    -0.002 C 
ATOM     14  C   UNL     1      -0.545 -23.652 -11.237  1.00  0.00    -0.069 C 
ATOM     15  C   UNL     1      -1.008 -23.042  -9.933  1.00  0.00     0.039 C 
ATOM     16  C   UNL     1      -1.326 -23.299 -12.483  1.00  0.00     0.039 C 
BRANCH  13  17
ATOM     17  C   UNL     1       1.094 -25.022 -12.584  1.00  0.00     0.066 CG0
ATOM     18  G   UNL     1       0.801 -26.499 -12.758  1.00  0.00     0.000 G0
ENDBRANCH  13  17
ENDBRANCH  11  13
ENDBRANCH  10  11
ENDBRANCH   1  10
TORSDOF 0
ENDMDL
MODEL 8
REMARK VINA RESULT:    -4.052      8.337     10.832
REMARK INTER + INTRA:          -4.846
REMARK INTER:                  -5.204
REMARK INTRA:                   0.358
REMARK UNBOUND:                 0.864
REMARK SMILES CC1=CCC(=C(C)C)C(=O)CC(C)=CCC1
REMARK SMILES IDX 12 1 14 2 13 3 15 4 16 5 2 6 1 7 3 8 11 10 9 11 10 12 5 13
REMARK SMILES IDX 6 14 7 15 8 16 4 17
REMARK H PARENT
REMARK Flexibility Score: 60.00
ROOT
ATOM      1  C   UNL     1       9.215 -26.093  -9.173  1.00  0.00    -0.070 C 
ATOM      2  C   UNL     1      10.110 -26.887  -9.829  1.00  0.00    -0.027 C 
ATOM      3  C   UNL     1       9.783 -24.912  -8.421  1.00  0.00     0.039 C 
ENDROOT
BRANCH   2   4
ATOM      4  C   UNL     1       9.926 -28.172 -10.628  1.00  0.00     0.032 C 
BRANCH   4   5
ATOM      5  C   UNL     1      10.125 -28.087 -12.146  1.00  0.00     0.034 C 
BRANCH   5   6
ATOM      6  C   UNL     1       8.921 -28.386 -13.050  1.00  0.00    -0.077 C 
ATOM      7  C   UNL     1       9.214 -28.261 -14.530  1.00  0.00     0.039 C 
ATOM      8  C   UNL     1       7.621 -28.616 -12.692  1.00  0.00    -0.023 CG0
ATOM      9  G   UNL     1       6.987 -28.788 -11.326  1.00  0.00     0.000 G0
ENDBRANCH   5   6
ENDBRANCH   4   5
ENDBRANCH   2   4
BRANCH   1  10
ATOM     10  C   UNL     1       7.704 -26.264  -9.126  1.00  0.00     0.111 C 
BRANCH  10  11
ATOM     11  C   UNL     1       7.113 -26.391 -10.496  1.00  0.00     0.163 C 
ATOM     12  O   UNL     1       7.324 -25.478 -11.341  1.00  0.00    -0.294 OA
BRANCH  11  13
ATOM     13  C   UNL     1       6.257 -27.552 -10.848  1.00  0.00    -0.002 C 
ATOM     14  C   UNL     1       4.899 -27.500 -10.729  1.00  0.00    -0.069 C 
ATOM     15  C   UNL     1       4.197 -26.214 -10.352  1.00  0.00     0.039 C 
ATOM     16  C   UNL     1       4.033 -28.713 -10.982  1.00  0.00     0.039 C 
BRANCH  13  17
ATOM     17  C   UNL     1       6.985 -28.793 -11.323  1.00  0.00     0.066 CG0
ATOM     18  G   UNL     1       7.616 -28.601 -12.688  1.00  0.00     0.000 G0
ENDBRANCH  13  17
ENDBRANCH  11  13
ENDBRANCH  10  11
ENDBRANCH   1  10
TORSDOF 0
ENDMDL
MODEL 9
REMARK VINA RESULT:    -3.865      9.106     11.602
REMARK INTER + INTRA:          -4.582
REMARK INTER:                  -4.808
REMARK INTRA:                   0.226
REMARK UNBOUND:                 0.864
REMARK SMILES CC1=CCC(=C(C)C)C(=O)CC(C)=CCC1
REMARK SMILES IDX 12 1 14 2 13 3 15 4 16 5 2 6 1 7 3 8 11 10 9 11 10 12 5 13
REMARK SMILES IDX 6 14 7 15 8 16 4 17
REMARK H PARENT
REMARK Flexibility Score: 60.00
ROOT
ATOM      1  C   UNL     1       9.549 -29.074 -11.200  1.00  0.00    -0.070 C 
ATOM      2  C   UNL     1       9.881 -29.977 -12.168  1.00  0.00    -0.027 C 
ATOM      3  C   UNL     1       9.380 -29.616  -9.799  1.00  0.00     0.039 C 
ENDROOT
BRANCH   2   4
ATOM      4  C   UNL     1      10.074 -29.822 -13.672  1.00  0.00     0.032 C 
BRANCH   4   5
ATOM      5  C   UNL     1       9.004 -30.435 -14.583  1.00  0.00     0.034 C 
BRANCH   5   6
ATOM      6  C   UNL     1       7.834 -29.544 -15.023  1.00  0.00    -0.077 C 
ATOM      7  C   UNL     1       7.878 -29.144 -16.483  1.00  0.00     0.039 C 
ATOM      8  C   UNL     1       6.857 -28.975 -14.254  1.00  0.00    -0.023 CG0
ATOM      9  G   UNL     1       6.533 -29.146 -12.782  1.00  0.00     0.000 G0
ENDBRANCH   5   6
ENDBRANCH   4   5
ENDBRANCH   2   4
BRANCH   1  10
ATOM     10  C   UNL     1       9.341 -27.577 -11.378  1.00  0.00     0.111 C 
BRANCH  10  11
ATOM     11  C   UNL     1       8.144 -27.276 -12.225  1.00  0.00     0.163 C 
ATOM     12  O   UNL     1       8.250 -26.435 -13.160  1.00  0.00    -0.294 OA
BRANCH  11  13
ATOM     13  C   UNL     1       6.837 -27.924 -11.947  1.00  0.00    -0.002 C 
ATOM     14  C   UNL     1       5.992 -27.447 -10.987  1.00  0.00    -0.069 C 
ATOM     15  C   UNL     1       6.296 -26.162 -10.249  1.00  0.00     0.039 C 
ATOM     16  C   UNL     1       4.713 -28.167 -10.627  1.00  0.00     0.039 C 
BRANCH  13  17
ATOM     17  C   UNL     1       6.515 -29.150 -12.777  1.00  0.00     0.066 CG0
ATOM     18  G   UNL     1       6.853 -28.957 -14.242  1.00  0.00     0.000 G0
ENDBRANCH  13  17
ENDBRANCH  11  13
ENDBRANCH  10  11
ENDBRANCH   1  10
TORSDOF 0
ENDMDL
