MODEL 1
REMARK VINA RESULT:    -2.420      0.000      0.000
REMARK INTER + INTRA:          -3.326
REMARK INTER:                  -3.128
REMARK INTRA:                  -0.198
REMARK UNBOUND:                -0.198
REMARK SMILES CCCCCCC(=O)[O-]
REMARK SMILES IDX 5 1 6 2 7 3 8 4 9 5 4 6 3 7 2 8 1 9
REMARK H PARENT
REMARK Flexibility Score: inf
ROOT
ATOM      1  C   UNL     1      51.878 -34.217  23.434  1.00  0.00     0.006 C 
ENDROOT
BRANCH   1   2
ATOM      2  C   UNL     1      52.162 -32.744  23.773  1.00  0.00     0.053 C 
BRANCH   2   3
ATOM      3  C   UNL     1      51.243 -31.813  23.043  1.00  0.00     0.041 C 
ATOM      4  O   UNL     1      51.560 -30.604  22.888  1.00  0.00    -0.550 OA
ATOM      5  O   UNL     1      50.054 -32.288  22.505  1.00  0.00    -0.550 OA
ENDBRANCH   2   3
ENDBRANCH   1   2
BRANCH   1   6
ATOM      6  C   UNL     1      53.103 -35.142  23.557  1.00  0.00     0.000 C 
BRANCH   6   7
ATOM      7  C   UNL     1      54.434 -34.378  23.523  1.00  0.00    -0.000 C 
BRANCH   7   8
ATOM      8  C   UNL     1      55.547 -35.241  22.918  1.00  0.00    -0.003 C 
ATOM      9  C   UNL     1      55.084 -35.912  21.627  1.00  0.00     0.004 C 
ENDBRANCH   7   8
ENDBRANCH   6   7
ENDBRANCH   1   6
TORSDOF 5
ENDMDL
MODEL 2
REMARK VINA RESULT:    -2.418      4.044      5.449
REMARK INTER + INTRA:          -3.323
REMARK INTER:                  -3.123
REMARK INTRA:                  -0.200
REMARK UNBOUND:                -0.198
REMARK SMILES CCCCCCC(=O)[O-]
REMARK SMILES IDX 5 1 6 2 7 3 8 4 9 5 4 6 3 7 2 8 1 9
REMARK H PARENT
REMARK Flexibility Score: inf
ROOT
ATOM      1  C   UNL     1      54.455 -35.577  22.898  1.00  0.00     0.006 C 
ENDROOT
BRANCH   1   2
ATOM      2  C   UNL     1      55.670 -35.671  21.959  1.00  0.00     0.053 C 
BRANCH   2   3
ATOM      3  C   UNL     1      56.884 -36.195  22.664  1.00  0.00     0.041 C 
ATOM      4  O   UNL     1      58.016 -36.118  22.116  1.00  0.00    -0.550 OA
ATOM      5  O   UNL     1      56.771 -36.737  23.937  1.00  0.00    -0.550 OA
ENDBRANCH   2   3
ENDBRANCH   1   2
BRANCH   1   6
ATOM      6  C   UNL     1      54.245 -34.187  23.525  1.00  0.00     0.000 C 
BRANCH   6   7
ATOM      7  C   UNL     1      52.766 -33.874  23.799  1.00  0.00    -0.000 C 
BRANCH   7   8
ATOM      8  C   UNL     1      51.870 -35.042  23.372  1.00  0.00    -0.003 C 
ATOM      9  C   UNL     1      50.507 -34.546  22.897  1.00  0.00     0.004 C 
ENDBRANCH   7   8
ENDBRANCH   6   7
ENDBRANCH   1   6
TORSDOF 5
ENDMDL
MODEL 3
REMARK VINA RESULT:    -2.404      3.334      4.947
REMARK INTER + INTRA:          -3.305
REMARK INTER:                  -3.065
REMARK INTRA:                  -0.240
REMARK UNBOUND:                -0.198
REMARK SMILES CCCCCCC(=O)[O-]
REMARK SMILES IDX 5 1 6 2 7 3 8 4 9 5 4 6 3 7 2 8 1 9
REMARK H PARENT
REMARK Flexibility Score: inf
ROOT
ATOM      1  C   UNL     1      53.315 -35.309  23.853  1.00  0.00     0.006 C 
ENDROOT
BRANCH   1   2
ATOM      2  C   UNL     1      54.609 -34.789  23.206  1.00  0.00     0.053 C 
BRANCH   2   3
ATOM      3  C   UNL     1      55.250 -35.818  22.326  1.00  0.00     0.041 C 
ATOM      4  O   UNL     1      54.765 -36.069  21.191  1.00  0.00    -0.550 OA
ATOM      5  O   UNL     1      56.400 -36.474  22.745  1.00  0.00    -0.550 OA
ENDBRANCH   2   3
ENDBRANCH   1   2
BRANCH   1   6
ATOM      6  C   UNL     1      52.027 -34.874  23.131  1.00  0.00     0.000 C 
BRANCH   6   7
ATOM      7  C   UNL     1      51.146 -33.950  23.986  1.00  0.00    -0.000 C 
BRANCH   7   8
ATOM      8  C   UNL     1      50.750 -32.693  23.204  1.00  0.00    -0.003 C 
ATOM      9  C   UNL     1      51.886 -31.673  23.188  1.00  0.00     0.004 C 
ENDBRANCH   7   8
ENDBRANCH   6   7
ENDBRANCH   1   6
TORSDOF 5
ENDMDL
MODEL 4
REMARK VINA RESULT:    -2.377      2.876      3.958
REMARK INTER + INTRA:          -3.269
REMARK INTER:                  -2.994
REMARK INTRA:                  -0.275
REMARK UNBOUND:                -0.198
REMARK SMILES CCCCCCC(=O)[O-]
REMARK SMILES IDX 5 1 6 2 7 3 8 4 9 5 4 6 3 7 2 8 1 9
REMARK H PARENT
REMARK Flexibility Score: inf
ROOT
ATOM      1  C   UNL     1      55.255 -35.645  21.950  1.00  0.00     0.006 C 
ENDROOT
BRANCH   1   2
ATOM      2  C   UNL     1      54.692 -34.708  23.032  1.00  0.00     0.053 C 
BRANCH   2   3
ATOM      3  C   UNL     1      53.432 -35.245  23.640  1.00  0.00     0.041 C 
ATOM      4  O   UNL     1      53.468 -35.835  24.752  1.00  0.00    -0.550 OA
ATOM      5  O   UNL     1      52.216 -35.063  22.995  1.00  0.00    -0.550 OA
ENDBRANCH   2   3
ENDBRANCH   1   2
BRANCH   1   6
ATOM      6  C   UNL     1      56.311 -36.641  22.462  1.00  0.00     0.000 C 
BRANCH   6   7
ATOM      7  C   UNL     1      57.135 -36.086  23.634  1.00  0.00    -0.000 C 
BRANCH   7   8
ATOM      8  C   UNL     1      58.611 -35.942  23.247  1.00  0.00    -0.003 C 
ATOM      9  C   UNL     1      58.991 -36.926  22.144  1.00  0.00     0.004 C 
ENDBRANCH   7   8
ENDBRANCH   6   7
ENDBRANCH   1   6
TORSDOF 5
ENDMDL
MODEL 5
REMARK VINA RESULT:    -2.370      4.828      6.285
REMARK INTER + INTRA:          -3.260
REMARK INTER:                  -3.010
REMARK INTRA:                  -0.251
REMARK UNBOUND:                -0.198
REMARK SMILES CCCCCCC(=O)[O-]
REMARK SMILES IDX 5 1 6 2 7 3 8 4 9 5 4 6 3 7 2 8 1 9
REMARK H PARENT
REMARK Flexibility Score: inf
ROOT
ATOM      1  C   UNL     1      56.274 -36.670  22.377  1.00  0.00     0.006 C 
ENDROOT
BRANCH   1   2
ATOM      2  C   UNL     1      57.220 -36.050  23.418  1.00  0.00     0.053 C 
BRANCH   2   3
ATOM      3  C   UNL     1      58.636 -36.001  22.931  1.00  0.00     0.041 C 
ATOM      4  O   UNL     1      59.010 -36.756  21.995  1.00  0.00    -0.550 OA
ATOM      5  O   UNL     1      59.533 -35.100  23.489  1.00  0.00    -0.550 OA
ENDBRANCH   2   3
ENDBRANCH   1   2
BRANCH   1   6
ATOM      6  C   UNL     1      55.136 -35.738  21.920  1.00  0.00     0.000 C 
BRANCH   6   7
ATOM      7  C   UNL     1      54.637 -34.813  23.040  1.00  0.00    -0.000 C 
BRANCH   7   8
ATOM      8  C   UNL     1      53.212 -35.185  23.464  1.00  0.00    -0.003 C 
ATOM      9  C   UNL     1      53.196 -35.816  24.854  1.00  0.00     0.004 C 
ENDBRANCH   7   8
ENDBRANCH   6   7
ENDBRANCH   1   6
TORSDOF 5
ENDMDL
MODEL 6
REMARK VINA RESULT:    -2.349      4.494      5.935
REMARK INTER + INTRA:          -3.234
REMARK INTER:                  -2.923
REMARK INTRA:                  -0.311
REMARK UNBOUND:                -0.198
REMARK SMILES CCCCCCC(=O)[O-]
REMARK SMILES IDX 5 1 6 2 7 3 8 4 9 5 4 6 3 7 2 8 1 9
REMARK H PARENT
REMARK Flexibility Score: inf
ROOT
ATOM      1  C   UNL     1      55.657 -35.943  21.954  1.00  0.00     0.006 C 
ENDROOT
BRANCH   1   2
ATOM      2  C   UNL     1      56.686 -36.745  22.768  1.00  0.00     0.053 C 
BRANCH   2   3
ATOM      3  C   UNL     1      58.064 -36.169  22.653  1.00  0.00     0.041 C 
ATOM      4  O   UNL     1      58.919 -36.718  21.909  1.00  0.00    -0.550 OA
ATOM      5  O   UNL     1      58.394 -35.009  23.342  1.00  0.00    -0.550 OA
ENDBRANCH   2   3
ENDBRANCH   1   2
BRANCH   1   6
ATOM      6  C   UNL     1      54.458 -35.433  22.775  1.00  0.00     0.000 C 
BRANCH   6   7
ATOM      7  C   UNL     1      54.830 -35.100  24.228  1.00  0.00    -0.000 C 
BRANCH   7   8
ATOM      8  C   UNL     1      54.584 -33.618  24.531  1.00  0.00    -0.003 C 
ATOM      9  C   UNL     1      55.461 -32.724  23.658  1.00  0.00     0.004 C 
ENDBRANCH   7   8
ENDBRANCH   6   7
ENDBRANCH   1   6
TORSDOF 5
ENDMDL
MODEL 7
REMARK VINA RESULT:    -2.348      1.826      2.836
REMARK INTER + INTRA:          -3.233
REMARK INTER:                  -3.005
REMARK INTRA:                  -0.228
REMARK UNBOUND:                -0.198
REMARK SMILES CCCCCCC(=O)[O-]
REMARK SMILES IDX 5 1 6 2 7 3 8 4 9 5 4 6 3 7 2 8 1 9
REMARK H PARENT
REMARK Flexibility Score: inf
ROOT
ATOM      1  C   UNL     1      54.543 -34.894  23.219  1.00  0.00     0.006 C 
ENDROOT
BRANCH   1   2
ATOM      2  C   UNL     1      53.171 -35.361  23.732  1.00  0.00     0.053 C 
BRANCH   2   3
ATOM      3  C   UNL     1      52.085 -34.384  23.398  1.00  0.00     0.041 C 
ATOM      4  O   UNL     1      52.240 -33.158  23.639  1.00  0.00    -0.550 OA
ATOM      5  O   UNL     1      50.916 -34.824  22.790  1.00  0.00    -0.550 OA
ENDBRANCH   2   3
ENDBRANCH   1   2
BRANCH   1   6
ATOM      6  C   UNL     1      55.092 -35.717  22.039  1.00  0.00     0.000 C 
BRANCH   6   7
ATOM      7  C   UNL     1      56.373 -36.488  22.395  1.00  0.00    -0.000 C 
BRANCH   7   8
ATOM      8  C   UNL     1      56.974 -35.976  23.708  1.00  0.00    -0.003 C 
ATOM      9  C   UNL     1      57.233 -37.125  24.680  1.00  0.00     0.004 C 
ENDBRANCH   7   8
ENDBRANCH   6   7
ENDBRANCH   1   6
TORSDOF 5
ENDMDL
MODEL 8
REMARK VINA RESULT:    -2.324      3.249      4.903
REMARK INTER + INTRA:          -3.202
REMARK INTER:                  -3.022
REMARK INTRA:                  -0.180
REMARK UNBOUND:                -0.198
REMARK SMILES CCCCCCC(=O)[O-]
REMARK SMILES IDX 5 1 6 2 7 3 8 4 9 5 4 6 3 7 2 8 1 9
REMARK H PARENT
REMARK Flexibility Score: inf
ROOT
ATOM      1  C   UNL     1      53.451 -34.305  23.489  1.00  0.00     0.006 C 
ENDROOT
BRANCH   1   2
ATOM      2  C   UNL     1      54.323 -35.555  23.693  1.00  0.00     0.053 C 
BRANCH   2   3
ATOM      3  C   UNL     1      55.320 -35.731  22.589  1.00  0.00     0.041 C 
ATOM      4  O   UNL     1      56.554 -35.677  22.835  1.00  0.00    -0.550 OA
ATOM      5  O   UNL     1      54.886 -35.989  21.294  1.00  0.00    -0.550 OA
ENDBRANCH   2   3
ENDBRANCH   1   2
BRANCH   1   6
ATOM      6  C   UNL     1      51.945 -34.597  23.358  1.00  0.00     0.000 C 
BRANCH   6   7
ATOM      7  C   UNL     1      51.090 -33.322  23.338  1.00  0.00    -0.000 C 
BRANCH   7   8
ATOM      8  C   UNL     1      51.970 -32.070  23.433  1.00  0.00    -0.003 C 
ATOM      9  C   UNL     1      51.206 -30.825  22.990  1.00  0.00     0.004 C 
ENDBRANCH   7   8
ENDBRANCH   6   7
ENDBRANCH   1   6
TORSDOF 5
ENDMDL
MODEL 9
REMARK VINA RESULT:    -2.305      2.755      4.050
REMARK INTER + INTRA:          -3.177
REMARK INTER:                  -2.784
REMARK INTRA:                  -0.393
REMARK UNBOUND:                -0.198
REMARK SMILES CCCCCCC(=O)[O-]
REMARK SMILES IDX 5 1 6 2 7 3 8 4 9 5 4 6 3 7 2 8 1 9
REMARK H PARENT
REMARK Flexibility Score: inf
ROOT
ATOM      1  C   UNL     1      55.370 -35.703  21.928  1.00  0.00     0.006 C 
ENDROOT
BRANCH   1   2
ATOM      2  C   UNL     1      54.324 -35.271  22.969  1.00  0.00     0.053 C 
BRANCH   2   3
ATOM      3  C   UNL     1      54.581 -33.888  23.483  1.00  0.00     0.041 C 
ATOM      4  O   UNL     1      53.625 -33.082  23.638  1.00  0.00    -0.550 OA
ATOM      5  O   UNL     1      55.871 -33.499  23.821  1.00  0.00    -0.550 OA
ENDBRANCH   2   3
ENDBRANCH   1   2
BRANCH   1   6
ATOM      6  C   UNL     1      56.382 -36.744  22.440  1.00  0.00     0.000 C 
BRANCH   6   7
ATOM      7  C   UNL     1      57.795 -36.167  22.613  1.00  0.00    -0.000 C 
BRANCH   7   8
ATOM      8  C   UNL     1      58.219 -36.191  24.086  1.00  0.00    -0.003 C 
ATOM      9  C   UNL     1      57.168 -36.879  24.952  1.00  0.00     0.004 C 
ENDBRANCH   7   8
ENDBRANCH   6   7
ENDBRANCH   1   6
TORSDOF 5
ENDMDL
