MODEL 1
REMARK VINA RESULT:    -4.247      0.000      0.000
REMARK INTER + INTRA:          -6.636
REMARK INTER:                  -6.481
REMARK INTRA:                  -0.155
REMARK UNBOUND:                -0.155
REMARK SMILES CC1=CCC[C@H](C)C(=O)C[C@H](C(C)C)C(=O)C1
REMARK SMILES IDX 8 1 9 2 6 3 7 4 5 5 4 6 3 7 2 8 1 9 10 11 11 12 15 13 16 14
REMARK SMILES IDX 17 15 12 17 13 18 14 19
REMARK H PARENT
REMARK Flexibility Score: 70.00
ROOT
ATOM      1  C   UNL     1      53.903  35.024  32.583  1.00  0.00     0.136 C 
ATOM      2  O   UNL     1      54.703  34.676  33.440  1.00  0.00    -0.299 OA
ENDROOT
BRANCH   1   3
ATOM      3  C   UNL     1      53.402  36.458  32.613  1.00  0.00     0.053 C 
ATOM      4  C   UNL     1      54.402  37.485  32.053  1.00  0.00     0.016 C 
BRANCH   3   5
ATOM      5  C   UNL     1      52.013  36.589  31.949  1.00  0.00     0.015 C 
BRANCH   5   6
ATOM      6  C   UNL     1      50.829  36.194  32.860  1.00  0.00     0.028 C 
BRANCH   6   7
ATOM      7  C   UNL     1      49.699  35.581  32.065  1.00  0.00    -0.028 C 
ATOM      8  C   UNL     1      49.438  34.262  31.888  1.00  0.00    -0.070 CG0
ATOM      9  C   UNL     1      48.268  33.899  31.005  1.00  0.00     0.039 C 
ATOM     10  G   UNL     1      50.226  33.131  32.525  1.00  0.00     0.000 G0
ENDBRANCH   6   7
ENDBRANCH   5   6
ENDBRANCH   3   5
ENDBRANCH   1   3
BRANCH   1  11
ATOM     11  C   UNL     1      53.505  34.050  31.490  1.00  0.00     0.087 C 
BRANCH  11  12
ATOM     12  C   UNL     1      52.824  32.764  32.026  1.00  0.00     0.066 C 
BRANCH  12  13
ATOM     13  C   UNL     1      51.358  32.645  31.631  1.00  0.00     0.140 C 
ATOM     14  O   UNL     1      51.096  32.224  30.513  1.00  0.00    -0.299 OA
BRANCH  13  15
ATOM     15  C   UNL     1      50.216  33.099  32.514  1.00  0.00     0.106 CG0
ATOM     16  G   UNL     1      49.451  34.246  31.875  1.00  0.00     0.000 G0
ENDBRANCH  13  15
ENDBRANCH  12  13
BRANCH  12  17
ATOM     17  C   UNL     1      53.601  31.448  31.706  1.00  0.00    -0.006 C 
ATOM     18  C   UNL     1      53.298  30.338  32.724  1.00  0.00     0.008 C 
ATOM     19  C   UNL     1      55.122  31.634  31.570  1.00  0.00     0.008 C 
ENDBRANCH  12  17
ENDBRANCH  11  12
ENDBRANCH   1  11
TORSDOF 1
ENDMDL
MODEL 2
REMARK VINA RESULT:    -4.133      2.107      4.088
REMARK INTER + INTRA:          -6.463
REMARK INTER:                  -6.301
REMARK INTRA:                  -0.163
REMARK UNBOUND:                -0.155
REMARK SMILES CC1=CCC[C@H](C)C(=O)C[C@H](C(C)C)C(=O)C1
REMARK SMILES IDX 8 1 9 2 6 3 7 4 5 5 4 6 3 7 2 8 1 9 10 11 11 12 15 13 16 14
REMARK SMILES IDX 17 15 12 17 13 18 14 19
REMARK H PARENT
REMARK Flexibility Score: 70.00
ROOT
ATOM      1  C   UNL     1      53.119  32.386  31.925  1.00  0.00     0.136 C 
ATOM      2  O   UNL     1      53.335  31.220  31.626  1.00  0.00    -0.299 OA
ENDROOT
BRANCH   1   3
ATOM      3  C   UNL     1      51.851  33.035  31.399  1.00  0.00     0.053 C 
ATOM      4  C   UNL     1      51.209  32.293  30.213  1.00  0.00     0.016 C 
BRANCH   3   5
ATOM      5  C   UNL     1      50.833  33.295  32.532  1.00  0.00     0.015 C 
BRANCH   5   6
ATOM      6  C   UNL     1      50.776  34.761  33.017  1.00  0.00     0.028 C 
BRANCH   6   7
ATOM      7  C   UNL     1      51.347  35.709  31.986  1.00  0.00    -0.028 C 
ATOM      8  C   UNL     1      52.561  36.311  32.005  1.00  0.00    -0.070 CG0
ATOM      9  C   UNL     1      52.883  37.258  30.875  1.00  0.00     0.039 C 
ATOM     10  G   UNL     1      53.622  36.088  33.070  1.00  0.00     0.000 G0
ENDBRANCH   6   7
ENDBRANCH   5   6
ENDBRANCH   3   5
ENDBRANCH   1   3
BRANCH   1  11
ATOM     11  C   UNL     1      54.070  33.109  32.861  1.00  0.00     0.087 C 
BRANCH  11  12
ATOM     12  C   UNL     1      55.069  34.042  32.128  1.00  0.00     0.066 C 
BRANCH  12  13
ATOM     13  C   UNL     1      54.896  35.512  32.483  1.00  0.00     0.140 C 
ATOM     14  O   UNL     1      55.859  36.254  32.345  1.00  0.00    -0.299 OA
BRANCH  13  15
ATOM     15  C   UNL     1      53.627  36.085  33.075  1.00  0.00     0.106 CG0
ATOM     16  G   UNL     1      52.569  36.299  32.006  1.00  0.00     0.000 G0
ENDBRANCH  13  15
ENDBRANCH  12  13
BRANCH  12  17
ATOM     17  C   UNL     1      56.563  33.605  32.254  1.00  0.00    -0.006 C 
ATOM     18  C   UNL     1      56.841  32.286  31.516  1.00  0.00     0.008 C 
ATOM     19  C   UNL     1      57.070  33.512  33.703  1.00  0.00     0.008 C 
ENDBRANCH  12  17
ENDBRANCH  11  12
ENDBRANCH   1  11
TORSDOF 1
ENDMDL
MODEL 3
REMARK VINA RESULT:    -4.072      1.717      2.438
REMARK INTER + INTRA:          -6.370
REMARK INTER:                  -6.179
REMARK INTRA:                  -0.191
REMARK UNBOUND:                -0.155
REMARK SMILES CC1=CCC[C@H](C)C(=O)C[C@H](C(C)C)C(=O)C1
REMARK SMILES IDX 8 1 9 2 6 3 7 4 5 5 4 6 3 7 2 8 1 9 10 11 11 12 15 13 16 14
REMARK SMILES IDX 17 15 12 17 13 18 14 19
REMARK H PARENT
REMARK Flexibility Score: 70.00
ROOT
ATOM      1  C   UNL     1      55.044  34.336  32.415  1.00  0.00     0.136 C 
ATOM      2  O   UNL     1      56.226  34.268  32.108  1.00  0.00    -0.299 OA
ENDROOT
BRANCH   1   3
ATOM      3  C   UNL     1      54.660  35.225  33.584  1.00  0.00     0.053 C 
ATOM      4  C   UNL     1      55.620  35.137  34.784  1.00  0.00     0.016 C 
BRANCH   3   5
ATOM      5  C   UNL     1      54.433  36.686  33.138  1.00  0.00     0.015 C 
BRANCH   5   6
ATOM      6  C   UNL     1      53.750  36.835  31.759  1.00  0.00     0.028 C 
BRANCH   6   7
ATOM      7  C   UNL     1      52.271  37.118  31.901  1.00  0.00    -0.028 C 
ATOM      8  C   UNL     1      51.241  36.304  31.563  1.00  0.00    -0.070 CG0
ATOM      9  C   UNL     1      49.843  36.837  31.760  1.00  0.00     0.039 C 
ATOM     10  G   UNL     1      51.395  34.894  31.019  1.00  0.00     0.000 G0
ENDBRANCH   6   7
ENDBRANCH   5   6
ENDBRANCH   3   5
ENDBRANCH   1   3
BRANCH   1  11
ATOM     11  C   UNL     1      54.010  33.604  31.579  1.00  0.00     0.087 C 
BRANCH  11  12
ATOM     12  C   UNL     1      52.799  33.094  32.402  1.00  0.00     0.066 C 
BRANCH  12  13
ATOM     13  C   UNL     1      51.508  33.847  32.111  1.00  0.00     0.140 C 
ATOM     14  O   UNL     1      50.514  33.557  32.761  1.00  0.00    -0.299 OA
BRANCH  13  15
ATOM     15  C   UNL     1      51.370  34.870  31.004  1.00  0.00     0.106 CG0
ATOM     16  G   UNL     1      51.243  36.275  31.569  1.00  0.00     0.000 G0
ENDBRANCH  13  15
ENDBRANCH  12  13
BRANCH  12  17
ATOM     17  C   UNL     1      52.579  31.550  32.326  1.00  0.00    -0.006 C 
ATOM     18  C   UNL     1      53.852  30.768  32.688  1.00  0.00     0.008 C 
ATOM     19  C   UNL     1      52.028  31.060  30.976  1.00  0.00     0.008 C 
ENDBRANCH  12  17
ENDBRANCH  11  12
ENDBRANCH   1  11
TORSDOF 1
ENDMDL
MODEL 4
REMARK VINA RESULT:    -4.006      1.751      3.756
REMARK INTER + INTRA:          -6.269
REMARK INTER:                  -6.040
REMARK INTRA:                  -0.229
REMARK UNBOUND:                -0.155
REMARK SMILES CC1=CCC[C@H](C)C(=O)C[C@H](C(C)C)C(=O)C1
REMARK SMILES IDX 8 1 9 2 6 3 7 4 5 5 4 6 3 7 2 8 1 9 10 11 11 12 15 13 16 14
REMARK SMILES IDX 17 15 12 17 13 18 14 19
REMARK H PARENT
REMARK Flexibility Score: 70.00
ROOT
ATOM      1  C   UNL     1      52.391  31.694  32.041  1.00  0.00     0.136 C 
ATOM      2  O   UNL     1      52.611  30.540  32.383  1.00  0.00    -0.299 OA
ENDROOT
BRANCH   1   3
ATOM      3  C   UNL     1      51.363  31.932  30.949  1.00  0.00     0.053 C 
ATOM      4  C   UNL     1      51.378  30.875  29.830  1.00  0.00     0.016 C 
BRANCH   3   5
ATOM      5  C   UNL     1      49.947  32.127  31.534  1.00  0.00     0.015 C 
BRANCH   5   6
ATOM      6  C   UNL     1      49.801  33.357  32.459  1.00  0.00     0.028 C 
BRANCH   6   7
ATOM      7  C   UNL     1      49.844  34.649  31.675  1.00  0.00    -0.028 C 
ATOM      8  C   UNL     1      50.765  35.639  31.770  1.00  0.00    -0.070 CG0
ATOM      9  C   UNL     1      50.562  36.860  30.906  1.00  0.00     0.039 C 
ATOM     10  G   UNL     1      51.990  35.599  32.668  1.00  0.00     0.000 G0
ENDBRANCH   6   7
ENDBRANCH   5   6
ENDBRANCH   3   5
ENDBRANCH   1   3
BRANCH   1  11
ATOM     11  C   UNL     1      53.084  32.834  32.764  1.00  0.00     0.087 C 
BRANCH  11  12
ATOM     12  C   UNL     1      53.803  33.824  31.811  1.00  0.00     0.066 C 
BRANCH  12  13
ATOM     13  C   UNL     1      53.238  35.236  31.865  1.00  0.00     0.140 C 
ATOM     14  O   UNL     1      53.856  36.125  31.294  1.00  0.00    -0.299 OA
BRANCH  13  15
ATOM     15  C   UNL     1      52.004  35.613  32.656  1.00  0.00     0.106 CG0
ATOM     16  G   UNL     1      50.771  35.640  31.769  1.00  0.00     0.000 G0
ENDBRANCH  13  15
ENDBRANCH  12  13
BRANCH  12  17
ATOM     17  C   UNL     1      55.358  33.834  31.955  1.00  0.00    -0.006 C 
ATOM     18  C   UNL     1      55.993  32.533  31.438  1.00  0.00     0.008 C 
ATOM     19  C   UNL     1      55.855  34.130  33.380  1.00  0.00     0.008 C 
ENDBRANCH  12  17
ENDBRANCH  11  12
ENDBRANCH   1  11
TORSDOF 1
ENDMDL
MODEL 5
REMARK VINA RESULT:    -3.926      2.525      4.854
REMARK INTER + INTRA:          -6.147
REMARK INTER:                  -6.026
REMARK INTRA:                  -0.120
REMARK UNBOUND:                -0.155
REMARK SMILES CC1=CCC[C@H](C)C(=O)C[C@H](C(C)C)C(=O)C1
REMARK SMILES IDX 8 1 9 2 6 3 7 4 5 5 4 6 3 7 2 8 1 9 10 11 11 12 15 13 16 14
REMARK SMILES IDX 17 15 12 17 13 18 14 19
REMARK H PARENT
REMARK Flexibility Score: 70.00
ROOT
ATOM      1  C   UNL     1      54.433  32.596  32.278  1.00  0.00     0.136 C 
ATOM      2  O   UNL     1      53.824  31.640  32.738  1.00  0.00    -0.299 OA
ENDROOT
BRANCH   1   3
ATOM      3  C   UNL     1      55.930  32.674  32.523  1.00  0.00     0.053 C 
ATOM      4  C   UNL     1      56.785  32.512  31.253  1.00  0.00     0.016 C 
BRANCH   3   5
ATOM      5  C   UNL     1      56.311  33.946  33.312  1.00  0.00     0.015 C 
BRANCH   5   6
ATOM      6  C   UNL     1      56.539  35.199  32.436  1.00  0.00     0.028 C 
BRANCH   6   7
ATOM      7  C   UNL     1      55.958  36.438  33.078  1.00  0.00    -0.028 C 
ATOM      8  C   UNL     1      54.791  37.055  32.769  1.00  0.00    -0.070 CG0
ATOM      9  C   UNL     1      54.450  38.314  33.528  1.00  0.00     0.039 C 
ATOM     10  G   UNL     1      53.800  36.562  31.728  1.00  0.00     0.000 G0
ENDBRANCH   6   7
ENDBRANCH   5   6
ENDBRANCH   3   5
ENDBRANCH   1   3
BRANCH   1  11
ATOM     11  C   UNL     1      53.698  33.612  31.425  1.00  0.00     0.087 C 
BRANCH  11  12
ATOM     12  C   UNL     1      52.504  34.282  32.153  1.00  0.00     0.066 C 
BRANCH  12  13
ATOM     13  C   UNL     1      52.660  35.788  32.316  1.00  0.00     0.140 C 
ATOM     14  O   UNL     1      51.780  36.396  32.908  1.00  0.00    -0.299 OA
BRANCH  13  15
ATOM     15  C   UNL     1      53.799  36.579  31.711  1.00  0.00     0.106 CG0
ATOM     16  G   UNL     1      54.780  37.033  32.778  1.00  0.00     0.000 G0
ENDBRANCH  13  15
ENDBRANCH  12  13
BRANCH  12  17
ATOM     17  C   UNL     1      51.107  33.923  31.554  1.00  0.00    -0.006 C 
ATOM     18  C   UNL     1      50.196  33.239  32.586  1.00  0.00     0.008 C 
ATOM     19  C   UNL     1      51.173  33.077  30.271  1.00  0.00     0.008 C 
ENDBRANCH  12  17
ENDBRANCH  11  12
ENDBRANCH   1  11
TORSDOF 1
ENDMDL
MODEL 6
REMARK VINA RESULT:    -3.921      2.042      4.960
REMARK INTER + INTRA:          -6.140
REMARK INTER:                  -6.128
REMARK INTRA:                  -0.012
REMARK UNBOUND:                -0.155
REMARK SMILES CC1=CCC[C@H](C)C(=O)C[C@H](C(C)C)C(=O)C1
REMARK SMILES IDX 8 1 9 2 6 3 7 4 5 5 4 6 3 7 2 8 1 9 10 11 11 12 15 13 16 14
REMARK SMILES IDX 17 15 12 17 13 18 14 19
REMARK H PARENT
REMARK Flexibility Score: 70.00
ROOT
ATOM      1  C   UNL     1      50.637  32.430  31.027  1.00  0.00     0.136 C 
ATOM      2  O   UNL     1      50.027  31.409  30.743  1.00  0.00    -0.299 OA
ENDROOT
BRANCH   1   3
ATOM      3  C   UNL     1      51.946  32.292  31.786  1.00  0.00     0.053 C 
ATOM      4  C   UNL     1      52.578  30.892  31.701  1.00  0.00     0.016 C 
BRANCH   3   5
ATOM      5  C   UNL     1      52.949  33.399  31.393  1.00  0.00     0.015 C 
BRANCH   5   6
ATOM      6  C   UNL     1      53.216  34.444  32.500  1.00  0.00     0.028 C 
BRANCH   6   7
ATOM      7  C   UNL     1      52.933  35.848  32.017  1.00  0.00    -0.028 C 
ATOM      8  C   UNL     1      51.783  36.552  32.160  1.00  0.00    -0.070 CG0
ATOM      9  C   UNL     1      51.732  37.929  31.543  1.00  0.00     0.039 C 
ATOM     10  G   UNL     1      50.555  36.061  32.906  1.00  0.00     0.000 G0
ENDBRANCH   6   7
ENDBRANCH   5   6
ENDBRANCH   3   5
ENDBRANCH   1   3
BRANCH   1  11
ATOM     11  C   UNL     1      50.114  33.772  30.551  1.00  0.00     0.087 C 
BRANCH  11  12
ATOM     12  C   UNL     1      49.040  34.385  31.487  1.00  0.00     0.066 C 
BRANCH  12  13
ATOM     13  C   UNL     1      49.397  35.777  31.990  1.00  0.00     0.140 C 
ATOM     14  O   UNL     1      48.754  36.725  31.563  1.00  0.00    -0.299 OA
BRANCH  13  15
ATOM     15  C   UNL     1      50.557  36.056  32.922  1.00  0.00     0.106 CG0
ATOM     16  G   UNL     1      51.778  36.530  32.151  1.00  0.00     0.000 G0
ENDBRANCH  13  15
ENDBRANCH  12  13
BRANCH  12  17
ATOM     17  C   UNL     1      47.591  34.352  30.905  1.00  0.00    -0.006 C 
ATOM     18  C   UNL     1      46.536  34.122  31.999  1.00  0.00     0.008 C 
ATOM     19  C   UNL     1      47.395  33.338  29.765  1.00  0.00     0.008 C 
ENDBRANCH  12  17
ENDBRANCH  11  12
ENDBRANCH   1  11
TORSDOF 1
ENDMDL
MODEL 7
REMARK VINA RESULT:    -3.891      2.402      5.705
REMARK INTER + INTRA:          -6.094
REMARK INTER:                  -5.606
REMARK INTRA:                  -0.488
REMARK UNBOUND:                -0.155
REMARK SMILES CC1=CCC[C@H](C)C(=O)C[C@H](C(C)C)C(=O)C1
REMARK SMILES IDX 8 1 9 2 6 3 7 4 5 5 4 6 3 7 2 8 1 9 10 11 11 12 15 13 16 14
REMARK SMILES IDX 17 15 12 17 13 18 14 19
REMARK H PARENT
REMARK Flexibility Score: 70.00
ROOT
ATOM      1  C   UNL     1      51.736  34.134  30.953  1.00  0.00     0.136 C 
ATOM      2  O   UNL     1      51.332  33.478  30.003  1.00  0.00    -0.299 OA
ENDROOT
BRANCH   1   3
ATOM      3  C   UNL     1      51.774  33.468  32.317  1.00  0.00     0.053 C 
ATOM      4  C   UNL     1      50.417  32.909  32.782  1.00  0.00     0.016 C 
BRANCH   3   5
ATOM      5  C   UNL     1      52.891  32.404  32.399  1.00  0.00     0.015 C 
BRANCH   5   6
ATOM      6  C   UNL     1      54.270  32.884  31.893  1.00  0.00     0.028 C 
BRANCH   6   7
ATOM      7  C   UNL     1      55.044  33.593  32.981  1.00  0.00    -0.028 C 
ATOM      8  C   UNL     1      55.373  34.907  33.034  1.00  0.00    -0.070 CG0
ATOM      9  C   UNL     1      56.198  35.368  34.212  1.00  0.00     0.039 C 
ATOM     10  G   UNL     1      54.960  35.945  32.006  1.00  0.00     0.000 G0
ENDBRANCH   6   7
ENDBRANCH   5   6
ENDBRANCH   3   5
ENDBRANCH   1   3
BRANCH   1  11
ATOM     11  C   UNL     1      52.253  35.542  30.725  1.00  0.00     0.087 C 
BRANCH  11  12
ATOM     12  C   UNL     1      52.331  36.390  32.021  1.00  0.00     0.066 C 
BRANCH  12  13
ATOM     13  C   UNL     1      53.755  36.732  32.437  1.00  0.00     0.140 C 
ATOM     14  O   UNL     1      53.931  37.739  33.108  1.00  0.00    -0.299 OA
BRANCH  13  15
ATOM     15  C   UNL     1      54.967  35.943  31.992  1.00  0.00     0.106 CG0
ATOM     16  G   UNL     1      55.371  34.920  33.041  1.00  0.00     0.000 G0
ENDBRANCH  13  15
ENDBRANCH  12  13
BRANCH  12  17
ATOM     17  C   UNL     1      51.427  37.663  32.008  1.00  0.00    -0.006 C 
ATOM     18  C   UNL     1      49.978  37.345  32.409  1.00  0.00     0.008 C 
ATOM     19  C   UNL     1      51.447  38.433  30.677  1.00  0.00     0.008 C 
ENDBRANCH  12  17
ENDBRANCH  11  12
ENDBRANCH   1  11
TORSDOF 1
ENDMDL
MODEL 8
REMARK VINA RESULT:    -3.804      3.616      6.362
REMARK INTER + INTRA:          -5.961
REMARK INTER:                  -5.914
REMARK INTRA:                  -0.047
REMARK UNBOUND:                -0.155
REMARK SMILES CC1=CCC[C@H](C)C(=O)C[C@H](C(C)C)C(=O)C1
REMARK SMILES IDX 8 1 9 2 6 3 7 4 5 5 4 6 3 7 2 8 1 9 10 11 11 12 15 13 16 14
REMARK SMILES IDX 17 15 12 17 13 18 14 19
REMARK H PARENT
REMARK Flexibility Score: 70.00
ROOT
ATOM      1  C   UNL     1      56.278  31.807  31.696  1.00  0.00     0.136 C 
ATOM      2  O   UNL     1      55.770  30.695  31.727  1.00  0.00    -0.299 OA
ENDROOT
BRANCH   1   3
ATOM      3  C   UNL     1      57.769  31.920  31.959  1.00  0.00     0.053 C 
ATOM      4  C   UNL     1      58.497  30.566  32.047  1.00  0.00     0.016 C 
BRANCH   3   5
ATOM      5  C   UNL     1      58.454  32.874  30.956  1.00  0.00     0.015 C 
BRANCH   5   6
ATOM      6  C   UNL     1      59.017  34.168  31.587  1.00  0.00     0.028 C 
BRANCH   6   7
ATOM      7  C   UNL     1      58.673  34.264  33.055  1.00  0.00    -0.028 C 
ATOM      8  C   UNL     1      57.565  34.818  33.607  1.00  0.00    -0.070 CG0
ATOM      9  C   UNL     1      57.474  34.833  35.114  1.00  0.00     0.039 C 
ATOM     10  G   UNL     1      56.408  35.408  32.819  1.00  0.00     0.000 G0
ENDBRANCH   6   7
ENDBRANCH   5   6
ENDBRANCH   3   5
ENDBRANCH   1   3
BRANCH   1  11
ATOM     11  C   UNL     1      55.429  33.008  31.322  1.00  0.00     0.087 C 
BRANCH  11  12
ATOM     12  C   UNL     1      54.531  33.515  32.481  1.00  0.00     0.066 C 
BRANCH  12  13
ATOM     13  C   UNL     1      55.094  34.737  33.194  1.00  0.00     0.140 C 
ATOM     14  O   UNL     1      54.421  35.247  34.079  1.00  0.00    -0.299 OA
BRANCH  13  15
ATOM     15  C   UNL     1      56.397  35.402  32.808  1.00  0.00     0.106 CG0
ATOM     16  G   UNL     1      57.559  34.835  33.606  1.00  0.00     0.000 G0
ENDBRANCH  13  15
ENDBRANCH  12  13
BRANCH  12  17
ATOM     17  C   UNL     1      53.037  33.734  32.084  1.00  0.00    -0.006 C 
ATOM     18  C   UNL     1      52.223  32.432  32.162  1.00  0.00     0.008 C 
ATOM     19  C   UNL     1      52.843  34.391  30.707  1.00  0.00     0.008 C 
ENDBRANCH  12  17
ENDBRANCH  11  12
ENDBRANCH   1  11
TORSDOF 1
ENDMDL
MODEL 9
REMARK VINA RESULT:    -3.761      2.106      5.398
REMARK INTER + INTRA:          -5.895
REMARK INTER:                  -5.781
REMARK INTRA:                  -0.114
REMARK UNBOUND:                -0.155
REMARK SMILES CC1=CCC[C@H](C)C(=O)C[C@H](C(C)C)C(=O)C1
REMARK SMILES IDX 8 1 9 2 6 3 7 4 5 5 4 6 3 7 2 8 1 9 10 11 11 12 15 13 16 14
REMARK SMILES IDX 17 15 12 17 13 18 14 19
REMARK H PARENT
REMARK Flexibility Score: 70.00
ROOT
ATOM      1  C   UNL     1      50.504  33.141  32.093  1.00  0.00     0.136 C 
ATOM      2  O   UNL     1      49.832  33.016  33.107  1.00  0.00    -0.299 OA
ENDROOT
BRANCH   1   3
ATOM      3  C   UNL     1      51.436  32.005  31.707  1.00  0.00     0.053 C 
ATOM      4  C   UNL     1      51.520  31.747  30.192  1.00  0.00     0.016 C 
BRANCH   3   5
ATOM      5  C   UNL     1      52.835  32.179  32.339  1.00  0.00     0.015 C 
BRANCH   5   6
ATOM      6  C   UNL     1      53.779  33.117  31.554  1.00  0.00     0.028 C 
BRANCH   6   7
ATOM      7  C   UNL     1      54.236  34.281  32.405  1.00  0.00    -0.028 C 
ATOM      8  C   UNL     1      53.829  35.571  32.323  1.00  0.00    -0.070 CG0
ATOM      9  C   UNL     1      54.474  36.563  33.260  1.00  0.00     0.039 C 
ATOM     10  G   UNL     1      52.762  36.083  31.370  1.00  0.00     0.000 G0
ENDBRANCH   6   7
ENDBRANCH   5   6
ENDBRANCH   3   5
ENDBRANCH   1   3
BRANCH   1  11
ATOM     11  C   UNL     1      50.328  34.373  31.225  1.00  0.00     0.087 C 
BRANCH  11  12
ATOM     12  C   UNL     1      50.206  35.689  32.037  1.00  0.00     0.066 C 
BRANCH  12  13
ATOM     13  C   UNL     1      51.502  36.486  32.096  1.00  0.00     0.140 C 
ATOM     14  O   UNL     1      51.502  37.538  32.720  1.00  0.00    -0.299 OA
BRANCH  13  15
ATOM     15  C   UNL     1      52.761  36.091  31.354  1.00  0.00     0.106 CG0
ATOM     16  G   UNL     1      53.820  35.570  32.311  1.00  0.00     0.000 G0
ENDBRANCH  13  15
ENDBRANCH  12  13
BRANCH  12  17
ATOM     17  C   UNL     1      49.007  36.595  31.612  1.00  0.00    -0.006 C 
ATOM     18  C   UNL     1      47.653  35.966  31.976  1.00  0.00     0.008 C 
ATOM     19  C   UNL     1      49.018  36.994  30.126  1.00  0.00     0.008 C 
ENDBRANCH  12  17
ENDBRANCH  11  12
ENDBRANCH   1  11
TORSDOF 1
ENDMDL
