MODEL 1
REMARK VINA RESULT:    -8.395      0.000      0.000
REMARK INTER + INTRA:         -10.175
REMARK INTER:                  -9.868
REMARK INTRA:                  -0.308
REMARK UNBOUND:                -0.308
REMARK SMILES O=c1cc(-c2ccc(O)c(O)c2)oc2cc(O)cc(O)c12
REMARK SMILES IDX 4 1 3 2 2 3 1 4 21 5 19 6 18 7 16 8 15 9 14 10 13 11 5 12
REMARK SMILES IDX 6 13 7 14 8 15 12 16 10 17 9 18 11 20 20 22 17 24
REMARK H PARENT 9 19 11 21 20 23 17 25
REMARK Flexibility Score: inf
ROOT
ATOM      1  C   UNL     1     -47.982  26.519 -16.652  1.00  0.00     0.138 A 
ATOM      2  C   UNL     1     -48.627  27.707 -16.280  1.00  0.00     0.100 A 
ATOM      3  C   UNL     1     -49.856  27.647 -15.621  1.00  0.00     0.197 A 
ATOM      4  O   UNL     1     -50.381  28.727 -15.247  1.00  0.00    -0.289 OA
ATOM      5  C   UNL     1     -50.455  26.392 -15.362  1.00  0.00     0.107 A 
ATOM      6  C   UNL     1     -51.724  26.211 -14.733  1.00  0.00     0.134 A 
ATOM      7  C   UNL     1     -52.162  24.918 -14.424  1.00  0.00     0.093 A 
ATOM      8  C   UNL     1     -51.408  23.798 -14.772  1.00  0.00     0.123 A 
ATOM      9  C   UNL     1     -50.191  23.961 -15.435  1.00  0.00     0.094 A 
ATOM     10  C   UNL     1     -49.710  25.239 -15.728  1.00  0.00     0.146 A 
ATOM     11  O   UNL     1     -48.539  25.352 -16.348  1.00  0.00    -0.456 OA
ENDROOT
BRANCH   1  12
ATOM     12  C   UNL     1     -46.674  26.524 -17.355  1.00  0.00     0.021 A 
ATOM     13  C   UNL     1     -45.789  27.597 -17.163  1.00  0.00     0.016 A 
ATOM     14  C   UNL     1     -44.551  27.620 -17.807  1.00  0.00     0.051 A 
ATOM     15  C   UNL     1     -44.164  26.572 -18.648  1.00  0.00     0.157 A 
ATOM     16  C   UNL     1     -46.279  25.461 -18.189  1.00  0.00     0.062 A 
ATOM     17  C   UNL     1     -45.037  25.476 -18.837  1.00  0.00     0.158 A 
BRANCH  15  18
ATOM     18  O   UNL     1     -42.916  26.659 -19.266  1.00  0.00    -0.504 OA
ATOM     19  H   UNL     1     -42.101  27.074 -18.839  1.00  0.00     0.293 HD
ENDBRANCH  15  18
BRANCH  17  20
ATOM     20  O   UNL     1     -44.713  24.386 -19.648  1.00  0.00    -0.504 OA
ATOM     21  H   UNL     1     -43.987  23.718 -19.434  1.00  0.00     0.293 HD
ENDBRANCH  17  20
ENDBRANCH   1  12
BRANCH   6  22
ATOM     22  O   UNL     1     -52.596  27.258 -14.419  1.00  0.00    -0.507 OA
ATOM     23  H   UNL     1     -52.523  28.197 -14.780  1.00  0.00     0.293 HD
ENDBRANCH   6  22
BRANCH   8  24
ATOM     24  O   UNL     1     -51.883  22.526 -14.461  1.00  0.00    -0.508 OA
ATOM     25  H   UNL     1     -51.256  21.736 -14.366  1.00  0.00     0.293 HD
ENDBRANCH   8  24
TORSDOF 5
ENDMDL
MODEL 2
REMARK VINA RESULT:    -8.131      0.684      1.555
REMARK INTER + INTRA:          -9.865
REMARK INTER:                  -9.577
REMARK INTRA:                  -0.288
REMARK UNBOUND:                -0.308
REMARK SMILES O=c1cc(-c2ccc(O)c(O)c2)oc2cc(O)cc(O)c12
REMARK SMILES IDX 4 1 3 2 2 3 1 4 21 5 19 6 18 7 16 8 15 9 14 10 13 11 5 12
REMARK SMILES IDX 6 13 7 14 8 15 12 16 10 17 9 18 11 20 20 22 17 24
REMARK H PARENT 9 19 11 21 20 23 17 25
REMARK Flexibility Score: inf
ROOT
ATOM      1  C   UNL     1     -47.942  26.605 -16.550  1.00  0.00     0.138 A 
ATOM      2  C   UNL     1     -48.636  27.755 -16.151  1.00  0.00     0.100 A 
ATOM      3  C   UNL     1     -49.876  27.629 -15.522  1.00  0.00     0.197 A 
ATOM      4  O   UNL     1     -50.447  28.676 -15.121  1.00  0.00    -0.289 OA
ATOM      5  C   UNL     1     -50.435  26.345 -15.320  1.00  0.00     0.107 A 
ATOM      6  C   UNL     1     -51.709  26.097 -14.725  1.00  0.00     0.134 A 
ATOM      7  C   UNL     1     -52.107  24.779 -14.472  1.00  0.00     0.093 A 
ATOM      8  C   UNL     1     -51.306  23.700 -14.843  1.00  0.00     0.123 A 
ATOM      9  C   UNL     1     -50.082  23.929 -15.472  1.00  0.00     0.094 A 
ATOM     10  C   UNL     1     -49.641  25.233 -15.709  1.00  0.00     0.146 A 
ATOM     11  O   UNL     1     -48.463  25.409 -16.299  1.00  0.00    -0.456 OA
ENDROOT
BRANCH   1  12
ATOM     12  C   UNL     1     -46.620  26.681 -17.223  1.00  0.00     0.021 A 
ATOM     13  C   UNL     1     -46.241  25.669 -18.119  1.00  0.00     0.016 A 
ATOM     14  C   UNL     1     -45.007  25.723 -18.769  1.00  0.00     0.051 A 
ATOM     15  C   UNL     1     -44.130  26.788 -18.549  1.00  0.00     0.157 A 
ATOM     16  C   UNL     1     -45.744  27.763 -17.013  1.00  0.00     0.062 A 
ATOM     17  C   UNL     1     -44.505  27.825 -17.664  1.00  0.00     0.158 A 
BRANCH  15  18
ATOM     18  O   UNL     1     -42.909  26.780 -19.226  1.00  0.00    -0.504 OA
ATOM     19  H   UNL     1     -42.009  26.802 -18.769  1.00  0.00     0.293 HD
ENDBRANCH  15  18
BRANCH  17  20
ATOM     20  O   UNL     1     -43.689  28.929 -17.406  1.00  0.00    -0.504 OA
ATOM     21  H   UNL     1     -43.109  29.377 -18.101  1.00  0.00     0.293 HD
ENDBRANCH  17  20
ENDBRANCH   1  12
BRANCH   6  22
ATOM     22  O   UNL     1     -52.624  27.101 -14.394  1.00  0.00    -0.507 OA
ATOM     23  H   UNL     1     -53.361  27.007 -13.711  1.00  0.00     0.293 HD
ENDBRANCH   6  22
BRANCH   8  24
ATOM     24  O   UNL     1     -51.741  22.401 -14.586  1.00  0.00    -0.508 OA
ATOM     25  H   UNL     1     -51.175  21.747 -14.060  1.00  0.00     0.293 HD
ENDBRANCH   8  24
TORSDOF 5
ENDMDL
MODEL 3
REMARK VINA RESULT:    -8.031      1.529      6.771
REMARK INTER + INTRA:          -9.747
REMARK INTER:                  -9.450
REMARK INTRA:                  -0.298
REMARK UNBOUND:                -0.308
REMARK SMILES O=c1cc(-c2ccc(O)c(O)c2)oc2cc(O)cc(O)c12
REMARK SMILES IDX 4 1 3 2 2 3 1 4 21 5 19 6 18 7 16 8 15 9 14 10 13 11 5 12
REMARK SMILES IDX 6 13 7 14 8 15 12 16 10 17 9 18 11 20 20 22 17 24
REMARK H PARENT 9 19 11 21 20 23 17 25
REMARK Flexibility Score: inf
ROOT
ATOM      1  C   UNL     1     -48.420  26.326 -15.862  1.00  0.00     0.138 A 
ATOM      2  C   UNL     1     -47.957  27.469 -15.198  1.00  0.00     0.100 A 
ATOM      3  C   UNL     1     -46.761  28.065 -15.601  1.00  0.00     0.197 A 
ATOM      4  O   UNL     1     -46.402  29.125 -15.026  1.00  0.00    -0.289 OA
ATOM      5  C   UNL     1     -46.011  27.493 -16.656  1.00  0.00     0.107 A 
ATOM      6  C   UNL     1     -44.758  27.991 -17.125  1.00  0.00     0.134 A 
ATOM      7  C   UNL     1     -44.164  27.410 -18.253  1.00  0.00     0.093 A 
ATOM      8  C   UNL     1     -44.745  26.315 -18.891  1.00  0.00     0.123 A 
ATOM      9  C   UNL     1     -45.943  25.787 -18.408  1.00  0.00     0.094 A 
ATOM     10  C   UNL     1     -46.578  26.364 -17.306  1.00  0.00     0.146 A 
ATOM     11  O   UNL     1     -47.725  25.840 -16.886  1.00  0.00    -0.456 OA
ENDROOT
BRANCH   1  12
ATOM     12  C   UNL     1     -49.685  25.652 -15.474  1.00  0.00     0.021 A 
ATOM     13  C   UNL     1     -50.800  26.426 -15.116  1.00  0.00     0.016 A 
ATOM     14  C   UNL     1     -52.002  25.815 -14.755  1.00  0.00     0.051 A 
ATOM     15  C   UNL     1     -52.122  24.422 -14.752  1.00  0.00     0.157 A 
ATOM     16  C   UNL     1     -49.810  24.249 -15.487  1.00  0.00     0.062 A 
ATOM     17  C   UNL     1     -51.013  23.629 -15.128  1.00  0.00     0.158 A 
BRANCH  15  18
ATOM     18  O   UNL     1     -53.350  23.874 -14.375  1.00  0.00    -0.504 OA
ATOM     19  H   UNL     1     -53.940  23.334 -14.991  1.00  0.00     0.293 HD
ENDBRANCH  15  18
BRANCH  17  20
ATOM     20  O   UNL     1     -51.063  22.234 -15.165  1.00  0.00    -0.504 OA
ATOM     21  H   UNL     1     -51.234  21.696 -16.002  1.00  0.00     0.293 HD
ENDBRANCH  17  20
ENDBRANCH   1  12
BRANCH   6  22
ATOM     22  O   UNL     1     -44.048  29.026 -16.509  1.00  0.00    -0.507 OA
ATOM     23  H   UNL     1     -43.149  29.369 -16.812  1.00  0.00     0.293 HD
ENDBRANCH   6  22
BRANCH   8  24
ATOM     24  O   UNL     1     -44.118  25.754 -20.002  1.00  0.00    -0.508 OA
ATOM     25  H   UNL     1     -43.371  25.077 -19.902  1.00  0.00     0.293 HD
ENDBRANCH   8  24
TORSDOF 5
ENDMDL
MODEL 4
REMARK VINA RESULT:    -7.635      2.218      7.032
REMARK INTER + INTRA:          -9.282
REMARK INTER:                  -9.015
REMARK INTRA:                  -0.267
REMARK UNBOUND:                -0.308
REMARK SMILES O=c1cc(-c2ccc(O)c(O)c2)oc2cc(O)cc(O)c12
REMARK SMILES IDX 4 1 3 2 2 3 1 4 21 5 19 6 18 7 16 8 15 9 14 10 13 11 5 12
REMARK SMILES IDX 6 13 7 14 8 15 12 16 10 17 9 18 11 20 20 22 17 24
REMARK H PARENT 9 19 11 21 20 23 17 25
REMARK Flexibility Score: inf
ROOT
ATOM      1  C   UNL     1     -48.873  25.841 -15.521  1.00  0.00     0.138 A 
ATOM      2  C   UNL     1     -48.316  25.593 -16.783  1.00  0.00     0.100 A 
ATOM      3  C   UNL     1     -47.071  26.134 -17.107  1.00  0.00     0.197 A 
ATOM      4  O   UNL     1     -46.570  25.844 -18.224  1.00  0.00    -0.289 OA
ATOM      5  C   UNL     1     -46.396  26.954 -16.171  1.00  0.00     0.107 A 
ATOM      6  C   UNL     1     -45.141  27.592 -16.408  1.00  0.00     0.134 A 
ATOM      7  C   UNL     1     -44.513  28.285 -15.366  1.00  0.00     0.093 A 
ATOM      8  C   UNL     1     -45.120  28.414 -14.117  1.00  0.00     0.123 A 
ATOM      9  C   UNL     1     -46.371  27.839 -13.892  1.00  0.00     0.094 A 
ATOM     10  C   UNL     1     -47.008  27.113 -14.899  1.00  0.00     0.146 A 
ATOM     11  O   UNL     1     -48.193  26.569 -14.641  1.00  0.00    -0.456 OA
ENDROOT
BRANCH   1  12
ATOM     12  C   UNL     1     -50.194  25.291 -15.124  1.00  0.00     0.021 A 
ATOM     13  C   UNL     1     -51.233  26.168 -14.778  1.00  0.00     0.016 A 
ATOM     14  C   UNL     1     -52.485  25.674 -14.408  1.00  0.00     0.051 A 
ATOM     15  C   UNL     1     -52.732  24.298 -14.385  1.00  0.00     0.157 A 
ATOM     16  C   UNL     1     -50.445  23.905 -15.116  1.00  0.00     0.062 A 
ATOM     17  C   UNL     1     -51.700  23.402 -14.749  1.00  0.00     0.158 A 
BRANCH  15  18
ATOM     18  O   UNL     1     -54.004  23.869 -14.001  1.00  0.00    -0.504 OA
ATOM     19  H   UNL     1     -54.671  24.447 -13.511  1.00  0.00     0.293 HD
ENDBRANCH  15  18
BRANCH  17  20
ATOM     20  O   UNL     1     -51.876  22.017 -14.765  1.00  0.00    -0.504 OA
ATOM     21  H   UNL     1     -51.476  21.404 -15.460  1.00  0.00     0.293 HD
ENDBRANCH  17  20
ENDBRANCH   1  12
BRANCH   6  22
ATOM     22  O   UNL     1     -44.488  27.598 -17.644  1.00  0.00    -0.507 OA
ATOM     23  H   UNL     1     -43.683  27.034 -17.873  1.00  0.00     0.293 HD
ENDBRANCH   6  22
BRANCH   8  24
ATOM     24  O   UNL     1     -44.471  29.123 -13.108  1.00  0.00    -0.508 OA
ATOM     25  H   UNL     1     -44.028  30.016 -13.289  1.00  0.00     0.293 HD
ENDBRANCH   8  24
TORSDOF 5
ENDMDL
MODEL 5
REMARK VINA RESULT:    -7.275      1.213      2.669
REMARK INTER + INTRA:          -8.859
REMARK INTER:                  -8.581
REMARK INTRA:                  -0.277
REMARK UNBOUND:                -0.308
REMARK SMILES O=c1cc(-c2ccc(O)c(O)c2)oc2cc(O)cc(O)c12
REMARK SMILES IDX 4 1 3 2 2 3 1 4 21 5 19 6 18 7 16 8 15 9 14 10 13 11 5 12
REMARK SMILES IDX 6 13 7 14 8 15 12 16 10 17 9 18 11 20 20 22 17 24
REMARK H PARENT 9 19 11 21 20 23 17 25
REMARK Flexibility Score: inf
ROOT
ATOM      1  C   UNL     1     -48.246  26.132 -16.558  1.00  0.00     0.138 A 
ATOM      2  C   UNL     1     -48.598  24.868 -16.067  1.00  0.00     0.100 A 
ATOM      3  C   UNL     1     -49.849  24.681 -15.477  1.00  0.00     0.197 A 
ATOM      4  O   UNL     1     -50.161  23.522 -15.101  1.00  0.00    -0.289 OA
ATOM      5  C   UNL     1     -50.738  25.775 -15.352  1.00  0.00     0.107 A 
ATOM      6  C   UNL     1     -52.023  25.711 -14.733  1.00  0.00     0.134 A 
ATOM      7  C   UNL     1     -52.863  26.831 -14.771  1.00  0.00     0.093 A 
ATOM      8  C   UNL     1     -52.444  28.027 -15.352  1.00  0.00     0.123 A 
ATOM      9  C   UNL     1     -51.170  28.116 -15.913  1.00  0.00     0.094 A 
ATOM     10  C   UNL     1     -50.321  27.008 -15.922  1.00  0.00     0.146 A 
ATOM     11  O   UNL     1     -49.120  27.130 -16.478  1.00  0.00    -0.456 OA
ENDROOT
BRANCH   1  12
ATOM     12  C   UNL     1     -46.928  26.387 -17.194  1.00  0.00     0.021 A 
ATOM     13  C   UNL     1     -46.198  27.532 -16.840  1.00  0.00     0.016 A 
ATOM     14  C   UNL     1     -44.955  27.789 -17.419  1.00  0.00     0.051 A 
ATOM     15  C   UNL     1     -44.407  26.908 -18.355  1.00  0.00     0.157 A 
ATOM     16  C   UNL     1     -46.371  25.490 -18.126  1.00  0.00     0.062 A 
ATOM     17  C   UNL     1     -45.122  25.740 -18.710  1.00  0.00     0.158 A 
BRANCH  15  18
ATOM     18  O   UNL     1     -43.162  27.225 -18.901  1.00  0.00    -0.504 OA
ATOM     19  H   UNL     1     -42.281  26.924 -18.512  1.00  0.00     0.293 HD
ENDBRANCH  15  18
BRANCH  17  20
ATOM     20  O   UNL     1     -44.633  24.805 -19.625  1.00  0.00    -0.504 OA
ATOM     21  H   UNL     1     -44.205  25.048 -20.507  1.00  0.00     0.293 HD
ENDBRANCH  17  20
ENDBRANCH   1  12
BRANCH   6  22
ATOM     22  O   UNL     1     -52.506  24.591 -14.049  1.00  0.00    -0.507 OA
ATOM     23  H   UNL     1     -52.798  24.587 -13.084  1.00  0.00     0.293 HD
ENDBRANCH   6  22
BRANCH   8  24
ATOM     24  O   UNL     1     -53.302  29.125 -15.359  1.00  0.00    -0.508 OA
ATOM     25  H   UNL     1     -53.647  29.522 -16.225  1.00  0.00     0.293 HD
ENDBRANCH   8  24
TORSDOF 5
ENDMDL
MODEL 6
REMARK VINA RESULT:    -6.992      2.479      3.745
REMARK INTER + INTRA:          -8.526
REMARK INTER:                  -8.215
REMARK INTRA:                  -0.311
REMARK UNBOUND:                -0.308
REMARK SMILES O=c1cc(-c2ccc(O)c(O)c2)oc2cc(O)cc(O)c12
REMARK SMILES IDX 4 1 3 2 2 3 1 4 21 5 19 6 18 7 16 8 15 9 14 10 13 11 5 12
REMARK SMILES IDX 6 13 7 14 8 15 12 16 10 17 9 18 11 20 20 22 17 24
REMARK H PARENT 9 19 11 21 20 23 17 25
REMARK Flexibility Score: inf
ROOT
ATOM      1  C   UNL     1     -45.052  28.063 -16.951  1.00  0.00     0.138 A 
ATOM      2  C   UNL     1     -44.727  28.328 -15.615  1.00  0.00     0.100 A 
ATOM      3  C   UNL     1     -45.706  28.202 -14.628  1.00  0.00     0.197 A 
ATOM      4  O   UNL     1     -45.369  28.387 -13.430  1.00  0.00    -0.289 OA
ATOM      5  C   UNL     1     -47.025  27.838 -14.989  1.00  0.00     0.107 A 
ATOM      6  C   UNL     1     -48.114  27.719 -14.074  1.00  0.00     0.134 A 
ATOM      7  C   UNL     1     -49.348  27.239 -14.530  1.00  0.00     0.093 A 
ATOM      8  C   UNL     1     -49.550  26.932 -15.875  1.00  0.00     0.123 A 
ATOM      9  C   UNL     1     -48.507  27.096 -16.788  1.00  0.00     0.094 A 
ATOM     10  C   UNL     1     -47.255  27.540 -16.359  1.00  0.00     0.146 A 
ATOM     11  O   UNL     1     -46.284  27.670 -17.257  1.00  0.00    -0.456 OA
ENDROOT
BRANCH   1  12
ATOM     12  C   UNL     1     -44.049  28.182 -18.041  1.00  0.00     0.021 A 
ATOM     13  C   UNL     1     -42.920  28.995 -17.856  1.00  0.00     0.016 A 
ATOM     14  C   UNL     1     -41.961  29.117 -18.863  1.00  0.00     0.051 A 
ATOM     15  C   UNL     1     -42.100  28.424 -20.070  1.00  0.00     0.157 A 
ATOM     16  C   UNL     1     -44.183  27.472 -19.250  1.00  0.00     0.062 A 
ATOM     17  C   UNL     1     -43.223  27.587 -20.263  1.00  0.00     0.158 A 
BRANCH  15  18
ATOM     18  O   UNL     1     -41.109  28.593 -21.037  1.00  0.00    -0.504 OA
ATOM     19  H   UNL     1     -41.285  28.603 -22.031  1.00  0.00     0.293 HD
ENDBRANCH  15  18
BRANCH  17  20
ATOM     20  O   UNL     1     -43.422  26.852 -21.434  1.00  0.00    -0.504 OA
ATOM     21  H   UNL     1     -42.900  26.995 -22.287  1.00  0.00     0.293 HD
ENDBRANCH  17  20
ENDBRANCH   1  12
BRANCH   6  22
ATOM     22  O   UNL     1     -48.045  28.080 -12.725  1.00  0.00    -0.507 OA
ATOM     23  H   UNL     1     -48.802  28.487 -12.198  1.00  0.00     0.293 HD
ENDBRANCH   6  22
BRANCH   8  24
ATOM     24  O   UNL     1     -50.796  26.470 -16.295  1.00  0.00    -0.508 OA
ATOM     25  H   UNL     1     -51.236  25.666 -15.862  1.00  0.00     0.293 HD
ENDBRANCH   8  24
TORSDOF 5
ENDMDL
MODEL 7
REMARK VINA RESULT:    -6.912      2.173      7.390
REMARK INTER + INTRA:          -8.432
REMARK INTER:                  -8.137
REMARK INTRA:                  -0.295
REMARK UNBOUND:                -0.308
REMARK SMILES O=c1cc(-c2ccc(O)c(O)c2)oc2cc(O)cc(O)c12
REMARK SMILES IDX 4 1 3 2 2 3 1 4 21 5 19 6 18 7 16 8 15 9 14 10 13 11 5 12
REMARK SMILES IDX 6 13 7 14 8 15 12 16 10 17 9 18 11 20 20 22 17 24
REMARK H PARENT 9 19 11 21 20 23 17 25
REMARK Flexibility Score: inf
ROOT
ATOM      1  C   UNL     1     -51.373  25.526 -15.063  1.00  0.00     0.138 A 
ATOM      2  C   UNL     1     -51.771  26.796 -15.500  1.00  0.00     0.100 A 
ATOM      3  C   UNL     1     -50.961  27.505 -16.388  1.00  0.00     0.197 A 
ATOM      4  O   UNL     1     -51.374  28.617 -16.810  1.00  0.00    -0.289 OA
ATOM      5  C   UNL     1     -49.732  26.950 -16.816  1.00  0.00     0.107 A 
ATOM      6  C   UNL     1     -48.807  27.599 -17.688  1.00  0.00     0.134 A 
ATOM      7  C   UNL     1     -47.677  26.904 -18.135  1.00  0.00     0.093 A 
ATOM      8  C   UNL     1     -47.407  25.608 -17.697  1.00  0.00     0.123 A 
ATOM      9  C   UNL     1     -48.277  24.984 -16.802  1.00  0.00     0.094 A 
ATOM     10  C   UNL     1     -49.431  25.637 -16.364  1.00  0.00     0.146 A 
ATOM     11  O   UNL     1     -50.241  25.003 -15.523  1.00  0.00    -0.456 OA
ENDROOT
BRANCH   1  12
ATOM     12  C   UNL     1     -52.196  24.728 -14.118  1.00  0.00     0.021 A 
ATOM     13  C   UNL     1     -51.636  23.602 -13.494  1.00  0.00     0.016 A 
ATOM     14  C   UNL     1     -52.387  22.841 -12.597  1.00  0.00     0.051 A 
ATOM     15  C   UNL     1     -53.707  23.189 -12.296  1.00  0.00     0.157 A 
ATOM     16  C   UNL     1     -53.520  25.088 -13.804  1.00  0.00     0.062 A 
ATOM     17  C   UNL     1     -54.279  24.331 -12.903  1.00  0.00     0.158 A 
BRANCH  15  18
ATOM     18  O   UNL     1     -54.406  22.383 -11.395  1.00  0.00    -0.504 OA
ATOM     19  H   UNL     1     -54.128  21.446 -11.142  1.00  0.00     0.293 HD
ENDBRANCH  15  18
BRANCH  17  20
ATOM     20  O   UNL     1     -55.586  24.750 -12.639  1.00  0.00    -0.504 OA
ATOM     21  H   UNL     1     -56.239  24.236 -12.067  1.00  0.00     0.293 HD
ENDBRANCH  17  20
ENDBRANCH   1  12
BRANCH   6  22
ATOM     22  O   UNL     1     -48.937  28.923 -18.120  1.00  0.00    -0.507 OA
ATOM     23  H   UNL     1     -48.591  29.728 -17.620  1.00  0.00     0.293 HD
ENDBRANCH   6  22
BRANCH   8  24
ATOM     24  O   UNL     1     -46.265  24.952 -18.152  1.00  0.00    -0.508 OA
ATOM     25  H   UNL     1     -45.371  25.062 -17.688  1.00  0.00     0.293 HD
ENDBRANCH   8  24
TORSDOF 5
ENDMDL
MODEL 8
REMARK VINA RESULT:    -6.679      1.709      3.323
REMARK INTER + INTRA:          -8.158
REMARK INTER:                  -7.874
REMARK INTRA:                  -0.284
REMARK UNBOUND:                -0.308
REMARK SMILES O=c1cc(-c2ccc(O)c(O)c2)oc2cc(O)cc(O)c12
REMARK SMILES IDX 4 1 3 2 2 3 1 4 21 5 19 6 18 7 16 8 15 9 14 10 13 11 5 12
REMARK SMILES IDX 6 13 7 14 8 15 12 16 10 17 9 18 11 20 20 22 17 24
REMARK H PARENT 9 19 11 21 20 23 17 25
REMARK Flexibility Score: inf
ROOT
ATOM      1  C   UNL     1     -46.352  26.918 -17.490  1.00  0.00     0.138 A 
ATOM      2  C   UNL     1     -46.817  25.606 -17.648  1.00  0.00     0.100 A 
ATOM      3  C   UNL     1     -47.995  25.210 -17.011  1.00  0.00     0.197 A 
ATOM      4  O   UNL     1     -48.419  24.044 -17.220  1.00  0.00    -0.289 OA
ATOM      5  C   UNL     1     -48.691  26.126 -16.187  1.00  0.00     0.107 A 
ATOM      6  C   UNL     1     -49.879  25.821 -15.457  1.00  0.00     0.134 A 
ATOM      7  C   UNL     1     -50.545  26.841 -14.767  1.00  0.00     0.093 A 
ATOM      8  C   UNL     1     -50.037  28.138 -14.731  1.00  0.00     0.123 A 
ATOM      9  C   UNL     1     -48.848  28.436 -15.398  1.00  0.00     0.094 A 
ATOM     10  C   UNL     1     -48.177  27.449 -16.123  1.00  0.00     0.146 A 
ATOM     11  O   UNL     1     -47.054  27.775 -16.756  1.00  0.00    -0.456 OA
ENDROOT
BRANCH   1  12
ATOM     12  C   UNL     1     -45.106  27.393 -18.144  1.00  0.00     0.021 A 
ATOM     13  C   UNL     1     -44.275  28.303 -17.472  1.00  0.00     0.016 A 
ATOM     14  C   UNL     1     -43.096  28.757 -18.063  1.00  0.00     0.051 A 
ATOM     15  C   UNL     1     -42.714  28.309 -19.331  1.00  0.00     0.157 A 
ATOM     16  C   UNL     1     -44.715  26.929 -19.415  1.00  0.00     0.062 A 
ATOM     17  C   UNL     1     -43.532  27.379 -20.013  1.00  0.00     0.158 A 
BRANCH  15  18
ATOM     18  O   UNL     1     -41.526  28.807 -19.869  1.00  0.00    -0.504 OA
ATOM     19  H   UNL     1     -41.225  28.646 -20.819  1.00  0.00     0.293 HD
ENDBRANCH  15  18
BRANCH  17  20
ATOM     20  O   UNL     1     -43.208  26.874 -21.275  1.00  0.00    -0.504 OA
ATOM     21  H   UNL     1     -43.594  27.224 -22.140  1.00  0.00     0.293 HD
ENDBRANCH  17  20
ENDBRANCH   1  12
BRANCH   6  22
ATOM     22  O   UNL     1     -50.427  24.538 -15.356  1.00  0.00    -0.507 OA
ATOM     23  H   UNL     1     -49.891  23.685 -15.313  1.00  0.00     0.293 HD
ENDBRANCH   6  22
BRANCH   8  24
ATOM     24  O   UNL     1     -50.720  29.125 -14.023  1.00  0.00    -0.508 OA
ATOM     25  H   UNL     1     -51.731  29.191 -14.048  1.00  0.00     0.293 HD
ENDBRANCH   8  24
TORSDOF 5
ENDMDL
MODEL 9
REMARK VINA RESULT:    -6.638      1.584      3.155
REMARK INTER + INTRA:          -8.110
REMARK INTER:                  -7.839
REMARK INTRA:                  -0.271
REMARK UNBOUND:                -0.308
REMARK SMILES O=c1cc(-c2ccc(O)c(O)c2)oc2cc(O)cc(O)c12
REMARK SMILES IDX 4 1 3 2 2 3 1 4 21 5 19 6 18 7 16 8 15 9 14 10 13 11 5 12
REMARK SMILES IDX 6 13 7 14 8 15 12 16 10 17 9 18 11 20 20 22 17 24
REMARK H PARENT 9 19 11 21 20 23 17 25
REMARK Flexibility Score: inf
ROOT
ATOM      1  C   UNL     1     -48.015  26.615 -16.583  1.00  0.00     0.138 A 
ATOM      2  C   UNL     1     -48.284  25.286 -16.233  1.00  0.00     0.100 A 
ATOM      3  C   UNL     1     -49.523  24.954 -15.681  1.00  0.00     0.197 A 
ATOM      4  O   UNL     1     -49.757  23.743 -15.433  1.00  0.00    -0.289 OA
ATOM      5  C   UNL     1     -50.484  25.967 -15.453  1.00  0.00     0.107 A 
ATOM      6  C   UNL     1     -51.765  25.753 -14.860  1.00  0.00     0.134 A 
ATOM      7  C   UNL     1     -52.678  26.811 -14.790  1.00  0.00     0.093 A 
ATOM      8  C   UNL     1     -52.338  28.088 -15.236  1.00  0.00     0.123 A 
ATOM      9  C   UNL     1     -51.070  28.321 -15.769  1.00  0.00     0.094 A 
ATOM     10  C   UNL     1     -50.148  27.279 -15.884  1.00  0.00     0.146 A 
ATOM     11  O   UNL     1     -48.955  27.539 -16.409  1.00  0.00    -0.456 OA
ENDROOT
BRANCH   1  12
ATOM     12  C   UNL     1     -46.714  27.023 -17.172  1.00  0.00     0.021 A 
ATOM     13  C   UNL     1     -46.363  26.571 -18.454  1.00  0.00     0.016 A 
ATOM     14  C   UNL     1     -45.149  26.947 -19.031  1.00  0.00     0.051 A 
ATOM     15  C   UNL     1     -44.264  27.788 -18.350  1.00  0.00     0.157 A 
ATOM     16  C   UNL     1     -45.830  27.883 -16.491  1.00  0.00     0.062 A 
ATOM     17  C   UNL     1     -44.612  28.267 -17.065  1.00  0.00     0.158 A 
BRANCH  15  18
ATOM     18  O   UNL     1     -43.064  28.122 -18.980  1.00  0.00    -0.504 OA
ATOM     19  H   UNL     1     -42.287  28.570 -18.516  1.00  0.00     0.293 HD
ENDBRANCH  15  18
BRANCH  17  20
ATOM     20  O   UNL     1     -43.787  29.122 -16.331  1.00  0.00    -0.504 OA
ATOM     21  H   UNL     1     -43.393  28.892 -15.430  1.00  0.00     0.293 HD
ENDBRANCH  17  20
ENDBRANCH   1  12
BRANCH   6  22
ATOM     22  O   UNL     1     -52.175  24.537 -14.305  1.00  0.00    -0.507 OA
ATOM     23  H   UNL     1     -52.871  24.439 -13.581  1.00  0.00     0.293 HD
ENDBRANCH   6  22
BRANCH   8  24
ATOM     24  O   UNL     1     -53.268  29.121 -15.138  1.00  0.00    -0.508 OA
ATOM     25  H   UNL     1     -53.616  29.437 -14.240  1.00  0.00     0.293 HD
ENDBRANCH   8  24
TORSDOF 5
ENDMDL
