MODEL 1
REMARK VINA RESULT:    -3.499      0.000      0.000
REMARK INTER + INTRA:          -4.387
REMARK INTER:                  -4.317
REMARK INTRA:                  -0.069
REMARK UNBOUND:                -0.069
REMARK SMILES CCCCCC(=O)[O-]
REMARK SMILES IDX 4 1 5 2 6 3 7 4 8 5 3 6 2 7 1 8
REMARK H PARENT
REMARK Flexibility Score: inf
ROOT
ATOM      1  C   UNL     1      27.276  29.846 -17.291  1.00  0.00     0.006 C 
ENDROOT
BRANCH   1   2
ATOM      2  C   UNL     1      26.587  29.675 -18.651  1.00  0.00     0.053 C 
BRANCH   2   3
ATOM      3  C   UNL     1      26.672  30.923 -19.477  1.00  0.00     0.041 C 
ATOM      4  O   UNL     1      27.433  30.969 -20.478  1.00  0.00    -0.550 OA
ATOM      5  O   UNL     1      25.882  32.021 -19.162  1.00  0.00    -0.550 OA
ENDBRANCH   2   3
ENDBRANCH   1   2
BRANCH   1   6
ATOM      6  C   UNL     1      28.584  29.040 -17.196  1.00  0.00     0.000 C 
BRANCH   6   7
ATOM      7  C   UNL     1      28.356  27.601 -16.710  1.00  0.00    -0.003 C 
ATOM      8  C   UNL     1      29.447  27.119 -15.756  1.00  0.00     0.004 C 
ENDBRANCH   6   7
ENDBRANCH   1   6
TORSDOF 4
ENDMDL
MODEL 2
REMARK VINA RESULT:    -3.414      3.443      4.699
REMARK INTER + INTRA:          -4.282
REMARK INTER:                  -4.159
REMARK INTRA:                  -0.123
REMARK UNBOUND:                -0.069
REMARK SMILES CCCCCC(=O)[O-]
REMARK SMILES IDX 4 1 5 2 6 3 7 4 8 5 3 6 2 7 1 8
REMARK H PARENT
REMARK Flexibility Score: inf
ROOT
ATOM      1  C   UNL     1      29.091  28.031 -16.783  1.00  0.00     0.006 C 
ENDROOT
BRANCH   1   2
ATOM      2  C   UNL     1      27.918  27.150 -16.337  1.00  0.00     0.053 C 
BRANCH   2   3
ATOM      3  C   UNL     1      27.847  25.877 -17.126  1.00  0.00     0.041 C 
ATOM      4  O   UNL     1      28.904  25.301 -17.494  1.00  0.00    -0.550 OA
ATOM      5  O   UNL     1      26.615  25.310 -17.424  1.00  0.00    -0.550 OA
ENDBRANCH   2   3
ENDBRANCH   1   2
BRANCH   1   6
ATOM      6  C   UNL     1      28.619  29.363 -17.393  1.00  0.00     0.000 C 
BRANCH   6   7
ATOM      7  C   UNL     1      27.090  29.442 -17.525  1.00  0.00    -0.003 C 
ATOM      8  C   UNL     1      26.643  30.160 -18.797  1.00  0.00     0.004 C 
ENDBRANCH   6   7
ENDBRANCH   1   6
TORSDOF 4
ENDMDL
MODEL 3
REMARK VINA RESULT:    -3.353      3.930      5.166
REMARK INTER + INTRA:          -4.206
REMARK INTER:                  -4.070
REMARK INTRA:                  -0.136
REMARK UNBOUND:                -0.069
REMARK SMILES CCCCCC(=O)[O-]
REMARK SMILES IDX 4 1 5 2 6 3 7 4 8 5 3 6 2 7 1 8
REMARK H PARENT
REMARK Flexibility Score: inf
ROOT
ATOM      1  C   UNL     1      29.074  27.937 -16.747  1.00  0.00     0.006 C 
ENDROOT
BRANCH   1   2
ATOM      2  C   UNL     1      27.922  26.947 -16.531  1.00  0.00     0.053 C 
BRANCH   2   3
ATOM      3  C   UNL     1      27.845  26.486 -15.107  1.00  0.00     0.041 C 
ATOM      4  O   UNL     1      26.858  25.814 -14.712  1.00  0.00    -0.550 OA
ATOM      5  O   UNL     1      28.882  26.770 -14.227  1.00  0.00    -0.550 OA
ENDBRANCH   2   3
ENDBRANCH   1   2
BRANCH   1   6
ATOM      6  C   UNL     1      28.585  29.285 -17.306  1.00  0.00     0.000 C 
BRANCH   6   7
ATOM      7  C   UNL     1      27.071  29.302 -17.563  1.00  0.00    -0.003 C 
ATOM      8  C   UNL     1      26.679  30.207 -18.730  1.00  0.00     0.004 C 
ENDBRANCH   6   7
ENDBRANCH   1   6
TORSDOF 4
ENDMDL
MODEL 4
REMARK VINA RESULT:    -3.265      3.995      5.031
REMARK INTER + INTRA:          -4.098
REMARK INTER:                  -4.038
REMARK INTRA:                  -0.060
REMARK UNBOUND:                -0.069
REMARK SMILES CCCCCC(=O)[O-]
REMARK SMILES IDX 4 1 5 2 6 3 7 4 8 5 3 6 2 7 1 8
REMARK H PARENT
REMARK Flexibility Score: inf
ROOT
ATOM      1  C   UNL     1      27.922  25.533 -17.318  1.00  0.00     0.006 C 
ENDROOT
BRANCH   1   2
ATOM      2  C   UNL     1      26.496  25.191 -17.766  1.00  0.00     0.053 C 
BRANCH   2   3
ATOM      3  C   UNL     1      26.467  24.644 -19.161  1.00  0.00     0.041 C 
ATOM      4  O   UNL     1      25.763  25.200 -20.044  1.00  0.00    -0.550 OA
ATOM      5  O   UNL     1      27.246  23.544 -19.494  1.00  0.00    -0.550 OA
ENDBRANCH   2   3
ENDBRANCH   1   2
BRANCH   1   6
ATOM      6  C   UNL     1      27.962  26.759 -16.388  1.00  0.00     0.000 C 
BRANCH   6   7
ATOM      7  C   UNL     1      29.205  27.632 -16.616  1.00  0.00    -0.003 C 
ATOM      8  C   UNL     1      28.864  29.012 -17.175  1.00  0.00     0.004 C 
ENDBRANCH   6   7
ENDBRANCH   1   6
TORSDOF 4
ENDMDL
MODEL 5
REMARK VINA RESULT:    -3.254      4.292      5.331
REMARK INTER + INTRA:          -4.084
REMARK INTER:                  -3.982
REMARK INTRA:                  -0.102
REMARK UNBOUND:                -0.069
REMARK SMILES CCCCCC(=O)[O-]
REMARK SMILES IDX 4 1 5 2 6 3 7 4 8 5 3 6 2 7 1 8
REMARK H PARENT
REMARK Flexibility Score: inf
ROOT
ATOM      1  C   UNL     1      27.300  25.003 -17.848  1.00  0.00     0.006 C 
ENDROOT
BRANCH   1   2
ATOM      2  C   UNL     1      27.223  25.612 -16.442  1.00  0.00     0.053 C 
BRANCH   2   3
ATOM      3  C   UNL     1      27.929  26.932 -16.369  1.00  0.00     0.041 C 
ATOM      4  O   UNL     1      27.553  27.892 -17.092  1.00  0.00    -0.550 OA
ATOM      5  O   UNL     1      28.979  27.112 -15.478  1.00  0.00    -0.550 OA
ENDBRANCH   2   3
ENDBRANCH   1   2
BRANCH   1   6
ATOM      6  C   UNL     1      25.946  25.054 -18.579  1.00  0.00     0.000 C 
BRANCH   6   7
ATOM      7  C   UNL     1      26.092  24.909 -20.101  1.00  0.00    -0.003 C 
ATOM      8  C   UNL     1      27.187  23.921 -20.499  1.00  0.00     0.004 C 
ENDBRANCH   6   7
ENDBRANCH   1   6
TORSDOF 4
ENDMDL
MODEL 6
REMARK VINA RESULT:    -3.166      3.872      5.033
REMARK INTER + INTRA:          -3.975
REMARK INTER:                  -3.902
REMARK INTRA:                  -0.074
REMARK UNBOUND:                -0.069
REMARK SMILES CCCCCC(=O)[O-]
REMARK SMILES IDX 4 1 5 2 6 3 7 4 8 5 3 6 2 7 1 8
REMARK H PARENT
REMARK Flexibility Score: inf
ROOT
ATOM      1  C   UNL     1      27.521  26.253 -17.051  1.00  0.00     0.006 C 
ENDROOT
BRANCH   1   2
ATOM      2  C   UNL     1      29.052  26.212 -16.963  1.00  0.00     0.053 C 
BRANCH   2   3
ATOM      3  C   UNL     1      29.618  27.528 -16.524  1.00  0.00     0.041 C 
ATOM      4  O   UNL     1      30.565  27.565 -15.696  1.00  0.00    -0.550 OA
ATOM      5  O   UNL     1      29.124  28.711 -17.058  1.00  0.00    -0.550 OA
ENDBRANCH   2   3
ENDBRANCH   1   2
BRANCH   1   6
ATOM      6  C   UNL     1      26.936  24.949 -17.623  1.00  0.00     0.000 C 
BRANCH   6   7
ATOM      7  C   UNL     1      26.061  25.189 -18.863  1.00  0.00    -0.003 C 
ATOM      8  C   UNL     1      26.572  24.450 -20.098  1.00  0.00     0.004 C 
ENDBRANCH   6   7
ENDBRANCH   1   6
TORSDOF 4
ENDMDL
MODEL 7
REMARK VINA RESULT:    -3.059      4.895      6.023
REMARK INTER + INTRA:          -3.843
REMARK INTER:                  -3.660
REMARK INTRA:                  -0.183
REMARK UNBOUND:                -0.069
REMARK SMILES CCCCCC(=O)[O-]
REMARK SMILES IDX 4 1 5 2 6 3 7 4 8 5 3 6 2 7 1 8
REMARK H PARENT
REMARK Flexibility Score: inf
ROOT
ATOM      1  C   UNL     1      28.190  23.772 -18.272  1.00  0.00     0.006 C 
ENDROOT
BRANCH   1   2
ATOM      2  C   UNL     1      28.720  24.990 -17.505  1.00  0.00     0.053 C 
BRANCH   2   3
ATOM      3  C   UNL     1      27.626  25.702 -16.769  1.00  0.00     0.041 C 
ATOM      4  O   UNL     1      27.840  26.830 -16.253  1.00  0.00    -0.550 OA
ATOM      5  O   UNL     1      26.361  25.135 -16.684  1.00  0.00    -0.550 OA
ENDBRANCH   2   3
ENDBRANCH   1   2
BRANCH   1   6
ATOM      6  C   UNL     1      28.403  23.904 -19.791  1.00  0.00     0.000 C 
BRANCH   6   7
ATOM      7  C   UNL     1      27.086  23.839 -20.579  1.00  0.00    -0.003 C 
ATOM      8  C   UNL     1      26.083  24.904 -20.140  1.00  0.00     0.004 C 
ENDBRANCH   6   7
ENDBRANCH   1   6
TORSDOF 4
ENDMDL
MODEL 8
REMARK VINA RESULT:    -3.049      4.429      5.230
REMARK INTER + INTRA:          -3.831
REMARK INTER:                  -3.712
REMARK INTRA:                  -0.119
REMARK UNBOUND:                -0.069
REMARK SMILES CCCCCC(=O)[O-]
REMARK SMILES IDX 4 1 5 2 6 3 7 4 8 5 3 6 2 7 1 8
REMARK H PARENT
REMARK Flexibility Score: inf
ROOT
ATOM      1  C   UNL     1      26.878  25.131 -17.504  1.00  0.00     0.006 C 
ENDROOT
BRANCH   1   2
ATOM      2  C   UNL     1      27.399  24.126 -18.538  1.00  0.00     0.053 C 
BRANCH   2   3
ATOM      3  C   UNL     1      26.759  24.326 -19.879  1.00  0.00     0.041 C 
ATOM      4  O   UNL     1      27.110  23.619 -20.859  1.00  0.00    -0.550 OA
ATOM      5  O   UNL     1      25.751  25.268 -20.035  1.00  0.00    -0.550 OA
ENDBRANCH   2   3
ENDBRANCH   1   2
BRANCH   1   6
ATOM      6  C   UNL     1      27.958  26.143 -17.080  1.00  0.00     0.000 C 
BRANCH   6   7
ATOM      7  C   UNL     1      27.813  26.580 -15.614  1.00  0.00    -0.003 C 
ATOM      8  C   UNL     1      27.004  25.590 -14.779  1.00  0.00     0.004 C 
ENDBRANCH   6   7
ENDBRANCH   1   6
TORSDOF 4
ENDMDL
MODEL 9
REMARK VINA RESULT:    -2.940      4.855      5.765
REMARK INTER + INTRA:          -3.696
REMARK INTER:                  -3.582
REMARK INTRA:                  -0.114
REMARK UNBOUND:                -0.069
REMARK SMILES CCCCCC(=O)[O-]
REMARK SMILES IDX 4 1 5 2 6 3 7 4 8 5 3 6 2 7 1 8
REMARK H PARENT
REMARK Flexibility Score: inf
ROOT
ATOM      1  C   UNL     1      27.210  25.942 -17.257  1.00  0.00     0.006 C 
ENDROOT
BRANCH   1   2
ATOM      2  C   UNL     1      28.082  26.795 -16.326  1.00  0.00     0.053 C 
BRANCH   2   3
ATOM      3  C   UNL     1      27.911  26.402 -14.890  1.00  0.00     0.041 C 
ATOM      4  O   UNL     1      28.796  26.694 -14.044  1.00  0.00    -0.550 OA
ATOM      5  O   UNL     1      26.757  25.747 -14.480  1.00  0.00    -0.550 OA
ENDBRANCH   2   3
ENDBRANCH   1   2
BRANCH   1   6
ATOM      6  C   UNL     1      27.988  24.758 -17.860  1.00  0.00     0.000 C 
BRANCH   6   7
ATOM      7  C   UNL     1      27.272  24.136 -19.068  1.00  0.00    -0.003 C 
ATOM      8  C   UNL     1      26.080  24.967 -19.541  1.00  0.00     0.004 C 
ENDBRANCH   6   7
ENDBRANCH   1   6
TORSDOF 4
ENDMDL
