MODEL 1
REMARK VINA RESULT:    -2.727      0.000      0.000
REMARK INTER + INTRA:          -3.799
REMARK INTER:                  -3.285
REMARK INTRA:                  -0.514
REMARK UNBOUND:                -0.514
REMARK SMILES NC(=O)C[C@@H]([NH3+])C(=O)[O-]
REMARK SMILES IDX 4 1 5 2 6 3 7 7 8 8 9 9 2 10 3 11 1 12
REMARK H PARENT 6 4 6 5 6 6 1 13 1 14
REMARK Flexibility Score: inf
ROOT
ATOM      1  C   UNL     1       1.035 -39.868  -5.271  1.00  0.00     0.171 C 
ENDROOT
BRANCH   1   2
ATOM      2  C   UNL     1       2.041 -39.913  -6.439  1.00  0.00     0.237 C 
BRANCH   2   3
ATOM      3  N   UNL     1       2.363 -38.563  -6.922  1.00  0.00    -0.350 N 
ATOM      4  H   UNL     1       1.506 -38.081  -7.279  1.00  0.00     0.345 HD
ATOM      5  H   UNL     1       2.773 -37.996  -6.143  1.00  0.00     0.345 HD
ATOM      6  H   UNL     1       3.073 -38.615  -7.687  1.00  0.00     0.345 HD
ENDBRANCH   2   3
BRANCH   2   7
ATOM      7  C   UNL     1       3.296 -40.618  -6.000  1.00  0.00     0.100 C 
ATOM      8  O   UNL     1       3.524 -41.798  -6.376  1.00  0.00    -0.544 OA
ATOM      9  O   UNL     1       4.202 -39.979  -5.162  1.00  0.00    -0.544 OA
ENDBRANCH   2   7
ENDBRANCH   1   2
BRANCH   1  10
ATOM     10  C   UNL     1       1.094 -38.560  -4.537  1.00  0.00     0.223 C 
ATOM     11  O   UNL     1       0.380 -37.595  -4.919  1.00  0.00    -0.275 OA
ATOM     12  N   UNL     1       1.980 -38.389  -3.430  1.00  0.00    -0.369 N 
ATOM     13  H   UNL     1       2.596 -39.171  -3.114  1.00  0.00     0.159 HD
ATOM     14  H   UNL     1       2.026 -37.475  -2.929  1.00  0.00     0.159 HD
ENDBRANCH   1  10
TORSDOF 4
ENDMDL
MODEL 2
REMARK VINA RESULT:    -2.688      1.814      2.413
REMARK INTER + INTRA:          -3.752
REMARK INTER:                  -3.413
REMARK INTRA:                  -0.339
REMARK UNBOUND:                -0.514
REMARK SMILES NC(=O)C[C@@H]([NH3+])C(=O)[O-]
REMARK SMILES IDX 4 1 5 2 6 3 7 7 8 8 9 9 2 10 3 11 1 12
REMARK H PARENT 6 4 6 5 6 6 1 13 1 14
REMARK Flexibility Score: inf
ROOT
ATOM      1  C   UNL     1       1.390 -38.837  -4.381  1.00  0.00     0.171 C 
ENDROOT
BRANCH   1   2
ATOM      2  C   UNL     1       1.209 -38.444  -5.861  1.00  0.00     0.237 C 
BRANCH   2   3
ATOM      3  N   UNL     1       2.249 -37.503  -6.298  1.00  0.00    -0.350 N 
ATOM      4  H   UNL     1       1.963 -36.515  -6.104  1.00  0.00     0.345 HD
ATOM      5  H   UNL     1       3.144 -37.704  -5.792  1.00  0.00     0.345 HD
ATOM      6  H   UNL     1       2.428 -37.614  -7.321  1.00  0.00     0.345 HD
ENDBRANCH   2   3
BRANCH   2   7
ATOM      7  C   UNL     1       1.235 -39.679  -6.720  1.00  0.00     0.100 C 
ATOM      8  O   UNL     1       0.158 -40.213  -7.095  1.00  0.00    -0.544 OA
ATOM      9  O   UNL     1       2.447 -40.249  -7.091  1.00  0.00    -0.544 OA
ENDBRANCH   2   7
ENDBRANCH   1   2
BRANCH   1  10
ATOM     10  C   UNL     1       2.745 -38.450  -3.865  1.00  0.00     0.223 C 
ATOM     11  O   UNL     1       3.778 -38.960  -4.375  1.00  0.00    -0.275 OA
ATOM     12  N   UNL     1       2.872 -37.535  -2.777  1.00  0.00    -0.369 N 
ATOM     13  H   UNL     1       2.026 -37.120  -2.327  1.00  0.00     0.159 HD
ATOM     14  H   UNL     1       3.816 -37.276  -2.414  1.00  0.00     0.159 HD
ENDBRANCH   1  10
TORSDOF 4
ENDMDL
MODEL 3
REMARK VINA RESULT:    -2.657      2.056      2.216
REMARK INTER + INTRA:          -3.715
REMARK INTER:                  -3.256
REMARK INTRA:                  -0.459
REMARK UNBOUND:                -0.514
REMARK SMILES NC(=O)C[C@@H]([NH3+])C(=O)[O-]
REMARK SMILES IDX 4 1 5 2 6 3 7 7 8 8 9 9 2 10 3 11 1 12
REMARK H PARENT 6 4 6 5 6 6 1 13 1 14
REMARK Flexibility Score: inf
ROOT
ATOM      1  C   UNL     1       2.803 -38.288  -5.416  1.00  0.00     0.171 C 
ENDROOT
BRANCH   1   2
ATOM      2  C   UNL     1       3.731 -39.489  -5.686  1.00  0.00     0.237 C 
BRANCH   2   3
ATOM      3  N   UNL     1       4.626 -39.742  -4.549  1.00  0.00    -0.350 N 
ATOM      4  H   UNL     1       5.336 -38.978  -4.458  1.00  0.00     0.345 HD
ATOM      5  H   UNL     1       4.070 -39.797  -3.664  1.00  0.00     0.345 HD
ATOM      6  H   UNL     1       5.119 -40.655  -4.675  1.00  0.00     0.345 HD
ENDBRANCH   2   3
BRANCH   2   7
ATOM      7  C   UNL     1       2.903 -40.713  -5.974  1.00  0.00     0.100 C 
ATOM      8  O   UNL     1       3.464 -41.804  -6.260  1.00  0.00    -0.544 OA
ATOM      9  O   UNL     1       1.516 -40.643  -5.944  1.00  0.00    -0.544 OA
ENDBRANCH   2   7
ENDBRANCH   1   2
BRANCH   1  10
ATOM     10  C   UNL     1       2.458 -38.168  -3.960  1.00  0.00     0.223 C 
ATOM     11  O   UNL     1       3.261 -37.605  -3.170  1.00  0.00    -0.275 OA
ATOM     12  N   UNL     1       1.241 -38.720  -3.456  1.00  0.00    -0.369 N 
ATOM     13  H   UNL     1       0.574 -39.212  -4.092  1.00  0.00     0.159 HD
ATOM     14  H   UNL     1       1.009 -38.645  -2.441  1.00  0.00     0.159 HD
ENDBRANCH   1  10
TORSDOF 4
ENDMDL
MODEL 4
REMARK VINA RESULT:    -2.599      2.352      3.382
REMARK INTER + INTRA:          -3.645
REMARK INTER:                  -3.354
REMARK INTRA:                  -0.291
REMARK UNBOUND:                -0.514
REMARK SMILES NC(=O)C[C@@H]([NH3+])C(=O)[O-]
REMARK SMILES IDX 4 1 5 2 6 3 7 7 8 8 9 9 2 10 3 11 1 12
REMARK H PARENT 6 4 6 5 6 6 1 13 1 14
REMARK Flexibility Score: inf
ROOT
ATOM      1  C   UNL     1       2.754 -38.891  -5.393  1.00  0.00     0.171 C 
ENDROOT
BRANCH   1   2
ATOM      2  C   UNL     1       2.391 -38.007  -4.183  1.00  0.00     0.237 C 
BRANCH   2   3
ATOM      3  N   UNL     1       1.379 -38.649  -3.333  1.00  0.00    -0.350 N 
ATOM      4  H   UNL     1       1.827 -39.128  -2.518  1.00  0.00     0.345 HD
ATOM      5  H   UNL     1       0.706 -37.930  -2.979  1.00  0.00     0.345 HD
ATOM      6  H   UNL     1       0.836 -39.349  -3.887  1.00  0.00     0.345 HD
ENDBRANCH   2   3
BRANCH   2   7
ATOM      7  C   UNL     1       3.631 -37.715  -3.379  1.00  0.00     0.100 C 
ATOM      8  O   UNL     1       4.728 -38.247  -3.692  1.00  0.00    -0.544 OA
ATOM      9  O   UNL     1       3.568 -36.869  -2.278  1.00  0.00    -0.544 OA
ENDBRANCH   2   7
ENDBRANCH   1   2
BRANCH   1  10
ATOM     10  C   UNL     1       1.608 -39.770  -5.802  1.00  0.00     0.223 C 
ATOM     11  O   UNL     1       0.486 -39.257  -6.056  1.00  0.00    -0.275 OA
ATOM     12  N   UNL     1       1.771 -41.187  -5.872  1.00  0.00    -0.369 N 
ATOM     13  H   UNL     1       2.687 -41.631  -5.643  1.00  0.00     0.159 HD
ATOM     14  H   UNL     1       0.969 -41.795  -6.147  1.00  0.00     0.159 HD
ENDBRANCH   1  10
TORSDOF 4
ENDMDL
MODEL 5
REMARK VINA RESULT:    -2.561      7.686      8.442
REMARK INTER + INTRA:          -3.600
REMARK INTER:                  -3.144
REMARK INTRA:                  -0.456
REMARK UNBOUND:                -0.514
REMARK SMILES NC(=O)C[C@@H]([NH3+])C(=O)[O-]
REMARK SMILES IDX 4 1 5 2 6 3 7 7 8 8 9 9 2 10 3 11 1 12
REMARK H PARENT 6 4 6 5 6 6 1 13 1 14
REMARK Flexibility Score: inf
ROOT
ATOM      1  C   UNL     1       1.071 -33.645   0.728  1.00  0.00     0.171 C 
ENDROOT
BRANCH   1   2
ATOM      2  C   UNL     1       2.316 -34.229   0.030  1.00  0.00     0.237 C 
BRANCH   2   3
ATOM      3  N   UNL     1       2.089 -34.408  -1.411  1.00  0.00    -0.350 N 
ATOM      4  H   UNL     1       1.615 -33.570  -1.819  1.00  0.00     0.345 HD
ATOM      5  H   UNL     1       3.004 -34.553  -1.898  1.00  0.00     0.345 HD
ATOM      6  H   UNL     1       1.499 -35.254  -1.579  1.00  0.00     0.345 HD
ENDBRANCH   2   3
BRANCH   2   7
ATOM      7  C   UNL     1       3.497 -33.323   0.259  1.00  0.00     0.100 C 
ATOM      8  O   UNL     1       3.318 -32.113   0.554  1.00  0.00    -0.544 OA
ATOM      9  O   UNL     1       4.791 -33.814   0.130  1.00  0.00    -0.544 OA
ENDBRANCH   2   7
ENDBRANCH   1   2
BRANCH   1  10
ATOM     10  C   UNL     1       0.193 -32.900  -0.234  1.00  0.00     0.223 C 
ATOM     11  O   UNL     1      -0.757 -33.497  -0.806  1.00  0.00    -0.275 OA
ATOM     12  N   UNL     1       0.448 -31.528  -0.535  1.00  0.00    -0.369 N 
ATOM     13  H   UNL     1       1.246 -31.023  -0.088  1.00  0.00     0.159 HD
ATOM     14  H   UNL     1      -0.158 -31.016  -1.213  1.00  0.00     0.159 HD
ENDBRANCH   1  10
TORSDOF 4
ENDMDL
MODEL 6
REMARK VINA RESULT:    -2.559      6.327      7.245
REMARK INTER + INTRA:          -3.596
REMARK INTER:                  -3.346
REMARK INTRA:                  -0.251
REMARK UNBOUND:                -0.514
REMARK SMILES NC(=O)C[C@@H]([NH3+])C(=O)[O-]
REMARK SMILES IDX 4 1 5 2 6 3 7 7 8 8 9 9 2 10 3 11 1 12
REMARK H PARENT 6 4 6 5 6 6 1 13 1 14
REMARK Flexibility Score: inf
ROOT
ATOM      1  C   UNL     1      -1.038 -40.256 -11.101  1.00  0.00     0.171 C 
ENDROOT
BRANCH   1   2
ATOM      2  C   UNL     1      -0.340 -38.944 -11.511  1.00  0.00     0.237 C 
BRANCH   2   3
ATOM      3  N   UNL     1      -1.309 -37.856 -11.700  1.00  0.00    -0.350 N 
ATOM      4  H   UNL     1      -1.179 -37.113 -10.974  1.00  0.00     0.345 HD
ATOM      5  H   UNL     1      -1.185 -37.431 -12.649  1.00  0.00     0.345 HD
ATOM      6  H   UNL     1      -2.284 -38.229 -11.641  1.00  0.00     0.345 HD
ENDBRANCH   2   3
BRANCH   2   7
ATOM      7  C   UNL     1       0.672 -38.560 -10.464  1.00  0.00     0.100 C 
ATOM      8  O   UNL     1       1.081 -37.372 -10.385  1.00  0.00    -0.544 OA
ATOM      9  O   UNL     1       1.174 -39.518  -9.591  1.00  0.00    -0.544 OA
ENDBRANCH   2   7
ENDBRANCH   1   2
BRANCH   1  10
ATOM     10  C   UNL     1      -1.893 -40.800 -12.208  1.00  0.00     0.223 C 
ATOM     11  O   UNL     1      -2.886 -40.140 -12.615  1.00  0.00    -0.275 OA
ATOM     12  N   UNL     1      -1.611 -42.077 -12.780  1.00  0.00    -0.369 N 
ATOM     13  H   UNL     1      -0.806 -42.649 -12.440  1.00  0.00     0.159 HD
ATOM     14  H   UNL     1      -2.214 -42.457 -13.543  1.00  0.00     0.159 HD
ENDBRANCH   1  10
TORSDOF 4
ENDMDL
MODEL 7
REMARK VINA RESULT:    -2.536      6.408      8.381
REMARK INTER + INTRA:          -3.569
REMARK INTER:                  -3.226
REMARK INTRA:                  -0.343
REMARK UNBOUND:                -0.514
REMARK SMILES NC(=O)C[C@@H]([NH3+])C(=O)[O-]
REMARK SMILES IDX 4 1 5 2 6 3 7 7 8 8 9 9 2 10 3 11 1 12
REMARK H PARENT 6 4 6 5 6 6 1 13 1 14
REMARK Flexibility Score: inf
ROOT
ATOM      1  C   UNL     1       2.255 -33.762  -1.903  1.00  0.00     0.171 C 
ENDROOT
BRANCH   1   2
ATOM      2  C   UNL     1       1.478 -33.597  -0.582  1.00  0.00     0.237 C 
BRANCH   2   3
ATOM      3  N   UNL     1       1.870 -34.614   0.403  1.00  0.00    -0.350 N 
ATOM      4  H   UNL     1       1.433 -34.419   1.334  1.00  0.00     0.345 HD
ATOM      5  H   UNL     1       1.566 -35.561   0.076  1.00  0.00     0.345 HD
ATOM      6  H   UNL     1       2.910 -34.631   0.508  1.00  0.00     0.345 HD
ENDBRANCH   2   3
BRANCH   2   7
ATOM      7  C   UNL     1       1.715 -32.218  -0.024  1.00  0.00     0.100 C 
ATOM      8  O   UNL     1       0.903 -31.288  -0.268  1.00  0.00    -0.544 OA
ATOM      9  O   UNL     1       2.841 -31.960   0.749  1.00  0.00    -0.544 OA
ENDBRANCH   2   7
ENDBRANCH   1   2
BRANCH   1  10
ATOM     10  C   UNL     1       3.320 -34.814  -1.793  1.00  0.00     0.223 C 
ATOM     11  O   UNL     1       4.374 -34.572  -1.146  1.00  0.00    -0.275 OA
ATOM     12  N   UNL     1       3.164 -36.074  -2.445  1.00  0.00    -0.369 N 
ATOM     13  H   UNL     1       2.308 -36.284  -3.004  1.00  0.00     0.159 HD
ATOM     14  H   UNL     1       3.912 -36.799  -2.375  1.00  0.00     0.159 HD
ENDBRANCH   1  10
TORSDOF 4
ENDMDL
MODEL 8
REMARK VINA RESULT:    -2.523      1.410      4.011
REMARK INTER + INTRA:          -3.554
REMARK INTER:                  -3.287
REMARK INTRA:                  -0.267
REMARK UNBOUND:                -0.514
REMARK SMILES NC(=O)C[C@@H]([NH3+])C(=O)[O-]
REMARK SMILES IDX 4 1 5 2 6 3 7 7 8 8 9 9 2 10 3 11 1 12
REMARK H PARENT 6 4 6 5 6 6 1 13 1 14
REMARK Flexibility Score: inf
ROOT
ATOM      1  C   UNL     1       2.943 -39.251  -5.326  1.00  0.00     0.171 C 
ENDROOT
BRANCH   1   2
ATOM      2  C   UNL     1       1.920 -38.539  -4.418  1.00  0.00     0.237 C 
BRANCH   2   3
ATOM      3  N   UNL     1       2.485 -38.257  -3.091  1.00  0.00    -0.350 N 
ATOM      4  H   UNL     1       1.728 -38.183  -2.373  1.00  0.00     0.345 HD
ATOM      5  H   UNL     1       3.143 -39.024  -2.815  1.00  0.00     0.345 HD
ATOM      6  H   UNL     1       3.028 -37.364  -3.113  1.00  0.00     0.345 HD
ENDBRANCH   2   3
BRANCH   2   7
ATOM      7  C   UNL     1       1.469 -37.259  -5.070  1.00  0.00     0.100 C 
ATOM      8  O   UNL     1       1.850 -36.148  -4.615  1.00  0.00    -0.544 OA
ATOM      9  O   UNL     1       0.617 -37.295  -6.167  1.00  0.00    -0.544 OA
ENDBRANCH   2   7
ENDBRANCH   1   2
BRANCH   1  10
ATOM     10  C   UNL     1       2.342 -40.447  -6.007  1.00  0.00     0.223 C 
ATOM     11  O   UNL     1       3.014 -41.506  -6.120  1.00  0.00    -0.275 OA
ATOM     12  N   UNL     1       1.027 -40.381  -6.560  1.00  0.00    -0.369 N 
ATOM     13  H   UNL     1       0.465 -39.503  -6.497  1.00  0.00     0.159 HD
ATOM     14  H   UNL     1       0.617 -41.210  -7.043  1.00  0.00     0.159 HD
ENDBRANCH   1  10
TORSDOF 4
ENDMDL
MODEL 9
REMARK VINA RESULT:    -2.445      1.990      3.845
REMARK INTER + INTRA:          -3.459
REMARK INTER:                  -3.169
REMARK INTRA:                  -0.290
REMARK UNBOUND:                -0.514
REMARK SMILES NC(=O)C[C@@H]([NH3+])C(=O)[O-]
REMARK SMILES IDX 4 1 5 2 6 3 7 7 8 8 9 9 2 10 3 11 1 12
REMARK H PARENT 6 4 6 5 6 6 1 13 1 14
REMARK Flexibility Score: inf
ROOT
ATOM      1  C   UNL     1       3.389 -39.582  -5.341  1.00  0.00     0.171 C 
ENDROOT
BRANCH   1   2
ATOM      2  C   UNL     1       1.928 -39.539  -5.832  1.00  0.00     0.237 C 
BRANCH   2   3
ATOM      3  N   UNL     1       1.398 -40.890  -6.062  1.00  0.00    -0.350 N 
ATOM      4  H   UNL     1       0.438 -40.987  -5.657  1.00  0.00     0.345 HD
ATOM      5  H   UNL     1       1.356 -41.085  -7.090  1.00  0.00     0.345 HD
ATOM      6  H   UNL     1       2.028 -41.602  -5.628  1.00  0.00     0.345 HD
ENDBRANCH   2   3
BRANCH   2   7
ATOM      7  C   UNL     1       1.076 -38.814  -4.824  1.00  0.00     0.100 C 
ATOM      8  O   UNL     1       1.331 -38.909  -3.595  1.00  0.00    -0.544 OA
ATOM      9  O   UNL     1      -0.007 -38.050  -5.243  1.00  0.00    -0.544 OA
ENDBRANCH   2   7
ENDBRANCH   1   2
BRANCH   1  10
ATOM     10  C   UNL     1       4.150 -40.718  -5.961  1.00  0.00     0.223 C 
ATOM     11  O   UNL     1       4.108 -40.892  -7.208  1.00  0.00    -0.275 OA
ATOM     12  N   UNL     1       4.894 -41.623  -5.146  1.00  0.00    -0.369 N 
ATOM     13  H   UNL     1       4.922 -41.507  -4.108  1.00  0.00     0.159 HD
ATOM     14  H   UNL     1       5.413 -42.417  -5.579  1.00  0.00     0.159 HD
ENDBRANCH   1  10
TORSDOF 4
ENDMDL
