MODEL 1
REMARK VINA RESULT:    -3.787      0.000      0.000
REMARK INTER + INTRA:          -5.625
REMARK INTER:                  -5.337
REMARK INTRA:                  -0.288
REMARK UNBOUND:                -0.288
REMARK SMILES CCCCCCCCC(=O)[O-]
REMARK SMILES IDX 6 1 7 2 8 3 9 4 10 5 11 6 5 7 4 8 3 9 2 10 1 11
REMARK H PARENT
REMARK Flexibility Score: inf
ROOT
ATOM      1  C   UNL     1      21.852 -16.314   5.051  1.00  0.00     0.000 C 
ENDROOT
BRANCH   1   2
ATOM      2  C   UNL     1      21.085 -15.723   6.240  1.00  0.00     0.006 C 
BRANCH   2   3
ATOM      3  C   UNL     1      21.559 -14.299   6.547  1.00  0.00     0.053 C 
BRANCH   3   4
ATOM      4  C   UNL     1      21.595 -14.067   8.026  1.00  0.00     0.041 C 
ATOM      5  O   UNL     1      21.750 -15.035   8.814  1.00  0.00    -0.550 OA
ATOM      6  O   UNL     1      21.407 -12.788   8.533  1.00  0.00    -0.550 OA
ENDBRANCH   3   4
ENDBRANCH   2   3
ENDBRANCH   1   2
BRANCH   1   7
ATOM      7  C   UNL     1      21.840 -15.351   3.855  1.00  0.00     0.000 C 
BRANCH   7   8
ATOM      8  C   UNL     1      21.455 -16.046   2.540  1.00  0.00    -0.000 C 
BRANCH   8   9
ATOM      9  C   UNL     1      21.857 -15.229   1.298  1.00  0.00    -0.000 C 
BRANCH   9  10
ATOM     10  C   UNL     1      21.672 -13.718   1.504  1.00  0.00    -0.003 C 
ATOM     11  C   UNL     1      22.797 -12.895   0.875  1.00  0.00     0.004 C 
ENDBRANCH   9  10
ENDBRANCH   8   9
ENDBRANCH   7   8
ENDBRANCH   1   7
TORSDOF 7
ENDMDL
MODEL 2
REMARK VINA RESULT:    -3.745      1.334      1.951
REMARK INTER + INTRA:          -5.564
REMARK INTER:                  -5.090
REMARK INTRA:                  -0.475
REMARK UNBOUND:                -0.288
REMARK SMILES CCCCCCCCC(=O)[O-]
REMARK SMILES IDX 6 1 7 2 8 3 9 4 10 5 11 6 5 7 4 8 3 9 2 10 1 11
REMARK H PARENT
REMARK Flexibility Score: inf
ROOT
ATOM      1  C   UNL     1      22.001 -16.704   6.740  1.00  0.00     0.000 C 
ENDROOT
BRANCH   1   2
ATOM      2  C   UNL     1      21.893 -15.913   8.049  1.00  0.00     0.006 C 
BRANCH   2   3
ATOM      3  C   UNL     1      21.070 -14.636   7.853  1.00  0.00     0.053 C 
BRANCH   3   4
ATOM      4  C   UNL     1      21.933 -13.425   8.024  1.00  0.00     0.041 C 
ATOM      5  O   UNL     1      23.034 -13.342   7.419  1.00  0.00    -0.550 OA
ATOM      6  O   UNL     1      21.545 -12.411   8.890  1.00  0.00    -0.550 OA
ENDBRANCH   3   4
ENDBRANCH   2   3
ENDBRANCH   1   2
BRANCH   1   7
ATOM      7  C   UNL     1      20.979 -16.203   5.709  1.00  0.00     0.000 C 
BRANCH   7   8
ATOM      8  C   UNL     1      21.572 -16.093   4.295  1.00  0.00    -0.000 C 
BRANCH   8   9
ATOM      9  C   UNL     1      22.175 -14.706   4.012  1.00  0.00    -0.000 C 
BRANCH   9  10
ATOM     10  C   UNL     1      21.906 -14.230   2.577  1.00  0.00    -0.003 C 
ATOM     11  C   UNL     1      21.519 -15.373   1.638  1.00  0.00     0.004 C 
ENDBRANCH   9  10
ENDBRANCH   8   9
ENDBRANCH   7   8
ENDBRANCH   1   7
TORSDOF 7
ENDMDL
MODEL 3
REMARK VINA RESULT:    -3.697      0.996      1.441
REMARK INTER + INTRA:          -5.498
REMARK INTER:                  -5.153
REMARK INTRA:                  -0.345
REMARK UNBOUND:                -0.288
REMARK SMILES CCCCCCCCC(=O)[O-]
REMARK SMILES IDX 6 1 7 2 8 3 9 4 10 5 11 6 5 7 4 8 3 9 2 10 1 11
REMARK H PARENT
REMARK Flexibility Score: inf
ROOT
ATOM      1  C   UNL     1      21.767 -16.241   4.534  1.00  0.00     0.000 C 
ENDROOT
BRANCH   1   2
ATOM      2  C   UNL     1      21.987 -15.003   5.410  1.00  0.00     0.006 C 
BRANCH   2   3
ATOM      3  C   UNL     1      21.147 -15.077   6.688  1.00  0.00     0.053 C 
BRANCH   3   4
ATOM      4  C   UNL     1      21.866 -14.422   7.826  1.00  0.00     0.041 C 
ATOM      5  O   UNL     1      22.687 -13.493   7.605  1.00  0.00    -0.550 OA
ATOM      6  O   UNL     1      21.666 -14.870   9.125  1.00  0.00    -0.550 OA
ENDBRANCH   3   4
ENDBRANCH   2   3
ENDBRANCH   1   2
BRANCH   1   7
ATOM      7  C   UNL     1      21.745 -15.865   3.045  1.00  0.00     0.000 C 
BRANCH   7   8
ATOM      8  C   UNL     1      21.822 -14.347   2.817  1.00  0.00    -0.000 C 
BRANCH   8   9
ATOM      9  C   UNL     1      21.682 -13.963   1.334  1.00  0.00    -0.000 C 
BRANCH   9  10
ATOM     10  C   UNL     1      22.771 -12.982   0.875  1.00  0.00    -0.003 C 
ATOM     11  C   UNL     1      23.733 -12.600   2.000  1.00  0.00     0.004 C 
ENDBRANCH   9  10
ENDBRANCH   8   9
ENDBRANCH   7   8
ENDBRANCH   1   7
TORSDOF 7
ENDMDL
MODEL 4
REMARK VINA RESULT:    -3.645      1.028      2.105
REMARK INTER + INTRA:          -5.425
REMARK INTER:                  -4.990
REMARK INTRA:                  -0.435
REMARK UNBOUND:                -0.288
REMARK SMILES CCCCCCCCC(=O)[O-]
REMARK SMILES IDX 6 1 7 2 8 3 9 4 10 5 11 6 5 7 4 8 3 9 2 10 1 11
REMARK H PARENT
REMARK Flexibility Score: inf
ROOT
ATOM      1  C   UNL     1      21.467 -15.913   4.791  1.00  0.00     0.000 C 
ENDROOT
BRANCH   1   2
ATOM      2  C   UNL     1      21.062 -15.569   6.229  1.00  0.00     0.006 C 
BRANCH   2   3
ATOM      3  C   UNL     1      21.739 -14.277   6.697  1.00  0.00     0.053 C 
BRANCH   3   4
ATOM      4  C   UNL     1      21.530 -14.078   8.166  1.00  0.00     0.041 C 
ATOM      5  O   UNL     1      21.233 -12.940   8.615  1.00  0.00    -0.550 OA
ATOM      6  O   UNL     1      21.711 -15.139   9.044  1.00  0.00    -0.550 OA
ENDBRANCH   3   4
ENDBRANCH   2   3
ENDBRANCH   1   2
BRANCH   1   7
ATOM      7  C   UNL     1      22.186 -14.731   4.124  1.00  0.00     0.000 C 
BRANCH   7   8
ATOM      8  C   UNL     1      21.799 -14.563   2.646  1.00  0.00    -0.000 C 
BRANCH   8   9
ATOM      9  C   UNL     1      21.350 -15.884   1.997  1.00  0.00    -0.000 C 
BRANCH   9  10
ATOM     10  C   UNL     1      22.480 -16.569   1.215  1.00  0.00    -0.003 C 
ATOM     11  C   UNL     1      23.107 -17.734   1.981  1.00  0.00     0.004 C 
ENDBRANCH   9  10
ENDBRANCH   8   9
ENDBRANCH   7   8
ENDBRANCH   1   7
TORSDOF 7
ENDMDL
MODEL 5
REMARK VINA RESULT:    -3.605     13.293     15.426
REMARK INTER + INTRA:          -5.369
REMARK INTER:                  -4.889
REMARK INTRA:                  -0.480
REMARK UNBOUND:                -0.288
REMARK SMILES CCCCCCCCC(=O)[O-]
REMARK SMILES IDX 6 1 7 2 8 3 9 4 10 5 11 6 5 7 4 8 3 9 2 10 1 11
REMARK H PARENT
REMARK Flexibility Score: inf
ROOT
ATOM      1  C   UNL     1      24.945   0.291  10.233  1.00  0.00     0.000 C 
ENDROOT
BRANCH   1   2
ATOM      2  C   UNL     1      23.703  -0.509   9.822  1.00  0.00     0.006 C 
BRANCH   2   3
ATOM      3  C   UNL     1      23.584  -1.798  10.641  1.00  0.00     0.053 C 
BRANCH   3   4
ATOM      4  C   UNL     1      23.501  -2.987   9.736  1.00  0.00     0.041 C 
ATOM      5  O   UNL     1      22.561  -3.815   9.863  1.00  0.00    -0.550 OA
ATOM      6  O   UNL     1      24.489  -3.208   8.785  1.00  0.00    -0.550 OA
ENDBRANCH   3   4
ENDBRANCH   2   3
ENDBRANCH   1   2
BRANCH   1   7
ATOM      7  C   UNL     1      25.606  -0.320  11.477  1.00  0.00     0.000 C 
BRANCH   7   8
ATOM      8  C   UNL     1      27.108  -0.582  11.279  1.00  0.00    -0.000 C 
BRANCH   8   9
ATOM      9  C   UNL     1      27.405  -2.036  10.869  1.00  0.00    -0.000 C 
BRANCH   9  10
ATOM     10  C   UNL     1      28.561  -2.649  11.673  1.00  0.00    -0.003 C 
ATOM     11  C   UNL     1      29.436  -1.592  12.349  1.00  0.00     0.004 C 
ENDBRANCH   9  10
ENDBRANCH   8   9
ENDBRANCH   7   8
ENDBRANCH   1   7
TORSDOF 7
ENDMDL
MODEL 6
REMARK VINA RESULT:    -3.580      3.002      5.287
REMARK INTER + INTRA:          -5.333
REMARK INTER:                  -4.901
REMARK INTRA:                  -0.432
REMARK UNBOUND:                -0.288
REMARK SMILES CCCCCCCCC(=O)[O-]
REMARK SMILES IDX 6 1 7 2 8 3 9 4 10 5 11 6 5 7 4 8 3 9 2 10 1 11
REMARK H PARENT
REMARK Flexibility Score: inf
ROOT
ATOM      1  C   UNL     1      21.581 -15.506   1.724  1.00  0.00     0.000 C 
ENDROOT
BRANCH   1   2
ATOM      2  C   UNL     1      21.659 -13.984   1.886  1.00  0.00     0.006 C 
BRANCH   2   3
ATOM      3  C   UNL     1      22.818 -13.403   1.071  1.00  0.00     0.053 C 
BRANCH   3   4
ATOM      4  C   UNL     1      23.705 -12.569   1.943  1.00  0.00     0.041 C 
ATOM      5  O   UNL     1      23.960 -11.377   1.630  1.00  0.00    -0.550 OA
ATOM      6  O   UNL     1      24.288 -13.124   3.074  1.00  0.00    -0.550 OA
ENDBRANCH   3   4
ENDBRANCH   2   3
ENDBRANCH   1   2
BRANCH   1   7
ATOM      7  C   UNL     1      22.071 -16.220   2.992  1.00  0.00     0.000 C 
BRANCH   7   8
ATOM      8  C   UNL     1      21.831 -15.394   4.266  1.00  0.00    -0.000 C 
BRANCH   8   9
ATOM      9  C   UNL     1      21.090 -16.188   5.356  1.00  0.00    -0.000 C 
BRANCH   9  10
ATOM     10  C   UNL     1      21.008 -15.425   6.686  1.00  0.00    -0.003 C 
ATOM     11  C   UNL     1      21.769 -14.099   6.654  1.00  0.00     0.004 C 
ENDBRANCH   9  10
ENDBRANCH   8   9
ENDBRANCH   7   8
ENDBRANCH   1   7
TORSDOF 7
ENDMDL
MODEL 7
REMARK VINA RESULT:    -3.519      3.314      5.409
REMARK INTER + INTRA:          -5.247
REMARK INTER:                  -4.782
REMARK INTRA:                  -0.465
REMARK UNBOUND:                -0.288
REMARK SMILES CCCCCCCCC(=O)[O-]
REMARK SMILES IDX 6 1 7 2 8 3 9 4 10 5 11 6 5 7 4 8 3 9 2 10 1 11
REMARK H PARENT
REMARK Flexibility Score: inf
ROOT
ATOM      1  C   UNL     1      21.761 -13.688   1.513  1.00  0.00     0.000 C 
ENDROOT
BRANCH   1   2
ATOM      2  C   UNL     1      23.009 -12.969   0.987  1.00  0.00     0.006 C 
BRANCH   2   3
ATOM      3  C   UNL     1      24.045 -12.781   2.100  1.00  0.00     0.053 C 
BRANCH   3   4
ATOM      4  C   UNL     1      24.382 -11.331   2.261  1.00  0.00     0.041 C 
ATOM      5  O   UNL     1      24.949 -10.927   3.310  1.00  0.00    -0.550 OA
ATOM      6  O   UNL     1      24.026 -10.420   1.276  1.00  0.00    -0.550 OA
ENDBRANCH   3   4
ENDBRANCH   2   3
ENDBRANCH   1   2
BRANCH   1   7
ATOM      7  C   UNL     1      21.851 -15.200   1.261  1.00  0.00     0.000 C 
BRANCH   7   8
ATOM      8  C   UNL     1      21.420 -16.030   2.481  1.00  0.00    -0.000 C 
BRANCH   8   9
ATOM      9  C   UNL     1      22.447 -15.976   3.626  1.00  0.00    -0.000 C 
BRANCH   9  10
ATOM     10  C   UNL     1      21.900 -15.268   4.874  1.00  0.00    -0.003 C 
ATOM     11  C   UNL     1      20.998 -16.170   5.717  1.00  0.00     0.004 C 
ENDBRANCH   9  10
ENDBRANCH   8   9
ENDBRANCH   7   8
ENDBRANCH   1   7
TORSDOF 7
ENDMDL
MODEL 8
REMARK VINA RESULT:    -3.489      1.502      1.966
REMARK INTER + INTRA:          -5.204
REMARK INTER:                  -4.544
REMARK INTRA:                  -0.660
REMARK UNBOUND:                -0.288
REMARK SMILES CCCCCCCCC(=O)[O-]
REMARK SMILES IDX 6 1 7 2 8 3 9 4 10 5 11 6 5 7 4 8 3 9 2 10 1 11
REMARK H PARENT
REMARK Flexibility Score: inf
ROOT
ATOM      1  C   UNL     1      22.368 -16.303   3.551  1.00  0.00     0.000 C 
ENDROOT
BRANCH   1   2
ATOM      2  C   UNL     1      21.696 -16.019   4.900  1.00  0.00     0.006 C 
BRANCH   2   3
ATOM      3  C   UNL     1      21.802 -14.536   5.266  1.00  0.00     0.053 C 
BRANCH   3   4
ATOM      4  C   UNL     1      22.822 -14.333   6.342  1.00  0.00     0.041 C 
ATOM      5  O   UNL     1      24.046 -14.284   6.053  1.00  0.00    -0.550 OA
ATOM      6  O   UNL     1      22.424 -14.248   7.670  1.00  0.00    -0.550 OA
ENDBRANCH   3   4
ENDBRANCH   2   3
ENDBRANCH   1   2
BRANCH   1   7
ATOM      7  C   UNL     1      21.413 -16.000   2.387  1.00  0.00     0.000 C 
BRANCH   7   8
ATOM      8  C   UNL     1      22.097 -15.229   1.247  1.00  0.00    -0.000 C 
BRANCH   8   9
ATOM      9  C   UNL     1      21.757 -13.728   1.260  1.00  0.00    -0.000 C 
BRANCH   9  10
ATOM     10  C   UNL     1      23.010 -12.841   1.243  1.00  0.00    -0.003 C 
ATOM     11  C   UNL     1      23.786 -12.890   2.560  1.00  0.00     0.004 C 
ENDBRANCH   9  10
ENDBRANCH   8   9
ENDBRANCH   7   8
ENDBRANCH   1   7
TORSDOF 7
ENDMDL
MODEL 9
REMARK VINA RESULT:    -3.470     13.926     15.469
REMARK INTER + INTRA:          -5.178
REMARK INTER:                  -4.825
REMARK INTRA:                  -0.353
REMARK UNBOUND:                -0.288
REMARK SMILES CCCCCCCCC(=O)[O-]
REMARK SMILES IDX 6 1 7 2 8 3 9 4 10 5 11 6 5 7 4 8 3 9 2 10 1 11
REMARK H PARENT
REMARK Flexibility Score: inf
ROOT
ATOM      1  C   UNL     1      25.723  -2.382   9.202  1.00  0.00     0.000 C 
ENDROOT
BRANCH   1   2
ATOM      2  C   UNL     1      24.934  -2.409  10.517  1.00  0.00     0.006 C 
BRANCH   2   3
ATOM      3  C   UNL     1      24.181  -1.093  10.734  1.00  0.00     0.053 C 
BRANCH   3   4
ATOM      4  C   UNL     1      23.024  -0.991   9.790  1.00  0.00     0.041 C 
ATOM      5  O   UNL     1      22.691   0.127   9.317  1.00  0.00    -0.550 OA
ATOM      6  O   UNL     1      22.284  -2.122   9.472  1.00  0.00    -0.550 OA
ENDBRANCH   3   4
ENDBRANCH   2   3
ENDBRANCH   1   2
BRANCH   1   7
ATOM      7  C   UNL     1      27.235  -2.392   9.468  1.00  0.00     0.000 C 
BRANCH   7   8
ATOM      8  C   UNL     1      27.573  -2.362  10.967  1.00  0.00    -0.000 C 
BRANCH   8   9
ATOM      9  C   UNL     1      28.519  -1.207  11.338  1.00  0.00    -0.000 C 
BRANCH   9  10
ATOM     10  C   UNL     1      29.512  -1.593  12.444  1.00  0.00    -0.003 C 
ATOM     11  C   UNL     1      29.949  -3.055  12.361  1.00  0.00     0.004 C 
ENDBRANCH   9  10
ENDBRANCH   8   9
ENDBRANCH   7   8
ENDBRANCH   1   7
TORSDOF 7
ENDMDL
