MODEL 1
REMARK VINA RESULT:    -2.933      0.000      0.000
REMARK INTER + INTRA:          -3.803
REMARK INTER:                  -4.305
REMARK INTRA:                   0.502
REMARK UNBOUND:                 0.502
REMARK SMILES C=C1CC=CC(C)(C)CC=C(C)CCC1
REMARK SMILES IDX 2 1 1 2 15 3 14 4 13 5 11 6 12 7 10 8 3 10 4 11 5 12 6 13
REMARK SMILES IDX 7 14 8 15 9 16
REMARK H PARENT
REMARK Flexibility Score: 60.00
ROOT
ATOM      1  C   UNL     1      13.253   3.894  19.007  1.00  0.00    -0.074 C 
ATOM      2  C   UNL     1      13.116   3.946  20.342  1.00  0.00     0.008 C 
ENDROOT
BRANCH   1   3
ATOM      3  C   UNL     1      12.039   4.143  18.131  1.00  0.00     0.031 C 
BRANCH   3   4
ATOM      4  C   UNL     1      11.803   5.649  17.868  1.00  0.00     0.009 C 
BRANCH   4   5
ATOM      5  C   UNL     1      12.266   6.088  16.463  1.00  0.00     0.030 C 
BRANCH   5   6
ATOM      6  C   UNL     1      13.181   7.297  16.479  1.00  0.00    -0.077 C 
ATOM      7  C   UNL     1      12.566   8.661  16.678  1.00  0.00     0.039 C 
ATOM      8  C   UNL     1      14.532   7.225  16.389  1.00  0.00    -0.027 CG0
ATOM      9  G   UNL     1      15.372   5.987  16.132  1.00  0.00     0.000 G0
ENDBRANCH   5   6
ENDBRANCH   4   5
ENDBRANCH   3   4
ENDBRANCH   1   3
BRANCH   1  10
ATOM     10  C   UNL     1      14.645   3.756  18.419  1.00  0.00     0.057 C 
BRANCH  10  11
ATOM     11  C   UNL     1      15.667   4.688  19.021  1.00  0.00    -0.026 C 
ATOM     12  C   UNL     1      16.524   5.536  18.397  1.00  0.00    -0.024 C 
BRANCH  12  13
ATOM     13  C   UNL     1      16.713   5.821  16.902  1.00  0.00    -0.014 C 
ATOM     14  C   UNL     1      17.564   4.708  16.242  1.00  0.00     0.016 C 
ATOM     15  C   UNL     1      17.521   7.141  16.771  1.00  0.00     0.016 C 
BRANCH  13  16
ATOM     16  C   UNL     1      15.359   5.960  16.133  1.00  0.00     0.038 CG0
ATOM     17  G   UNL     1      14.557   7.223  16.393  1.00  0.00     0.000 G0
ENDBRANCH  13  16
ENDBRANCH  12  13
ENDBRANCH  10  11
ENDBRANCH   1  10
TORSDOF 0
ENDMDL
MODEL 2
REMARK VINA RESULT:    -2.807      1.298      3.890
REMARK INTER + INTRA:          -3.618
REMARK INTER:                  -3.950
REMARK INTRA:                   0.332
REMARK UNBOUND:                 0.502
REMARK SMILES C=C1CC=CC(C)(C)CC=C(C)CCC1
REMARK SMILES IDX 2 1 1 2 15 3 14 4 13 5 11 6 12 7 10 8 3 10 4 11 5 12 6 13
REMARK SMILES IDX 7 14 8 15 9 16
REMARK H PARENT
REMARK Flexibility Score: 60.00
ROOT
ATOM      1  C   UNL     1      14.496   3.434  19.786  1.00  0.00    -0.074 C 
ATOM      2  C   UNL     1      14.862   3.151  21.046  1.00  0.00     0.008 C 
ENDROOT
BRANCH   1   3
ATOM      3  C   UNL     1      15.381   2.976  18.641  1.00  0.00     0.031 C 
BRANCH   3   4
ATOM      4  C   UNL     1      16.868   3.343  18.863  1.00  0.00     0.009 C 
BRANCH   4   5
ATOM      5  C   UNL     1      17.117   4.866  18.835  1.00  0.00     0.030 C 
BRANCH   5   6
ATOM      6  C   UNL     1      16.903   5.488  17.469  1.00  0.00    -0.077 C 
ATOM      7  C   UNL     1      17.910   5.202  16.383  1.00  0.00     0.039 C 
ATOM      8  C   UNL     1      15.823   6.240  17.141  1.00  0.00    -0.027 CG0
ATOM      9  G   UNL     1      14.712   6.706  18.065  1.00  0.00     0.000 G0
ENDBRANCH   5   6
ENDBRANCH   4   5
ENDBRANCH   3   4
ENDBRANCH   1   3
BRANCH   1  10
ATOM     10  C   UNL     1      13.132   4.052  19.541  1.00  0.00     0.057 C 
BRANCH  10  11
ATOM     11  C   UNL     1      12.749   4.150  18.085  1.00  0.00    -0.026 C 
ATOM     12  C   UNL     1      12.798   5.225  17.258  1.00  0.00    -0.024 C 
BRANCH  12  13
ATOM     13  C   UNL     1      13.267   6.659  17.534  1.00  0.00    -0.014 C 
ATOM     14  C   UNL     1      12.316   7.353  18.541  1.00  0.00     0.016 C 
ATOM     15  C   UNL     1      13.168   7.452  16.203  1.00  0.00     0.016 C 
BRANCH  13  16
ATOM     16  C   UNL     1      14.732   6.727  18.074  1.00  0.00     0.038 CG0
ATOM     17  G   UNL     1      15.824   6.235  17.142  1.00  0.00     0.000 G0
ENDBRANCH  13  16
ENDBRANCH  12  13
ENDBRANCH  10  11
ENDBRANCH   1  10
TORSDOF 0
ENDMDL
MODEL 3
REMARK VINA RESULT:    -2.785      1.951      3.792
REMARK INTER + INTRA:          -3.586
REMARK INTER:                  -3.869
REMARK INTRA:                   0.283
REMARK UNBOUND:                 0.502
REMARK SMILES C=C1CC=CC(C)(C)CC=C(C)CCC1
REMARK SMILES IDX 2 1 1 2 15 3 14 4 13 5 11 6 12 7 10 8 3 10 4 11 5 12 6 13
REMARK SMILES IDX 7 14 8 15 9 16
REMARK H PARENT
REMARK Flexibility Score: 60.00
ROOT
ATOM      1  C   UNL     1      15.178   3.375  18.309  1.00  0.00    -0.074 C 
ATOM      2  C   UNL     1      16.500   3.529  18.130  1.00  0.00     0.008 C 
ENDROOT
BRANCH   1   3
ATOM      3  C   UNL     1      14.659   3.026  19.692  1.00  0.00     0.031 C 
BRANCH   3   4
ATOM      4  C   UNL     1      15.142   4.024  20.771  1.00  0.00     0.009 C 
BRANCH   4   5
ATOM      5  C   UNL     1      14.363   5.355  20.743  1.00  0.00     0.030 C 
BRANCH   5   6
ATOM      6  C   UNL     1      15.087   6.464  20.004  1.00  0.00    -0.077 C 
ATOM      7  C   UNL     1      16.427   6.919  20.525  1.00  0.00     0.039 C 
ATOM      8  C   UNL     1      14.632   7.032  18.860  1.00  0.00    -0.027 CG0
ATOM      9  G   UNL     1      13.299   6.784  18.176  1.00  0.00     0.000 G0
ENDBRANCH   5   6
ENDBRANCH   4   5
ENDBRANCH   3   4
ENDBRANCH   1   3
BRANCH   1  10
ATOM     10  C   UNL     1      14.239   3.719  17.168  1.00  0.00     0.057 C 
BRANCH  10  11
ATOM     11  C   UNL     1      14.793   4.729  16.194  1.00  0.00    -0.026 C 
ATOM     12  C   UNL     1      14.389   6.004  15.962  1.00  0.00    -0.024 C 
BRANCH  12  13
ATOM     13  C   UNL     1      13.266   6.816  16.618  1.00  0.00    -0.014 C 
ATOM     14  C   UNL     1      11.883   6.318  16.131  1.00  0.00     0.016 C 
ATOM     15  C   UNL     1      13.407   8.288  16.141  1.00  0.00     0.016 C 
BRANCH  13  16
ATOM     16  C   UNL     1      13.313   6.768  18.180  1.00  0.00     0.038 CG0
ATOM     17  G   UNL     1      14.656   7.049  18.829  1.00  0.00     0.000 G0
ENDBRANCH  13  16
ENDBRANCH  12  13
ENDBRANCH  10  11
ENDBRANCH   1  10
TORSDOF 0
ENDMDL
MODEL 4
REMARK VINA RESULT:    -2.724      2.092      2.826
REMARK INTER + INTRA:          -3.496
REMARK INTER:                  -3.729
REMARK INTRA:                   0.233
REMARK UNBOUND:                 0.502
REMARK SMILES C=C1CC=CC(C)(C)CC=C(C)CCC1
REMARK SMILES IDX 2 1 1 2 15 3 14 4 13 5 11 6 12 7 10 8 3 10 4 11 5 12 6 13
REMARK SMILES IDX 7 14 8 15 9 16
REMARK H PARENT
REMARK Flexibility Score: 60.00
ROOT
ATOM      1  C   UNL     1      12.500   6.789  21.177  1.00  0.00    -0.074 C 
ATOM      2  C   UNL     1      11.987   6.682  22.413  1.00  0.00     0.008 C 
ENDROOT
BRANCH   1   3
ATOM      3  C   UNL     1      12.421   8.125  20.459  1.00  0.00     0.031 C 
BRANCH   3   4
ATOM      4  C   UNL     1      11.124   8.271  19.629  1.00  0.00     0.009 C 
BRANCH   4   5
ATOM      5  C   UNL     1      11.096   7.341  18.398  1.00  0.00     0.030 C 
BRANCH   5   6
ATOM      6  C   UNL     1      12.123   7.702  17.344  1.00  0.00    -0.077 C 
ATOM      7  C   UNL     1      12.204   9.135  16.880  1.00  0.00     0.039 C 
ATOM      8  C   UNL     1      13.023   6.825  16.833  1.00  0.00    -0.027 CG0
ATOM      9  G   UNL     1      13.107   5.333  17.099  1.00  0.00     0.000 G0
ENDBRANCH   5   6
ENDBRANCH   4   5
ENDBRANCH   3   4
ENDBRANCH   1   3
BRANCH   1  10
ATOM     10  C   UNL     1      13.286   5.623  20.607  1.00  0.00     0.057 C 
BRANCH  10  11
ATOM     11  C   UNL     1      14.589   6.015  19.955  1.00  0.00    -0.026 C 
ATOM     12  C   UNL     1      15.079   5.659  18.741  1.00  0.00    -0.024 C 
BRANCH  12  13
ATOM     13  C   UNL     1      14.465   4.768  17.653  1.00  0.00    -0.014 C 
ATOM     14  C   UNL     1      14.250   3.331  18.190  1.00  0.00     0.016 C 
ATOM     15  C   UNL     1      15.491   4.666  16.492  1.00  0.00     0.016 C 
BRANCH  13  16
ATOM     16  C   UNL     1      13.110   5.323  17.106  1.00  0.00     0.038 CG0
ATOM     17  G   UNL     1      13.036   6.821  16.869  1.00  0.00     0.000 G0
ENDBRANCH  13  16
ENDBRANCH  12  13
ENDBRANCH  10  11
ENDBRANCH   1  10
TORSDOF 0
ENDMDL
MODEL 5
REMARK VINA RESULT:    -2.719      2.640      4.401
REMARK INTER + INTRA:          -3.488
REMARK INTER:                  -3.943
REMARK INTRA:                   0.455
REMARK UNBOUND:                 0.502
REMARK SMILES C=C1CC=CC(C)(C)CC=C(C)CCC1
REMARK SMILES IDX 2 1 1 2 15 3 14 4 13 5 11 6 12 7 10 8 3 10 4 11 5 12 6 13
REMARK SMILES IDX 7 14 8 15 9 16
REMARK H PARENT
REMARK Flexibility Score: 60.00
ROOT
ATOM      1  C   UNL     1      11.782   7.412  20.710  1.00  0.00    -0.074 C 
ATOM      2  C   UNL     1      11.222   8.468  21.322  1.00  0.00     0.008 C 
ENDROOT
BRANCH   1   3
ATOM      3  C   UNL     1      12.150   7.520  19.242  1.00  0.00     0.031 C 
BRANCH   3   4
ATOM      4  C   UNL     1      11.029   6.995  18.314  1.00  0.00     0.009 C 
BRANCH   4   5
ATOM      5  C   UNL     1      11.207   5.506  17.948  1.00  0.00     0.030 C 
BRANCH   5   6
ATOM      6  C   UNL     1      12.644   5.124  17.653  1.00  0.00    -0.077 C 
ATOM      7  C   UNL     1      13.319   5.736  16.451  1.00  0.00     0.039 C 
ATOM      8  C   UNL     1      13.386   4.309  18.443  1.00  0.00    -0.027 CG0
ATOM      9  G   UNL     1      12.920   3.536  19.664  1.00  0.00     0.000 G0
ENDBRANCH   5   6
ENDBRANCH   4   5
ENDBRANCH   3   4
ENDBRANCH   1   3
BRANCH   1  10
ATOM     10  C   UNL     1      12.180   6.209  21.545  1.00  0.00     0.057 C 
BRANCH  10  11
ATOM     11  C   UNL     1      13.668   5.972  21.619  1.00  0.00    -0.026 C 
ATOM     12  C   UNL     1      14.368   4.838  21.358  1.00  0.00    -0.024 C 
BRANCH  12  13
ATOM     13  C   UNL     1      13.874   3.461  20.898  1.00  0.00    -0.014 C 
ATOM     14  C   UNL     1      13.175   2.720  22.064  1.00  0.00     0.016 C 
ATOM     15  C   UNL     1      15.120   2.618  20.513  1.00  0.00     0.016 C 
BRANCH  13  16
ATOM     16  C   UNL     1      12.900   3.539  19.678  1.00  0.00     0.038 CG0
ATOM     17  G   UNL     1      13.402   4.287  18.455  1.00  0.00     0.000 G0
ENDBRANCH  13  16
ENDBRANCH  12  13
ENDBRANCH  10  11
ENDBRANCH   1  10
TORSDOF 0
ENDMDL
MODEL 6
REMARK VINA RESULT:    -2.688      2.166      4.962
REMARK INTER + INTRA:          -3.443
REMARK INTER:                  -3.610
REMARK INTRA:                   0.167
REMARK UNBOUND:                 0.502
REMARK SMILES C=C1CC=CC(C)(C)CC=C(C)CCC1
REMARK SMILES IDX 2 1 1 2 15 3 14 4 13 5 11 6 12 7 10 8 3 10 4 11 5 12 6 13
REMARK SMILES IDX 7 14 8 15 9 16
REMARK H PARENT
REMARK Flexibility Score: 60.00
ROOT
ATOM      1  C   UNL     1      16.269   3.711  18.220  1.00  0.00    -0.074 C 
ATOM      2  C   UNL     1      17.591   3.948  18.237  1.00  0.00     0.008 C 
ENDROOT
BRANCH   1   3
ATOM      3  C   UNL     1      15.694   2.679  19.174  1.00  0.00     0.031 C 
BRANCH   3   4
ATOM      4  C   UNL     1      16.014   3.002  20.652  1.00  0.00     0.009 C 
BRANCH   4   5
ATOM      5  C   UNL     1      15.214   4.208  21.186  1.00  0.00     0.030 C 
BRANCH   5   6
ATOM      6  C   UNL     1      13.716   3.973  21.222  1.00  0.00    -0.077 C 
ATOM      7  C   UNL     1      13.190   2.817  22.035  1.00  0.00     0.039 C 
ATOM      8  C   UNL     1      12.809   4.778  20.616  1.00  0.00    -0.027 CG0
ATOM      9  G   UNL     1      13.092   5.960  19.705  1.00  0.00     0.000 G0
ENDBRANCH   5   6
ENDBRANCH   4   5
ENDBRANCH   3   4
ENDBRANCH   1   3
BRANCH   1  10
ATOM     10  C   UNL     1      15.377   4.598  17.372  1.00  0.00     0.057 C 
BRANCH  10  11
ATOM     11  C   UNL     1      13.983   4.059  17.168  1.00  0.00    -0.026 C 
ATOM     12  C   UNL     1      12.794   4.599  17.539  1.00  0.00    -0.024 C 
BRANCH  12  13
ATOM     13  C   UNL     1      12.494   5.919  18.261  1.00  0.00    -0.014 C 
ATOM     14  C   UNL     1      10.967   6.170  18.316  1.00  0.00     0.016 C 
ATOM     15  C   UNL     1      13.108   7.069  17.416  1.00  0.00     0.016 C 
BRANCH  13  16
ATOM     16  C   UNL     1      13.079   5.967  19.709  1.00  0.00     0.038 CG0
ATOM     17  G   UNL     1      12.794   4.769  20.597  1.00  0.00     0.000 G0
ENDBRANCH  13  16
ENDBRANCH  12  13
ENDBRANCH  10  11
ENDBRANCH   1  10
TORSDOF 0
ENDMDL
MODEL 7
REMARK VINA RESULT:    -2.559      2.396      4.484
REMARK INTER + INTRA:          -3.254
REMARK INTER:                  -3.564
REMARK INTRA:                   0.310
REMARK UNBOUND:                 0.502
REMARK SMILES C=C1CC=CC(C)(C)CC=C(C)CCC1
REMARK SMILES IDX 2 1 1 2 15 3 14 4 13 5 11 6 12 7 10 8 3 10 4 11 5 12 6 13
REMARK SMILES IDX 7 14 8 15 9 16
REMARK H PARENT
REMARK Flexibility Score: 60.00
ROOT
ATOM      1  C   UNL     1      13.674   5.599  21.660  1.00  0.00    -0.074 C 
ATOM      2  C   UNL     1      13.337   5.443  22.951  1.00  0.00     0.008 C 
ENDROOT
BRANCH   1   3
ATOM      3  C   UNL     1      14.934   4.930  21.142  1.00  0.00     0.031 C 
BRANCH   3   4
ATOM      4  C   UNL     1      14.871   3.388  21.255  1.00  0.00     0.009 C 
BRANCH   4   5
ATOM      5  C   UNL     1      14.249   2.724  20.009  1.00  0.00     0.030 C 
BRANCH   5   6
ATOM      6  C   UNL     1      14.841   3.217  18.703  1.00  0.00    -0.077 C 
ATOM      7  C   UNL     1      16.258   2.829  18.364  1.00  0.00     0.039 C 
ATOM      8  C   UNL     1      14.151   3.938  17.784  1.00  0.00    -0.027 CG0
ATOM      9  G   UNL     1      12.743   4.491  17.917  1.00  0.00     0.000 G0
ENDBRANCH   5   6
ENDBRANCH   4   5
ENDBRANCH   3   4
ENDBRANCH   1   3
BRANCH   1  10
ATOM     10  C   UNL     1      12.701   6.296  20.728  1.00  0.00     0.057 C 
BRANCH  10  11
ATOM     11  C   UNL     1      13.358   7.120  19.650  1.00  0.00    -0.026 C 
ATOM     12  C   UNL     1      13.285   6.981  18.301  1.00  0.00    -0.024 C 
BRANCH  12  13
ATOM     13  C   UNL     1      12.507   5.963  17.458  1.00  0.00    -0.014 C 
ATOM     14  C   UNL     1      12.880   6.104  15.961  1.00  0.00     0.016 C 
ATOM     15  C   UNL     1      10.997   6.305  17.579  1.00  0.00     0.016 C 
BRANCH  13  16
ATOM     16  C   UNL     1      12.746   4.487  17.913  1.00  0.00     0.038 CG0
ATOM     17  G   UNL     1      14.158   3.949  17.763  1.00  0.00     0.000 G0
ENDBRANCH  13  16
ENDBRANCH  12  13
ENDBRANCH  10  11
ENDBRANCH   1  10
TORSDOF 0
ENDMDL
MODEL 8
REMARK VINA RESULT:    -2.452      1.677      4.250
REMARK INTER + INTRA:          -3.096
REMARK INTER:                  -3.363
REMARK INTRA:                   0.267
REMARK UNBOUND:                 0.502
REMARK SMILES C=C1CC=CC(C)(C)CC=C(C)CCC1
REMARK SMILES IDX 2 1 1 2 15 3 14 4 13 5 11 6 12 7 10 8 3 10 4 11 5 12 6 13
REMARK SMILES IDX 7 14 8 15 9 16
REMARK H PARENT
REMARK Flexibility Score: 60.00
ROOT
ATOM      1  C   UNL     1      14.078   5.214  21.000  1.00  0.00    -0.074 C 
ATOM      2  C   UNL     1      14.496   4.973  22.253  1.00  0.00     0.008 C 
ENDROOT
BRANCH   1   3
ATOM      3  C   UNL     1      14.640   4.379  19.863  1.00  0.00     0.031 C 
BRANCH   3   4
ATOM      4  C   UNL     1      15.990   4.926  19.343  1.00  0.00     0.009 C 
BRANCH   4   5
ATOM      5  C   UNL     1      15.849   6.295  18.645  1.00  0.00     0.030 C 
BRANCH   5   6
ATOM      6  C   UNL     1      15.132   6.223  17.311  1.00  0.00    -0.077 C 
ATOM      7  C   UNL     1      15.672   5.294  16.254  1.00  0.00     0.039 C 
ATOM      8  C   UNL     1      13.990   6.899  17.029  1.00  0.00    -0.027 CG0
ATOM      9  G   UNL     1      13.290   7.926  17.901  1.00  0.00     0.000 G0
ENDBRANCH   5   6
ENDBRANCH   4   5
ENDBRANCH   3   4
ENDBRANCH   1   3
BRANCH   1  10
ATOM     10  C   UNL     1      12.938   6.192  20.783  1.00  0.00     0.057 C 
BRANCH  10  11
ATOM     11  C   UNL     1      11.901   5.724  19.794  1.00  0.00    -0.026 C 
ATOM     12  C   UNL     1      11.408   6.364  18.703  1.00  0.00    -0.024 C 
BRANCH  12  13
ATOM     13  C   UNL     1      11.757   7.743  18.130  1.00  0.00    -0.014 C 
ATOM     14  C   UNL     1      11.229   8.864  19.059  1.00  0.00     0.016 C 
ATOM     15  C   UNL     1      11.012   7.894  16.775  1.00  0.00     0.016 C 
BRANCH  13  16
ATOM     16  C   UNL     1      13.292   7.939  17.905  1.00  0.00     0.038 CG0
ATOM     17  G   UNL     1      13.989   6.904  17.041  1.00  0.00     0.000 G0
ENDBRANCH  13  16
ENDBRANCH  12  13
ENDBRANCH  10  11
ENDBRANCH   1  10
TORSDOF 0
ENDMDL
MODEL 9
REMARK VINA RESULT:    -2.438     12.903     15.071
REMARK INTER + INTRA:          -3.076
REMARK INTER:                  -3.456
REMARK INTRA:                   0.380
REMARK UNBOUND:                 0.502
REMARK SMILES C=C1CC=CC(C)(C)CC=C(C)CCC1
REMARK SMILES IDX 2 1 1 2 15 3 14 4 13 5 11 6 12 7 10 8 3 10 4 11 5 12 6 13
REMARK SMILES IDX 7 14 8 15 9 16
REMARK H PARENT
REMARK Flexibility Score: 60.00
ROOT
ATOM      1  C   UNL     1      12.793   3.641  30.713  1.00  0.00    -0.074 C 
ATOM      2  C   UNL     1      13.204   3.220  29.506  1.00  0.00     0.008 C 
ENDROOT
BRANCH   1   3
ATOM      3  C   UNL     1      13.593   3.248  31.942  1.00  0.00     0.031 C 
BRANCH   3   4
ATOM      4  C   UNL     1      15.081   3.656  31.831  1.00  0.00     0.009 C 
BRANCH   4   5
ATOM      5  C   UNL     1      15.361   5.056  32.416  1.00  0.00     0.030 C 
BRANCH   5   6
ATOM      6  C   UNL     1      15.020   6.188  31.465  1.00  0.00    -0.077 C 
ATOM      7  C   UNL     1      15.752   6.267  30.150  1.00  0.00     0.039 C 
ATOM      8  C   UNL     1      14.046   7.103  31.698  1.00  0.00    -0.027 CG0
ATOM      9  G   UNL     1      13.216   7.262  32.959  1.00  0.00     0.000 G0
ENDBRANCH   5   6
ENDBRANCH   4   5
ENDBRANCH   3   4
ENDBRANCH   1   3
BRANCH   1  10
ATOM     10  C   UNL     1      11.646   4.631  30.792  1.00  0.00     0.057 C 
BRANCH  10  11
ATOM     11  C   UNL     1      11.045   4.774  32.168  1.00  0.00    -0.026 C 
ATOM     12  C   UNL     1      11.055   5.847  33.000  1.00  0.00    -0.024 C 
BRANCH  12  13
ATOM     13  C   UNL     1      11.661   7.241  32.800  1.00  0.00    -0.014 C 
ATOM     14  C   UNL     1      11.028   8.252  33.788  1.00  0.00     0.016 C 
ATOM     15  C   UNL     1      11.287   7.718  31.370  1.00  0.00     0.016 C 
BRANCH  13  16
ATOM     16  C   UNL     1      13.214   7.260  32.966  1.00  0.00     0.038 CG0
ATOM     17  G   UNL     1      14.035   7.100  31.699  1.00  0.00     0.000 G0
ENDBRANCH  13  16
ENDBRANCH  12  13
ENDBRANCH  10  11
ENDBRANCH   1  10
TORSDOF 0
ENDMDL
