MODEL 1
REMARK VINA RESULT:    -7.207      0.000      0.000
REMARK INTER + INTRA:          -9.434
REMARK INTER:                  -9.736
REMARK INTRA:                   0.302
REMARK UNBOUND:                 0.302
REMARK SMILES O=c1c(-c2ccc(O)cc2)coc2c([C@H]3O[C@@H](CO)[C@H](O)[C@H](O)[C@@H]3O)c(O)ccc12
REMARK SMILES IDX 3 1 11 2 12 3 13 4 30 5 2 6 1 7 29 8 28 9 26 10 14 11 4 12
REMARK SMILES IDX 5 13 6 14 7 15 10 16 9 17 8 18 15 20 24 21 16 22 22 23 17 24
REMARK SMILES IDX 20 25 25 26 23 28 18 30 19 31 21 33 27 35
REMARK H PARENT 8 19 25 27 23 29 19 32 21 34 27 36
REMARK Flexibility Score: inf
ROOT
ATOM      1  C   UNL     1      25.919  36.192   6.072  1.00  0.00     0.065 A 
ATOM      2  C   UNL     1      25.179  37.242   6.631  1.00  0.00     0.208 A 
ATOM      3  O   UNL     1      23.869  37.331   6.433  1.00  0.00    -0.463 OA
ATOM      4  C   UNL     1      23.176  36.453   5.710  1.00  0.00     0.147 A 
ATOM      5  C   UNL     1      23.845  35.357   5.120  1.00  0.00     0.066 A 
ATOM      6  C   UNL     1      25.233  35.228   5.311  1.00  0.00     0.200 A 
ATOM      7  O   UNL     1      25.856  34.245   4.823  1.00  0.00    -0.288 OA
ATOM      8  C   UNL     1      23.117  34.426   4.369  1.00  0.00     0.020 A 
ATOM      9  C   UNL     1      21.746  34.578   4.208  1.00  0.00     0.047 A 
ATOM     10  C   UNL     1      21.065  35.659   4.783  1.00  0.00     0.125 A 
ATOM     11  C   UNL     1      21.777  36.633   5.538  1.00  0.00     0.069 A 
ENDROOT
BRANCH   1  12
ATOM     12  C   UNL     1      27.385  36.119   6.298  1.00  0.00    -0.011 A 
ATOM     13  C   UNL     1      28.285  36.433   5.265  1.00  0.00     0.013 A 
ATOM     14  C   UNL     1      29.664  36.375   5.489  1.00  0.00     0.047 A 
ATOM     15  C   UNL     1      30.161  36.006   6.743  1.00  0.00     0.115 A 
ATOM     16  C   UNL     1      27.891  35.758   7.560  1.00  0.00     0.013 A 
ATOM     17  C   UNL     1      29.271  35.699   7.779  1.00  0.00     0.047 A 
BRANCH  15  18
ATOM     18  O   UNL     1      31.537  35.949   6.949  1.00  0.00    -0.508 OA
ATOM     19  H   UNL     1      32.008  35.072   7.145  1.00  0.00     0.293 HD
ENDBRANCH  15  18
ENDBRANCH   1  12
BRANCH  11  20
ATOM     20  C   UNL     1      21.149  37.863   6.219  1.00  0.00     0.188 C 
ATOM     21  C   UNL     1      22.026  38.856   7.031  1.00  0.00     0.179 C 
ATOM     22  O   UNL     1      19.916  37.535   6.861  1.00  0.00    -0.362 OA
ATOM     23  C   UNL     1      22.163  38.406   8.501  1.00  0.00     0.177 C 
ATOM     24  C   UNL     1      20.026  37.102   8.213  1.00  0.00     0.176 C 
ATOM     25  C   UNL     1      20.788  38.100   9.107  1.00  0.00     0.177 C 
BRANCH  21  26
ATOM     26  O   UNL     1      21.415  40.125   6.979  1.00  0.00    -0.387 OA
ATOM     27  H   UNL     1      21.361  40.469   7.910  1.00  0.00     0.211 HD
ENDBRANCH  21  26
BRANCH  23  28
ATOM     28  O   UNL     1      22.878  39.345   9.269  1.00  0.00    -0.387 OA
ATOM     29  H   UNL     1      22.703  39.168  10.227  1.00  0.00     0.211 HD
ENDBRANCH  23  28
BRANCH  24  30
ATOM     30  C   UNL     1      20.527  35.649   8.348  1.00  0.00     0.191 C 
BRANCH  30  31
ATOM     31  O   UNL     1      20.617  35.285   9.700  1.00  0.00    -0.394 OA
ATOM     32  H   UNL     1      19.744  35.503  10.115  1.00  0.00     0.210 HD
ENDBRANCH  30  31
ENDBRANCH  24  30
BRANCH  25  33
ATOM     33  O   UNL     1      20.025  39.277   9.224  1.00  0.00    -0.388 OA
ATOM     34  H   UNL     1      20.049  39.736   8.344  1.00  0.00     0.211 HD
ENDBRANCH  25  33
ENDBRANCH  11  20
BRANCH  10  35
ATOM     35  O   UNL     1      19.691  35.740   4.585  1.00  0.00    -0.507 OA
ATOM     36  H   UNL     1      19.283  36.336   3.874  1.00  0.00     0.293 HD
ENDBRANCH  10  35
TORSDOF 9
ENDMDL
MODEL 2
REMARK VINA RESULT:    -6.371      1.982      7.655
REMARK INTER + INTRA:          -8.305
REMARK INTER:                  -9.055
REMARK INTRA:                   0.750
REMARK UNBOUND:                 0.302
REMARK SMILES O=c1c(-c2ccc(O)cc2)coc2c([C@H]3O[C@@H](CO)[C@H](O)[C@H](O)[C@@H]3O)c(O)ccc12
REMARK SMILES IDX 3 1 11 2 12 3 13 4 30 5 2 6 1 7 29 8 28 9 26 10 14 11 4 12
REMARK SMILES IDX 5 13 6 14 7 15 10 16 9 17 8 18 15 20 24 21 16 22 22 23 17 24
REMARK SMILES IDX 20 25 25 26 23 28 18 30 19 31 21 33 27 35
REMARK H PARENT 8 19 25 27 23 29 19 32 21 34 27 36
REMARK Flexibility Score: inf
ROOT
ATOM      1  C   UNL     1      22.142  37.940   7.441  1.00  0.00     0.065 A 
ATOM      2  C   UNL     1      23.282  38.354   8.143  1.00  0.00     0.208 A 
ATOM      3  O   UNL     1      24.494  37.972   7.759  1.00  0.00    -0.463 OA
ATOM      4  C   UNL     1      24.715  37.189   6.705  1.00  0.00     0.147 A 
ATOM      5  C   UNL     1      23.620  36.736   5.934  1.00  0.00     0.066 A 
ATOM      6  C   UNL     1      22.321  37.123   6.310  1.00  0.00     0.200 A 
ATOM      7  O   UNL     1      21.324  36.761   5.626  1.00  0.00    -0.288 OA
ATOM      8  C   UNL     1      23.850  35.922   4.818  1.00  0.00     0.020 A 
ATOM      9  C   UNL     1      25.147  35.566   4.469  1.00  0.00     0.047 A 
ATOM     10  C   UNL     1      26.245  36.002   5.221  1.00  0.00     0.125 A 
ATOM     11  C   UNL     1      26.045  36.816   6.372  1.00  0.00     0.069 A 
ENDROOT
BRANCH   1  12
ATOM     12  C   UNL     1      20.796  38.371   7.896  1.00  0.00    -0.011 A 
ATOM     13  C   UNL     1      19.752  37.440   8.028  1.00  0.00     0.013 A 
ATOM     14  C   UNL     1      18.491  37.850   8.470  1.00  0.00     0.047 A 
ATOM     15  C   UNL     1      18.257  39.192   8.788  1.00  0.00     0.115 A 
ATOM     16  C   UNL     1      20.557  39.717   8.226  1.00  0.00     0.013 A 
ATOM     17  C   UNL     1      19.293  40.125   8.666  1.00  0.00     0.047 A 
BRANCH  15  18
ATOM     18  O   UNL     1      16.994  39.586   9.222  1.00  0.00    -0.508 OA
ATOM     19  H   UNL     1      16.575  39.195  10.060  1.00  0.00     0.293 HD
ENDBRANCH  15  18
ENDBRANCH   1  12
BRANCH  11  20
ATOM     20  C   UNL     1      27.163  37.361   7.280  1.00  0.00     0.188 C 
ATOM     21  C   UNL     1      28.489  37.899   6.673  1.00  0.00     0.179 C 
ATOM     22  O   UNL     1      27.356  36.536   8.429  1.00  0.00    -0.362 OA
ATOM     23  C   UNL     1      29.518  36.764   6.486  1.00  0.00     0.177 C 
ATOM     24  C   UNL     1      28.291  35.473   8.269  1.00  0.00     0.176 C 
ATOM     25  C   UNL     1      29.671  35.950   7.777  1.00  0.00     0.177 C 
BRANCH  21  26
ATOM     26  O   UNL     1      29.010  38.872   7.548  1.00  0.00    -0.387 OA
ATOM     27  H   UNL     1      28.278  39.512   7.754  1.00  0.00     0.211 HD
ENDBRANCH  21  26
BRANCH  23  28
ATOM     28  O   UNL     1      30.754  37.252   6.023  1.00  0.00    -0.387 OA
ATOM     29  H   UNL     1      30.602  37.744   5.177  1.00  0.00     0.211 HD
ENDBRANCH  23  28
BRANCH  24  30
ATOM     30  C   UNL     1      27.727  34.285   7.462  1.00  0.00     0.191 C 
BRANCH  30  31
ATOM     31  O   UNL     1      27.658  33.136   8.265  1.00  0.00    -0.394 OA
ATOM     32  H   UNL     1      26.799  33.182   8.757  1.00  0.00     0.210 HD
ENDBRANCH  30  31
ENDBRANCH  24  30
BRANCH  25  33
ATOM     33  O   UNL     1      30.265  36.731   8.786  1.00  0.00    -0.388 OA
ATOM     34  H   UNL     1      30.327  36.169   9.602  1.00  0.00     0.211 HD
ENDBRANCH  25  33
ENDBRANCH  11  20
BRANCH  10  35
ATOM     35  O   UNL     1      27.513  35.612   4.807  1.00  0.00    -0.507 OA
ATOM     36  H   UNL     1      27.695  34.690   4.427  1.00  0.00     0.293 HD
ENDBRANCH  10  35
TORSDOF 9
ENDMDL
MODEL 3
REMARK VINA RESULT:    -6.314      3.862      5.340
REMARK INTER + INTRA:          -8.228
REMARK INTER:                  -8.346
REMARK INTRA:                   0.118
REMARK UNBOUND:                 0.302
REMARK SMILES O=c1c(-c2ccc(O)cc2)coc2c([C@H]3O[C@@H](CO)[C@H](O)[C@H](O)[C@@H]3O)c(O)ccc12
REMARK SMILES IDX 3 1 11 2 12 3 13 4 30 5 2 6 1 7 29 8 28 9 26 10 14 11 4 12
REMARK SMILES IDX 5 13 6 14 7 15 10 16 9 17 8 18 15 20 24 21 16 22 22 23 17 24
REMARK SMILES IDX 20 25 25 26 23 28 18 30 19 31 21 33 27 35
REMARK H PARENT 8 19 25 27 23 29 19 32 21 34 27 36
REMARK Flexibility Score: inf
ROOT
ATOM      1  C   UNL     1      23.835  32.009   6.978  1.00  0.00     0.065 A 
ATOM      2  C   UNL     1      23.158  33.049   6.328  1.00  0.00     0.208 A 
ATOM      3  O   UNL     1      22.168  33.697   6.930  1.00  0.00    -0.463 OA
ATOM      4  C   UNL     1      21.754  33.418   8.165  1.00  0.00     0.147 A 
ATOM      5  C   UNL     1      22.392  32.389   8.896  1.00  0.00     0.066 A 
ATOM      6  C   UNL     1      23.448  31.683   8.289  1.00  0.00     0.200 A 
ATOM      7  O   UNL     1      24.058  30.779   8.925  1.00  0.00    -0.288 OA
ATOM      8  C   UNL     1      21.968  32.101  10.198  1.00  0.00     0.020 A 
ATOM      9  C   UNL     1      20.928  32.824  10.769  1.00  0.00     0.047 A 
ATOM     10  C   UNL     1      20.281  33.845  10.062  1.00  0.00     0.125 A 
ATOM     11  C   UNL     1      20.677  34.152   8.729  1.00  0.00     0.069 A 
ENDROOT
BRANCH   1  12
ATOM     12  C   UNL     1      24.932  31.292   6.279  1.00  0.00    -0.011 A 
ATOM     13  C   UNL     1      24.751  29.974   5.826  1.00  0.00     0.013 A 
ATOM     14  C   UNL     1      25.784  29.310   5.157  1.00  0.00     0.047 A 
ATOM     15  C   UNL     1      27.006  29.951   4.931  1.00  0.00     0.115 A 
ATOM     16  C   UNL     1      26.160  31.934   6.040  1.00  0.00     0.013 A 
ATOM     17  C   UNL     1      27.191  31.266   5.373  1.00  0.00     0.047 A 
BRANCH  15  18
ATOM     18  O   UNL     1      28.026  29.274   4.268  1.00  0.00    -0.508 OA
ATOM     19  H   UNL     1      29.004  29.478   4.448  1.00  0.00     0.293 HD
ENDBRANCH  15  18
ENDBRANCH   1  12
BRANCH  11  20
ATOM     20  C   UNL     1      20.050  35.248   7.846  1.00  0.00     0.188 C 
ATOM     21  C   UNL     1      19.344  36.476   8.485  1.00  0.00     0.179 C 
ATOM     22  O   UNL     1      19.335  34.690   6.744  1.00  0.00    -0.362 OA
ATOM     23  C   UNL     1      17.855  36.180   8.765  1.00  0.00     0.177 C 
ATOM     24  C   UNL     1      17.964  34.395   6.990  1.00  0.00     0.176 C 
ATOM     25  C   UNL     1      17.171  35.607   7.518  1.00  0.00     0.177 C 
BRANCH  21  26
ATOM     26  O   UNL     1      19.453  37.559   7.591  1.00  0.00    -0.387 OA
ATOM     27  H   UNL     1      20.087  37.292   6.875  1.00  0.00     0.211 HD
ENDBRANCH  21  26
BRANCH  23  28
ATOM     28  O   UNL     1      17.183  37.314   9.258  1.00  0.00    -0.387 OA
ATOM     29  H   UNL     1      17.841  37.900   9.710  1.00  0.00     0.211 HD
ENDBRANCH  23  28
BRANCH  24  30
ATOM     30  C   UNL     1      17.757  33.113   7.823  1.00  0.00     0.191 C 
BRANCH  30  31
ATOM     31  O   UNL     1      16.907  32.223   7.149  1.00  0.00    -0.394 OA
ATOM     32  H   UNL     1      16.122  32.076   7.734  1.00  0.00     0.210 HD
ENDBRANCH  30  31
ENDBRANCH  24  30
BRANCH  25  33
ATOM     33  O   UNL     1      17.098  36.578   6.503  1.00  0.00    -0.388 OA
ATOM     34  H   UNL     1      17.269  36.119   5.639  1.00  0.00     0.211 HD
ENDBRANCH  25  33
ENDBRANCH  11  20
BRANCH  10  35
ATOM     35  O   UNL     1      19.255  34.530  10.702  1.00  0.00    -0.507 OA
ATOM     36  H   UNL     1      18.283  34.406  10.447  1.00  0.00     0.293 HD
ENDBRANCH  10  35
TORSDOF 9
ENDMDL
MODEL 4
REMARK VINA RESULT:    -6.287      3.000      7.761
REMARK INTER + INTRA:          -8.191
REMARK INTER:                  -8.399
REMARK INTRA:                   0.207
REMARK UNBOUND:                 0.302
REMARK SMILES O=c1c(-c2ccc(O)cc2)coc2c([C@H]3O[C@@H](CO)[C@H](O)[C@H](O)[C@@H]3O)c(O)ccc12
REMARK SMILES IDX 3 1 11 2 12 3 13 4 30 5 2 6 1 7 29 8 28 9 26 10 14 11 4 12
REMARK SMILES IDX 5 13 6 14 7 15 10 16 9 17 8 18 15 20 24 21 16 22 22 23 17 24
REMARK SMILES IDX 20 25 25 26 23 28 18 30 19 31 21 33 27 35
REMARK H PARENT 8 19 25 27 23 29 19 32 21 34 27 36
REMARK Flexibility Score: inf
ROOT
ATOM      1  C   UNL     1      23.102  35.148   5.074  1.00  0.00     0.065 A 
ATOM      2  C   UNL     1      24.036  36.172   4.866  1.00  0.00     0.208 A 
ATOM      3  O   UNL     1      25.287  36.050   5.292  1.00  0.00    -0.463 OA
ATOM      4  C   UNL     1      25.740  34.973   5.933  1.00  0.00     0.147 A 
ATOM      5  C   UNL     1      24.865  33.888   6.173  1.00  0.00     0.066 A 
ATOM      6  C   UNL     1      23.533  33.983   5.733  1.00  0.00     0.200 A 
ATOM      7  O   UNL     1      22.734  33.021   5.905  1.00  0.00    -0.288 OA
ATOM      8  C   UNL     1      25.342  32.751   6.835  1.00  0.00     0.020 A 
ATOM      9  C   UNL     1      26.666  32.687   7.249  1.00  0.00     0.047 A 
ATOM     10  C   UNL     1      27.548  33.751   7.022  1.00  0.00     0.125 A 
ATOM     11  C   UNL     1      27.092  34.930   6.367  1.00  0.00     0.069 A 
ENDROOT
BRANCH   1  12
ATOM     12  C   UNL     1      21.706  35.313   4.597  1.00  0.00    -0.011 A 
ATOM     13  C   UNL     1      21.219  34.545   3.525  1.00  0.00     0.013 A 
ATOM     14  C   UNL     1      19.899  34.696   3.090  1.00  0.00     0.047 A 
ATOM     15  C   UNL     1      19.049  35.611   3.719  1.00  0.00     0.115 A 
ATOM     16  C   UNL     1      20.843  36.225   5.232  1.00  0.00     0.013 A 
ATOM     17  C   UNL     1      19.524  36.375   4.792  1.00  0.00     0.047 A 
BRANCH  15  18
ATOM     18  O   UNL     1      17.738  35.753   3.271  1.00  0.00    -0.508 OA
ATOM     19  H   UNL     1      16.996  35.142   3.598  1.00  0.00     0.293 HD
ENDBRANCH  15  18
ENDBRANCH   1  12
BRANCH  11  20
ATOM     20  C   UNL     1      27.957  36.166   6.057  1.00  0.00     0.188 C 
ATOM     21  C   UNL     1      29.458  36.012   5.686  1.00  0.00     0.179 C 
ATOM     22  O   UNL     1      27.703  37.229   6.976  1.00  0.00    -0.362 OA
ATOM     23  C   UNL     1      30.347  36.000   6.948  1.00  0.00     0.177 C 
ATOM     24  C   UNL     1      28.503  37.223   8.155  1.00  0.00     0.176 C 
ATOM     25  C   UNL     1      30.015  37.189   7.859  1.00  0.00     0.177 C 
BRANCH  21  26
ATOM     26  O   UNL     1      29.820  37.096   4.862  1.00  0.00    -0.387 OA
ATOM     27  H   UNL     1      30.381  36.737   4.125  1.00  0.00     0.211 HD
ENDBRANCH  21  26
BRANCH  23  28
ATOM     28  O   UNL     1      31.714  35.954   6.622  1.00  0.00    -0.387 OA
ATOM     29  H   UNL     1      32.146  35.251   7.170  1.00  0.00     0.211 HD
ENDBRANCH  23  28
BRANCH  24  30
ATOM     30  C   UNL     1      28.054  36.170   9.189  1.00  0.00     0.191 C 
BRANCH  30  31
ATOM     31  O   UNL     1      29.168  35.626   9.847  1.00  0.00    -0.394 OA
ATOM     32  H   UNL     1      29.954  35.791   9.267  1.00  0.00     0.210 HD
ENDBRANCH  30  31
ENDBRANCH  24  30
BRANCH  25  33
ATOM     33  O   UNL     1      30.384  38.400   7.244  1.00  0.00    -0.388 OA
ATOM     34  H   UNL     1      30.270  38.284   6.264  1.00  0.00     0.211 HD
ENDBRANCH  25  33
ENDBRANCH  11  20
BRANCH  10  35
ATOM     35  O   UNL     1      28.861  33.612   7.458  1.00  0.00    -0.507 OA
ATOM     36  H   UNL     1      29.332  34.336   7.988  1.00  0.00     0.293 HD
ENDBRANCH  10  35
TORSDOF 9
ENDMDL
MODEL 5
REMARK VINA RESULT:    -5.937      3.169      4.772
REMARK INTER + INTRA:          -7.718
REMARK INTER:                  -8.030
REMARK INTRA:                   0.312
REMARK UNBOUND:                 0.302
REMARK SMILES O=c1c(-c2ccc(O)cc2)coc2c([C@H]3O[C@@H](CO)[C@H](O)[C@H](O)[C@@H]3O)c(O)ccc12
REMARK SMILES IDX 3 1 11 2 12 3 13 4 30 5 2 6 1 7 29 8 28 9 26 10 14 11 4 12
REMARK SMILES IDX 5 13 6 14 7 15 10 16 9 17 8 18 15 20 24 21 16 22 22 23 17 24
REMARK SMILES IDX 20 25 25 26 23 28 18 30 19 31 21 33 27 35
REMARK H PARENT 8 19 25 27 23 29 19 32 21 34 27 36
REMARK Flexibility Score: inf
ROOT
ATOM      1  C   UNL     1      23.469  32.540   6.981  1.00  0.00     0.065 A 
ATOM      2  C   UNL     1      22.801  33.524   6.240  1.00  0.00     0.208 A 
ATOM      3  O   UNL     1      21.720  34.124   6.723  1.00  0.00    -0.463 OA
ATOM      4  C   UNL     1      21.201  33.845   7.918  1.00  0.00     0.147 A 
ATOM      5  C   UNL     1      21.820  32.872   8.735  1.00  0.00     0.066 A 
ATOM      6  C   UNL     1      22.970  32.219   8.256  1.00  0.00     0.200 A 
ATOM      7  O   UNL     1      23.565  31.366   8.973  1.00  0.00    -0.288 OA
ATOM      8  C   UNL     1      21.284  32.586   9.996  1.00  0.00     0.020 A 
ATOM      9  C   UNL     1      20.152  33.257  10.443  1.00  0.00     0.047 A 
ATOM     10  C   UNL     1      19.522  34.223   9.647  1.00  0.00     0.125 A 
ATOM     11  C   UNL     1      20.032  34.525   8.353  1.00  0.00     0.069 A 
ENDROOT
BRANCH   1  12
ATOM     12  C   UNL     1      24.670  31.876   6.414  1.00  0.00    -0.011 A 
ATOM     13  C   UNL     1      24.610  30.542   5.975  1.00  0.00     0.013 A 
ATOM     14  C   UNL     1      25.741  29.927   5.430  1.00  0.00     0.047 A 
ATOM     15  C   UNL     1      26.942  30.634   5.314  1.00  0.00     0.115 A 
ATOM     16  C   UNL     1      25.878  32.584   6.286  1.00  0.00     0.013 A 
ATOM     17  C   UNL     1      27.008  31.965   5.743  1.00  0.00     0.047 A 
BRANCH  15  18
ATOM     18  O   UNL     1      28.061  30.006   4.774  1.00  0.00    -0.508 OA
ATOM     19  H   UNL     1      28.301  30.101   3.792  1.00  0.00     0.293 HD
ENDBRANCH  15  18
ENDBRANCH   1  12
BRANCH  11  20
ATOM     20  C   UNL     1      19.435  35.563   7.383  1.00  0.00     0.188 C 
ATOM     21  C   UNL     1      20.111  35.853   6.014  1.00  0.00     0.179 C 
ATOM     22  O   UNL     1      19.011  36.741   8.070  1.00  0.00    -0.362 OA
ATOM     23  C   UNL     1      21.192  36.947   6.146  1.00  0.00     0.177 C 
ATOM     24  C   UNL     1      20.001  37.754   8.216  1.00  0.00     0.176 C 
ATOM     25  C   UNL     1      20.635  38.176   6.876  1.00  0.00     0.177 C 
BRANCH  21  26
ATOM     26  O   UNL     1      19.114  36.277   5.114  1.00  0.00    -0.387 OA
ATOM     27  H   UNL     1      18.770  37.151   5.439  1.00  0.00     0.211 HD
ENDBRANCH  21  26
BRANCH  23  28
ATOM     28  O   UNL     1      21.747  37.284   4.898  1.00  0.00    -0.387 OA
ATOM     29  H   UNL     1      21.453  38.199   4.659  1.00  0.00     0.211 HD
ENDBRANCH  23  28
BRANCH  24  30
ATOM     30  C   UNL     1      21.037  37.439   9.315  1.00  0.00     0.191 C 
BRANCH  30  31
ATOM     31  O   UNL     1      21.066  38.467  10.269  1.00  0.00    -0.394 OA
ATOM     32  H   UNL     1      21.818  38.268  10.884  1.00  0.00     0.210 HD
ENDBRANCH  30  31
ENDBRANCH  24  30
BRANCH  25  33
ATOM     33  O   UNL     1      19.656  38.815   6.093  1.00  0.00    -0.388 OA
ATOM     34  H   UNL     1      20.128  39.398   5.443  1.00  0.00     0.211 HD
ENDBRANCH  25  33
ENDBRANCH  11  20
BRANCH  10  35
ATOM     35  O   UNL     1      18.399  34.858  10.164  1.00  0.00    -0.507 OA
ATOM     36  H   UNL     1      17.585  35.060   9.596  1.00  0.00     0.293 HD
ENDBRANCH  10  35
TORSDOF 9
ENDMDL
MODEL 6
REMARK VINA RESULT:    -5.843      1.496      3.588
REMARK INTER + INTRA:          -7.591
REMARK INTER:                  -7.620
REMARK INTRA:                   0.030
REMARK UNBOUND:                 0.302
REMARK SMILES O=c1c(-c2ccc(O)cc2)coc2c([C@H]3O[C@@H](CO)[C@H](O)[C@H](O)[C@@H]3O)c(O)ccc12
REMARK SMILES IDX 3 1 11 2 12 3 13 4 30 5 2 6 1 7 29 8 28 9 26 10 14 11 4 12
REMARK SMILES IDX 5 13 6 14 7 15 10 16 9 17 8 18 15 20 24 21 16 22 22 23 17 24
REMARK SMILES IDX 20 25 25 26 23 28 18 30 19 31 21 33 27 35
REMARK H PARENT 8 19 25 27 23 29 19 32 21 34 27 36
REMARK Flexibility Score: inf
ROOT
ATOM      1  C   UNL     1      25.995  36.539   6.361  1.00  0.00     0.065 A 
ATOM      2  C   UNL     1      25.189  35.692   5.589  1.00  0.00     0.208 A 
ATOM      3  O   UNL     1      23.876  35.877   5.519  1.00  0.00    -0.463 OA
ATOM      4  C   UNL     1      23.241  36.857   6.159  1.00  0.00     0.147 A 
ATOM      5  C   UNL     1      23.981  37.764   6.952  1.00  0.00     0.066 A 
ATOM      6  C   UNL     1      25.375  37.599   7.046  1.00  0.00     0.200 A 
ATOM      7  O   UNL     1      26.069  38.409   7.721  1.00  0.00    -0.288 OA
ATOM      8  C   UNL     1      23.317  38.802   7.616  1.00  0.00     0.020 A 
ATOM      9  C   UNL     1      21.940  38.941   7.494  1.00  0.00     0.047 A 
ATOM     10  C   UNL     1      21.189  38.052   6.716  1.00  0.00     0.125 A 
ATOM     11  C   UNL     1      21.830  36.975   6.041  1.00  0.00     0.069 A 
ENDROOT
BRANCH   1  12
ATOM     12  C   UNL     1      27.459  36.304   6.431  1.00  0.00    -0.011 A 
ATOM     13  C   UNL     1      28.286  36.603   5.334  1.00  0.00     0.013 A 
ATOM     14  C   UNL     1      29.666  36.392   5.413  1.00  0.00     0.047 A 
ATOM     15  C   UNL     1      30.237  35.885   6.584  1.00  0.00     0.115 A 
ATOM     16  C   UNL     1      28.041  35.804   7.610  1.00  0.00     0.013 A 
ATOM     17  C   UNL     1      29.421  35.592   7.683  1.00  0.00     0.047 A 
BRANCH  15  18
ATOM     18  O   UNL     1      31.613  35.676   6.645  1.00  0.00    -0.508 OA
ATOM     19  H   UNL     1      32.039  35.172   7.415  1.00  0.00     0.293 HD
ENDBRANCH  15  18
ENDBRANCH   1  12
BRANCH  11  20
ATOM     20  C   UNL     1      21.121  35.932   5.157  1.00  0.00     0.188 C 
ATOM     21  C   UNL     1      19.808  36.289   4.406  1.00  0.00     0.179 C 
ATOM     22  O   UNL     1      21.091  34.648   5.779  1.00  0.00    -0.362 OA
ATOM     23  C   UNL     1      18.570  36.031   5.292  1.00  0.00     0.177 C 
ATOM     24  C   UNL     1      19.964  34.399   6.615  1.00  0.00     0.176 C 
ATOM     25  C   UNL     1      18.618  34.622   5.896  1.00  0.00     0.177 C 
BRANCH  21  26
ATOM     26  O   UNL     1      19.735  35.492   3.247  1.00  0.00    -0.387 OA
ATOM     27  H   UNL     1      19.126  35.949   2.608  1.00  0.00     0.211 HD
ENDBRANCH  21  26
BRANCH  23  28
ATOM     28  O   UNL     1      17.372  36.262   4.593  1.00  0.00    -0.387 OA
ATOM     29  H   UNL     1      17.575  36.313   3.625  1.00  0.00     0.211 HD
ENDBRANCH  23  28
BRANCH  24  30
ATOM     30  C   UNL     1      20.054  35.105   7.984  1.00  0.00     0.191 C 
BRANCH  30  31
ATOM     31  O   UNL     1      21.245  34.754   8.637  1.00  0.00    -0.394 OA
ATOM     32  H   UNL     1      21.569  33.918   8.214  1.00  0.00     0.210 HD
ENDBRANCH  30  31
ENDBRANCH  24  30
BRANCH  25  33
ATOM     33  O   UNL     1      18.476  33.647   4.890  1.00  0.00    -0.388 OA
ATOM     34  H   UNL     1      19.055  32.879   5.135  1.00  0.00     0.211 HD
ENDBRANCH  25  33
ENDBRANCH  11  20
BRANCH  10  35
ATOM     35  O   UNL     1      19.816  38.260   6.635  1.00  0.00    -0.507 OA
ATOM     36  H   UNL     1      19.343  38.391   5.749  1.00  0.00     0.293 HD
ENDBRANCH  10  35
TORSDOF 9
ENDMDL
MODEL 7
REMARK VINA RESULT:    -5.778      4.177      7.903
REMARK INTER + INTRA:          -7.503
REMARK INTER:                  -8.118
REMARK INTRA:                   0.615
REMARK UNBOUND:                 0.302
REMARK SMILES O=c1c(-c2ccc(O)cc2)coc2c([C@H]3O[C@@H](CO)[C@H](O)[C@H](O)[C@@H]3O)c(O)ccc12
REMARK SMILES IDX 3 1 11 2 12 3 13 4 30 5 2 6 1 7 29 8 28 9 26 10 14 11 4 12
REMARK SMILES IDX 5 13 6 14 7 15 10 16 9 17 8 18 15 20 24 21 16 22 22 23 17 24
REMARK SMILES IDX 20 25 25 26 23 28 18 30 19 31 21 33 27 35
REMARK H PARENT 8 19 25 27 23 29 19 32 21 34 27 36
REMARK Flexibility Score: inf
ROOT
ATOM      1  C   UNL     1      18.983  31.902   9.216  1.00  0.00     0.065 A 
ATOM      2  C   UNL     1      20.097  32.693   9.525  1.00  0.00     0.208 A 
ATOM      3  O   UNL     1      20.148  33.969   9.163  1.00  0.00    -0.463 OA
ATOM      4  C   UNL     1      19.169  34.580   8.497  1.00  0.00     0.147 A 
ATOM      5  C   UNL     1      18.003  33.857   8.157  1.00  0.00     0.066 A 
ATOM      6  C   UNL     1      17.914  32.502   8.527  1.00  0.00     0.200 A 
ATOM      7  O   UNL     1      16.875  31.836   8.265  1.00  0.00    -0.288 OA
ATOM      8  C   UNL     1      16.968  34.499   7.468  1.00  0.00     0.020 A 
ATOM      9  C   UNL     1      17.084  35.841   7.125  1.00  0.00     0.047 A 
ATOM     10  C   UNL     1      18.232  36.574   7.451  1.00  0.00     0.125 A 
ATOM     11  C   UNL     1      19.311  35.947   8.136  1.00  0.00     0.069 A 
ENDROOT
BRANCH   1  12
ATOM     12  C   UNL     1      18.955  30.474   9.623  1.00  0.00    -0.011 A 
ATOM     13  C   UNL     1      17.747  29.859   9.996  1.00  0.00     0.013 A 
ATOM     14  C   UNL     1      17.726  28.510  10.365  1.00  0.00     0.047 A 
ATOM     15  C   UNL     1      18.905  27.760  10.364  1.00  0.00     0.115 A 
ATOM     16  C   UNL     1      20.136  29.711   9.615  1.00  0.00     0.013 A 
ATOM     17  C   UNL     1      20.111  28.363   9.986  1.00  0.00     0.047 A 
BRANCH  15  18
ATOM     18  O   UNL     1      18.869  26.419  10.738  1.00  0.00    -0.508 OA
ATOM     19  H   UNL     1      19.511  25.740  10.342  1.00  0.00     0.293 HD
ENDBRANCH  15  18
ENDBRANCH   1  12
BRANCH  11  20
ATOM     20  C   UNL     1      20.622  36.639   8.552  1.00  0.00     0.188 C 
ATOM     21  C   UNL     1      20.758  38.186   8.488  1.00  0.00     0.179 C 
ATOM     22  O   UNL     1      21.765  35.945   8.052  1.00  0.00    -0.362 OA
ATOM     23  C   UNL     1      21.234  38.647   7.094  1.00  0.00     0.177 C 
ATOM     24  C   UNL     1      22.207  36.346   6.759  1.00  0.00     0.176 C 
ATOM     25  C   UNL     1      22.476  37.860   6.655  1.00  0.00     0.177 C 
BRANCH  21  26
ATOM     26  O   UNL     1      21.693  38.585   9.464  1.00  0.00    -0.387 OA
ATOM     27  H   UNL     1      21.277  38.438  10.354  1.00  0.00     0.211 HD
ENDBRANCH  21  26
BRANCH  23  28
ATOM     28  O   UNL     1      21.450  40.036   7.050  1.00  0.00    -0.387 OA
ATOM     29  H   UNL     1      20.608  40.479   6.775  1.00  0.00     0.211 HD
ENDBRANCH  23  28
BRANCH  24  30
ATOM     30  C   UNL     1      21.326  35.798   5.617  1.00  0.00     0.191 C 
BRANCH  30  31
ATOM     31  O   UNL     1      21.934  36.033   4.374  1.00  0.00    -0.394 OA
ATOM     32  H   UNL     1      22.799  35.549   4.382  1.00  0.00     0.210 HD
ENDBRANCH  30  31
ENDBRANCH  24  30
BRANCH  25  33
ATOM     33  O   UNL     1      23.578  38.182   7.470  1.00  0.00    -0.388 OA
ATOM     34  H   UNL     1      23.685  39.169   7.451  1.00  0.00     0.211 HD
ENDBRANCH  25  33
ENDBRANCH  11  20
BRANCH  10  35
ATOM     35  O   UNL     1      18.273  37.914   7.082  1.00  0.00    -0.507 OA
ATOM     36  H   UNL     1      18.932  38.264   6.397  1.00  0.00     0.293 HD
ENDBRANCH  10  35
TORSDOF 9
ENDMDL
MODEL 8
REMARK VINA RESULT:    -5.379      5.802      9.854
REMARK INTER + INTRA:          -6.965
REMARK INTER:                  -7.276
REMARK INTRA:                   0.311
REMARK UNBOUND:                 0.302
REMARK SMILES O=c1c(-c2ccc(O)cc2)coc2c([C@H]3O[C@@H](CO)[C@H](O)[C@H](O)[C@@H]3O)c(O)ccc12
REMARK SMILES IDX 3 1 11 2 12 3 13 4 30 5 2 6 1 7 29 8 28 9 26 10 14 11 4 12
REMARK SMILES IDX 5 13 6 14 7 15 10 16 9 17 8 18 15 20 24 21 16 22 22 23 17 24
REMARK SMILES IDX 20 25 25 26 23 28 18 30 19 31 21 33 27 35
REMARK H PARENT 8 19 25 27 23 29 19 32 21 34 27 36
REMARK Flexibility Score: inf
ROOT
ATOM      1  C   UNL     1      18.984  34.324   8.326  1.00  0.00     0.065 A 
ATOM      2  C   UNL     1      18.094  33.260   8.130  1.00  0.00     0.208 A 
ATOM      3  O   UNL     1      18.373  32.046   8.590  1.00  0.00    -0.463 OA
ATOM      4  C   UNL     1      19.488  31.755   9.258  1.00  0.00     0.147 A 
ATOM      5  C   UNL     1      20.434  32.775   9.509  1.00  0.00     0.066 A 
ATOM      6  C   UNL     1      20.171  34.074   9.038  1.00  0.00     0.200 A 
ATOM      7  O   UNL     1      20.981  35.014   9.270  1.00  0.00    -0.288 OA
ATOM      8  C   UNL     1      21.601  32.474  10.221  1.00  0.00     0.020 A 
ATOM      9  C   UNL     1      21.826  31.182  10.680  1.00  0.00     0.047 A 
ATOM     10  C   UNL     1      20.902  30.157  10.439  1.00  0.00     0.125 A 
ATOM     11  C   UNL     1      19.713  30.425   9.704  1.00  0.00     0.069 A 
ENDROOT
BRANCH   1  12
ATOM     12  C   UNL     1      18.656  35.670   7.791  1.00  0.00    -0.011 A 
ATOM     13  C   UNL     1      17.764  36.515   8.476  1.00  0.00     0.013 A 
ATOM     14  C   UNL     1      17.470  37.786   7.974  1.00  0.00     0.047 A 
ATOM     15  C   UNL     1      18.061  38.231   6.787  1.00  0.00     0.115 A 
ATOM     16  C   UNL     1      19.254  36.127   6.604  1.00  0.00     0.013 A 
ATOM     17  C   UNL     1      18.955  37.398   6.103  1.00  0.00     0.047 A 
BRANCH  15  18
ATOM     18  O   UNL     1      17.755  39.498   6.297  1.00  0.00    -0.508 OA
ATOM     19  H   UNL     1      17.660  40.297   6.915  1.00  0.00     0.293 HD
ENDBRANCH  15  18
ENDBRANCH   1  12
BRANCH  11  20
ATOM     20  C   UNL     1      18.620  29.391   9.374  1.00  0.00     0.188 C 
ATOM     21  C   UNL     1      18.219  28.301  10.407  1.00  0.00     0.179 C 
ATOM     22  O   UNL     1      18.753  28.892   8.042  1.00  0.00    -0.362 OA
ATOM     23  C   UNL     1      19.113  27.050  10.273  1.00  0.00     0.177 C 
ATOM     24  C   UNL     1      19.589  27.747   7.899  1.00  0.00     0.176 C 
ATOM     25  C   UNL     1      19.175  26.579   8.815  1.00  0.00     0.177 C 
BRANCH  21  26
ATOM     26  O   UNL     1      16.875  27.951  10.176  1.00  0.00    -0.387 OA
ATOM     27  H   UNL     1      16.873  27.124   9.624  1.00  0.00     0.211 HD
ENDBRANCH  21  26
BRANCH  23  28
ATOM     28  O   UNL     1      18.701  26.021  11.140  1.00  0.00    -0.387 OA
ATOM     29  H   UNL     1      18.031  25.463  10.671  1.00  0.00     0.211 HD
ENDBRANCH  23  28
BRANCH  24  30
ATOM     30  C   UNL     1      21.094  28.080   7.966  1.00  0.00     0.191 C 
BRANCH  30  31
ATOM     31  O   UNL     1      21.751  27.607   6.820  1.00  0.00    -0.394 OA
ATOM     32  H   UNL     1      22.249  28.374   6.438  1.00  0.00     0.210 HD
ENDBRANCH  30  31
ENDBRANCH  24  30
BRANCH  25  33
ATOM     33  O   UNL     1      17.920  26.098   8.397  1.00  0.00    -0.388 OA
ATOM     34  H   UNL     1      17.892  26.161   7.406  1.00  0.00     0.211 HD
ENDBRANCH  25  33
ENDBRANCH  11  20
BRANCH  10  35
ATOM     35  O   UNL     1      21.192  28.892  10.937  1.00  0.00    -0.507 OA
ATOM     36  H   UNL     1      21.963  28.338  10.584  1.00  0.00     0.293 HD
ENDBRANCH  10  35
TORSDOF 9
ENDMDL
MODEL 9
REMARK VINA RESULT:    -5.236      3.181      4.954
REMARK INTER + INTRA:          -6.771
REMARK INTER:                  -7.149
REMARK INTRA:                   0.378
REMARK UNBOUND:                 0.302
REMARK SMILES O=c1c(-c2ccc(O)cc2)coc2c([C@H]3O[C@@H](CO)[C@H](O)[C@H](O)[C@@H]3O)c(O)ccc12
REMARK SMILES IDX 3 1 11 2 12 3 13 4 30 5 2 6 1 7 29 8 28 9 26 10 14 11 4 12
REMARK SMILES IDX 5 13 6 14 7 15 10 16 9 17 8 18 15 20 24 21 16 22 22 23 17 24
REMARK SMILES IDX 20 25 25 26 23 28 18 30 19 31 21 33 27 35
REMARK H PARENT 8 19 25 27 23 29 19 32 21 34 27 36
REMARK Flexibility Score: inf
ROOT
ATOM      1  C   UNL     1      23.981  32.826   6.164  1.00  0.00     0.065 A 
ATOM      2  C   UNL     1      23.065  32.728   7.219  1.00  0.00     0.208 A 
ATOM      3  O   UNL     1      22.312  33.766   7.566  1.00  0.00    -0.463 OA
ATOM      4  C   UNL     1      22.368  34.947   6.954  1.00  0.00     0.147 A 
ATOM      5  C   UNL     1      23.258  35.127   5.871  1.00  0.00     0.066 A 
ATOM      6  C   UNL     1      24.069  34.048   5.474  1.00  0.00     0.200 A 
ATOM      7  O   UNL     1      24.853  34.166   4.492  1.00  0.00    -0.288 OA
ATOM      8  C   UNL     1      23.310  36.364   5.218  1.00  0.00     0.020 A 
ATOM      9  C   UNL     1      22.489  37.407   5.629  1.00  0.00     0.047 A 
ATOM     10  C   UNL     1      21.602  37.249   6.702  1.00  0.00     0.125 A 
ATOM     11  C   UNL     1      21.536  36.009   7.399  1.00  0.00     0.069 A 
ENDROOT
BRANCH   1  12
ATOM     12  C   UNL     1      24.819  31.655   5.802  1.00  0.00    -0.011 A 
ATOM     13  C   UNL     1      24.288  30.354   5.843  1.00  0.00     0.013 A 
ATOM     14  C   UNL     1      25.079  29.257   5.487  1.00  0.00     0.047 A 
ATOM     15  C   UNL     1      26.405  29.444   5.086  1.00  0.00     0.115 A 
ATOM     16  C   UNL     1      26.151  31.836   5.388  1.00  0.00     0.013 A 
ATOM     17  C   UNL     1      26.939  30.737   5.036  1.00  0.00     0.047 A 
BRANCH  15  18
ATOM     18  O   UNL     1      27.182  28.341   4.740  1.00  0.00    -0.508 OA
ATOM     19  H   UNL     1      27.241  28.014   3.781  1.00  0.00     0.293 HD
ENDBRANCH  15  18
ENDBRANCH   1  12
BRANCH  11  20
ATOM     20  C   UNL     1      20.607  35.708   8.589  1.00  0.00     0.188 C 
ATOM     21  C   UNL     1      20.436  34.256   9.116  1.00  0.00     0.179 C 
ATOM     22  O   UNL     1      19.377  36.426   8.491  1.00  0.00    -0.362 OA
ATOM     23  C   UNL     1      19.315  33.514   8.357  1.00  0.00     0.177 C 
ATOM     24  C   UNL     1      18.336  35.764   7.778  1.00  0.00     0.176 C 
ATOM     25  C   UNL     1      18.032  34.355   8.324  1.00  0.00     0.177 C 
BRANCH  21  26
ATOM     26  O   UNL     1      20.117  34.321  10.487  1.00  0.00    -0.387 OA
ATOM     27  H   UNL     1      19.338  34.929  10.583  1.00  0.00     0.211 HD
ENDBRANCH  21  26
BRANCH  23  28
ATOM     28  O   UNL     1      19.088  32.231   8.886  1.00  0.00    -0.387 OA
ATOM     29  H   UNL     1      18.477  31.742   8.278  1.00  0.00     0.211 HD
ENDBRANCH  23  28
BRANCH  24  30
ATOM     30  C   UNL     1      18.527  35.802   6.247  1.00  0.00     0.191 C 
BRANCH  30  31
ATOM     31  O   UNL     1      18.356  37.109   5.766  1.00  0.00    -0.394 OA
ATOM     32  H   UNL     1      18.936  37.696   6.316  1.00  0.00     0.210 HD
ENDBRANCH  30  31
ENDBRANCH  24  30
BRANCH  25  33
ATOM     33  O   UNL     1      17.489  34.478   9.616  1.00  0.00    -0.388 OA
ATOM     34  H   UNL     1      17.192  35.419   9.727  1.00  0.00     0.211 HD
ENDBRANCH  25  33
ENDBRANCH  11  20
BRANCH  10  35
ATOM     35  O   UNL     1      20.806  38.334   7.051  1.00  0.00    -0.507 OA
ATOM     36  H   UNL     1      19.916  38.220   7.522  1.00  0.00     0.293 HD
ENDBRANCH  10  35
TORSDOF 9
ENDMDL
