MODEL 1
REMARK VINA RESULT:    -2.188      0.000      0.000
REMARK INTER + INTRA:          -2.865
REMARK INTER:                  -3.338
REMARK INTRA:                   0.474
REMARK UNBOUND:                 0.474
REMARK SMILES CC1=CCC[C@H](C)C(=O)C[C@@H](C(C)C)C(=O)C1
REMARK SMILES IDX 8 1 9 2 6 3 7 4 5 5 4 6 3 7 2 8 1 9 10 11 11 12 15 13 16 14
REMARK SMILES IDX 17 15 12 17 13 18 14 19
REMARK H PARENT
REMARK Flexibility Score: 70.00
ROOT
ATOM      1  C   UNL     1      14.050  -6.869  12.920  1.00  0.00     0.136 C 
ATOM      2  O   UNL     1      13.052  -7.552  13.106  1.00  0.00    -0.299 OA
ENDROOT
BRANCH   1   3
ATOM      3  C   UNL     1      14.169  -5.510  13.589  1.00  0.00     0.053 C 
ATOM      4  C   UNL     1      13.112  -4.536  13.049  1.00  0.00     0.016 C 
BRANCH   3   5
ATOM      5  C   UNL     1      14.052  -5.658  15.127  1.00  0.00     0.015 C 
BRANCH   5   6
ATOM      6  C   UNL     1      15.296  -5.123  15.862  1.00  0.00     0.028 C 
BRANCH   6   7
ATOM      7  C   UNL     1      16.237  -6.242  16.231  1.00  0.00    -0.028 C 
ATOM      8  C   UNL     1      17.285  -6.647  15.477  1.00  0.00    -0.070 CG0
ATOM      9  C   UNL     1      18.099  -7.818  15.966  1.00  0.00     0.039 C 
ATOM     10  G   UNL     1      17.677  -5.975  14.171  1.00  0.00     0.000 G0
ENDBRANCH   6   7
ENDBRANCH   5   6
ENDBRANCH   3   5
ENDBRANCH   1   3
BRANCH   1  11
ATOM     11  C   UNL     1      15.156  -7.413  12.046  1.00  0.00     0.087 C 
BRANCH  11  12
ATOM     12  C   UNL     1      16.369  -7.896  12.885  1.00  0.00     0.066 C 
BRANCH  12  13
ATOM     13  C   UNL     1      17.472  -6.848  12.968  1.00  0.00     0.140 C 
ATOM     14  O   UNL     1      18.176  -6.663  11.985  1.00  0.00    -0.299 OA
BRANCH  13  15
ATOM     15  C   UNL     1      17.667  -5.961  14.176  1.00  0.00     0.106 CG0
ATOM     16  G   UNL     1      17.280  -6.656  15.471  1.00  0.00     0.000 G0
ENDBRANCH  13  15
ENDBRANCH  12  13
BRANCH  12  17
ATOM     17  C   UNL     1      16.917  -9.304  12.474  1.00  0.00    -0.006 C 
ATOM     18  C   UNL     1      17.931  -9.827  13.507  1.00  0.00     0.008 C 
ATOM     19  C   UNL     1      15.834 -10.372  12.236  1.00  0.00     0.008 C 
ENDBRANCH  12  17
ENDBRANCH  11  12
ENDBRANCH   1  11
TORSDOF 1
ENDMDL
MODEL 2
REMARK VINA RESULT:    -0.942      1.904      3.935
REMARK INTER + INTRA:          -0.963
REMARK INTER:                  -2.828
REMARK INTRA:                   1.865
REMARK UNBOUND:                 0.474
REMARK SMILES CC1=CCC[C@H](C)C(=O)C[C@@H](C(C)C)C(=O)C1
REMARK SMILES IDX 8 1 9 2 6 3 7 4 5 5 4 6 3 7 2 8 1 9 10 11 11 12 15 13 16 14
REMARK SMILES IDX 17 15 12 17 13 18 14 19
REMARK H PARENT
REMARK Flexibility Score: 70.00
ROOT
ATOM      1  C   UNL     1      17.044  -5.926  14.896  1.00  0.00     0.136 C 
ATOM      2  O   UNL     1      17.707  -5.129  14.245  1.00  0.00    -0.299 OA
ENDROOT
BRANCH   1   3
ATOM      3  C   UNL     1      17.593  -6.473  16.202  1.00  0.00     0.053 C 
ATOM      4  C   UNL     1      16.784  -5.953  17.400  1.00  0.00     0.016 C 
BRANCH   3   5
ATOM      5  C   UNL     1      17.604  -8.022  16.171  1.00  0.00     0.015 C 
BRANCH   5   6
ATOM      6  C   UNL     1      18.641  -8.579  15.177  1.00  0.00     0.028 C 
BRANCH   6   7
ATOM      7  C   UNL     1      18.028  -9.615  14.269  1.00  0.00    -0.028 C 
ATOM      8  C   UNL     1      17.755  -9.425  12.958  1.00  0.00    -0.070 CG0
ATOM      9  C   UNL     1      17.092 -10.548  12.202  1.00  0.00     0.039 C 
ATOM     10  G   UNL     1      18.090  -8.140  12.218  1.00  0.00     0.000 G0
ENDBRANCH   6   7
ENDBRANCH   5   6
ENDBRANCH   3   5
ENDBRANCH   1   3
BRANCH   1  11
ATOM     11  C   UNL     1      15.675  -6.321  14.392  1.00  0.00     0.087 C 
BRANCH  11  12
ATOM     12  C   UNL     1      15.763  -7.272  13.169  1.00  0.00     0.066 C 
BRANCH  12  13
ATOM     13  C   UNL     1      17.039  -7.065  12.362  1.00  0.00     0.140 C 
ATOM     14  O   UNL     1      17.253  -5.960  11.882  1.00  0.00    -0.299 OA
BRANCH  13  15
ATOM     15  C   UNL     1      18.096  -8.136  12.214  1.00  0.00     0.106 CG0
ATOM     16  G   UNL     1      17.735  -9.409  12.962  1.00  0.00     0.000 G0
ENDBRANCH  13  15
ENDBRANCH  12  13
BRANCH  12  17
ATOM     17  C   UNL     1      14.484  -7.280  12.266  1.00  0.00    -0.006 C 
ATOM     18  C   UNL     1      13.355  -8.102  12.912  1.00  0.00     0.008 C 
ATOM     19  C   UNL     1      13.949  -5.885  11.894  1.00  0.00     0.008 C 
ENDBRANCH  12  17
ENDBRANCH  11  12
ENDBRANCH   1  11
TORSDOF 1
ENDMDL
