MODEL 1
REMARK VINA RESULT:    -4.345      0.000      0.000
REMARK INTER + INTRA:          -5.835
REMARK INTER:                  -5.742
REMARK INTRA:                  -0.093
REMARK UNBOUND:                -0.093
REMARK SMILES C=C[C@@H](O)CCCCC
REMARK SMILES IDX 6 1 7 2 8 3 9 4 5 5 3 6 2 7 1 8 4 9
REMARK H PARENT 4 10
REMARK Flexibility Score: inf
ROOT
ATOM      1  C   UNL     1     -35.370  21.842   7.444  1.00  0.00     0.003 C 
ENDROOT
BRANCH   1   2
ATOM      2  C   UNL     1     -35.970  20.669   8.237  1.00  0.00    -0.000 C 
BRANCH   2   3
ATOM      3  C   UNL     1     -37.506  20.701   8.262  1.00  0.00    -0.003 C 
ATOM      4  C   UNL     1     -38.123  19.306   8.360  1.00  0.00     0.004 C 
ENDBRANCH   2   3
ENDBRANCH   1   2
BRANCH   1   5
ATOM      5  C   UNL     1     -36.422  22.638   6.644  1.00  0.00     0.036 C 
BRANCH   5   6
ATOM      6  C   UNL     1     -36.776  22.063   5.255  1.00  0.00     0.136 C 
BRANCH   6   7
ATOM      7  C   UNL     1     -37.931  22.791   4.608  1.00  0.00    -0.004 C 
ATOM      8  C   UNL     1     -37.862  24.092   4.309  1.00  0.00     0.007 C 
ENDBRANCH   6   7
BRANCH   6   9
ATOM      9  O   UNL     1     -35.649  22.106   4.419  1.00  0.00    -0.389 OA
ATOM     10  H   UNL     1     -35.934  21.766   3.531  1.00  0.00     0.211 HD
ENDBRANCH   6   9
ENDBRANCH   5   6
ENDBRANCH   1   5
TORSDOF 6
ENDMDL
MODEL 2
REMARK VINA RESULT:    -4.099      1.424      4.277
REMARK INTER + INTRA:          -5.511
REMARK INTER:                  -5.196
REMARK INTRA:                  -0.315
REMARK UNBOUND:                -0.093
REMARK SMILES C=C[C@@H](O)CCCCC
REMARK SMILES IDX 6 1 7 2 8 3 9 4 5 5 3 6 2 7 1 8 4 9
REMARK H PARENT 4 10
REMARK Flexibility Score: inf
ROOT
ATOM      1  C   UNL     1     -36.234  22.103   5.510  1.00  0.00     0.003 C 
ENDROOT
BRANCH   1   2
ATOM      2  C   UNL     1     -37.436  22.580   4.677  1.00  0.00    -0.000 C 
BRANCH   2   3
ATOM      3  C   UNL     1     -38.110  23.823   5.278  1.00  0.00    -0.003 C 
ATOM      4  C   UNL     1     -38.125  25.010   4.314  1.00  0.00     0.004 C 
ENDBRANCH   2   3
ENDBRANCH   1   2
BRANCH   1   5
ATOM      5  C   UNL     1     -36.330  22.495   6.998  1.00  0.00     0.036 C 
BRANCH   5   6
ATOM      6  C   UNL     1     -35.836  21.429   8.000  1.00  0.00     0.136 C 
BRANCH   6   7
ATOM      7  C   UNL     1     -36.654  20.160   7.940  1.00  0.00    -0.004 C 
ATOM      8  C   UNL     1     -37.941  20.137   8.301  1.00  0.00     0.007 C 
ENDBRANCH   6   7
BRANCH   6   9
ATOM      9  O   UNL     1     -34.482  21.142   7.764  1.00  0.00    -0.389 OA
ATOM     10  H   UNL     1     -33.969  21.963   7.985  1.00  0.00     0.211 HD
ENDBRANCH   6   9
ENDBRANCH   5   6
ENDBRANCH   1   5
TORSDOF 6
ENDMDL
MODEL 3
REMARK VINA RESULT:    -4.084      1.176      2.205
REMARK INTER + INTRA:          -5.491
REMARK INTER:                  -4.996
REMARK INTRA:                  -0.495
REMARK UNBOUND:                -0.093
REMARK SMILES C=C[C@@H](O)CCCCC
REMARK SMILES IDX 6 1 7 2 8 3 9 4 5 5 3 6 2 7 1 8 4 9
REMARK H PARENT 4 10
REMARK Flexibility Score: inf
ROOT
ATOM      1  C   UNL     1     -37.540  20.216   7.193  1.00  0.00     0.003 C 
ENDROOT
BRANCH   1   2
ATOM      2  C   UNL     1     -36.342  20.512   8.111  1.00  0.00    -0.000 C 
BRANCH   2   3
ATOM      3  C   UNL     1     -35.804  21.940   7.934  1.00  0.00    -0.003 C 
ATOM      4  C   UNL     1     -34.412  21.972   7.304  1.00  0.00     0.004 C 
ENDBRANCH   2   3
ENDBRANCH   1   2
BRANCH   1   5
ATOM      5  C   UNL     1     -38.105  21.475   6.504  1.00  0.00     0.036 C 
BRANCH   5   6
ATOM      6  C   UNL     1     -37.777  21.614   5.001  1.00  0.00     0.136 C 
BRANCH   6   7
ATOM      7  C   UNL     1     -37.538  23.050   4.594  1.00  0.00    -0.004 C 
ATOM      8  C   UNL     1     -37.850  24.069   5.400  1.00  0.00     0.007 C 
ENDBRANCH   6   7
BRANCH   6   9
ATOM      9  O   UNL     1     -36.658  20.829   4.682  1.00  0.00    -0.389 OA
ATOM     10  H   UNL     1     -36.628  20.756   3.692  1.00  0.00     0.211 HD
ENDBRANCH   6   9
ENDBRANCH   5   6
ENDBRANCH   1   5
TORSDOF 6
ENDMDL
MODEL 4
REMARK VINA RESULT:    -3.265      1.592      2.481
REMARK INTER + INTRA:          -4.408
REMARK INTER:                  -3.979
REMARK INTRA:                  -0.429
REMARK UNBOUND:                -0.093
REMARK SMILES C=C[C@@H](O)CCCCC
REMARK SMILES IDX 6 1 7 2 8 3 9 4 5 5 3 6 2 7 1 8 4 9
REMARK H PARENT 4 10
REMARK Flexibility Score: inf
ROOT
ATOM      1  C   UNL     1     -38.054  21.034   5.313  1.00  0.00     0.003 C 
ENDROOT
BRANCH   1   2
ATOM      2  C   UNL     1     -37.753  20.541   6.738  1.00  0.00    -0.000 C 
BRANCH   2   3
ATOM      3  C   UNL     1     -36.298  20.804   7.156  1.00  0.00    -0.003 C 
ATOM      4  C   UNL     1     -36.036  20.467   8.624  1.00  0.00     0.004 C 
ENDBRANCH   2   3
ENDBRANCH   1   2
BRANCH   1   5
ATOM      5  C   UNL     1     -37.234  22.278   4.913  1.00  0.00     0.036 C 
BRANCH   5   6
ATOM      6  C   UNL     1     -38.044  23.581   4.740  1.00  0.00     0.136 C 
BRANCH   6   7
ATOM      7  C   UNL     1     -38.125  24.382   6.019  1.00  0.00    -0.004 C 
ATOM      8  C   UNL     1     -37.212  24.253   6.987  1.00  0.00     0.007 C 
ENDBRANCH   6   7
BRANCH   6   9
ATOM      9  O   UNL     1     -37.483  24.361   3.717  1.00  0.00    -0.389 OA
ATOM     10  H   UNL     1     -36.721  24.857   4.116  1.00  0.00     0.211 HD
ENDBRANCH   6   9
ENDBRANCH   5   6
ENDBRANCH   1   5
TORSDOF 6
ENDMDL
MODEL 5
REMARK VINA RESULT:    -3.157      2.108      3.990
REMARK INTER + INTRA:          -4.265
REMARK INTER:                  -3.773
REMARK INTRA:                  -0.492
REMARK UNBOUND:                -0.093
REMARK SMILES C=C[C@@H](O)CCCCC
REMARK SMILES IDX 6 1 7 2 8 3 9 4 5 5 3 6 2 7 1 8 4 9
REMARK H PARENT 4 10
REMARK Flexibility Score: inf
ROOT
ATOM      1  C   UNL     1     -38.084  22.199   7.037  1.00  0.00     0.003 C 
ENDROOT
BRANCH   1   2
ATOM      2  C   UNL     1     -38.125  21.077   5.985  1.00  0.00    -0.000 C 
BRANCH   2   3
ATOM      3  C   UNL     1     -37.427  21.474   4.675  1.00  0.00    -0.003 C 
ATOM      4  C   UNL     1     -37.348  22.988   4.484  1.00  0.00     0.004 C 
ENDBRANCH   2   3
ENDBRANCH   1   2
BRANCH   1   5
ATOM      5  C   UNL     1     -37.228  21.847   8.270  1.00  0.00     0.036 C 
BRANCH   5   6
ATOM      6  C   UNL     1     -35.830  21.266   7.965  1.00  0.00     0.136 C 
BRANCH   6   7
ATOM      7  C   UNL     1     -34.837  22.334   7.568  1.00  0.00    -0.004 C 
ATOM      8  C   UNL     1     -33.749  22.046   6.846  1.00  0.00     0.007 C 
ENDBRANCH   6   7
BRANCH   6   9
ATOM      9  O   UNL     1     -35.355  20.555   9.079  1.00  0.00    -0.389 OA
ATOM     10  H   UNL     1     -34.947  19.718   8.736  1.00  0.00     0.211 HD
ENDBRANCH   6   9
ENDBRANCH   5   6
ENDBRANCH   1   5
TORSDOF 6
ENDMDL
MODEL 6
REMARK VINA RESULT:    -3.035      1.395      4.836
REMARK INTER + INTRA:          -4.104
REMARK INTER:                  -3.962
REMARK INTRA:                  -0.142
REMARK UNBOUND:                -0.093
REMARK SMILES C=C[C@@H](O)CCCCC
REMARK SMILES IDX 6 1 7 2 8 3 9 4 5 5 3 6 2 7 1 8 4 9
REMARK H PARENT 4 10
REMARK Flexibility Score: inf
ROOT
ATOM      1  C   UNL     1     -37.580  23.004   4.546  1.00  0.00     0.003 C 
ENDROOT
BRANCH   1   2
ATOM      2  C   UNL     1     -38.082  24.359   5.072  1.00  0.00    -0.000 C 
BRANCH   2   3
ATOM      3  C   UNL     1     -38.120  25.437   3.978  1.00  0.00    -0.003 C 
ATOM      4  C   UNL     1     -37.987  26.852   4.540  1.00  0.00     0.004 C 
ENDBRANCH   2   3
ENDBRANCH   1   2
BRANCH   1   5
ATOM      5  C   UNL     1     -37.497  21.919   5.639  1.00  0.00     0.036 C 
BRANCH   5   6
ATOM      6  C   UNL     1     -36.523  22.217   6.800  1.00  0.00     0.136 C 
BRANCH   6   7
ATOM      7  C   UNL     1     -36.803  21.368   8.019  1.00  0.00    -0.004 C 
ATOM      8  C   UNL     1     -36.798  20.033   7.960  1.00  0.00     0.007 C 
ENDBRANCH   6   7
BRANCH   6   9
ATOM      9  O   UNL     1     -35.199  22.027   6.373  1.00  0.00    -0.389 OA
ATOM     10  H   UNL     1     -35.127  21.087   6.062  1.00  0.00     0.211 HD
ENDBRANCH   6   9
ENDBRANCH   5   6
ENDBRANCH   1   5
TORSDOF 6
ENDMDL
MODEL 7
REMARK VINA RESULT:    -2.580     19.821     21.169
REMARK INTER + INTRA:          -3.502
REMARK INTER:                  -3.074
REMARK INTRA:                  -0.428
REMARK UNBOUND:                -0.093
REMARK SMILES C=C[C@@H](O)CCCCC
REMARK SMILES IDX 6 1 7 2 8 3 9 4 5 5 3 6 2 7 1 8 4 9
REMARK H PARENT 4 10
REMARK Flexibility Score: inf
ROOT
ATOM      1  C   UNL     1     -34.803  33.726  -9.532  1.00  0.00     0.003 C 
ENDROOT
BRANCH   1   2
ATOM      2  C   UNL     1     -34.224  34.013 -10.928  1.00  0.00    -0.000 C 
BRANCH   2   3
ATOM      3  C   UNL     1     -33.860  35.493 -11.121  1.00  0.00    -0.003 C 
ATOM      4  C   UNL     1     -32.360  35.753 -10.991  1.00  0.00     0.004 C 
ENDBRANCH   2   3
ENDBRANCH   1   2
BRANCH   1   5
ATOM      5  C   UNL     1     -35.726  34.849  -9.013  1.00  0.00     0.036 C 
BRANCH   5   6
ATOM      6  C   UNL     1     -37.202  34.451  -8.799  1.00  0.00     0.136 C 
BRANCH   6   7
ATOM      7  C   UNL     1     -38.120  35.060  -9.834  1.00  0.00    -0.004 C 
ATOM      8  C   UNL     1     -37.700  36.018 -10.666  1.00  0.00     0.007 C 
ENDBRANCH   6   7
BRANCH   6   9
ATOM      9  O   UNL     1     -37.325  33.052  -8.807  1.00  0.00    -0.389 OA
ATOM     10  H   UNL     1     -36.715  32.703  -8.106  1.00  0.00     0.211 HD
ENDBRANCH   6   9
ENDBRANCH   5   6
ENDBRANCH   1   5
TORSDOF 6
ENDMDL
MODEL 8
REMARK VINA RESULT:    -2.138     18.245     19.763
REMARK INTER + INTRA:          -2.919
REMARK INTER:                  -2.688
REMARK INTRA:                  -0.231
REMARK UNBOUND:                -0.093
REMARK SMILES C=C[C@@H](O)CCCCC
REMARK SMILES IDX 6 1 7 2 8 3 9 4 5 5 3 6 2 7 1 8 4 9
REMARK H PARENT 4 10
REMARK Flexibility Score: inf
ROOT
ATOM      1  C   UNL     1     -19.510  30.266   8.839  1.00  0.00     0.003 C 
ENDROOT
BRANCH   1   2
ATOM      2  C   UNL     1     -18.192  31.010   9.114  1.00  0.00    -0.000 C 
BRANCH   2   3
ATOM      3  C   UNL     1     -18.050  32.286   8.271  1.00  0.00    -0.003 C 
ATOM      4  C   UNL     1     -17.879  33.542   9.125  1.00  0.00     0.004 C 
ENDBRANCH   2   3
ENDBRANCH   1   2
BRANCH   1   5
ATOM      5  C   UNL     1     -19.416  28.747   9.095  1.00  0.00     0.036 C 
BRANCH   5   6
ATOM      6  C   UNL     1     -19.758  27.847   7.888  1.00  0.00     0.136 C 
BRANCH   6   7
ATOM      7  C   UNL     1     -20.089  28.647   6.648  1.00  0.00    -0.004 C 
ATOM      8  C   UNL     1     -21.137  28.343   5.876  1.00  0.00     0.007 C 
ENDBRANCH   6   7
BRANCH   6   9
ATOM      9  O   UNL     1     -18.690  26.973   7.627  1.00  0.00    -0.389 OA
ATOM     10  H   UNL     1     -18.694  26.795   6.650  1.00  0.00     0.211 HD
ENDBRANCH   6   9
ENDBRANCH   5   6
ENDBRANCH   1   5
TORSDOF 6
ENDMDL
