MODEL 1
REMARK VINA RESULT:    -1.403      0.000      0.000
REMARK INTER + INTRA:          -1.683
REMARK INTER:                  -1.649
REMARK INTRA:                  -0.035
REMARK UNBOUND:                -0.035
REMARK SMILES CCCCC(=O)[O-]
REMARK SMILES IDX 4 1 5 2 6 3 7 4 3 5 2 6 1 7
REMARK H PARENT
REMARK Flexibility Score: inf
ROOT
ATOM      1  C   UNL     1      13.674 -33.874  -1.215  1.00  0.00     0.053 C 
ENDROOT
BRANCH   1   2
ATOM      2  C   UNL     1      12.597 -32.852  -1.018  1.00  0.00     0.041 C 
ATOM      3  O   UNL     1      12.074 -32.691   0.116  1.00  0.00    -0.550 OA
ATOM      4  O   UNL     1      12.148 -32.101  -2.097  1.00  0.00    -0.550 OA
ENDBRANCH   1   2
BRANCH   1   5
ATOM      5  C   UNL     1      14.429 -34.163   0.089  1.00  0.00     0.006 C 
BRANCH   5   6
ATOM      6  C   UNL     1      15.766 -34.876  -0.160  1.00  0.00    -0.003 C 
ATOM      7  C   UNL     1      15.825 -35.463  -1.567  1.00  0.00     0.004 C 
ENDBRANCH   5   6
ENDBRANCH   1   5
TORSDOF 3
ENDMDL
MODEL 2
REMARK VINA RESULT:    -1.347      9.824     10.147
REMARK INTER + INTRA:          -1.618
REMARK INTER:                  -1.559
REMARK INTRA:                  -0.059
REMARK UNBOUND:                -0.035
REMARK SMILES CCCCC(=O)[O-]
REMARK SMILES IDX 4 1 5 2 6 3 7 4 3 5 2 6 1 7
REMARK H PARENT
REMARK Flexibility Score: inf
ROOT
ATOM      1  C   UNL     1      21.584 -26.902  -0.700  1.00  0.00     0.053 C 
ENDROOT
BRANCH   1   2
ATOM      2  C   UNL     1      21.100 -25.497  -0.891  1.00  0.00     0.041 C 
ATOM      3  O   UNL     1      20.537 -24.885   0.055  1.00  0.00    -0.550 OA
ATOM      4  O   UNL     1      21.243 -24.875  -2.124  1.00  0.00    -0.550 OA
ENDBRANCH   1   2
BRANCH   1   5
ATOM      5  C   UNL     1      21.429 -27.735  -1.978  1.00  0.00     0.006 C 
BRANCH   5   6
ATOM      6  C   UNL     1      20.494 -28.937  -1.779  1.00  0.00    -0.003 C 
ATOM      7  C   UNL     1      19.982 -29.005  -0.343  1.00  0.00     0.004 C 
ENDBRANCH   5   6
ENDBRANCH   1   5
TORSDOF 3
ENDMDL
MODEL 3
REMARK VINA RESULT:    -1.335      7.536      8.117
REMARK INTER + INTRA:          -1.604
REMARK INTER:                  -1.567
REMARK INTRA:                  -0.037
REMARK UNBOUND:                -0.035
REMARK SMILES CCCCC(=O)[O-]
REMARK SMILES IDX 4 1 5 2 6 3 7 4 3 5 2 6 1 7
REMARK H PARENT
REMARK Flexibility Score: inf
ROOT
ATOM      1  C   UNL     1      19.939 -29.221   0.176  1.00  0.00     0.053 C 
ENDROOT
BRANCH   1   2
ATOM      2  C   UNL     1      20.488 -28.698  -1.115  1.00  0.00     0.041 C 
ATOM      3  O   UNL     1      20.893 -29.495  -2.003  1.00  0.00    -0.550 OA
ATOM      4  O   UNL     1      20.584 -27.328  -1.325  1.00  0.00    -0.550 OA
ENDBRANCH   1   2
BRANCH   1   5
ATOM      5  C   UNL     1      20.598 -30.545   0.580  1.00  0.00     0.006 C 
BRANCH   5   6
ATOM      6  C   UNL     1      19.729 -31.354   1.554  1.00  0.00    -0.003 C 
ATOM      7  C   UNL     1      18.798 -30.443   2.348  1.00  0.00     0.004 C 
ENDBRANCH   5   6
ENDBRANCH   1   5
TORSDOF 3
ENDMDL
MODEL 4
REMARK VINA RESULT:    -1.323      1.569      1.940
REMARK INTER + INTRA:          -1.590
REMARK INTER:                  -1.561
REMARK INTRA:                  -0.029
REMARK UNBOUND:                -0.035
REMARK SMILES CCCCC(=O)[O-]
REMARK SMILES IDX 4 1 5 2 6 3 7 4 3 5 2 6 1 7
REMARK H PARENT
REMARK Flexibility Score: inf
ROOT
ATOM      1  C   UNL     1      14.491 -34.214  -0.608  1.00  0.00     0.053 C 
ENDROOT
BRANCH   1   2
ATOM      2  C   UNL     1      13.225 -33.981  -1.373  1.00  0.00     0.041 C 
ATOM      3  O   UNL     1      12.563 -34.956  -1.818  1.00  0.00    -0.550 OA
ATOM      4  O   UNL     1      12.794 -32.685  -1.624  1.00  0.00    -0.550 OA
ENDBRANCH   1   2
BRANCH   1   5
ATOM      5  C   UNL     1      14.330 -33.865   0.876  1.00  0.00     0.006 C 
BRANCH   5   6
ATOM      6  C   UNL     1      15.682 -33.633   1.569  1.00  0.00    -0.003 C 
ATOM      7  C   UNL     1      16.790 -34.439   0.898  1.00  0.00     0.004 C 
ENDBRANCH   5   6
ENDBRANCH   1   5
TORSDOF 3
ENDMDL
MODEL 5
REMARK VINA RESULT:    -1.314      8.426      8.881
REMARK INTER + INTRA:          -1.579
REMARK INTER:                  -1.559
REMARK INTRA:                  -0.020
REMARK UNBOUND:                -0.035
REMARK SMILES CCCCC(=O)[O-]
REMARK SMILES IDX 4 1 5 2 6 3 7 4 3 5 2 6 1 7
REMARK H PARENT
REMARK Flexibility Score: inf
ROOT
ATOM      1  C   UNL     1      20.592 -27.885   0.244  1.00  0.00     0.053 C 
ENDROOT
BRANCH   1   2
ATOM      2  C   UNL     1      20.874 -27.206  -1.061  1.00  0.00     0.041 C 
ATOM      3  O   UNL     1      20.941 -27.877  -2.125  1.00  0.00    -0.550 OA
ATOM      4  O   UNL     1      21.096 -25.836  -1.097  1.00  0.00    -0.550 OA
ENDBRANCH   1   2
BRANCH   1   5
ATOM      5  C   UNL     1      19.969 -29.271   0.041  1.00  0.00     0.006 C 
BRANCH   5   6
ATOM      6  C   UNL     1      19.748 -30.009   1.370  1.00  0.00    -0.003 C 
ATOM      7  C   UNL     1      20.124 -31.483   1.250  1.00  0.00     0.004 C 
ENDBRANCH   5   6
ENDBRANCH   1   5
TORSDOF 3
ENDMDL
MODEL 6
REMARK VINA RESULT:    -1.311      9.388      9.759
REMARK INTER + INTRA:          -1.575
REMARK INTER:                  -1.456
REMARK INTRA:                  -0.119
REMARK UNBOUND:                -0.035
REMARK SMILES CCCCC(=O)[O-]
REMARK SMILES IDX 4 1 5 2 6 3 7 4 3 5 2 6 1 7
REMARK H PARENT
REMARK Flexibility Score: inf
ROOT
ATOM      1  C   UNL     1      21.659 -27.269   0.375  1.00  0.00     0.053 C 
ENDROOT
BRANCH   1   2
ATOM      2  C   UNL     1      20.840 -26.015   0.367  1.00  0.00     0.041 C 
ATOM      3  O   UNL     1      20.779 -25.302  -0.669  1.00  0.00    -0.550 OA
ATOM      4  O   UNL     1      20.170 -25.617   1.517  1.00  0.00    -0.550 OA
ENDBRANCH   1   2
BRANCH   1   5
ATOM      5  C   UNL     1      20.815 -28.498   0.734  1.00  0.00     0.006 C 
BRANCH   5   6
ATOM      6  C   UNL     1      19.863 -28.901  -0.402  1.00  0.00    -0.003 C 
ATOM      7  C   UNL     1      20.617 -29.072  -1.717  1.00  0.00     0.004 C 
ENDBRANCH   5   6
ENDBRANCH   1   5
TORSDOF 3
ENDMDL
MODEL 7
REMARK VINA RESULT:    -1.300      2.940      4.118
REMARK INTER + INTRA:          -1.562
REMARK INTER:                  -1.539
REMARK INTRA:                  -0.024
REMARK UNBOUND:                -0.035
REMARK SMILES CCCCC(=O)[O-]
REMARK SMILES IDX 4 1 5 2 6 3 7 4 3 5 2 6 1 7
REMARK H PARENT
REMARK Flexibility Score: inf
ROOT
ATOM      1  C   UNL     1      15.636 -34.779   0.065  1.00  0.00     0.053 C 
ENDROOT
BRANCH   1   2
ATOM      2  C   UNL     1      16.549 -34.131   1.061  1.00  0.00     0.041 C 
ATOM      3  O   UNL     1      16.074 -33.461   2.016  1.00  0.00    -0.550 OA
ATOM      4  O   UNL     1      17.926 -34.241   0.915  1.00  0.00    -0.550 OA
ENDBRANCH   1   2
BRANCH   1   5
ATOM      5  C   UNL     1      14.266 -34.093   0.020  1.00  0.00     0.006 C 
BRANCH   5   6
ATOM      6  C   UNL     1      13.771 -33.876  -1.418  1.00  0.00    -0.003 C 
ATOM      7  C   UNL     1      12.626 -32.869  -1.461  1.00  0.00     0.004 C 
ENDBRANCH   5   6
ENDBRANCH   1   5
TORSDOF 3
ENDMDL
MODEL 8
REMARK VINA RESULT:    -1.295      2.403      2.956
REMARK INTER + INTRA:          -1.557
REMARK INTER:                  -1.539
REMARK INTRA:                  -0.017
REMARK UNBOUND:                -0.035
REMARK SMILES CCCCC(=O)[O-]
REMARK SMILES IDX 4 1 5 2 6 3 7 4 3 5 2 6 1 7
REMARK H PARENT
REMARK Flexibility Score: inf
ROOT
ATOM      1  C   UNL     1      14.863 -34.475   0.313  1.00  0.00     0.053 C 
ENDROOT
BRANCH   1   2
ATOM      2  C   UNL     1      14.454 -34.275  -1.115  1.00  0.00     0.041 C 
ATOM      3  O   UNL     1      13.526 -33.474  -1.403  1.00  0.00    -0.550 OA
ATOM      4  O   UNL     1      15.076 -35.000  -2.123  1.00  0.00    -0.550 OA
ENDBRANCH   1   2
BRANCH   1   5
ATOM      5  C   UNL     1      16.381 -34.631   0.452  1.00  0.00     0.006 C 
BRANCH   5   6
ATOM      6  C   UNL     1      16.943 -33.824   1.633  1.00  0.00    -0.003 C 
ATOM      7  C   UNL     1      18.460 -33.695   1.540  1.00  0.00     0.004 C 
ENDBRANCH   5   6
ENDBRANCH   1   5
TORSDOF 3
ENDMDL
MODEL 9
REMARK VINA RESULT:    -1.244      9.008      9.504
REMARK INTER + INTRA:          -1.497
REMARK INTER:                  -1.366
REMARK INTRA:                  -0.131
REMARK UNBOUND:                -0.035
REMARK SMILES CCCCC(=O)[O-]
REMARK SMILES IDX 4 1 5 2 6 3 7 4 3 5 2 6 1 7
REMARK H PARENT
REMARK Flexibility Score: inf
ROOT
ATOM      1  C   UNL     1      20.000 -29.008  -0.546  1.00  0.00     0.053 C 
ENDROOT
BRANCH   1   2
ATOM      2  C   UNL     1      21.077 -29.823   0.102  1.00  0.00     0.041 C 
ATOM      3  O   UNL     1      21.584 -30.803  -0.506  1.00  0.00    -0.550 OA
ATOM      4  O   UNL     1      21.497 -29.519   1.390  1.00  0.00    -0.550 OA
ENDBRANCH   1   2
BRANCH   1   5
ATOM      5  C   UNL     1      20.515 -28.266  -1.785  1.00  0.00     0.006 C 
BRANCH   5   6
ATOM      6  C   UNL     1      21.611 -27.248  -1.439  1.00  0.00    -0.003 C 
ATOM      7  C   UNL     1      21.057 -26.110  -0.587  1.00  0.00     0.004 C 
ENDBRANCH   5   6
ENDBRANCH   1   5
TORSDOF 3
ENDMDL
