MODEL 1
REMARK VINA RESULT:    -4.262      0.000      0.000
REMARK INTER + INTRA:          -5.324
REMARK INTER:                  -5.009
REMARK INTRA:                  -0.315
REMARK UNBOUND:                -0.315
REMARK SMILES O=c1cc(-c2ccc(O)c(O)c2)oc2cc(O)cc(O)c12
REMARK SMILES IDX 4 1 3 2 2 3 1 4 21 5 19 6 18 7 16 8 15 9 14 10 13 11 5 12
REMARK SMILES IDX 6 13 7 14 8 15 12 16 10 17 9 18 11 20 20 22 17 24
REMARK H PARENT 9 19 11 21 20 23 17 25
REMARK Flexibility Score: inf
ROOT
ATOM      1  C   UNL     1      20.847  49.131  87.913  1.00  0.00     0.138 A 
ATOM      2  C   UNL     1      21.048  50.473  88.267  1.00  0.00     0.100 A 
ATOM      3  C   UNL     1      22.259  51.094  87.959  1.00  0.00     0.197 A 
ATOM      4  O   UNL     1      22.434  52.279  88.345  1.00  0.00    -0.289 OA
ATOM      5  C   UNL     1      23.262  50.376  87.264  1.00  0.00     0.107 A 
ATOM      6  C   UNL     1      24.518  50.918  86.862  1.00  0.00     0.134 A 
ATOM      7  C   UNL     1      25.478  50.079  86.283  1.00  0.00     0.093 A 
ATOM      8  C   UNL     1      25.204  48.731  86.037  1.00  0.00     0.123 A 
ATOM      9  C   UNL     1      23.960  48.205  86.377  1.00  0.00     0.094 A 
ATOM     10  C   UNL     1      22.993  49.008  86.988  1.00  0.00     0.146 A 
ATOM     11  O   UNL     1      21.825  48.464  87.310  1.00  0.00    -0.456 OA
ENDROOT
BRANCH   1  12
ATOM     12  C   UNL     1      19.577  48.423  88.215  1.00  0.00     0.021 A 
ATOM     13  C   UNL     1      18.441  49.164  88.575  1.00  0.00     0.016 A 
ATOM     14  C   UNL     1      17.239  48.521  88.871  1.00  0.00     0.051 A 
ATOM     15  C   UNL     1      17.143  47.127  88.823  1.00  0.00     0.157 A 
ATOM     16  C   UNL     1      19.487  47.019  88.181  1.00  0.00     0.062 A 
ATOM     17  C   UNL     1      18.285  46.365  88.479  1.00  0.00     0.158 A 
BRANCH  15  18
ATOM     18  O   UNL     1      15.910  46.546  89.124  1.00  0.00    -0.504 OA
ATOM     19  H   UNL     1      15.080  46.658  88.561  1.00  0.00     0.293 HD
ENDBRANCH  15  18
BRANCH  17  20
ATOM     20  O   UNL     1      18.271  44.970  88.426  1.00  0.00    -0.504 OA
ATOM     21  H   UNL     1      18.988  44.414  87.981  1.00  0.00     0.293 HD
ENDBRANCH  17  20
ENDBRANCH   1  12
BRANCH   6  22
ATOM     22  O   UNL     1      24.862  52.268  86.984  1.00  0.00    -0.507 OA
ATOM     23  H   UNL     1      24.242  52.993  87.310  1.00  0.00     0.293 HD
ENDBRANCH   6  22
BRANCH   8  24
ATOM     24  O   UNL     1      26.159  47.906  85.447  1.00  0.00    -0.508 OA
ATOM     25  H   UNL     1      26.389  46.999  85.837  1.00  0.00     0.293 HD
ENDBRANCH   8  24
TORSDOF 5
ENDMDL
MODEL 2
REMARK VINA RESULT:    -4.223      1.830      7.168
REMARK INTER + INTRA:          -5.279
REMARK INTER:                  -4.982
REMARK INTRA:                  -0.296
REMARK UNBOUND:                -0.315
REMARK SMILES O=c1cc(-c2ccc(O)c(O)c2)oc2cc(O)cc(O)c12
REMARK SMILES IDX 4 1 3 2 2 3 1 4 21 5 19 6 18 7 16 8 15 9 14 10 13 11 5 12
REMARK SMILES IDX 6 13 7 14 8 15 12 16 10 17 9 18 11 20 20 22 17 24
REMARK H PARENT 9 19 11 21 20 23 17 25
REMARK Flexibility Score: inf
ROOT
ATOM      1  C   UNL     1      22.615  49.605  87.133  1.00  0.00     0.138 A 
ATOM      2  C   UNL     1      21.954  48.370  87.202  1.00  0.00     0.100 A 
ATOM      3  C   UNL     1      20.624  48.321  87.620  1.00  0.00     0.197 A 
ATOM      4  O   UNL     1      20.078  47.193  87.732  1.00  0.00    -0.289 OA
ATOM      5  C   UNL     1      19.943  49.520  87.941  1.00  0.00     0.107 A 
ATOM      6  C   UNL     1      18.575  49.595  88.340  1.00  0.00     0.134 A 
ATOM      7  C   UNL     1      18.041  50.825  88.744  1.00  0.00     0.093 A 
ATOM      8  C   UNL     1      18.808  51.992  88.707  1.00  0.00     0.123 A 
ATOM      9  C   UNL     1      20.129  51.937  88.268  1.00  0.00     0.094 A 
ATOM     10  C   UNL     1      20.702  50.720  87.890  1.00  0.00     0.146 A 
ATOM     11  O   UNL     1      21.969  50.709  87.491  1.00  0.00    -0.456 OA
ENDROOT
BRANCH   1  12
ATOM     12  C   UNL     1      24.029  49.714  86.693  1.00  0.00     0.021 A 
ATOM     13  C   UNL     1      24.704  50.936  86.834  1.00  0.00     0.016 A 
ATOM     14  C   UNL     1      26.030  51.066  86.423  1.00  0.00     0.051 A 
ATOM     15  C   UNL     1      26.711  49.985  85.853  1.00  0.00     0.157 A 
ATOM     16  C   UNL     1      24.707  48.629  86.107  1.00  0.00     0.062 A 
ATOM     17  C   UNL     1      26.038  48.752  85.687  1.00  0.00     0.158 A 
BRANCH  15  18
ATOM     18  O   UNL     1      28.038  50.179  85.467  1.00  0.00    -0.504 OA
ATOM     19  H   UNL     1      28.687  50.779  85.956  1.00  0.00     0.293 HD
ENDBRANCH  15  18
BRANCH  17  20
ATOM     20  O   UNL     1      26.646  47.633  85.113  1.00  0.00    -0.504 OA
ATOM     21  H   UNL     1      26.222  47.068  84.392  1.00  0.00     0.293 HD
ENDBRANCH  17  20
ENDBRANCH   1  12
BRANCH   6  22
ATOM     22  O   UNL     1      17.698  48.506  88.332  1.00  0.00    -0.507 OA
ATOM     23  H   UNL     1      17.414  48.001  87.507  1.00  0.00     0.293 HD
ENDBRANCH   6  22
BRANCH   8  24
ATOM     24  O   UNL     1      18.265  53.213  89.097  1.00  0.00    -0.508 OA
ATOM     25  H   UNL     1      18.137  53.972  88.436  1.00  0.00     0.293 HD
ENDBRANCH   8  24
TORSDOF 5
ENDMDL
MODEL 3
REMARK VINA RESULT:    -4.184      1.451      6.763
REMARK INTER + INTRA:          -5.232
REMARK INTER:                  -4.917
REMARK INTRA:                  -0.315
REMARK UNBOUND:                -0.315
REMARK SMILES O=c1cc(-c2ccc(O)c(O)c2)oc2cc(O)cc(O)c12
REMARK SMILES IDX 4 1 3 2 2 3 1 4 21 5 19 6 18 7 16 8 15 9 14 10 13 11 5 12
REMARK SMILES IDX 6 13 7 14 8 15 12 16 10 17 9 18 11 20 20 22 17 24
REMARK H PARENT 9 19 11 21 20 23 17 25
REMARK Flexibility Score: inf
ROOT
ATOM      1  C   UNL     1      22.164  49.836  87.378  1.00  0.00     0.138 A 
ATOM      2  C   UNL     1      21.340  50.941  87.627  1.00  0.00     0.100 A 
ATOM      3  C   UNL     1      20.020  50.741  88.036  1.00  0.00     0.197 A 
ATOM      4  O   UNL     1      19.286  51.750  88.191  1.00  0.00    -0.289 OA
ATOM      5  C   UNL     1      19.536  49.424  88.228  1.00  0.00     0.107 A 
ATOM      6  C   UNL     1      18.223  49.100  88.681  1.00  0.00     0.134 A 
ATOM      7  C   UNL     1      17.819  47.760  88.723  1.00  0.00     0.093 A 
ATOM      8  C   UNL     1      18.699  46.730  88.383  1.00  0.00     0.123 A 
ATOM      9  C   UNL     1      20.001  47.034  87.990  1.00  0.00     0.094 A 
ATOM     10  C   UNL     1      20.424  48.363  87.906  1.00  0.00     0.146 A 
ATOM     11  O   UNL     1      21.668  48.610  87.513  1.00  0.00    -0.456 OA
ENDROOT
BRANCH   1  12
ATOM     12  C   UNL     1      23.575  49.993  86.941  1.00  0.00     0.021 A 
ATOM     13  C   UNL     1      24.206  51.239  87.078  1.00  0.00     0.016 A 
ATOM     14  C   UNL     1      25.528  51.414  86.670  1.00  0.00     0.051 A 
ATOM     15  C   UNL     1      26.248  50.355  86.107  1.00  0.00     0.157 A 
ATOM     16  C   UNL     1      24.293  48.930  86.362  1.00  0.00     0.062 A 
ATOM     17  C   UNL     1      25.620  49.098  85.946  1.00  0.00     0.158 A 
BRANCH  15  18
ATOM     18  O   UNL     1      27.569  50.594  85.724  1.00  0.00    -0.504 OA
ATOM     19  H   UNL     1      28.339  49.973  85.929  1.00  0.00     0.293 HD
ENDBRANCH  15  18
BRANCH  17  20
ATOM     20  O   UNL     1      26.269  47.999  85.379  1.00  0.00    -0.504 OA
ATOM     21  H   UNL     1      26.969  48.068  84.655  1.00  0.00     0.293 HD
ENDBRANCH  17  20
ENDBRANCH   1  12
BRANCH   6  22
ATOM     22  O   UNL     1      17.294  50.046  89.125  1.00  0.00    -0.507 OA
ATOM     23  H   UNL     1      16.629  49.896  89.869  1.00  0.00     0.293 HD
ENDBRANCH   6  22
BRANCH   8  24
ATOM     24  O   UNL     1      18.293  45.399  88.440  1.00  0.00    -0.508 OA
ATOM     25  H   UNL     1      18.726  44.688  87.861  1.00  0.00     0.293 HD
ENDBRANCH   8  24
TORSDOF 5
ENDMDL
MODEL 4
REMARK VINA RESULT:    -3.875      1.453      1.896
REMARK INTER + INTRA:          -4.870
REMARK INTER:                  -4.558
REMARK INTRA:                  -0.312
REMARK UNBOUND:                -0.315
REMARK SMILES O=c1cc(-c2ccc(O)c(O)c2)oc2cc(O)cc(O)c12
REMARK SMILES IDX 4 1 3 2 2 3 1 4 21 5 19 6 18 7 16 8 15 9 14 10 13 11 5 12
REMARK SMILES IDX 6 13 7 14 8 15 12 16 10 17 9 18 11 20 20 22 17 24
REMARK H PARENT 9 19 11 21 20 23 17 25
REMARK Flexibility Score: inf
ROOT
ATOM      1  C   UNL     1      20.375  49.833  88.396  1.00  0.00     0.138 A 
ATOM      2  C   UNL     1      20.006  51.116  88.823  1.00  0.00     0.100 A 
ATOM      3  C   UNL     1      20.900  52.178  88.674  1.00  0.00     0.197 A 
ATOM      4  O   UNL     1      20.566  53.304  89.124  1.00  0.00    -0.289 OA
ATOM      5  C   UNL     1      22.158  51.957  88.063  1.00  0.00     0.107 A 
ATOM      6  C   UNL     1      23.132  52.970  87.821  1.00  0.00     0.134 A 
ATOM      7  C   UNL     1      24.388  52.614  87.315  1.00  0.00     0.093 A 
ATOM      8  C   UNL     1      24.684  51.288  86.987  1.00  0.00     0.123 A 
ATOM      9  C   UNL     1      23.720  50.299  87.170  1.00  0.00     0.094 A 
ATOM     10  C   UNL     1      22.469  50.618  87.704  1.00  0.00     0.146 A 
ATOM     11  O   UNL     1      21.583  49.643  87.876  1.00  0.00    -0.456 OA
ENDROOT
BRANCH   1  12
ATOM     12  C   UNL     1      19.463  48.669  88.531  1.00  0.00     0.021 A 
ATOM     13  C   UNL     1      18.084  48.886  88.683  1.00  0.00     0.016 A 
ATOM     14  C   UNL     1      17.207  47.810  88.819  1.00  0.00     0.051 A 
ATOM     15  C   UNL     1      17.684  46.495  88.814  1.00  0.00     0.157 A 
ATOM     16  C   UNL     1      19.945  47.348  88.540  1.00  0.00     0.062 A 
ATOM     17  C   UNL     1      19.072  46.261  88.680  1.00  0.00     0.158 A 
BRANCH  15  18
ATOM     18  O   UNL     1      16.753  45.463  88.948  1.00  0.00    -0.504 OA
ATOM     19  H   UNL     1      16.978  44.483  88.848  1.00  0.00     0.293 HD
ENDBRANCH  15  18
BRANCH  17  20
ATOM     20  O   UNL     1      19.624  44.978  88.682  1.00  0.00    -0.504 OA
ATOM     21  H   UNL     1      20.296  44.654  89.362  1.00  0.00     0.293 HD
ENDBRANCH  17  20
ENDBRANCH   1  12
BRANCH   6  22
ATOM     22  O   UNL     1      22.910  54.335  88.034  1.00  0.00    -0.507 OA
ATOM     23  H   UNL     1      22.009  54.785  87.997  1.00  0.00     0.293 HD
ENDBRANCH   6  22
BRANCH   8  24
ATOM     24  O   UNL     1      25.931  50.943  86.471  1.00  0.00    -0.508 OA
ATOM     25  H   UNL     1      26.427  51.555  85.833  1.00  0.00     0.293 HD
ENDBRANCH   8  24
TORSDOF 5
ENDMDL
MODEL 5
REMARK VINA RESULT:    -3.866      2.244      3.235
REMARK INTER + INTRA:          -4.859
REMARK INTER:                  -4.594
REMARK INTRA:                  -0.265
REMARK UNBOUND:                -0.315
REMARK SMILES O=c1cc(-c2ccc(O)c(O)c2)oc2cc(O)cc(O)c12
REMARK SMILES IDX 4 1 3 2 2 3 1 4 21 5 19 6 18 7 16 8 15 9 14 10 13 11 5 12
REMARK SMILES IDX 6 13 7 14 8 15 12 16 10 17 9 18 11 20 20 22 17 24
REMARK H PARENT 9 19 11 21 20 23 17 25
REMARK Flexibility Score: inf
ROOT
ATOM      1  C   UNL     1      22.993  50.544  87.153  1.00  0.00     0.138 A 
ATOM      2  C   UNL     1      23.670  51.761  87.314  1.00  0.00     0.100 A 
ATOM      3  C   UNL     1      24.995  51.875  86.890  1.00  0.00     0.197 A 
ATOM      4  O   UNL     1      25.596  52.959  87.105  1.00  0.00    -0.289 OA
ATOM      5  C   UNL     1      25.633  50.773  86.271  1.00  0.00     0.107 A 
ATOM      6  C   UNL     1      26.965  50.787  85.762  1.00  0.00     0.134 A 
ATOM      7  C   UNL     1      27.530  49.602  85.275  1.00  0.00     0.093 A 
ATOM      8  C   UNL     1      26.790  48.418  85.223  1.00  0.00     0.123 A 
ATOM      9  C   UNL     1      25.470  48.407  85.669  1.00  0.00     0.094 A 
ATOM     10  C   UNL     1      24.889  49.565  86.192  1.00  0.00     0.146 A 
ATOM     11  O   UNL     1      23.633  49.509  86.619  1.00  0.00    -0.456 OA
ENDROOT
BRANCH   1  12
ATOM     12  C   UNL     1      21.584  50.369  87.586  1.00  0.00     0.021 A 
ATOM     13  C   UNL     1      21.299  49.566  88.702  1.00  0.00     0.016 A 
ATOM     14  C   UNL     1      19.983  49.379  89.125  1.00  0.00     0.051 A 
ATOM     15  C   UNL     1      18.920  49.981  88.441  1.00  0.00     0.157 A 
ATOM     16  C   UNL     1      20.515  50.963  86.889  1.00  0.00     0.062 A 
ATOM     17  C   UNL     1      19.191  50.777  87.304  1.00  0.00     0.158 A 
BRANCH  15  18
ATOM     18  O   UNL     1      17.627  49.759  88.918  1.00  0.00    -0.504 OA
ATOM     19  H   UNL     1      17.342  48.923  89.409  1.00  0.00     0.293 HD
ENDBRANCH  15  18
BRANCH  17  20
ATOM     20  O   UNL     1      18.183  51.397  86.561  1.00  0.00    -0.504 OA
ATOM     21  H   UNL     1      17.219  51.096  86.556  1.00  0.00     0.293 HD
ENDBRANCH  17  20
ENDBRANCH   1  12
BRANCH   6  22
ATOM     22  O   UNL     1      27.762  51.934  85.688  1.00  0.00    -0.507 OA
ATOM     23  H   UNL     1      28.712  51.999  86.022  1.00  0.00     0.293 HD
ENDBRANCH   6  22
BRANCH   8  24
ATOM     24  O   UNL     1      27.355  47.247  84.724  1.00  0.00    -0.508 OA
ATOM     25  H   UNL     1      28.334  47.026  84.873  1.00  0.00     0.293 HD
ENDBRANCH   8  24
TORSDOF 5
ENDMDL
MODEL 6
REMARK VINA RESULT:    -3.835      2.837      4.436
REMARK INTER + INTRA:          -4.822
REMARK INTER:                  -4.540
REMARK INTRA:                  -0.283
REMARK UNBOUND:                -0.315
REMARK SMILES O=c1cc(-c2ccc(O)c(O)c2)oc2cc(O)cc(O)c12
REMARK SMILES IDX 4 1 3 2 2 3 1 4 21 5 19 6 18 7 16 8 15 9 14 10 13 11 5 12
REMARK SMILES IDX 6 13 7 14 8 15 12 16 10 17 9 18 11 20 20 22 17 24
REMARK H PARENT 9 19 11 21 20 23 17 25
REMARK Flexibility Score: inf
ROOT
ATOM      1  C   UNL     1      23.438  49.409  87.385  1.00  0.00     0.138 A 
ATOM      2  C   UNL     1      24.644  49.578  86.692  1.00  0.00     0.100 A 
ATOM      3  C   UNL     1      25.165  50.860  86.513  1.00  0.00     0.197 A 
ATOM      4  O   UNL     1      26.215  50.986  85.833  1.00  0.00    -0.289 OA
ATOM      5  C   UNL     1      24.489  51.977  87.062  1.00  0.00     0.107 A 
ATOM      6  C   UNL     1      24.946  53.325  86.978  1.00  0.00     0.134 A 
ATOM      7  C   UNL     1      24.134  54.360  87.458  1.00  0.00     0.093 A 
ATOM      8  C   UNL     1      22.908  54.090  88.072  1.00  0.00     0.123 A 
ATOM      9  C   UNL     1      22.478  52.772  88.206  1.00  0.00     0.094 A 
ATOM     10  C   UNL     1      23.249  51.720  87.707  1.00  0.00     0.146 A 
ATOM     11  O   UNL     1      22.795  50.479  87.843  1.00  0.00    -0.456 OA
ENDROOT
BRANCH   1  12
ATOM     12  C   UNL     1      22.841  48.067  87.604  1.00  0.00     0.021 A 
ATOM     13  C   UNL     1      22.215  47.781  88.828  1.00  0.00     0.016 A 
ATOM     14  C   UNL     1      21.652  46.526  89.060  1.00  0.00     0.051 A 
ATOM     15  C   UNL     1      21.708  45.526  88.084  1.00  0.00     0.157 A 
ATOM     16  C   UNL     1      22.910  47.058  86.626  1.00  0.00     0.062 A 
ATOM     17  C   UNL     1      22.351  45.794  86.853  1.00  0.00     0.158 A 
BRANCH  15  18
ATOM     18  O   UNL     1      21.121  44.293  88.378  1.00  0.00    -0.504 OA
ATOM     19  H   UNL     1      21.501  43.629  89.037  1.00  0.00     0.293 HD
ENDBRANCH  15  18
BRANCH  17  20
ATOM     20  O   UNL     1      22.461  44.841  85.837  1.00  0.00    -0.504 OA
ATOM     21  H   UNL     1      22.466  45.064  84.853  1.00  0.00     0.293 HD
ENDBRANCH  17  20
ENDBRANCH   1  12
BRANCH   6  22
ATOM     22  O   UNL     1      26.191  53.697  86.461  1.00  0.00    -0.507 OA
ATOM     23  H   UNL     1      26.368  53.930  85.496  1.00  0.00     0.293 HD
ENDBRANCH   6  22
BRANCH   8  24
ATOM     24  O   UNL     1      22.114  55.125  88.559  1.00  0.00    -0.508 OA
ATOM     25  H   UNL     1      21.141  55.219  88.287  1.00  0.00     0.293 HD
ENDBRANCH   8  24
TORSDOF 5
ENDMDL
MODEL 7
REMARK VINA RESULT:    -3.824      2.867      4.725
REMARK INTER + INTRA:          -4.810
REMARK INTER:                  -4.513
REMARK INTRA:                  -0.297
REMARK UNBOUND:                -0.315
REMARK SMILES O=c1cc(-c2ccc(O)c(O)c2)oc2cc(O)cc(O)c12
REMARK SMILES IDX 4 1 3 2 2 3 1 4 21 5 19 6 18 7 16 8 15 9 14 10 13 11 5 12
REMARK SMILES IDX 6 13 7 14 8 15 12 16 10 17 9 18 11 20 20 22 17 24
REMARK H PARENT 9 19 11 21 20 23 17 25
REMARK Flexibility Score: inf
ROOT
ATOM      1  C   UNL     1      19.892  47.950  88.862  1.00  0.00     0.138 A 
ATOM      2  C   UNL     1      18.571  48.413  88.921  1.00  0.00     0.100 A 
ATOM      3  C   UNL     1      18.321  49.786  88.961  1.00  0.00     0.197 A 
ATOM      4  O   UNL     1      17.129  50.169  89.077  1.00  0.00    -0.289 OA
ATOM      5  C   UNL     1      19.402  50.699  88.909  1.00  0.00     0.107 A 
ATOM      6  C   UNL     1      19.265  52.118  88.902  1.00  0.00     0.134 A 
ATOM      7  C   UNL     1      20.411  52.922  88.965  1.00  0.00     0.093 A 
ATOM      8  C   UNL     1      21.689  52.357  88.975  1.00  0.00     0.123 A 
ATOM      9  C   UNL     1      21.833  50.972  88.928  1.00  0.00     0.094 A 
ATOM     10  C   UNL     1      20.709  50.143  88.899  1.00  0.00     0.146 A 
ATOM     11  O   UNL     1      20.890  48.827  88.868  1.00  0.00    -0.456 OA
ENDROOT
BRANCH   1  12
ATOM     12  C   UNL     1      20.214  46.501  88.816  1.00  0.00     0.021 A 
ATOM     13  C   UNL     1      21.543  46.093  88.621  1.00  0.00     0.016 A 
ATOM     14  C   UNL     1      21.869  44.738  88.568  1.00  0.00     0.051 A 
ATOM     15  C   UNL     1      20.879  43.759  88.698  1.00  0.00     0.157 A 
ATOM     16  C   UNL     1      19.214  45.517  88.933  1.00  0.00     0.062 A 
ATOM     17  C   UNL     1      19.533  44.154  88.877  1.00  0.00     0.158 A 
BRANCH  15  18
ATOM     18  O   UNL     1      21.273  42.421  88.641  1.00  0.00    -0.504 OA
ATOM     19  H   UNL     1      21.727  41.999  87.844  1.00  0.00     0.293 HD
ENDBRANCH  15  18
BRANCH  17  20
ATOM     20  O   UNL     1      18.488  43.235  88.999  1.00  0.00    -0.504 OA
ATOM     21  H   UNL     1      17.806  43.251  89.744  1.00  0.00     0.293 HD
ENDBRANCH  17  20
ENDBRANCH   1  12
BRANCH   6  22
ATOM     22  O   UNL     1      18.040  52.786  88.808  1.00  0.00    -0.507 OA
ATOM     23  H   UNL     1      17.721  53.294  87.998  1.00  0.00     0.293 HD
ENDBRANCH   6  22
BRANCH   8  24
ATOM     24  O   UNL     1      22.823  53.164  89.024  1.00  0.00    -0.508 OA
ATOM     25  H   UNL     1      23.416  53.195  89.846  1.00  0.00     0.293 HD
ENDBRANCH   8  24
TORSDOF 5
ENDMDL
MODEL 8
REMARK VINA RESULT:    -3.806      1.360      2.906
REMARK INTER + INTRA:          -4.788
REMARK INTER:                  -4.492
REMARK INTRA:                  -0.296
REMARK UNBOUND:                -0.315
REMARK SMILES O=c1cc(-c2ccc(O)c(O)c2)oc2cc(O)cc(O)c12
REMARK SMILES IDX 4 1 3 2 2 3 1 4 21 5 19 6 18 7 16 8 15 9 14 10 13 11 5 12
REMARK SMILES IDX 6 13 7 14 8 15 12 16 10 17 9 18 11 20 20 22 17 24
REMARK H PARENT 9 19 11 21 20 23 17 25
REMARK Flexibility Score: inf
ROOT
ATOM      1  C   UNL     1      21.227  49.391  87.787  1.00  0.00     0.138 A 
ATOM      2  C   UNL     1      22.331  48.702  87.266  1.00  0.00     0.100 A 
ATOM      3  C   UNL     1      23.504  49.399  86.972  1.00  0.00     0.197 A 
ATOM      4  O   UNL     1      24.456  48.766  86.447  1.00  0.00    -0.289 OA
ATOM      5  C   UNL     1      23.580  50.789  87.231  1.00  0.00     0.107 A 
ATOM      6  C   UNL     1      24.736  51.595  87.010  1.00  0.00     0.134 A 
ATOM      7  C   UNL     1      24.657  52.980  87.194  1.00  0.00     0.093 A 
ATOM      8  C   UNL     1      23.481  53.582  87.650  1.00  0.00     0.123 A 
ATOM      9  C   UNL     1      22.363  52.797  87.921  1.00  0.00     0.094 A 
ATOM     10  C   UNL     1      22.399  51.415  87.714  1.00  0.00     0.146 A 
ATOM     11  O   UNL     1      21.307  50.704  87.970  1.00  0.00    -0.456 OA
ENDROOT
BRANCH   1  12
ATOM     12  C   UNL     1      19.956  48.698  88.119  1.00  0.00     0.021 A 
ATOM     13  C   UNL     1      18.832  49.454  88.483  1.00  0.00     0.016 A 
ATOM     14  C   UNL     1      17.628  48.826  88.806  1.00  0.00     0.051 A 
ATOM     15  C   UNL     1      17.521  47.432  88.781  1.00  0.00     0.157 A 
ATOM     16  C   UNL     1      19.854  47.294  88.108  1.00  0.00     0.062 A 
ATOM     17  C   UNL     1      18.651  46.656  88.434  1.00  0.00     0.158 A 
BRANCH  15  18
ATOM     18  O   UNL     1      16.287  46.866  89.109  1.00  0.00    -0.504 OA
ATOM     19  H   UNL     1      15.496  46.834  88.483  1.00  0.00     0.293 HD
ENDBRANCH  15  18
BRANCH  17  20
ATOM     20  O   UNL     1      18.625  45.259  88.403  1.00  0.00    -0.504 OA
ATOM     21  H   UNL     1      18.088  44.690  89.040  1.00  0.00     0.293 HD
ENDBRANCH  17  20
ENDBRANCH   1  12
BRANCH   6  22
ATOM     22  O   UNL     1      25.984  51.085  86.636  1.00  0.00    -0.507 OA
ATOM     23  H   UNL     1      26.138  50.172  86.237  1.00  0.00     0.293 HD
ENDBRANCH   6  22
BRANCH   8  24
ATOM     24  O   UNL     1      23.415  54.959  87.845  1.00  0.00    -0.508 OA
ATOM     25  H   UNL     1      24.097  55.586  87.431  1.00  0.00     0.293 HD
ENDBRANCH   8  24
TORSDOF 5
ENDMDL
MODEL 9
REMARK VINA RESULT:    -1.854      2.651      4.102
REMARK INTER + INTRA:          -2.494
REMARK INTER:                  -2.179
REMARK INTRA:                  -0.315
REMARK UNBOUND:                -0.315
REMARK SMILES O=c1cc(-c2ccc(O)c(O)c2)oc2cc(O)cc(O)c12
REMARK SMILES IDX 4 1 3 2 2 3 1 4 21 5 19 6 18 7 16 8 15 9 14 10 13 11 5 12
REMARK SMILES IDX 6 13 7 14 8 15 12 16 10 17 9 18 11 20 20 22 17 24
REMARK H PARENT 9 19 11 21 20 23 17 25
REMARK Flexibility Score: inf
ROOT
ATOM      1  C   UNL     1      21.716  50.342  87.074  1.00  0.00     0.138 A 
ATOM      2  C   UNL     1      21.787  49.182  86.292  1.00  0.00     0.100 A 
ATOM      3  C   UNL     1      23.022  48.754  85.802  1.00  0.00     0.197 A 
ATOM      4  O   UNL     1      23.046  47.745  85.051  1.00  0.00    -0.289 OA
ATOM      5  C   UNL     1      24.196  49.477  86.125  1.00  0.00     0.107 A 
ATOM      6  C   UNL     1      25.512  49.112  85.715  1.00  0.00     0.134 A 
ATOM      7  C   UNL     1      26.584  49.968  85.997  1.00  0.00     0.093 A 
ATOM      8  C   UNL     1      26.396  51.146  86.726  1.00  0.00     0.123 A 
ATOM      9  C   UNL     1      25.121  51.483  87.176  1.00  0.00     0.094 A 
ATOM     10  C   UNL     1      24.026  50.668  86.881  1.00  0.00     0.146 A 
ATOM     11  O   UNL     1      22.825  51.033  87.317  1.00  0.00    -0.456 OA
ENDROOT
BRANCH   1  12
ATOM     12  C   UNL     1      20.429  50.841  87.622  1.00  0.00     0.021 A 
ATOM     13  C   UNL     1      19.301  50.006  87.605  1.00  0.00     0.016 A 
ATOM     14  C   UNL     1      18.079  50.453  88.106  1.00  0.00     0.051 A 
ATOM     15  C   UNL     1      17.950  51.744  88.628  1.00  0.00     0.157 A 
ATOM     16  C   UNL     1      20.298  52.146  88.133  1.00  0.00     0.062 A 
ATOM     17  C   UNL     1      19.073  52.604  88.635  1.00  0.00     0.158 A 
BRANCH  15  18
ATOM     18  O   UNL     1      16.701  52.129  89.120  1.00  0.00    -0.504 OA
ATOM     19  H   UNL     1      15.824  51.750  88.792  1.00  0.00     0.293 HD
ENDBRANCH  15  18
BRANCH  17  20
ATOM     20  O   UNL     1      19.018  53.911  89.125  1.00  0.00    -0.504 OA
ATOM     21  H   UNL     1      18.372  54.612  88.793  1.00  0.00     0.293 HD
ENDBRANCH  17  20
ENDBRANCH   1  12
BRANCH   6  22
ATOM     22  O   UNL     1      25.824  47.918  85.058  1.00  0.00    -0.507 OA
ATOM     23  H   UNL     1      25.274  47.074  85.103  1.00  0.00     0.293 HD
ENDBRANCH   6  22
BRANCH   8  24
ATOM     24  O   UNL     1      27.469  51.984  87.013  1.00  0.00    -0.508 OA
ATOM     25  H   UNL     1      27.456  52.607  87.814  1.00  0.00     0.293 HD
ENDBRANCH   8  24
TORSDOF 5
ENDMDL
