MODEL 1
REMARK VINA RESULT:    -3.132      0.000      0.000
REMARK INTER + INTRA:          -3.584
REMARK INTER:                  -3.498
REMARK INTRA:                  -0.086
REMARK UNBOUND:                -0.086
REMARK SMILES CCc1ccc(O)cc1O
REMARK SMILES IDX 3 1 9 2 8 3 6 4 5 5 4 6 2 7 1 8 10 9 7 11
REMARK H PARENT 10 10 7 12
REMARK Flexibility Score: inf
ROOT
ATOM      1  C   UNL     1     -26.237  52.908  43.808  1.00  0.00    -0.006 A 
ATOM      2  C   UNL     1     -26.217  51.510  43.625  1.00  0.00     0.122 A 
ATOM      3  C   UNL     1     -25.918  50.976  42.363  1.00  0.00     0.092 A 
ATOM      4  C   UNL     1     -25.653  51.820  41.281  1.00  0.00     0.119 A 
ATOM      5  C   UNL     1     -25.687  53.208  41.457  1.00  0.00     0.047 A 
ATOM      6  C   UNL     1     -25.982  53.749  42.711  1.00  0.00     0.011 A 
ENDROOT
BRANCH   1   7
ATOM      7  C   UNL     1     -26.584  53.511  45.145  1.00  0.00     0.036 C 
ATOM      8  C   UNL     1     -26.444  55.029  45.108  1.00  0.00     0.009 C 
ENDBRANCH   1   7
BRANCH   2   9
ATOM      9  O   UNL     1     -26.494  50.660  44.694  1.00  0.00    -0.508 OA
ATOM     10  H   UNL     1     -26.135  50.842  45.625  1.00  0.00     0.293 HD
ENDBRANCH   2   9
BRANCH   4  11
ATOM     11  O   UNL     1     -25.360  51.269  40.035  1.00  0.00    -0.508 OA
ATOM     12  H   UNL     1     -25.991  51.372  39.248  1.00  0.00     0.293 HD
ENDBRANCH   4  11
TORSDOF 3
ENDMDL
MODEL 2
REMARK VINA RESULT:    -3.130      2.089      4.185
REMARK INTER + INTRA:          -3.581
REMARK INTER:                  -3.495
REMARK INTRA:                  -0.086
REMARK UNBOUND:                -0.086
REMARK SMILES CCc1ccc(O)cc1O
REMARK SMILES IDX 3 1 9 2 8 3 6 4 5 5 4 6 2 7 1 8 10 9 7 11
REMARK H PARENT 10 10 7 12
REMARK Flexibility Score: inf
ROOT
ATOM      1  C   UNL     1     -25.389  54.129  42.932  1.00  0.00    -0.006 A 
ATOM      2  C   UNL     1     -26.380  53.324  43.528  1.00  0.00     0.122 A 
ATOM      3  C   UNL     1     -26.956  53.712  44.747  1.00  0.00     0.092 A 
ATOM      4  C   UNL     1     -26.543  54.887  45.382  1.00  0.00     0.119 A 
ATOM      5  C   UNL     1     -25.548  55.680  44.799  1.00  0.00     0.047 A 
ATOM      6  C   UNL     1     -24.971  55.301  43.585  1.00  0.00     0.011 A 
ENDROOT
BRANCH   1   7
ATOM      7  C   UNL     1     -24.732  53.721  41.638  1.00  0.00     0.036 C 
ATOM      8  C   UNL     1     -24.420  54.942  40.780  1.00  0.00     0.009 C 
ENDBRANCH   1   7
BRANCH   2   9
ATOM      9  O   UNL     1     -26.789  52.142  42.910  1.00  0.00    -0.508 OA
ATOM     10  H   UNL     1     -27.070  51.331  43.448  1.00  0.00     0.293 HD
ENDBRANCH   2   9
BRANCH   4  11
ATOM     11  O   UNL     1     -27.126  55.255  46.593  1.00  0.00    -0.508 OA
ATOM     12  H   UNL     1     -28.132  55.237  46.724  1.00  0.00     0.293 HD
ENDBRANCH   4  11
TORSDOF 3
ENDMDL
MODEL 3
REMARK VINA RESULT:    -3.064      2.267      4.567
REMARK INTER + INTRA:          -3.508
REMARK INTER:                  -3.423
REMARK INTRA:                  -0.085
REMARK UNBOUND:                -0.086
REMARK SMILES CCc1ccc(O)cc1O
REMARK SMILES IDX 3 1 9 2 8 3 6 4 5 5 4 6 2 7 1 8 10 9 7 11
REMARK H PARENT 10 10 7 12
REMARK Flexibility Score: inf
ROOT
ATOM      1  C   UNL     1     -25.717  53.423  42.793  1.00  0.00    -0.006 A 
ATOM      2  C   UNL     1     -25.255  54.696  43.186  1.00  0.00     0.122 A 
ATOM      3  C   UNL     1     -25.705  55.261  44.388  1.00  0.00     0.092 A 
ATOM      4  C   UNL     1     -26.619  54.577  45.194  1.00  0.00     0.119 A 
ATOM      5  C   UNL     1     -27.092  53.320  44.797  1.00  0.00     0.047 A 
ATOM      6  C   UNL     1     -26.647  52.750  43.602  1.00  0.00     0.011 A 
ENDROOT
BRANCH   1   7
ATOM      7  C   UNL     1     -25.274  52.805  41.491  1.00  0.00     0.036 C 
ATOM      8  C   UNL     1     -25.725  51.351  41.402  1.00  0.00     0.009 C 
ENDBRANCH   1   7
BRANCH   2   9
ATOM      9  O   UNL     1     -24.353  55.393  42.383  1.00  0.00    -0.508 OA
ATOM     10  H   UNL     1     -24.658  56.130  41.759  1.00  0.00     0.293 HD
ENDBRANCH   2   9
BRANCH   4  11
ATOM     11  O   UNL     1     -27.055  55.156  46.384  1.00  0.00    -0.508 OA
ATOM     12  H   UNL     1     -26.762  56.087  46.658  1.00  0.00     0.293 HD
ENDBRANCH   4  11
TORSDOF 3
ENDMDL
MODEL 4
REMARK VINA RESULT:    -3.064      2.216      2.945
REMARK INTER + INTRA:          -3.507
REMARK INTER:                  -3.399
REMARK INTRA:                  -0.108
REMARK UNBOUND:                -0.086
REMARK SMILES CCc1ccc(O)cc1O
REMARK SMILES IDX 3 1 9 2 8 3 6 4 5 5 4 6 2 7 1 8 10 9 7 11
REMARK H PARENT 10 10 7 12
REMARK Flexibility Score: inf
ROOT
ATOM      1  C   UNL     1     -26.265  54.230  44.994  1.00  0.00    -0.006 A 
ATOM      2  C   UNL     1     -25.479  54.891  44.028  1.00  0.00     0.122 A 
ATOM      3  C   UNL     1     -25.380  54.366  42.731  1.00  0.00     0.092 A 
ATOM      4  C   UNL     1     -26.045  53.185  42.393  1.00  0.00     0.119 A 
ATOM      5  C   UNL     1     -26.814  52.519  43.355  1.00  0.00     0.047 A 
ATOM      6  C   UNL     1     -26.919  53.035  44.648  1.00  0.00     0.011 A 
ENDROOT
BRANCH   1   7
ATOM      7  C   UNL     1     -26.365  54.755  46.404  1.00  0.00     0.036 C 
ATOM      8  C   UNL     1     -25.354  54.063  47.312  1.00  0.00     0.009 C 
ENDBRANCH   1   7
BRANCH   2   9
ATOM      9  O   UNL     1     -24.801  56.064  44.359  1.00  0.00    -0.508 OA
ATOM     10  H   UNL     1     -23.814  56.180  44.159  1.00  0.00     0.293 HD
ENDBRANCH   2   9
BRANCH   4  11
ATOM     11  O   UNL     1     -25.933  52.679  41.099  1.00  0.00    -0.508 OA
ATOM     12  H   UNL     1     -25.267  53.061  40.437  1.00  0.00     0.293 HD
ENDBRANCH   4  11
TORSDOF 3
ENDMDL
MODEL 5
REMARK VINA RESULT:    -3.015      3.847      5.489
REMARK INTER + INTRA:          -3.453
REMARK INTER:                  -3.352
REMARK INTRA:                  -0.101
REMARK UNBOUND:                -0.086
REMARK SMILES CCc1ccc(O)cc1O
REMARK SMILES IDX 3 1 9 2 8 3 6 4 5 5 4 6 2 7 1 8 10 9 7 11
REMARK H PARENT 10 10 7 12
REMARK Flexibility Score: inf
ROOT
ATOM      1  C   UNL     1     -26.782  48.517  41.562  1.00  0.00    -0.006 A 
ATOM      2  C   UNL     1     -27.140  49.169  40.364  1.00  0.00     0.122 A 
ATOM      3  C   UNL     1     -28.254  48.727  39.635  1.00  0.00     0.092 A 
ATOM      4  C   UNL     1     -29.005  47.636  40.082  1.00  0.00     0.119 A 
ATOM      5  C   UNL     1     -28.641  46.978  41.263  1.00  0.00     0.047 A 
ATOM      6  C   UNL     1     -27.534  47.413  41.995  1.00  0.00     0.011 A 
ENDROOT
BRANCH   1   7
ATOM      7  C   UNL     1     -25.572  48.952  42.349  1.00  0.00     0.036 C 
ATOM      8  C   UNL     1     -25.957  49.975  43.412  1.00  0.00     0.009 C 
ENDBRANCH   1   7
BRANCH   2   9
ATOM      9  O   UNL     1     -26.390  50.250  39.902  1.00  0.00    -0.508 OA
ATOM     10  H   UNL     1     -25.540  50.116  39.367  1.00  0.00     0.293 HD
ENDBRANCH   2   9
BRANCH   4  11
ATOM     11  O   UNL     1     -30.107  47.211  39.343  1.00  0.00    -0.508 OA
ATOM     12  H   UNL     1     -30.477  47.764  38.578  1.00  0.00     0.293 HD
ENDBRANCH   4  11
TORSDOF 3
ENDMDL
MODEL 6
REMARK VINA RESULT:    -3.015      9.151     10.079
REMARK INTER + INTRA:          -3.453
REMARK INTER:                  -3.362
REMARK INTRA:                  -0.091
REMARK UNBOUND:                -0.086
REMARK SMILES CCc1ccc(O)cc1O
REMARK SMILES IDX 3 1 9 2 8 3 6 4 5 5 4 6 2 7 1 8 10 9 7 11
REMARK H PARENT 10 10 7 12
REMARK Flexibility Score: inf
ROOT
ATOM      1  C   UNL     1     -27.883  52.151  33.435  1.00  0.00    -0.006 A 
ATOM      2  C   UNL     1     -29.129  51.575  33.112  1.00  0.00     0.122 A 
ATOM      3  C   UNL     1     -29.365  50.221  33.392  1.00  0.00     0.092 A 
ATOM      4  C   UNL     1     -28.369  49.435  33.978  1.00  0.00     0.119 A 
ATOM      5  C   UNL     1     -27.126  50.002  34.286  1.00  0.00     0.047 A 
ATOM      6  C   UNL     1     -26.884  51.349  34.012  1.00  0.00     0.011 A 
ENDROOT
BRANCH   1   7
ATOM      7  C   UNL     1     -27.591  53.596  33.118  1.00  0.00     0.036 C 
ATOM      8  C   UNL     1     -27.123  54.340  34.364  1.00  0.00     0.009 C 
ENDBRANCH   1   7
BRANCH   2   9
ATOM      9  O   UNL     1     -30.125  52.347  32.515  1.00  0.00    -0.508 OA
ATOM     10  H   UNL     1     -30.429  53.225  32.919  1.00  0.00     0.293 HD
ENDBRANCH   2   9
BRANCH   4  11
ATOM     11  O   UNL     1     -28.623  48.091  34.247  1.00  0.00    -0.508 OA
ATOM     12  H   UNL     1     -28.373  47.363  33.588  1.00  0.00     0.293 HD
ENDBRANCH   4  11
TORSDOF 3
ENDMDL
MODEL 7
REMARK VINA RESULT:    -3.005      4.759      6.469
REMARK INTER + INTRA:          -3.442
REMARK INTER:                  -3.355
REMARK INTRA:                  -0.086
REMARK UNBOUND:                -0.086
REMARK SMILES CCc1ccc(O)cc1O
REMARK SMILES IDX 3 1 9 2 8 3 6 4 5 5 4 6 2 7 1 8 10 9 7 11
REMARK H PARENT 10 10 7 12
REMARK Flexibility Score: inf
ROOT
ATOM      1  C   UNL     1     -28.696  46.924  41.282  1.00  0.00    -0.006 A 
ATOM      2  C   UNL     1     -29.026  47.599  40.090  1.00  0.00     0.122 A 
ATOM      3  C   UNL     1     -28.249  48.687  39.665  1.00  0.00     0.092 A 
ATOM      4  C   UNL     1     -27.156  49.115  40.424  1.00  0.00     0.119 A 
ATOM      5  C   UNL     1     -26.835  48.455  41.616  1.00  0.00     0.047 A 
ATOM      6  C   UNL     1     -27.603  47.370  42.045  1.00  0.00     0.011 A 
ENDROOT
BRANCH   1   7
ATOM      7  C   UNL     1     -29.532  45.772  41.778  1.00  0.00     0.036 C 
ATOM      8  C   UNL     1     -29.236  45.480  43.246  1.00  0.00     0.009 C 
ENDBRANCH   1   7
BRANCH   2   9
ATOM      9  O   UNL     1     -30.123  47.189  39.333  1.00  0.00    -0.508 OA
ATOM     10  H   UNL     1     -31.003  47.693  39.356  1.00  0.00     0.293 HD
ENDBRANCH   2   9
BRANCH   4  11
ATOM     11  O   UNL     1     -26.396  50.198  39.985  1.00  0.00    -0.508 OA
ATOM     12  H   UNL     1     -26.310  51.043  40.539  1.00  0.00     0.293 HD
ENDBRANCH   4  11
TORSDOF 3
ENDMDL
MODEL 8
REMARK VINA RESULT:    -3.003      2.358      3.404
REMARK INTER + INTRA:          -3.440
REMARK INTER:                  -3.340
REMARK INTRA:                  -0.100
REMARK UNBOUND:                -0.086
REMARK SMILES CCc1ccc(O)cc1O
REMARK SMILES IDX 3 1 9 2 8 3 6 4 5 5 4 6 2 7 1 8 10 9 7 11
REMARK H PARENT 10 10 7 12
REMARK Flexibility Score: inf
ROOT
ATOM      1  C   UNL     1     -25.486  55.657  44.858  1.00  0.00    -0.006 A 
ATOM      2  C   UNL     1     -26.527  54.878  45.403  1.00  0.00     0.122 A 
ATOM      3  C   UNL     1     -26.954  53.720  44.738  1.00  0.00     0.092 A 
ATOM      4  C   UNL     1     -26.364  53.339  43.530  1.00  0.00     0.119 A 
ATOM      5  C   UNL     1     -25.340  54.119  42.979  1.00  0.00     0.047 A 
ATOM      6  C   UNL     1     -24.907  55.273  43.636  1.00  0.00     0.011 A 
ENDROOT
BRANCH   1   7
ATOM      7  C   UNL     1     -25.027  56.923  45.536  1.00  0.00     0.036 C 
ATOM      8  C   UNL     1     -23.641  56.738  46.146  1.00  0.00     0.009 C 
ENDBRANCH   1   7
BRANCH   2   9
ATOM      9  O   UNL     1     -27.132  55.257  46.601  1.00  0.00    -0.508 OA
ATOM     10  H   UNL     1     -26.726  55.968  47.199  1.00  0.00     0.293 HD
ENDBRANCH   2   9
BRANCH   4  11
ATOM     11  O   UNL     1     -26.804  52.185  42.884  1.00  0.00    -0.508 OA
ATOM     12  H   UNL     1     -27.174  52.215  41.940  1.00  0.00     0.293 HD
ENDBRANCH   4  11
TORSDOF 3
ENDMDL
MODEL 9
REMARK VINA RESULT:    -3.003      1.494      1.924
REMARK INTER + INTRA:          -3.440
REMARK INTER:                  -3.339
REMARK INTRA:                  -0.100
REMARK UNBOUND:                -0.086
REMARK SMILES CCc1ccc(O)cc1O
REMARK SMILES IDX 3 1 9 2 8 3 6 4 5 5 4 6 2 7 1 8 10 9 7 11
REMARK H PARENT 10 10 7 12
REMARK Flexibility Score: inf
ROOT
ATOM      1  C   UNL     1     -26.153  54.404  44.561  1.00  0.00    -0.006 A 
ATOM      2  C   UNL     1     -26.748  53.248  44.016  1.00  0.00     0.122 A 
ATOM      3  C   UNL     1     -26.356  52.791  42.749  1.00  0.00     0.092 A 
ATOM      4  C   UNL     1     -25.387  53.482  42.017  1.00  0.00     0.119 A 
ATOM      5  C   UNL     1     -24.805  54.639  42.549  1.00  0.00     0.047 A 
ATOM      6  C   UNL     1     -25.189  55.099  43.811  1.00  0.00     0.011 A 
ENDROOT
BRANCH   1   7
ATOM      7  C   UNL     1     -26.576  54.934  45.907  1.00  0.00     0.036 C 
ATOM      8  C   UNL     1     -25.700  54.360  47.015  1.00  0.00     0.009 C 
ENDBRANCH   1   7
BRANCH   2   9
ATOM      9  O   UNL     1     -27.726  52.559  44.733  1.00  0.00    -0.508 OA
ATOM     10  H   UNL     1     -27.502  51.738  45.283  1.00  0.00     0.293 HD
ENDBRANCH   2   9
BRANCH   4  11
ATOM     11  O   UNL     1     -25.012  53.013  40.759  1.00  0.00    -0.508 OA
ATOM     12  H   UNL     1     -24.688  52.062  40.624  1.00  0.00     0.293 HD
ENDBRANCH   4  11
TORSDOF 3
ENDMDL
