MODEL 1
REMARK VINA RESULT:    -2.990      0.000      0.000
REMARK INTER + INTRA:          -4.870
REMARK INTER:                  -4.563
REMARK INTRA:                  -0.307
REMARK UNBOUND:                -0.307
REMARK SMILES CC1=CCC[C@@H](C)C(=O)C[C@@H](C(C)C)C(=O)C1
REMARK SMILES IDX 8 1 9 2 6 3 7 4 5 5 4 6 3 7 2 8 1 9 10 11 11 12 15 13 16 14
REMARK SMILES IDX 17 15 12 17 13 18 14 19
REMARK H PARENT
REMARK Flexibility Score: 70.00
ROOT
ATOM      1  C   UNL     1       5.708  29.016  16.786  1.00  0.00     0.136 C 
ATOM      2  O   UNL     1       5.374  29.527  17.844  1.00  0.00    -0.299 OA
ENDROOT
BRANCH   1   3
ATOM      3  C   UNL     1       4.664  28.655  15.744  1.00  0.00     0.053 C 
ATOM      4  C   UNL     1       3.592  29.743  15.575  1.00  0.00     0.016 C 
BRANCH   3   5
ATOM      5  C   UNL     1       4.055  27.267  16.024  1.00  0.00     0.015 C 
BRANCH   5   6
ATOM      6  C   UNL     1       5.092  26.194  16.415  1.00  0.00     0.028 C 
BRANCH   6   7
ATOM      7  C   UNL     1       5.521  25.389  15.215  1.00  0.00    -0.028 C 
ATOM      8  C   UNL     1       6.761  25.415  14.673  1.00  0.00    -0.070 CG0
ATOM      9  C   UNL     1       7.015  24.586  13.440  1.00  0.00     0.039 C 
ATOM     10  G   UNL     1       7.906  26.235  15.248  1.00  0.00     0.000 G0
ENDBRANCH   6   7
ENDBRANCH   5   6
ENDBRANCH   3   5
ENDBRANCH   1   3
BRANCH   1  11
ATOM     11  C   UNL     1       7.172  28.770  16.499  1.00  0.00     0.087 C 
BRANCH  11  12
ATOM     12  C   UNL     1       7.574  28.861  15.003  1.00  0.00     0.066 C 
BRANCH  12  13
ATOM     13  C   UNL     1       8.182  27.544  14.529  1.00  0.00     0.140 C 
ATOM     14  O   UNL     1       8.927  27.563  13.560  1.00  0.00    -0.299 OA
BRANCH  13  15
ATOM     15  C   UNL     1       7.932  26.228  15.239  1.00  0.00     0.106 CG0
ATOM     16  G   UNL     1       6.761  25.454  14.653  1.00  0.00     0.000 G0
ENDBRANCH  13  15
ENDBRANCH  12  13
BRANCH  12  17
ATOM     17  C   UNL     1       8.418  30.119  14.606  1.00  0.00    -0.006 C 
ATOM     18  C   UNL     1       7.780  30.848  13.408  1.00  0.00     0.008 C 
ATOM     19  C   UNL     1       8.565  31.123  15.765  1.00  0.00     0.008 C 
ENDBRANCH  12  17
ENDBRANCH  11  12
ENDBRANCH   1  11
TORSDOF 1
ENDMDL
MODEL 2
REMARK VINA RESULT:    -2.882     13.752     16.014
REMARK INTER + INTRA:          -4.705
REMARK INTER:                  -4.688
REMARK INTRA:                  -0.017
REMARK UNBOUND:                -0.307
REMARK SMILES CC1=CCC[C@@H](C)C(=O)C[C@@H](C(C)C)C(=O)C1
REMARK SMILES IDX 8 1 9 2 6 3 7 4 5 5 4 6 3 7 2 8 1 9 10 11 11 12 15 13 16 14
REMARK SMILES IDX 17 15 12 17 13 18 14 19
REMARK H PARENT
REMARK Flexibility Score: 70.00
ROOT
ATOM      1  C   UNL     1      14.113  15.707  14.886  1.00  0.00     0.136 C 
ATOM      2  O   UNL     1      13.217  16.538  14.867  1.00  0.00    -0.299 OA
ENDROOT
BRANCH   1   3
ATOM      3  C   UNL     1      13.905  14.339  14.260  1.00  0.00     0.053 C 
ATOM      4  C   UNL     1      12.825  14.344  13.166  1.00  0.00     0.016 C 
BRANCH   3   5
ATOM      5  C   UNL     1      13.648  13.267  15.337  1.00  0.00     0.015 C 
BRANCH   5   6
ATOM      6  C   UNL     1      14.932  12.662  15.939  1.00  0.00     0.028 C 
BRANCH   6   7
ATOM      7  C   UNL     1      15.889  12.229  14.858  1.00  0.00    -0.028 C 
ATOM      8  C   UNL     1      17.045  12.863  14.553  1.00  0.00    -0.070 CG0
ATOM      9  C   UNL     1      17.867  12.330  13.407  1.00  0.00     0.039 C 
ATOM     10  G   UNL     1      17.554  14.081  15.309  1.00  0.00     0.000 G0
ENDBRANCH   6   7
ENDBRANCH   5   6
ENDBRANCH   3   5
ENDBRANCH   1   3
BRANCH   1  11
ATOM     11  C   UNL     1      15.446  16.052  15.510  1.00  0.00     0.087 C 
BRANCH  11  12
ATOM     12  C   UNL     1      16.568  16.422  14.504  1.00  0.00     0.066 C 
BRANCH  12  13
ATOM     13  C   UNL     1      17.634  15.331  14.462  1.00  0.00     0.140 C 
ATOM     14  O   UNL     1      18.608  15.497  13.741  1.00  0.00    -0.299 OA
BRANCH  13  15
ATOM     15  C   UNL     1      17.551  14.077  15.310  1.00  0.00     0.106 CG0
ATOM     16  G   UNL     1      17.036  12.873  14.536  1.00  0.00     0.000 G0
ENDBRANCH  13  15
ENDBRANCH  12  13
BRANCH  12  17
ATOM     17  C   UNL     1      17.156  17.867  14.649  1.00  0.00    -0.006 C 
ATOM     18  C   UNL     1      16.081  18.926  14.342  1.00  0.00     0.008 C 
ATOM     19  C   UNL     1      17.718  18.138  16.057  1.00  0.00     0.008 C 
ENDBRANCH  12  17
ENDBRANCH  11  12
ENDBRANCH   1  11
TORSDOF 1
ENDMDL
MODEL 3
REMARK VINA RESULT:    -2.860      7.781      9.811
REMARK INTER + INTRA:          -4.672
REMARK INTER:                  -4.601
REMARK INTRA:                  -0.071
REMARK UNBOUND:                -0.307
REMARK SMILES CC1=CCC[C@@H](C)C(=O)C[C@@H](C(C)C)C(=O)C1
REMARK SMILES IDX 8 1 9 2 6 3 7 4 5 5 4 6 3 7 2 8 1 9 10 11 11 12 15 13 16 14
REMARK SMILES IDX 17 15 12 17 13 18 14 19
REMARK H PARENT
REMARK Flexibility Score: 70.00
ROOT
ATOM      1  C   UNL     1      14.184  27.014  15.482  1.00  0.00     0.136 C 
ATOM      2  O   UNL     1      13.672  27.004  16.591  1.00  0.00    -0.299 OA
ENDROOT
BRANCH   1   3
ATOM      3  C   UNL     1      15.141  28.124  15.087  1.00  0.00     0.053 C 
ATOM      4  C   UNL     1      14.819  28.723  13.708  1.00  0.00     0.016 C 
BRANCH   3   5
ATOM      5  C   UNL     1      16.607  27.664  15.202  1.00  0.00     0.015 C 
BRANCH   5   6
ATOM      6  C   UNL     1      17.223  27.194  13.869  1.00  0.00     0.028 C 
BRANCH   6   7
ATOM      7  C   UNL     1      18.006  25.918  14.051  1.00  0.00    -0.028 C 
ATOM      8  C   UNL     1      17.509  24.675  13.860  1.00  0.00    -0.070 CG0
ATOM      9  C   UNL     1      18.411  23.499  14.134  1.00  0.00     0.039 C 
ATOM     10  G   UNL     1      16.090  24.407  13.382  1.00  0.00     0.000 G0
ENDBRANCH   6   7
ENDBRANCH   5   6
ENDBRANCH   3   5
ENDBRANCH   1   3
BRANCH   1  11
ATOM     11  C   UNL     1      13.885  25.898  14.506  1.00  0.00     0.087 C 
BRANCH  11  12
ATOM     12  C   UNL     1      14.026  24.464  15.083  1.00  0.00     0.066 C 
BRANCH  12  13
ATOM     13  C   UNL     1      15.199  23.736  14.435  1.00  0.00     0.140 C 
ATOM     14  O   UNL     1      15.415  22.577  14.760  1.00  0.00    -0.299 OA
BRANCH  13  15
ATOM     15  C   UNL     1      16.073  24.378  13.376  1.00  0.00     0.106 CG0
ATOM     16  G   UNL     1      17.480  24.676  13.873  1.00  0.00     0.000 G0
ENDBRANCH  13  15
ENDBRANCH  12  13
BRANCH  12  17
ATOM     17  C   UNL     1      12.707  23.619  15.120  1.00  0.00    -0.006 C 
ATOM     18  C   UNL     1      11.799  24.076  16.277  1.00  0.00     0.008 C 
ATOM     19  C   UNL     1      11.907  23.714  13.807  1.00  0.00     0.008 C 
ENDBRANCH  12  17
ENDBRANCH  11  12
ENDBRANCH   1  11
TORSDOF 1
ENDMDL
MODEL 4
REMARK VINA RESULT:    -2.748      1.937      4.321
REMARK INTER + INTRA:          -4.501
REMARK INTER:                  -4.053
REMARK INTRA:                  -0.448
REMARK UNBOUND:                -0.307
REMARK SMILES CC1=CCC[C@@H](C)C(=O)C[C@@H](C(C)C)C(=O)C1
REMARK SMILES IDX 8 1 9 2 6 3 7 4 5 5 4 6 3 7 2 8 1 9 10 11 11 12 15 13 16 14
REMARK SMILES IDX 17 15 12 17 13 18 14 19
REMARK H PARENT
REMARK Flexibility Score: 70.00
ROOT
ATOM      1  C   UNL     1       3.877  28.269  14.545  1.00  0.00     0.136 C 
ATOM      2  O   UNL     1       3.819  29.195  13.749  1.00  0.00    -0.299 OA
ENDROOT
BRANCH   1   3
ATOM      3  C   UNL     1       3.552  28.493  16.011  1.00  0.00     0.053 C 
ATOM      4  C   UNL     1       2.060  28.778  16.251  1.00  0.00     0.016 C 
BRANCH   3   5
ATOM      5  C   UNL     1       4.464  29.574  16.625  1.00  0.00     0.015 C 
BRANCH   5   6
ATOM      6  C   UNL     1       5.791  29.028  17.187  1.00  0.00     0.028 C 
BRANCH   6   7
ATOM      7  C   UNL     1       6.882  29.073  16.147  1.00  0.00    -0.028 C 
ATOM      8  C   UNL     1       7.525  27.988  15.657  1.00  0.00    -0.070 CG0
ATOM      9  C   UNL     1       8.630  28.209  14.656  1.00  0.00     0.039 C 
ATOM     10  G   UNL     1       7.185  26.562  16.063  1.00  0.00     0.000 G0
ENDBRANCH   6   7
ENDBRANCH   5   6
ENDBRANCH   3   5
ENDBRANCH   1   3
BRANCH   1  11
ATOM     11  C   UNL     1       4.247  26.885  14.061  1.00  0.00     0.087 C 
BRANCH  11  12
ATOM     12  C   UNL     1       4.774  25.923  15.159  1.00  0.00     0.066 C 
BRANCH  12  13
ATOM     13  C   UNL     1       6.295  25.825  15.104  1.00  0.00     0.140 C 
ATOM     14  O   UNL     1       6.803  25.159  14.213  1.00  0.00    -0.299 OA
BRANCH  13  15
ATOM     15  C   UNL     1       7.195  26.554  16.082  1.00  0.00     0.106 CG0
ATOM     16  G   UNL     1       7.519  27.973  15.641  1.00  0.00     0.000 G0
ENDBRANCH  13  15
ENDBRANCH  12  13
BRANCH  12  17
ATOM     17  C   UNL     1       4.058  24.531  15.235  1.00  0.00    -0.006 C 
ATOM     18  C   UNL     1       3.536  24.264  16.660  1.00  0.00     0.008 C 
ATOM     19  C   UNL     1       2.877  24.419  14.255  1.00  0.00     0.008 C 
ENDBRANCH  12  17
ENDBRANCH  11  12
ENDBRANCH   1  11
TORSDOF 1
ENDMDL
MODEL 5
REMARK VINA RESULT:    -2.745      1.961      4.029
REMARK INTER + INTRA:          -4.496
REMARK INTER:                  -4.288
REMARK INTRA:                  -0.208
REMARK UNBOUND:                -0.307
REMARK SMILES CC1=CCC[C@@H](C)C(=O)C[C@@H](C(C)C)C(=O)C1
REMARK SMILES IDX 8 1 9 2 6 3 7 4 5 5 4 6 3 7 2 8 1 9 10 11 11 12 15 13 16 14
REMARK SMILES IDX 17 15 12 17 13 18 14 19
REMARK H PARENT
REMARK Flexibility Score: 70.00
ROOT
ATOM      1  C   UNL     1       4.190  29.269  14.662  1.00  0.00     0.136 C 
ATOM      2  O   UNL     1       3.187  29.883  14.329  1.00  0.00    -0.299 OA
ENDROOT
BRANCH   1   3
ATOM      3  C   UNL     1       4.296  28.668  16.053  1.00  0.00     0.053 C 
ATOM      4  C   UNL     1       2.933  28.234  16.618  1.00  0.00     0.016 C 
BRANCH   3   5
ATOM      5  C   UNL     1       5.058  29.607  17.008  1.00  0.00     0.015 C 
BRANCH   5   6
ATOM      6  C   UNL     1       6.484  29.130  17.351  1.00  0.00     0.028 C 
BRANCH   6   7
ATOM      7  C   UNL     1       7.511  30.164  16.965  1.00  0.00    -0.028 C 
ATOM      8  C   UNL     1       8.500  29.968  16.063  1.00  0.00    -0.070 CG0
ATOM      9  C   UNL     1       9.478  31.090  15.826  1.00  0.00     0.039 C 
ATOM     10  G   UNL     1       8.670  28.677  15.277  1.00  0.00     0.000 G0
ENDBRANCH   6   7
ENDBRANCH   5   6
ENDBRANCH   3   5
ENDBRANCH   1   3
BRANCH   1  11
ATOM     11  C   UNL     1       5.318  29.081  13.675  1.00  0.00     0.087 C 
BRANCH  11  12
ATOM     12  C   UNL     1       6.380  28.024  14.081  1.00  0.00     0.066 C 
BRANCH  12  13
ATOM     13  C   UNL     1       7.782  28.622  14.031  1.00  0.00     0.140 C 
ATOM     14  O   UNL     1       8.174  29.097  12.974  1.00  0.00    -0.299 OA
BRANCH  13  15
ATOM     15  C   UNL     1       8.684  28.690  15.247  1.00  0.00     0.106 CG0
ATOM     16  G   UNL     1       8.498  29.969  16.050  1.00  0.00     0.000 G0
ENDBRANCH  13  15
ENDBRANCH  12  13
BRANCH  12  17
ATOM     17  C   UNL     1       6.264  26.638  13.358  1.00  0.00    -0.006 C 
ATOM     18  C   UNL     1       6.738  25.500  14.280  1.00  0.00     0.008 C 
ATOM     19  C   UNL     1       4.826  26.328  12.901  1.00  0.00     0.008 C 
ENDBRANCH  12  17
ENDBRANCH  11  12
ENDBRANCH   1  11
TORSDOF 1
ENDMDL
MODEL 6
REMARK VINA RESULT:    -2.686      6.643      9.043
REMARK INTER + INTRA:          -4.407
REMARK INTER:                  -4.160
REMARK INTRA:                  -0.247
REMARK UNBOUND:                -0.307
REMARK SMILES CC1=CCC[C@@H](C)C(=O)C[C@@H](C(C)C)C(=O)C1
REMARK SMILES IDX 8 1 9 2 6 3 7 4 5 5 4 6 3 7 2 8 1 9 10 11 11 12 15 13 16 14
REMARK SMILES IDX 17 15 12 17 13 18 14 19
REMARK H PARENT
REMARK Flexibility Score: 70.00
ROOT
ATOM      1  C   UNL     1      14.090  24.302  15.115  1.00  0.00     0.136 C 
ATOM      2  O   UNL     1      13.734  23.188  15.471  1.00  0.00    -0.299 OA
ENDROOT
BRANCH   1   3
ATOM      3  C   UNL     1      15.437  24.500  14.442  1.00  0.00     0.053 C 
ATOM      4  C   UNL     1      15.817  23.329  13.520  1.00  0.00     0.016 C 
BRANCH   3   5
ATOM      5  C   UNL     1      16.535  24.816  15.476  1.00  0.00     0.015 C 
BRANCH   5   6
ATOM      6  C   UNL     1      16.625  26.307  15.858  1.00  0.00     0.028 C 
BRANCH   6   7
ATOM      7  C   UNL     1      16.687  27.181  14.631  1.00  0.00    -0.028 C 
ATOM      8  C   UNL     1      15.695  28.006  14.223  1.00  0.00    -0.070 CG0
ATOM      9  C   UNL     1      15.894  28.778  12.943  1.00  0.00     0.039 C 
ATOM     10  G   UNL     1      14.395  28.194  14.991  1.00  0.00     0.000 G0
ENDBRANCH   6   7
ENDBRANCH   5   6
ENDBRANCH   3   5
ENDBRANCH   1   3
BRANCH   1  11
ATOM     11  C   UNL     1      13.172  25.485  15.321  1.00  0.00     0.087 C 
BRANCH  11  12
ATOM     12  C   UNL     1      12.804  26.265  14.030  1.00  0.00     0.066 C 
BRANCH  12  13
ATOM     13  C   UNL     1      13.179  27.737  14.166  1.00  0.00     0.140 C 
ATOM     14  O   UNL     1      12.463  28.571  13.630  1.00  0.00    -0.299 OA
BRANCH  13  15
ATOM     15  C   UNL     1      14.374  28.204  14.974  1.00  0.00     0.106 CG0
ATOM     16  G   UNL     1      15.692  28.028  14.234  1.00  0.00     0.000 G0
ENDBRANCH  13  15
ENDBRANCH  12  13
BRANCH  12  17
ATOM     17  C   UNL     1      11.350  26.035  13.494  1.00  0.00    -0.006 C 
ATOM     18  C   UNL     1      11.210  24.629  12.882  1.00  0.00     0.008 C 
ATOM     19  C   UNL     1      10.283  26.196  14.593  1.00  0.00     0.008 C 
ENDBRANCH  12  17
ENDBRANCH  11  12
ENDBRANCH   1  11
TORSDOF 1
ENDMDL
MODEL 7
REMARK VINA RESULT:    -2.554      2.198      3.482
REMARK INTER + INTRA:          -4.205
REMARK INTER:                  -3.871
REMARK INTRA:                  -0.334
REMARK UNBOUND:                -0.307
REMARK SMILES CC1=CCC[C@@H](C)C(=O)C[C@@H](C(C)C)C(=O)C1
REMARK SMILES IDX 8 1 9 2 6 3 7 4 5 5 4 6 3 7 2 8 1 9 10 11 11 12 15 13 16 14
REMARK SMILES IDX 17 15 12 17 13 18 14 19
REMARK H PARENT
REMARK Flexibility Score: 70.00
ROOT
ATOM      1  C   UNL     1       6.397  26.706  16.087  1.00  0.00     0.136 C 
ATOM      2  O   UNL     1       5.939  27.031  17.172  1.00  0.00    -0.299 OA
ENDROOT
BRANCH   1   3
ATOM      3  C   UNL     1       6.020  25.374  15.463  1.00  0.00     0.053 C 
ATOM      4  C   UNL     1       6.862  25.041  14.220  1.00  0.00     0.016 C 
BRANCH   3   5
ATOM      5  C   UNL     1       4.506  25.296  15.186  1.00  0.00     0.015 C 
BRANCH   5   6
ATOM      6  C   UNL     1       4.095  25.820  13.795  1.00  0.00     0.028 C 
BRANCH   6   7
ATOM      7  C   UNL     1       3.449  27.178  13.894  1.00  0.00    -0.028 C 
ATOM      8  C   UNL     1       4.053  28.345  13.571  1.00  0.00    -0.070 CG0
ATOM      9  C   UNL     1       3.283  29.624  13.775  1.00  0.00     0.039 C 
ATOM     10  G   UNL     1       5.465  28.426  13.011  1.00  0.00     0.000 G0
ENDBRANCH   6   7
ENDBRANCH   5   6
ENDBRANCH   3   5
ENDBRANCH   1   3
BRANCH   1  11
ATOM     11  C   UNL     1       7.320  27.647  15.348  1.00  0.00     0.087 C 
BRANCH  11  12
ATOM     12  C   UNL     1       6.803  29.104  15.210  1.00  0.00     0.066 C 
BRANCH  12  13
ATOM     13  C   UNL     1       6.363  29.384  13.776  1.00  0.00     0.140 C 
ATOM     14  O   UNL     1       6.778  30.395  13.228  1.00  0.00    -0.299 OA
BRANCH  13  15
ATOM     15  C   UNL     1       5.470  28.438  12.997  1.00  0.00     0.106 CG0
ATOM     16  G   UNL     1       4.065  28.342  13.574  1.00  0.00     0.000 G0
ENDBRANCH  13  15
ENDBRANCH  12  13
BRANCH  12  17
ATOM     17  C   UNL     1       7.737  30.211  15.806  1.00  0.00    -0.006 C 
ATOM     18  C   UNL     1       7.410  30.458  17.291  1.00  0.00     0.008 C 
ATOM     19  C   UNL     1       9.229  29.851  15.690  1.00  0.00     0.008 C 
ENDBRANCH  12  17
ENDBRANCH  11  12
ENDBRANCH   1  11
TORSDOF 1
ENDMDL
MODEL 8
REMARK VINA RESULT:    -2.498     14.095     16.791
REMARK INTER + INTRA:          -4.120
REMARK INTER:                  -4.184
REMARK INTRA:                   0.065
REMARK UNBOUND:                -0.307
REMARK SMILES CC1=CCC[C@@H](C)C(=O)C[C@@H](C(C)C)C(=O)C1
REMARK SMILES IDX 8 1 9 2 6 3 7 4 5 5 4 6 3 7 2 8 1 9 10 11 11 12 15 13 16 14
REMARK SMILES IDX 17 15 12 17 13 18 14 19
REMARK H PARENT
REMARK Flexibility Score: 70.00
ROOT
ATOM      1  C   UNL     1      15.869  13.434  15.668  1.00  0.00     0.136 C 
ATOM      2  O   UNL     1      15.356  12.679  16.481  1.00  0.00    -0.299 OA
ENDROOT
BRANCH   1   3
ATOM      3  C   UNL     1      16.770  12.888  14.575  1.00  0.00     0.053 C 
ATOM      4  C   UNL     1      16.603  11.373  14.369  1.00  0.00     0.016 C 
BRANCH   3   5
ATOM      5  C   UNL     1      18.238  13.292  14.809  1.00  0.00     0.015 C 
BRANCH   5   6
ATOM      6  C   UNL     1      18.810  14.234  13.731  1.00  0.00     0.028 C 
BRANCH   6   7
ATOM      7  C   UNL     1      19.629  15.337  14.350  1.00  0.00    -0.028 C 
ATOM      8  C   UNL     1      19.280  16.645  14.359  1.00  0.00    -0.070 CG0
ATOM      9  C   UNL     1      20.237  17.631  14.977  1.00  0.00     0.039 C 
ATOM     10  G   UNL     1      17.973  17.164  13.780  1.00  0.00     0.000 G0
ENDBRANCH   6   7
ENDBRANCH   5   6
ENDBRANCH   3   5
ENDBRANCH   1   3
BRANCH   1  11
ATOM     11  C   UNL     1      15.582  14.917  15.734  1.00  0.00     0.087 C 
BRANCH  11  12
ATOM     12  C   UNL     1      15.838  15.696  14.417  1.00  0.00     0.066 C 
BRANCH  12  13
ATOM     13  C   UNL     1      16.768  16.880  14.664  1.00  0.00     0.140 C 
ATOM     14  O   UNL     1      16.554  17.594  15.634  1.00  0.00    -0.299 OA
BRANCH  13  15
ATOM     15  C   UNL     1      17.966  17.175  13.783  1.00  0.00     0.106 CG0
ATOM     16  G   UNL     1      19.268  16.640  14.359  1.00  0.00     0.000 G0
ENDBRANCH  13  15
ENDBRANCH  12  13
BRANCH  12  17
ATOM     17  C   UNL     1      14.559  16.066  13.591  1.00  0.00    -0.006 C 
ATOM     18  C   UNL     1      13.939  14.809  12.952  1.00  0.00     0.008 C 
ATOM     19  C   UNL     1      13.482  16.758  14.448  1.00  0.00     0.008 C 
ENDBRANCH  12  17
ENDBRANCH  11  12
ENDBRANCH   1  11
TORSDOF 1
ENDMDL
MODEL 9
REMARK VINA RESULT:    -2.466      6.397      8.439
REMARK INTER + INTRA:          -4.070
REMARK INTER:                  -4.120
REMARK INTRA:                   0.050
REMARK UNBOUND:                -0.307
REMARK SMILES CC1=CCC[C@@H](C)C(=O)C[C@@H](C(C)C)C(=O)C1
REMARK SMILES IDX 8 1 9 2 6 3 7 4 5 5 4 6 3 7 2 8 1 9 10 11 11 12 15 13 16 14
REMARK SMILES IDX 17 15 12 17 13 18 14 19
REMARK H PARENT
REMARK Flexibility Score: 70.00
ROOT
ATOM      1  C   UNL     1      15.191  24.197  14.615  1.00  0.00     0.136 C 
ATOM      2  O   UNL     1      16.029  24.289  15.500  1.00  0.00    -0.299 OA
ENDROOT
BRANCH   1   3
ATOM      3  C   UNL     1      14.372  22.927  14.461  1.00  0.00     0.053 C 
ATOM      4  C   UNL     1      14.997  21.934  13.467  1.00  0.00     0.016 C 
BRANCH   3   5
ATOM      5  C   UNL     1      12.903  23.249  14.127  1.00  0.00     0.015 C 
BRANCH   5   6
ATOM      6  C   UNL     1      12.179  24.071  15.212  1.00  0.00     0.028 C 
BRANCH   6   7
ATOM      7  C   UNL     1      11.305  25.135  14.597  1.00  0.00    -0.028 C 
ATOM      8  C   UNL     1      11.525  26.466  14.696  1.00  0.00    -0.070 CG0
ATOM      9  C   UNL     1      10.527  27.401  14.063  1.00  0.00     0.039 C 
ATOM     10  G   UNL     1      12.729  27.062  15.410  1.00  0.00     0.000 G0
ENDBRANCH   6   7
ENDBRANCH   5   6
ENDBRANCH   3   5
ENDBRANCH   1   3
BRANCH   1  11
ATOM     11  C   UNL     1      14.949  25.363  13.685  1.00  0.00     0.087 C 
BRANCH  11  12
ATOM     12  C   UNL     1      15.152  26.765  14.320  1.00  0.00     0.066 C 
BRANCH  12  13
ATOM     13  C   UNL     1      13.821  27.502  14.435  1.00  0.00     0.140 C 
ATOM     14  O   UNL     1      13.615  28.448  13.688  1.00  0.00    -0.299 OA
BRANCH  13  15
ATOM     15  C   UNL     1      12.735  27.078  15.403  1.00  0.00     0.106 CG0
ATOM     16  G   UNL     1      11.522  26.481  14.706  1.00  0.00     0.000 G0
ENDBRANCH  13  15
ENDBRANCH  12  13
BRANCH  12  17
ATOM     17  C   UNL     1      16.296  27.631  13.692  1.00  0.00    -0.006 C 
ATOM     18  C   UNL     1      16.884  28.599  14.736  1.00  0.00     0.008 C 
ATOM     19  C   UNL     1      17.442  26.774  13.123  1.00  0.00     0.008 C 
ENDBRANCH  12  17
ENDBRANCH  11  12
ENDBRANCH   1  11
TORSDOF 1
ENDMDL
