MODEL 1
REMARK VINA RESULT:    -5.879      0.000      0.000
REMARK INTER + INTRA:         -12.660
REMARK INTER:                 -11.034
REMARK INTRA:                  -1.626
REMARK UNBOUND:                -1.626
REMARK SMILES O=C([O-])CCCCCCCCCCCCCCC(=O)[O-]
REMARK SMILES IDX 10 1 9 2 8 3 7 4 6 5 5 6 4 7 2 8 1 9 3 10 11 11 12 12 13 13
REMARK SMILES IDX 14 14 15 15 16 16 17 17 18 18 19 19 20 20
REMARK H PARENT
REMARK Flexibility Score: inf
ROOT
ATOM      1  C   UNL     1      93.649  -2.616   7.633  1.00  0.00     0.000 C 
ENDROOT
BRANCH   1   2
ATOM      2  C   UNL     1      93.561  -4.116   7.960  1.00  0.00     0.000 C 
BRANCH   2   3
ATOM      3  C   UNL     1      93.202  -4.377   9.433  1.00  0.00     0.000 C 
BRANCH   3   4
ATOM      4  C   UNL     1      94.299  -3.879  10.398  1.00  0.00     0.000 C 
BRANCH   4   5
ATOM      5  C   UNL     1      95.521  -4.813  10.484  1.00  0.00     0.000 C 
BRANCH   5   6
ATOM      6  C   UNL     1      96.886  -4.101  10.443  1.00  0.00     0.006 C 
BRANCH   6   7
ATOM      7  C   UNL     1      96.918  -2.849   9.553  1.00  0.00     0.053 C 
BRANCH   7   8
ATOM      8  C   UNL     1      97.515  -3.131   8.209  1.00  0.00     0.041 C 
ATOM      9  O   UNL     1      98.415  -2.381   7.745  1.00  0.00    -0.550 OA
ATOM     10  O   UNL     1      97.057  -4.204   7.454  1.00  0.00    -0.550 OA
ENDBRANCH   7   8
ENDBRANCH   6   7
ENDBRANCH   5   6
ENDBRANCH   4   5
ENDBRANCH   3   4
ENDBRANCH   2   3
ENDBRANCH   1   2
BRANCH   1  11
ATOM     11  C   UNL     1      92.310  -2.040   7.147  1.00  0.00     0.000 C 
BRANCH  11  12
ATOM     12  C   UNL     1      92.537  -0.925   6.116  1.00  0.00     0.000 C 
BRANCH  12  13
ATOM     13  C   UNL     1      91.227  -0.253   5.670  1.00  0.00     0.000 C 
BRANCH  13  14
ATOM     14  C   UNL     1      90.026  -1.213   5.723  1.00  0.00     0.000 C 
BRANCH  14  15
ATOM     15  C   UNL     1      89.908  -2.097   4.468  1.00  0.00     0.000 C 
BRANCH  15  16
ATOM     16  C   UNL     1      89.271  -3.479   4.699  1.00  0.00     0.006 C 
BRANCH  16  17
ATOM     17  C   UNL     1      89.281  -3.906   6.172  1.00  0.00     0.053 C 
BRANCH  17  18
ATOM     18  C   UNL     1      90.237  -5.039   6.381  1.00  0.00     0.041 C 
ATOM     19  O   UNL     1      90.235  -5.676   7.467  1.00  0.00    -0.550 OA
ATOM     20  O   UNL     1      91.164  -5.357   5.397  1.00  0.00    -0.550 OA
ENDBRANCH  17  18
ENDBRANCH  16  17
ENDBRANCH  15  16
ENDBRANCH  14  15
ENDBRANCH  13  14
ENDBRANCH  12  13
ENDBRANCH  11  12
ENDBRANCH   1  11
TORSDOF 15
ENDMDL
MODEL 2
REMARK VINA RESULT:    -5.873      2.851      5.431
REMARK INTER + INTRA:         -12.649
REMARK INTER:                 -11.175
REMARK INTRA:                  -1.474
REMARK UNBOUND:                -1.626
REMARK SMILES O=C([O-])CCCCCCCCCCCCCCC(=O)[O-]
REMARK SMILES IDX 10 1 9 2 8 3 7 4 6 5 5 6 4 7 2 8 1 9 3 10 11 11 12 12 13 13
REMARK SMILES IDX 14 14 15 15 16 16 17 17 18 18 19 19 20 20
REMARK H PARENT
REMARK Flexibility Score: inf
ROOT
ATOM      1  C   UNL     1      97.199  -3.696   8.900  1.00  0.00     0.000 C 
ENDROOT
BRANCH   1   2
ATOM      2  C   UNL     1      96.756  -3.048   7.578  1.00  0.00     0.000 C 
BRANCH   2   3
ATOM      3  C   UNL     1      97.940  -2.477   6.777  1.00  0.00     0.000 C 
BRANCH   3   4
ATOM      4  C   UNL     1      99.182  -3.391   6.840  1.00  0.00     0.000 C 
BRANCH   4   5
ATOM      5  C   UNL     1      99.253  -4.421   5.697  1.00  0.00     0.000 C 
BRANCH   5   6
ATOM      6  C   UNL     1      99.163  -5.892   6.143  1.00  0.00     0.006 C 
BRANCH   6   7
ATOM      7  C   UNL     1      97.889  -6.615   5.678  1.00  0.00     0.053 C 
BRANCH   7   8
ATOM      8  C   UNL     1      98.049  -8.104   5.700  1.00  0.00     0.041 C 
ATOM      9  O   UNL     1      99.125  -8.619   6.105  1.00  0.00    -0.550 OA
ATOM     10  O   UNL     1      97.023  -8.922   5.245  1.00  0.00    -0.550 OA
ENDBRANCH   7   8
ENDBRANCH   6   7
ENDBRANCH   5   6
ENDBRANCH   4   5
ENDBRANCH   3   4
ENDBRANCH   2   3
ENDBRANCH   1   2
BRANCH   1  11
ATOM     11  C   UNL     1      96.996  -2.767  10.107  1.00  0.00     0.000 C 
BRANCH  11  12
ATOM     12  C   UNL     1      95.835  -3.257  10.985  1.00  0.00     0.000 C 
BRANCH  12  13
ATOM     13  C   UNL     1      95.488  -4.735  10.739  1.00  0.00     0.000 C 
BRANCH  13  14
ATOM     14  C   UNL     1      94.109  -4.914  10.082  1.00  0.00     0.000 C 
BRANCH  14  15
ATOM     15  C   UNL     1      93.557  -3.608   9.481  1.00  0.00     0.000 C 
BRANCH  15  16
ATOM     16  C   UNL     1      93.052  -3.719   8.030  1.00  0.00     0.006 C 
BRANCH  16  17
ATOM     17  C   UNL     1      92.708  -2.360   7.410  1.00  0.00     0.053 C 
BRANCH  17  18
ATOM     18  C   UNL     1      91.574  -2.499   6.443  1.00  0.00     0.041 C 
ATOM     19  O   UNL     1      91.056  -1.476   5.924  1.00  0.00    -0.550 OA
ATOM     20  O   UNL     1      91.056  -3.756   6.155  1.00  0.00    -0.550 OA
ENDBRANCH  17  18
ENDBRANCH  16  17
ENDBRANCH  15  16
ENDBRANCH  14  15
ENDBRANCH  13  14
ENDBRANCH  12  13
ENDBRANCH  11  12
ENDBRANCH   1  11
TORSDOF 15
ENDMDL
MODEL 3
REMARK VINA RESULT:    -5.845      7.015     10.571
REMARK INTER + INTRA:         -12.596
REMARK INTER:                 -11.107
REMARK INTRA:                  -1.490
REMARK UNBOUND:                -1.626
REMARK SMILES O=C([O-])CCCCCCCCCCCCCCC(=O)[O-]
REMARK SMILES IDX 10 1 9 2 8 3 7 4 6 5 5 6 4 7 2 8 1 9 3 10 11 11 12 12 13 13
REMARK SMILES IDX 14 14 15 15 16 16 17 17 18 18 19 19 20 20
REMARK H PARENT
REMARK Flexibility Score: inf
ROOT
ATOM      1  C   UNL     1      84.654  -2.550   2.668  1.00  0.00     0.000 C 
ENDROOT
BRANCH   1   2
ATOM      2  C   UNL     1      86.100  -3.034   2.868  1.00  0.00     0.000 C 
BRANCH   2   3
ATOM      3  C   UNL     1      87.131  -2.095   2.219  1.00  0.00     0.000 C 
BRANCH   3   4
ATOM      4  C   UNL     1      88.463  -2.061   2.999  1.00  0.00     0.000 C 
BRANCH   4   5
ATOM      5  C   UNL     1      88.491  -3.004   4.217  1.00  0.00     0.000 C 
BRANCH   5   6
ATOM      6  C   UNL     1      88.515  -2.296   5.584  1.00  0.00     0.006 C 
BRANCH   6   7
ATOM      7  C   UNL     1      87.124  -2.041   6.187  1.00  0.00     0.053 C 
BRANCH   7   8
ATOM      8  C   UNL     1      86.453  -3.312   6.607  1.00  0.00     0.041 C 
ATOM      9  O   UNL     1      87.124  -4.237   7.137  1.00  0.00    -0.550 OA
ATOM     10  O   UNL     1      85.093  -3.489   6.385  1.00  0.00    -0.550 OA
ENDBRANCH   7   8
ENDBRANCH   6   7
ENDBRANCH   5   6
ENDBRANCH   4   5
ENDBRANCH   3   4
ENDBRANCH   2   3
ENDBRANCH   1   2
BRANCH   1  11
ATOM     11  C   UNL     1      83.646  -3.708   2.631  1.00  0.00     0.000 C 
BRANCH  11  12
ATOM     12  C   UNL     1      82.398  -3.374   3.462  1.00  0.00     0.000 C 
BRANCH  12  13
ATOM     13  C   UNL     1      81.098  -3.472   2.646  1.00  0.00     0.000 C 
BRANCH  13  14
ATOM     14  C   UNL     1      81.355  -3.809   1.168  1.00  0.00     0.000 C 
BRANCH  14  15
ATOM     15  C   UNL     1      81.021  -2.643   0.219  1.00  0.00     0.000 C 
BRANCH  15  16
ATOM     16  C   UNL     1      82.190  -1.683  -0.074  1.00  0.00     0.006 C 
BRANCH  16  17
ATOM     17  C   UNL     1      82.114  -0.382   0.732  1.00  0.00     0.053 C 
BRANCH  17  18
ATOM     18  C   UNL     1      82.503   0.785  -0.121  1.00  0.00     0.041 C 
ATOM     19  O   UNL     1      82.542   1.943   0.371  1.00  0.00    -0.550 OA
ATOM     20  O   UNL     1      82.772   0.600  -1.471  1.00  0.00    -0.550 OA
ENDBRANCH  17  18
ENDBRANCH  16  17
ENDBRANCH  15  16
ENDBRANCH  14  15
ENDBRANCH  13  14
ENDBRANCH  12  13
ENDBRANCH  11  12
ENDBRANCH   1  11
TORSDOF 15
ENDMDL
MODEL 4
REMARK VINA RESULT:    -5.844      7.706     11.259
REMARK INTER + INTRA:         -12.595
REMARK INTER:                 -11.275
REMARK INTRA:                  -1.320
REMARK UNBOUND:                -1.626
REMARK SMILES O=C([O-])CCCCCCCCCCCCCCC(=O)[O-]
REMARK SMILES IDX 10 1 9 2 8 3 7 4 6 5 5 6 4 7 2 8 1 9 3 10 11 11 12 12 13 13
REMARK SMILES IDX 14 14 15 15 16 16 17 17 18 18 19 19 20 20
REMARK H PARENT
REMARK Flexibility Score: inf
ROOT
ATOM      1  C   UNL     1      82.950  -3.533   3.592  1.00  0.00     0.000 C 
ENDROOT
BRANCH   1   2
ATOM      2  C   UNL     1      84.059  -3.159   2.595  1.00  0.00     0.000 C 
BRANCH   2   3
ATOM      3  C   UNL     1      85.315  -2.606   3.291  1.00  0.00     0.000 C 
BRANCH   3   4
ATOM      4  C   UNL     1      86.468  -2.352   2.296  1.00  0.00     0.000 C 
BRANCH   4   5
ATOM      5  C   UNL     1      87.867  -2.430   2.937  1.00  0.00     0.000 C 
BRANCH   5   6
ATOM      6  C   UNL     1      87.881  -2.875   4.412  1.00  0.00     0.006 C 
BRANCH   6   7
ATOM      7  C   UNL     1      88.176  -1.744   5.410  1.00  0.00     0.053 C 
BRANCH   7   8
ATOM      8  C   UNL     1      87.017  -1.485   6.321  1.00  0.00     0.041 C 
ATOM      9  O   UNL     1      86.327  -2.444   6.758  1.00  0.00    -0.550 OA
ATOM     10  O   UNL     1      86.678  -0.181   6.664  1.00  0.00    -0.550 OA
ENDBRANCH   7   8
ENDBRANCH   6   7
ENDBRANCH   5   6
ENDBRANCH   4   5
ENDBRANCH   3   4
ENDBRANCH   2   3
ENDBRANCH   1   2
BRANCH   1  11
ATOM     11  C   UNL     1      81.588  -3.733   2.910  1.00  0.00     0.000 C 
BRANCH  11  12
ATOM     12  C   UNL     1      81.768  -4.180   1.452  1.00  0.00     0.000 C 
BRANCH  12  13
ATOM     13  C   UNL     1      81.006  -3.287   0.459  1.00  0.00     0.000 C 
BRANCH  13  14
ATOM     14  C   UNL     1      81.899  -2.194  -0.154  1.00  0.00     0.000 C 
BRANCH  14  15
ATOM     15  C   UNL     1      81.915  -0.898   0.677  1.00  0.00     0.000 C 
BRANCH  15  16
ATOM     16  C   UNL     1      83.163  -0.015   0.486  1.00  0.00     0.006 C 
BRANCH  16  17
ATOM     17  C   UNL     1      82.955   1.105  -0.540  1.00  0.00     0.053 C 
BRANCH  17  18
ATOM     18  C   UNL     1      81.938   2.085  -0.044  1.00  0.00     0.041 C 
ATOM     19  O   UNL     1      80.975   2.424  -0.781  1.00  0.00    -0.550 OA
ATOM     20  O   UNL     1      82.084   2.664   1.210  1.00  0.00    -0.550 OA
ENDBRANCH  17  18
ENDBRANCH  16  17
ENDBRANCH  15  16
ENDBRANCH  14  15
ENDBRANCH  13  14
ENDBRANCH  12  13
ENDBRANCH  11  12
ENDBRANCH   1  11
TORSDOF 15
ENDMDL
MODEL 5
REMARK VINA RESULT:    -5.838      1.218      7.132
REMARK INTER + INTRA:         -12.584
REMARK INTER:                 -10.788
REMARK INTRA:                  -1.796
REMARK UNBOUND:                -1.626
REMARK SMILES O=C([O-])CCCCCCCCCCCCCCC(=O)[O-]
REMARK SMILES IDX 10 1 9 2 8 3 7 4 6 5 5 6 4 7 2 8 1 9 3 10 11 11 12 12 13 13
REMARK SMILES IDX 14 14 15 15 16 16 17 17 18 18 19 19 20 20
REMARK H PARENT
REMARK Flexibility Score: inf
ROOT
ATOM      1  C   UNL     1      93.399  -3.484   9.325  1.00  0.00     0.000 C 
ENDROOT
BRANCH   1   2
ATOM      2  C   UNL     1      93.099  -3.443   7.817  1.00  0.00     0.000 C 
BRANCH   2   3
ATOM      3  C   UNL     1      93.612  -2.155   7.149  1.00  0.00     0.000 C 
BRANCH   3   4
ATOM      4  C   UNL     1      92.483  -1.374   6.443  1.00  0.00     0.000 C 
BRANCH   4   5
ATOM      5  C   UNL     1      91.111  -2.071   6.512  1.00  0.00     0.000 C 
BRANCH   5   6
ATOM      6  C   UNL     1      90.584  -2.600   5.165  1.00  0.00     0.006 C 
BRANCH   6   7
ATOM      7  C   UNL     1      89.646  -3.811   5.285  1.00  0.00     0.053 C 
BRANCH   7   8
ATOM      8  C   UNL     1      90.376  -5.045   5.719  1.00  0.00     0.041 C 
ATOM      9  O   UNL     1      90.287  -5.448   6.909  1.00  0.00    -0.550 OA
ATOM     10  O   UNL     1      91.181  -5.732   4.818  1.00  0.00    -0.550 OA
ENDBRANCH   7   8
ENDBRANCH   6   7
ENDBRANCH   5   6
ENDBRANCH   4   5
ENDBRANCH   3   4
ENDBRANCH   2   3
ENDBRANCH   1   2
BRANCH   1  11
ATOM     11  C   UNL     1      93.841  -4.876   9.800  1.00  0.00     0.000 C 
BRANCH  11  12
ATOM     12  C   UNL     1      94.940  -4.766  10.866  1.00  0.00     0.000 C 
BRANCH  12  13
ATOM     13  C   UNL     1      95.226  -3.312  11.277  1.00  0.00     0.000 C 
BRANCH  13  14
ATOM     14  C   UNL     1      96.636  -2.851  10.869  1.00  0.00     0.000 C 
BRANCH  14  15
ATOM     15  C   UNL     1      97.237  -3.696   9.730  1.00  0.00     0.000 C 
BRANCH  15  16
ATOM     16  C   UNL     1      97.065  -3.106   8.318  1.00  0.00     0.006 C 
BRANCH  16  17
ATOM     17  C   UNL     1      96.914  -4.179   7.234  1.00  0.00     0.053 C 
BRANCH  17  18
ATOM     18  C   UNL     1      98.215  -4.392   6.525  1.00  0.00     0.041 C 
ATOM     19  O   UNL     1      98.347  -5.349   5.718  1.00  0.00    -0.550 OA
ATOM     20  O   UNL     1      99.298  -3.564   6.795  1.00  0.00    -0.550 OA
ENDBRANCH  17  18
ENDBRANCH  16  17
ENDBRANCH  15  16
ENDBRANCH  14  15
ENDBRANCH  13  14
ENDBRANCH  12  13
ENDBRANCH  11  12
ENDBRANCH   1  11
TORSDOF 15
ENDMDL
MODEL 6
REMARK VINA RESULT:    -5.836      6.580     11.584
REMARK INTER + INTRA:         -12.579
REMARK INTER:                 -11.149
REMARK INTRA:                  -1.430
REMARK UNBOUND:                -1.626
REMARK SMILES O=C([O-])CCCCCCCCCCCCCCC(=O)[O-]
REMARK SMILES IDX 10 1 9 2 8 3 7 4 6 5 5 6 4 7 2 8 1 9 3 10 11 11 12 12 13 13
REMARK SMILES IDX 14 14 15 15 16 16 17 17 18 18 19 19 20 20
REMARK H PARENT
REMARK Flexibility Score: inf
ROOT
ATOM      1  C   UNL     1      84.508  -2.505   2.602  1.00  0.00     0.000 C 
ENDROOT
BRANCH   1   2
ATOM      2  C   UNL     1      83.609  -3.332   3.537  1.00  0.00     0.000 C 
BRANCH   2   3
ATOM      3  C   UNL     1      82.153  -3.402   3.044  1.00  0.00     0.000 C 
BRANCH   3   4
ATOM      4  C   UNL     1      82.030  -4.134   1.690  1.00  0.00     0.000 C 
BRANCH   4   5
ATOM      5  C   UNL     1      81.215  -3.358   0.637  1.00  0.00     0.000 C 
BRANCH   5   6
ATOM      6  C   UNL     1      81.077  -1.848   0.908  1.00  0.00     0.006 C 
BRANCH   6   7
ATOM      7  C   UNL     1      82.177  -0.989   0.264  1.00  0.00     0.053 C 
BRANCH   7   8
ATOM      8  C   UNL     1      82.430   0.269   1.036  1.00  0.00     0.041 C 
ATOM      9  O   UNL     1      82.384   0.260   2.295  1.00  0.00    -0.550 OA
ATOM     10  O   UNL     1      82.685   1.459   0.366  1.00  0.00    -0.550 OA
ENDBRANCH   7   8
ENDBRANCH   6   7
ENDBRANCH   5   6
ENDBRANCH   4   5
ENDBRANCH   3   4
ENDBRANCH   2   3
ENDBRANCH   1   2
BRANCH   1  11
ATOM     11  C   UNL     1      86.002  -2.686   2.911  1.00  0.00     0.000 C 
BRANCH  11  12
ATOM     12  C   UNL     1      86.864  -2.243   1.720  1.00  0.00     0.000 C 
BRANCH  12  13
ATOM     13  C   UNL     1      88.300  -1.875   2.130  1.00  0.00     0.000 C 
BRANCH  13  14
ATOM     14  C   UNL     1      88.821  -2.743   3.289  1.00  0.00     0.000 C 
BRANCH  14  15
ATOM     15  C   UNL     1      89.565  -1.927   4.362  1.00  0.00     0.000 C 
BRANCH  15  16
ATOM     16  C   UNL     1      89.160  -2.236   5.815  1.00  0.00     0.006 C 
BRANCH  16  17
ATOM     17  C   UNL     1      88.038  -3.276   5.917  1.00  0.00     0.053 C 
BRANCH  17  18
ATOM     18  C   UNL     1      86.763  -2.627   6.357  1.00  0.00     0.041 C 
ATOM     19  O   UNL     1      86.695  -1.375   6.467  1.00  0.00    -0.550 OA
ATOM     20  O   UNL     1      85.665  -3.409   6.695  1.00  0.00    -0.550 OA
ENDBRANCH  17  18
ENDBRANCH  16  17
ENDBRANCH  15  16
ENDBRANCH  14  15
ENDBRANCH  13  14
ENDBRANCH  12  13
ENDBRANCH  11  12
ENDBRANCH   1  11
TORSDOF 15
ENDMDL
MODEL 7
REMARK VINA RESULT:    -5.830      8.755     13.211
REMARK INTER + INTRA:         -12.568
REMARK INTER:                 -11.141
REMARK INTRA:                  -1.427
REMARK UNBOUND:                -1.626
REMARK SMILES O=C([O-])CCCCCCCCCCCCCCC(=O)[O-]
REMARK SMILES IDX 10 1 9 2 8 3 7 4 6 5 5 6 4 7 2 8 1 9 3 10 11 11 12 12 13 13
REMARK SMILES IDX 14 14 15 15 16 16 17 17 18 18 19 19 20 20
REMARK H PARENT
REMARK Flexibility Score: inf
ROOT
ATOM      1  C   UNL     1      82.937  -0.190   0.521  1.00  0.00     0.000 C 
ENDROOT
BRANCH   1   2
ATOM      2  C   UNL     1      82.921   1.106  -0.306  1.00  0.00     0.000 C 
BRANCH   2   3
ATOM      3  C   UNL     1      81.680   1.971  -0.022  1.00  0.00     0.000 C 
BRANCH   3   4
ATOM      4  C   UNL     1      81.925   2.990   1.111  1.00  0.00     0.000 C 
BRANCH   4   5
ATOM      5  C   UNL     1      81.043   2.760   2.353  1.00  0.00     0.000 C 
BRANCH   5   6
ATOM      6  C   UNL     1      81.795   2.256   3.599  1.00  0.00     0.006 C 
BRANCH   6   7
ATOM      7  C   UNL     1      81.383   2.949   4.907  1.00  0.00     0.053 C 
BRANCH   7   8
ATOM      8  C   UNL     1      82.380   3.983   5.332  1.00  0.00     0.041 C 
ATOM      9  O   UNL     1      83.604   3.691   5.401  1.00  0.00    -0.550 OA
ATOM     10  O   UNL     1      81.956   5.259   5.682  1.00  0.00    -0.550 OA
ENDBRANCH   7   8
ENDBRANCH   6   7
ENDBRANCH   5   6
ENDBRANCH   4   5
ENDBRANCH   3   4
ENDBRANCH   2   3
ENDBRANCH   1   2
BRANCH   1  11
ATOM     11  C   UNL     1      81.531  -0.774   0.728  1.00  0.00     0.000 C 
BRANCH  11  12
ATOM     12  C   UNL     1      81.536  -2.296   0.526  1.00  0.00     0.000 C 
BRANCH  12  13
ATOM     13  C   UNL     1      80.635  -3.031   1.533  1.00  0.00     0.000 C 
BRANCH  13  14
ATOM     14  C   UNL     1      81.436  -3.680   2.675  1.00  0.00     0.000 C 
BRANCH  14  15
ATOM     15  C   UNL     1      82.942  -3.780   2.370  1.00  0.00     0.000 C 
BRANCH  15  16
ATOM     16  C   UNL     1      83.853  -2.952   3.296  1.00  0.00     0.006 C 
BRANCH  16  17
ATOM     17  C   UNL     1      85.188  -2.575   2.644  1.00  0.00     0.053 C 
BRANCH  17  18
ATOM     18  C   UNL     1      86.280  -2.550   3.666  1.00  0.00     0.041 C 
ATOM     19  O   UNL     1      85.999  -2.496   4.892  1.00  0.00    -0.550 OA
ATOM     20  O   UNL     1      87.610  -2.532   3.263  1.00  0.00    -0.550 OA
ENDBRANCH  17  18
ENDBRANCH  16  17
ENDBRANCH  15  16
ENDBRANCH  14  15
ENDBRANCH  13  14
ENDBRANCH  12  13
ENDBRANCH  11  12
ENDBRANCH   1  11
TORSDOF 15
ENDMDL
MODEL 8
REMARK VINA RESULT:    -5.812      2.185      7.968
REMARK INTER + INTRA:         -12.535
REMARK INTER:                 -11.393
REMARK INTRA:                  -1.142
REMARK UNBOUND:                -1.626
REMARK SMILES O=C([O-])CCCCCCCCCCCCCCC(=O)[O-]
REMARK SMILES IDX 10 1 9 2 8 3 7 4 6 5 5 6 4 7 2 8 1 9 3 10 11 11 12 12 13 13
REMARK SMILES IDX 14 14 15 15 16 16 17 17 18 18 19 19 20 20
REMARK H PARENT
REMARK Flexibility Score: inf
ROOT
ATOM      1  C   UNL     1      93.445  -3.826   8.043  1.00  0.00     0.000 C 
ENDROOT
BRANCH   1   2
ATOM      2  C   UNL     1      93.048  -2.473   7.429  1.00  0.00     0.000 C 
BRANCH   2   3
ATOM      3  C   UNL     1      91.677  -2.520   6.732  1.00  0.00     0.000 C 
BRANCH   3   4
ATOM      4  C   UNL     1      91.181  -3.967   6.520  1.00  0.00     0.000 C 
BRANCH   4   5
ATOM      5  C   UNL     1      89.746  -4.055   5.967  1.00  0.00     0.000 C 
BRANCH   5   6
ATOM      6  C   UNL     1      89.089  -2.699   5.649  1.00  0.00     0.006 C 
BRANCH   6   7
ATOM      7  C   UNL     1      87.624  -2.798   5.197  1.00  0.00     0.053 C 
BRANCH   7   8
ATOM      8  C   UNL     1      86.674  -2.377   6.276  1.00  0.00     0.041 C 
ATOM      9  O   UNL     1      85.907  -3.222   6.809  1.00  0.00    -0.550 OA
ATOM     10  O   UNL     1      86.614  -1.047   6.672  1.00  0.00    -0.550 OA
ENDBRANCH   7   8
ENDBRANCH   6   7
ENDBRANCH   5   6
ENDBRANCH   4   5
ENDBRANCH   3   4
ENDBRANCH   2   3
ENDBRANCH   1   2
BRANCH   1  11
ATOM     11  C   UNL     1      93.457  -3.794   9.579  1.00  0.00     0.000 C 
BRANCH  11  12
ATOM     12  C   UNL     1      94.158  -5.037  10.145  1.00  0.00     0.000 C 
BRANCH  12  13
ATOM     13  C   UNL     1      95.445  -4.695  10.914  1.00  0.00     0.000 C 
BRANCH  13  14
ATOM     14  C   UNL     1      95.658  -3.178  11.059  1.00  0.00     0.000 C 
BRANCH  14  15
ATOM     15  C   UNL     1      96.750  -2.633  10.120  1.00  0.00     0.000 C 
BRANCH  15  16
ATOM     16  C   UNL     1      97.318  -3.654   9.116  1.00  0.00     0.006 C 
BRANCH  16  17
ATOM     17  C   UNL     1      97.601  -3.047   7.738  1.00  0.00     0.053 C 
BRANCH  17  18
ATOM     18  C   UNL     1      97.884  -4.125   6.739  1.00  0.00     0.041 C 
ATOM     19  O   UNL     1      97.191  -5.177   6.730  1.00  0.00    -0.550 OA
ATOM     20  O   UNL     1      98.945  -3.991   5.853  1.00  0.00    -0.550 OA
ENDBRANCH  17  18
ENDBRANCH  16  17
ENDBRANCH  15  16
ENDBRANCH  14  15
ENDBRANCH  13  14
ENDBRANCH  12  13
ENDBRANCH  11  12
ENDBRANCH   1  11
TORSDOF 15
ENDMDL
MODEL 9
REMARK VINA RESULT:    -5.750      0.854      7.268
REMARK INTER + INTRA:         -12.418
REMARK INTER:                 -11.007
REMARK INTRA:                  -1.411
REMARK UNBOUND:                -1.626
REMARK SMILES O=C([O-])CCCCCCCCCCCCCCC(=O)[O-]
REMARK SMILES IDX 10 1 9 2 8 3 7 4 6 5 5 6 4 7 2 8 1 9 3 10 11 11 12 12 13 13
REMARK SMILES IDX 14 14 15 15 16 16 17 17 18 18 19 19 20 20
REMARK H PARENT
REMARK Flexibility Score: inf
ROOT
ATOM      1  C   UNL     1      92.406  -2.289   7.475  1.00  0.00     0.000 C 
ENDROOT
BRANCH   1   2
ATOM      2  C   UNL     1      92.505  -1.535   6.139  1.00  0.00     0.000 C 
BRANCH   2   3
ATOM      3  C   UNL     1      91.465  -0.407   6.020  1.00  0.00     0.000 C 
BRANCH   3   4
ATOM      4  C   UNL     1      90.338  -0.756   5.025  1.00  0.00     0.000 C 
BRANCH   4   5
ATOM      5  C   UNL     1      89.178  -1.551   5.656  1.00  0.00     0.000 C 
BRANCH   5   6
ATOM      6  C   UNL     1      89.099  -3.030   5.233  1.00  0.00     0.006 C 
BRANCH   6   7
ATOM      7  C   UNL     1      88.948  -4.013   6.404  1.00  0.00     0.053 C 
BRANCH   7   8
ATOM      8  C   UNL     1      90.098  -4.970   6.485  1.00  0.00     0.041 C 
ATOM      9  O   UNL     1      90.245  -5.699   7.501  1.00  0.00    -0.550 OA
ATOM     10  O   UNL     1      91.025  -5.034   5.452  1.00  0.00    -0.550 OA
ENDBRANCH   7   8
ENDBRANCH   6   7
ENDBRANCH   5   6
ENDBRANCH   4   5
ENDBRANCH   3   4
ENDBRANCH   2   3
ENDBRANCH   1   2
BRANCH   1  11
ATOM     11  C   UNL     1      93.745  -2.907   7.903  1.00  0.00     0.000 C 
BRANCH  11  12
ATOM     12  C   UNL     1      93.523  -4.069   8.884  1.00  0.00     0.000 C 
BRANCH  12  13
ATOM     13  C   UNL     1      94.109  -3.789  10.277  1.00  0.00     0.000 C 
BRANCH  13  14
ATOM     14  C   UNL     1      95.356  -4.641  10.573  1.00  0.00     0.000 C 
BRANCH  14  15
ATOM     15  C   UNL     1      96.638  -3.800  10.710  1.00  0.00     0.000 C 
BRANCH  15  16
ATOM     16  C   UNL     1      97.097  -3.092   9.422  1.00  0.00     0.006 C 
BRANCH  16  17
ATOM     17  C   UNL     1      97.367  -4.063   8.267  1.00  0.00     0.053 C 
BRANCH  17  18
ATOM     18  C   UNL     1      97.619  -3.309   6.999  1.00  0.00     0.041 C 
ATOM     19  O   UNL     1      96.994  -2.242   6.762  1.00  0.00    -0.550 OA
ATOM     20  O   UNL     1      98.504  -3.813   6.054  1.00  0.00    -0.550 OA
ENDBRANCH  17  18
ENDBRANCH  16  17
ENDBRANCH  15  16
ENDBRANCH  14  15
ENDBRANCH  13  14
ENDBRANCH  12  13
ENDBRANCH  11  12
ENDBRANCH   1  11
TORSDOF 15
ENDMDL
