MODEL 1
REMARK VINA RESULT:    -6.235      0.000      0.000
REMARK INTER + INTRA:          -9.336
REMARK INTER:                  -8.421
REMARK INTRA:                  -0.915
REMARK UNBOUND:                -0.915
REMARK SMILES CC(=O)CCC=C(C)CCC=C(C)C
REMARK SMILES IDX 7 1 6 2 8 3 9 4 10 5 11 6 13 7 12 8 14 9 5 10 4 11 2 12 3 13
REMARK SMILES IDX 1 14
REMARK H PARENT
REMARK Flexibility Score: inf
ROOT
ATOM      1  C   UNL     1     -10.900 -16.406  29.519  1.00  0.00    -0.077 C 
ATOM      2  C   UNL     1     -11.497 -16.562  30.723  1.00  0.00    -0.028 C 
ATOM      3  C   UNL     1      -9.881 -17.394  29.002  1.00  0.00     0.039 C 
ENDROOT
BRANCH   1   4
ATOM      4  C   UNL     1     -11.252 -15.200  28.675  1.00  0.00     0.034 C 
BRANCH   4   5
ATOM      5  C   UNL     1     -12.684 -15.311  28.139  1.00  0.00     0.032 C 
BRANCH   5   6
ATOM      6  C   UNL     1     -13.364 -13.965  28.152  1.00  0.00    -0.028 C 
ATOM      7  C   UNL     1     -14.198 -14.230  30.499  1.00  0.00     0.039 C 
ATOM      8  C   UNL     1     -14.070 -13.475  29.195  1.00  0.00    -0.080 C 
ATOM      9  C   UNL     1     -14.730 -12.129  29.048  1.00  0.00     0.039 C 
ENDBRANCH   5   6
ENDBRANCH   4   5
ENDBRANCH   1   4
BRANCH   2  10
ATOM     10  C   UNL     1     -11.274 -17.737  31.640  1.00  0.00     0.035 C 
BRANCH  10  11
ATOM     11  C   UNL     1     -12.517 -18.633  31.683  1.00  0.00     0.079 C 
BRANCH  11  12
ATOM     12  C   UNL     1     -12.293 -19.892  30.885  1.00  0.00     0.130 C 
ATOM     13  O   UNL     1     -11.834 -20.879  31.438  1.00  0.00    -0.300 OA
ATOM     14  C   UNL     1     -12.611 -19.957  29.421  1.00  0.00     0.087 C 
ENDBRANCH  11  12
ENDBRANCH  10  11
ENDBRANCH   2  10
TORSDOF 6
ENDMDL
MODEL 2
REMARK VINA RESULT:    -5.960      2.571      5.659
REMARK INTER + INTRA:          -8.965
REMARK INTER:                  -8.081
REMARK INTRA:                  -0.884
REMARK UNBOUND:                -0.915
REMARK SMILES CC(=O)CCC=C(C)CCC=C(C)C
REMARK SMILES IDX 7 1 6 2 8 3 9 4 10 5 11 6 13 7 12 8 14 9 5 10 4 11 2 12 3 13
REMARK SMILES IDX 1 14
REMARK H PARENT
REMARK Flexibility Score: inf
ROOT
ATOM      1  C   UNL     1     -11.409 -16.161  27.849  1.00  0.00    -0.077 C 
ATOM      2  C   UNL     1     -11.868 -15.188  28.671  1.00  0.00    -0.028 C 
ATOM      3  C   UNL     1     -12.114 -16.515  26.562  1.00  0.00     0.039 C 
ENDROOT
BRANCH   1   4
ATOM      4  C   UNL     1     -10.163 -16.925  28.242  1.00  0.00     0.034 C 
BRANCH   4   5
ATOM      5  C   UNL     1     -10.101 -17.119  29.761  1.00  0.00     0.032 C 
BRANCH   5   6
ATOM      6  C   UNL     1     -10.682 -18.453  30.155  1.00  0.00    -0.028 C 
ATOM      7  C   UNL     1     -12.431 -17.436  31.631  1.00  0.00     0.039 C 
ATOM      8  C   UNL     1     -11.713 -18.614  31.013  1.00  0.00    -0.080 C 
ATOM      9  C   UNL     1     -12.163 -20.014  31.344  1.00  0.00     0.039 C 
ENDBRANCH   5   6
ENDBRANCH   4   5
ENDBRANCH   1   4
BRANCH   2  10
ATOM     10  C   UNL     1     -13.067 -14.321  28.379  1.00  0.00     0.035 C 
BRANCH  10  11
ATOM     11  C   UNL     1     -13.943 -14.172  29.626  1.00  0.00     0.079 C 
BRANCH  11  12
ATOM     12  C   UNL     1     -15.056 -13.187  29.381  1.00  0.00     0.130 C 
ATOM     13  O   UNL     1     -16.216 -13.545  29.522  1.00  0.00    -0.300 OA
ATOM     14  C   UNL     1     -14.774 -11.778  28.953  1.00  0.00     0.087 C 
ENDBRANCH  11  12
ENDBRANCH  10  11
ENDBRANCH   2  10
TORSDOF 6
ENDMDL
MODEL 3
REMARK VINA RESULT:    -5.923      1.956      5.103
REMARK INTER + INTRA:          -8.916
REMARK INTER:                  -8.253
REMARK INTRA:                  -0.663
REMARK UNBOUND:                -0.915
REMARK SMILES CC(=O)CCC=C(C)CCC=C(C)C
REMARK SMILES IDX 7 1 6 2 8 3 9 4 10 5 11 6 13 7 12 8 14 9 5 10 4 11 2 12 3 13
REMARK SMILES IDX 1 14
REMARK H PARENT
REMARK Flexibility Score: inf
ROOT
ATOM      1  C   UNL     1     -13.348 -14.948  30.417  1.00  0.00    -0.077 C 
ATOM      2  C   UNL     1     -12.351 -15.456  29.655  1.00  0.00    -0.028 C 
ATOM      3  C   UNL     1     -14.242 -13.836  29.922  1.00  0.00     0.039 C 
ENDROOT
BRANCH   1   4
ATOM      4  C   UNL     1     -13.560 -15.498  31.811  1.00  0.00     0.034 C 
BRANCH   4   5
ATOM      5  C   UNL     1     -12.379 -16.382  32.232  1.00  0.00     0.032 C 
BRANCH   5   6
ATOM      6  C   UNL     1     -12.657 -17.830  31.918  1.00  0.00    -0.028 C 
ATOM      7  C   UNL     1     -10.348 -18.249  31.042  1.00  0.00     0.039 C 
ATOM      8  C   UNL     1     -11.763 -18.676  31.360  1.00  0.00    -0.080 C 
ATOM      9  C   UNL     1     -12.196 -20.089  31.066  1.00  0.00     0.039 C 
ENDBRANCH   5   6
ENDBRANCH   4   5
ENDBRANCH   1   4
BRANCH   2  10
ATOM     10  C   UNL     1     -12.062 -15.033  28.237  1.00  0.00     0.035 C 
BRANCH  10  11
ATOM     11  C   UNL     1     -12.660 -16.033  27.242  1.00  0.00     0.079 C 
BRANCH  11  12
ATOM     12  C   UNL     1     -11.696 -17.161  26.976  1.00  0.00     0.130 C 
ATOM     13  O   UNL     1     -11.690 -18.132  27.717  1.00  0.00    -0.300 OA
ATOM     14  C   UNL     1     -10.733 -17.112  25.829  1.00  0.00     0.087 C 
ENDBRANCH  11  12
ENDBRANCH  10  11
ENDBRANCH   2  10
TORSDOF 6
ENDMDL
MODEL 4
REMARK VINA RESULT:    -5.849      1.346      2.008
REMARK INTER + INTRA:          -8.816
REMARK INTER:                  -8.155
REMARK INTRA:                  -0.661
REMARK UNBOUND:                -0.915
REMARK SMILES CC(=O)CCC=C(C)CCC=C(C)C
REMARK SMILES IDX 7 1 6 2 8 3 9 4 10 5 11 6 13 7 12 8 14 9 5 10 4 11 2 12 3 13
REMARK SMILES IDX 1 14
REMARK H PARENT
REMARK Flexibility Score: inf
ROOT
ATOM      1  C   UNL     1     -11.746 -17.279  27.806  1.00  0.00    -0.077 C 
ATOM      2  C   UNL     1     -12.500 -18.099  28.574  1.00  0.00    -0.028 C 
ATOM      3  C   UNL     1     -10.375 -17.682  27.318  1.00  0.00     0.039 C 
ENDROOT
BRANCH   1   4
ATOM      4  C   UNL     1     -12.285 -15.912  27.441  1.00  0.00     0.034 C 
BRANCH   4   5
ATOM      5  C   UNL     1     -12.231 -14.968  28.647  1.00  0.00     0.032 C 
BRANCH   5   6
ATOM      6  C   UNL     1     -13.219 -13.840  28.487  1.00  0.00    -0.028 C 
ATOM      7  C   UNL     1     -14.249 -14.208  30.740  1.00  0.00     0.039 C 
ATOM      8  C   UNL     1     -14.149 -13.502  29.408  1.00  0.00    -0.080 C 
ATOM      9  C   UNL     1     -15.098 -12.375  29.092  1.00  0.00     0.039 C 
ENDBRANCH   5   6
ENDBRANCH   4   5
ENDBRANCH   1   4
BRANCH   2  10
ATOM     10  C   UNL     1     -12.105 -19.498  28.970  1.00  0.00     0.035 C 
BRANCH  10  11
ATOM     11  C   UNL     1     -12.194 -19.676  30.489  1.00  0.00     0.079 C 
BRANCH  11  12
ATOM     12  C   UNL     1     -11.581 -18.496  31.199  1.00  0.00     0.130 C 
ATOM     13  O   UNL     1     -10.366 -18.388  31.245  1.00  0.00    -0.300 OA
ATOM     14  C   UNL     1     -12.432 -17.455  31.863  1.00  0.00     0.087 C 
ENDBRANCH  11  12
ENDBRANCH  10  11
ENDBRANCH   2  10
TORSDOF 6
ENDMDL
MODEL 5
REMARK VINA RESULT:    -5.811      1.649      2.829
REMARK INTER + INTRA:          -8.765
REMARK INTER:                  -8.515
REMARK INTRA:                  -0.249
REMARK UNBOUND:                -0.915
REMARK SMILES CC(=O)CCC=C(C)CCC=C(C)C
REMARK SMILES IDX 7 1 6 2 8 3 9 4 10 5 11 6 13 7 12 8 14 9 5 10 4 11 2 12 3 13
REMARK SMILES IDX 1 14
REMARK H PARENT
REMARK Flexibility Score: inf
ROOT
ATOM      1  C   UNL     1     -12.509 -16.668  32.266  1.00  0.00    -0.077 C 
ATOM      2  C   UNL     1     -12.789 -17.880  31.733  1.00  0.00    -0.028 C 
ATOM      3  C   UNL     1     -11.091 -16.171  32.413  1.00  0.00     0.039 C 
ENDROOT
BRANCH   1   4
ATOM      4  C   UNL     1     -13.649 -15.795  32.744  1.00  0.00     0.034 C 
BRANCH   4   5
ATOM      5  C   UNL     1     -13.998 -14.735  31.693  1.00  0.00     0.032 C 
BRANCH   5   6
ATOM      6  C   UNL     1     -13.333 -15.048  30.376  1.00  0.00    -0.028 C 
ATOM      7  C   UNL     1     -14.317 -13.054  29.222  1.00  0.00     0.039 C 
ATOM      8  C   UNL     1     -13.486 -14.317  29.250  1.00  0.00    -0.080 C 
ATOM      9  C   UNL     1     -12.789 -14.775  27.995  1.00  0.00     0.039 C 
ENDBRANCH   5   6
ENDBRANCH   4   5
ENDBRANCH   1   4
BRANCH   2  10
ATOM     10  C   UNL     1     -11.756 -18.827  31.178  1.00  0.00     0.035 C 
BRANCH  10  11
ATOM     11  C   UNL     1     -12.429 -20.027  30.504  1.00  0.00     0.079 C 
BRANCH  11  12
ATOM     12  C   UNL     1     -12.604 -19.780  29.028  1.00  0.00     0.130 C 
ATOM     13  O   UNL     1     -13.203 -20.599  28.350  1.00  0.00    -0.300 OA
ATOM     14  C   UNL     1     -12.047 -18.554  28.369  1.00  0.00     0.087 C 
ENDBRANCH  11  12
ENDBRANCH  10  11
ENDBRANCH   2  10
TORSDOF 6
ENDMDL
MODEL 6
REMARK VINA RESULT:    -5.793      1.240      3.146
REMARK INTER + INTRA:          -8.739
REMARK INTER:                  -7.941
REMARK INTRA:                  -0.799
REMARK UNBOUND:                -0.915
REMARK SMILES CC(=O)CCC=C(C)CCC=C(C)C
REMARK SMILES IDX 7 1 6 2 8 3 9 4 10 5 11 6 13 7 12 8 14 9 5 10 4 11 2 12 3 13
REMARK SMILES IDX 1 14
REMARK H PARENT
REMARK Flexibility Score: inf
ROOT
ATOM      1  C   UNL     1     -13.717 -15.088  31.192  1.00  0.00    -0.077 C 
ATOM      2  C   UNL     1     -12.802 -16.059  30.967  1.00  0.00    -0.028 C 
ATOM      3  C   UNL     1     -14.426 -14.953  32.518  1.00  0.00     0.039 C 
ENDROOT
BRANCH   1   4
ATOM      4  C   UNL     1     -14.052 -14.121  30.076  1.00  0.00     0.034 C 
BRANCH   4   5
ATOM      5  C   UNL     1     -12.915 -14.063  29.049  1.00  0.00     0.032 C 
BRANCH   5   6
ATOM      6  C   UNL     1     -13.209 -14.963  27.875  1.00  0.00    -0.028 C 
ATOM      7  C   UNL     1     -10.978 -16.096  27.981  1.00  0.00     0.039 C 
ATOM      8  C   UNL     1     -12.340 -15.865  27.367  1.00  0.00    -0.080 C 
ATOM      9  C   UNL     1     -12.758 -16.669  26.164  1.00  0.00     0.039 C 
ENDBRANCH   5   6
ENDBRANCH   4   5
ENDBRANCH   1   4
BRANCH   2  10
ATOM     10  C   UNL     1     -12.344 -17.054  32.001  1.00  0.00     0.035 C 
BRANCH  10  11
ATOM     11  C   UNL     1     -11.266 -17.977  31.423  1.00  0.00     0.079 C 
BRANCH  11  12
ATOM     12  C   UNL     1     -11.885 -19.227  30.853  1.00  0.00     0.130 C 
ATOM     13  O   UNL     1     -12.103 -20.178  31.588  1.00  0.00    -0.300 OA
ATOM     14  C   UNL     1     -12.229 -19.336  29.398  1.00  0.00     0.087 C 
ENDBRANCH  11  12
ENDBRANCH  10  11
ENDBRANCH   2  10
TORSDOF 6
ENDMDL
MODEL 7
REMARK VINA RESULT:    -5.789      2.487      4.912
REMARK INTER + INTRA:          -8.735
REMARK INTER:                  -7.744
REMARK INTRA:                  -0.991
REMARK UNBOUND:                -0.915
REMARK SMILES CC(=O)CCC=C(C)CCC=C(C)C
REMARK SMILES IDX 7 1 6 2 8 3 9 4 10 5 11 6 13 7 12 8 14 9 5 10 4 11 2 12 3 13
REMARK SMILES IDX 1 14
REMARK H PARENT
REMARK Flexibility Score: inf
ROOT
ATOM      1  C   UNL     1     -12.441 -19.560  29.252  1.00  0.00    -0.077 C 
ATOM      2  C   UNL     1     -11.616 -18.547  28.897  1.00  0.00    -0.028 C 
ATOM      3  C   UNL     1     -13.408 -20.180  28.272  1.00  0.00     0.039 C 
ENDROOT
BRANCH   1   4
ATOM      4  C   UNL     1     -12.405 -20.071  30.676  1.00  0.00     0.034 C 
BRANCH   4   5
ATOM      5  C   UNL     1     -11.755 -19.041  31.607  1.00  0.00     0.032 C 
BRANCH   5   6
ATOM      6  C   UNL     1     -12.749 -17.978  32.004  1.00  0.00    -0.028 C 
ATOM      7  C   UNL     1     -11.128 -16.103  31.647  1.00  0.00     0.039 C 
ATOM      8  C   UNL     1     -12.475 -16.656  32.051  1.00  0.00    -0.080 C 
ATOM      9  C   UNL     1     -13.559 -15.712  32.505  1.00  0.00     0.039 C 
ENDBRANCH   5   6
ENDBRANCH   4   5
ENDBRANCH   1   4
BRANCH   2  10
ATOM     10  C   UNL     1     -11.517 -17.976  27.505  1.00  0.00     0.035 C 
BRANCH  10  11
ATOM     11  C   UNL     1     -11.199 -16.478  27.557  1.00  0.00     0.079 C 
BRANCH  11  12
ATOM     12  C   UNL     1     -12.466 -15.664  27.550  1.00  0.00     0.130 C 
ATOM     13  O   UNL     1     -13.282 -15.832  26.656  1.00  0.00    -0.300 OA
ATOM     14  C   UNL     1     -12.745 -14.640  28.609  1.00  0.00     0.087 C 
ENDBRANCH  11  12
ENDBRANCH  10  11
ENDBRANCH   2  10
TORSDOF 6
ENDMDL
MODEL 8
REMARK VINA RESULT:    -5.743      3.010      5.895
REMARK INTER + INTRA:          -8.673
REMARK INTER:                  -7.827
REMARK INTRA:                  -0.846
REMARK UNBOUND:                -0.915
REMARK SMILES CC(=O)CCC=C(C)CCC=C(C)C
REMARK SMILES IDX 7 1 6 2 8 3 9 4 10 5 11 6 13 7 12 8 14 9 5 10 4 11 2 12 3 13
REMARK SMILES IDX 1 14
REMARK H PARENT
REMARK Flexibility Score: inf
ROOT
ATOM      1  C   UNL     1     -12.719 -16.534  31.902  1.00  0.00    -0.077 C 
ATOM      2  C   UNL     1     -12.733 -15.564  30.958  1.00  0.00    -0.028 C 
ATOM      3  C   UNL     1     -13.867 -16.727  32.864  1.00  0.00     0.039 C 
ENDROOT
BRANCH   1   4
ATOM      4  C   UNL     1     -11.510 -17.439  32.007  1.00  0.00     0.034 C 
BRANCH   4   5
ATOM      5  C   UNL     1     -11.043 -17.885  30.616  1.00  0.00     0.032 C 
BRANCH   5   6
ATOM      6  C   UNL     1     -11.927 -18.983  30.082  1.00  0.00    -0.028 C 
ATOM      7  C   UNL     1     -12.253 -17.862  27.866  1.00  0.00     0.039 C 
ATOM      8  C   UNL     1     -12.499 -18.976  28.858  1.00  0.00    -0.080 C 
ATOM      9  C   UNL     1     -13.394 -20.127  28.475  1.00  0.00     0.039 C 
ENDBRANCH   5   6
ENDBRANCH   4   5
ENDBRANCH   1   4
BRANCH   2  10
ATOM     10  C   UNL     1     -13.889 -14.628  30.715  1.00  0.00     0.035 C 
BRANCH  10  11
ATOM     11  C   UNL     1     -13.765 -13.961  29.342  1.00  0.00     0.079 C 
BRANCH  11  12
ATOM     12  C   UNL     1     -14.866 -12.953  29.138  1.00  0.00     0.130 C 
ATOM     13  O   UNL     1     -14.579 -11.799  28.858  1.00  0.00    -0.300 OA
ATOM     14  C   UNL     1     -16.310 -13.331  29.284  1.00  0.00     0.087 C 
ENDBRANCH  11  12
ENDBRANCH  10  11
ENDBRANCH   2  10
TORSDOF 6
ENDMDL
MODEL 9
REMARK VINA RESULT:    -5.669      1.496      3.281
REMARK INTER + INTRA:          -8.573
REMARK INTER:                  -8.195
REMARK INTRA:                  -0.378
REMARK UNBOUND:                -0.915
REMARK SMILES CC(=O)CCC=C(C)CCC=C(C)C
REMARK SMILES IDX 7 1 6 2 8 3 9 4 10 5 11 6 13 7 12 8 14 9 5 10 4 11 2 12 3 13
REMARK SMILES IDX 1 14
REMARK H PARENT
REMARK Flexibility Score: inf
ROOT
ATOM      1  C   UNL     1     -12.608 -14.997  27.965  1.00  0.00    -0.077 C 
ATOM      2  C   UNL     1     -11.410 -15.397  28.450  1.00  0.00    -0.028 C 
ATOM      3  C   UNL     1     -13.275 -15.704  26.809  1.00  0.00     0.039 C 
ENDROOT
BRANCH   1   4
ATOM      4  C   UNL     1     -13.289 -13.798  28.587  1.00  0.00     0.034 C 
BRANCH   4   5
ATOM      5  C   UNL     1     -13.937 -14.174  29.924  1.00  0.00     0.032 C 
BRANCH   5   6
ATOM      6  C   UNL     1     -13.217 -15.338  30.559  1.00  0.00    -0.028 C 
ATOM      7  C   UNL     1     -14.332 -15.023  32.779  1.00  0.00     0.039 C 
ATOM      8  C   UNL     1     -13.364 -15.716  31.848  1.00  0.00    -0.080 C 
ATOM      9  C   UNL     1     -12.547 -16.877  32.354  1.00  0.00     0.039 C 
ENDBRANCH   5   6
ENDBRANCH   4   5
ENDBRANCH   1   4
BRANCH   2  10
ATOM     10  C   UNL     1     -10.648 -16.600  27.955  1.00  0.00     0.035 C 
BRANCH  10  11
ATOM     11  C   UNL     1     -10.122 -17.429  29.132  1.00  0.00     0.079 C 
BRANCH  11  12
ATOM     12  C   UNL     1     -11.033 -18.597  29.409  1.00  0.00     0.130 C 
ATOM     13  O   UNL     1     -10.770 -19.358  30.327  1.00  0.00    -0.300 OA
ATOM     14  C   UNL     1     -12.252 -18.854  28.574  1.00  0.00     0.087 C 
ENDBRANCH  11  12
ENDBRANCH  10  11
ENDBRANCH   2  10
TORSDOF 6
ENDMDL
