MODEL 1
REMARK VINA RESULT:    -3.750      0.000      0.000
REMARK INTER + INTRA:          -3.860
REMARK INTER:                  -3.860
REMARK INTRA:                   0.000
REMARK UNBOUND:                 0.000
REMARK SMILES CC1(C)[C@H]2CC[C@]1(C)[C@@H](O)C2
REMARK SMILES IDX 1 1 2 2 4 3 5 4 6 5 7 6 9 7 11 8 8 9 3 10 10 11
REMARK H PARENT 10 12
REMARK Flexibility Score: inf
ROOT
ATOM      1  C   UNL     1       8.446   3.337  -1.241  1.00  0.00     0.012 C 
ATOM      2  C   UNL     1       7.725   1.970  -1.030  1.00  0.00    -0.025 C 
ATOM      3  C   UNL     1       6.552   1.734  -1.994  1.00  0.00    -0.002 C 
ATOM      4  C   UNL     1       5.952   0.394  -1.500  1.00  0.00     0.005 C 
ATOM      5  C   UNL     1       6.134   0.481   0.029  1.00  0.00     0.010 C 
ATOM      6  C   UNL     1       6.807   1.869   0.212  1.00  0.00    -0.001 C 
ATOM      7  C   UNL     1       5.684   2.916  -0.063  1.00  0.00     0.121 C 
ATOM      8  C   UNL     1       5.533   2.834  -1.601  1.00  0.00     0.036 C 
ATOM      9  C   UNL     1       7.497   2.022   1.575  1.00  0.00     0.015 C 
ATOM     10  C   UNL     1       8.846   0.887  -1.121  1.00  0.00     0.012 C 
ENDROOT
BRANCH   7  11
ATOM     11  O   UNL     1       6.054   4.204   0.357  1.00  0.00    -0.393 OA
ATOM     12  H   UNL     1       7.019   4.161   0.583  1.00  0.00     0.210 HD
ENDBRANCH   7  11
TORSDOF 1
ENDMDL
MODEL 2
REMARK VINA RESULT:    -3.722      1.510      2.555
REMARK INTER + INTRA:          -3.831
REMARK INTER:                  -3.831
REMARK INTRA:                   0.000
REMARK UNBOUND:                 0.000
REMARK SMILES CC1(C)[C@H]2CC[C@]1(C)[C@@H](O)C2
REMARK SMILES IDX 1 1 2 2 4 3 5 4 6 5 7 6 9 7 11 8 8 9 3 10 10 11
REMARK H PARENT 10 12
REMARK Flexibility Score: inf
ROOT
ATOM      1  C   UNL     1       7.743   0.171  -1.397  1.00  0.00     0.012 C 
ATOM      2  C   UNL     1       6.749   1.240  -0.850  1.00  0.00    -0.025 C 
ATOM      3  C   UNL     1       6.358   2.308  -1.884  1.00  0.00    -0.002 C 
ATOM      4  C   UNL     1       5.482   3.289  -1.066  1.00  0.00     0.005 C 
ATOM      5  C   UNL     1       6.160   3.280   0.319  1.00  0.00     0.010 C 
ATOM      6  C   UNL     1       7.346   2.298   0.110  1.00  0.00    -0.001 C 
ATOM      7  C   UNL     1       8.374   3.069  -0.773  1.00  0.00     0.121 C 
ATOM      8  C   UNL     1       7.692   3.048  -2.162  1.00  0.00     0.036 C 
ATOM      9  C   UNL     1       7.918   1.764   1.430  1.00  0.00     0.015 C 
ATOM     10  C   UNL     1       5.537   0.435  -0.283  1.00  0.00     0.012 C 
ENDROOT
BRANCH   7  11
ATOM     11  O   UNL     1       9.627   2.434  -0.798  1.00  0.00    -0.393 OA
ATOM     12  H   UNL     1       9.726   1.974   0.076  1.00  0.00     0.210 HD
ENDBRANCH   7  11
TORSDOF 1
ENDMDL
MODEL 3
REMARK VINA RESULT:    -3.707      1.548      2.676
REMARK INTER + INTRA:          -3.815
REMARK INTER:                  -3.815
REMARK INTRA:                   0.000
REMARK UNBOUND:                 0.000
REMARK SMILES CC1(C)[C@H]2CC[C@]1(C)[C@@H](O)C2
REMARK SMILES IDX 1 1 2 2 4 3 5 4 6 5 7 6 9 7 11 8 8 9 3 10 10 11
REMARK H PARENT 10 12
REMARK Flexibility Score: inf
ROOT
ATOM      1  C   UNL     1       8.022   2.091   0.906  1.00  0.00     0.012 C 
ATOM      2  C   UNL     1       7.568   2.573  -0.506  1.00  0.00    -0.025 C 
ATOM      3  C   UNL     1       6.342   3.500  -0.478  1.00  0.00    -0.002 C 
ATOM      4  C   UNL     1       6.036   3.726  -1.980  1.00  0.00     0.005 C 
ATOM      5  C   UNL     1       6.382   2.362  -2.609  1.00  0.00     0.010 C 
ATOM      6  C   UNL     1       6.834   1.527  -1.380  1.00  0.00    -0.001 C 
ATOM      7  C   UNL     1       5.530   1.218  -0.583  1.00  0.00     0.121 C 
ATOM      8  C   UNL     1       5.211   2.588   0.062  1.00  0.00     0.036 C 
ATOM      9  C   UNL     1       7.649   0.285  -1.769  1.00  0.00     0.015 C 
ATOM     10  C   UNL     1       8.833   3.217  -1.157  1.00  0.00     0.012 C 
ENDROOT
BRANCH   7  11
ATOM     11  O   UNL     1       5.730   0.220   0.386  1.00  0.00    -0.393 OA
ATOM     12  H   UNL     1       6.479  -0.342   0.060  1.00  0.00     0.210 HD
ENDBRANCH   7  11
TORSDOF 1
ENDMDL
MODEL 4
REMARK VINA RESULT:    -3.656      1.160      2.243
REMARK INTER + INTRA:          -3.762
REMARK INTER:                  -3.762
REMARK INTRA:                   0.000
REMARK UNBOUND:                 0.000
REMARK SMILES CC1(C)[C@H]2CC[C@]1(C)[C@@H](O)C2
REMARK SMILES IDX 1 1 2 2 4 3 5 4 6 5 7 6 9 7 11 8 8 9 3 10 10 11
REMARK H PARENT 10 12
REMARK Flexibility Score: inf
ROOT
ATOM      1  C   UNL     1       5.992   1.741  -2.712  1.00  0.00     0.012 C 
ATOM      2  C   UNL     1       6.793   1.508  -1.395  1.00  0.00    -0.025 C 
ATOM      3  C   UNL     1       5.904   1.296  -0.159  1.00  0.00    -0.002 C 
ATOM      4  C   UNL     1       6.926   1.212   1.002  1.00  0.00     0.005 C 
ATOM      5  C   UNL     1       8.012   2.220   0.575  1.00  0.00     0.010 C 
ATOM      6  C   UNL     1       7.463   2.758  -0.775  1.00  0.00    -0.001 C 
ATOM      7  C   UNL     1       6.264   3.681  -0.399  1.00  0.00     0.121 C 
ATOM      8  C   UNL     1       5.177   2.656   0.002  1.00  0.00     0.036 C 
ATOM      9  C   UNL     1       8.543   3.437  -1.629  1.00  0.00     0.015 C 
ATOM     10  C   UNL     1       7.755   0.315  -1.694  1.00  0.00     0.012 C 
ENDROOT
BRANCH   7  11
ATOM     11  O   UNL     1       5.856   4.478  -1.481  1.00  0.00    -0.393 OA
ATOM     12  H   UNL     1       6.229   4.057  -2.298  1.00  0.00     0.210 HD
ENDBRANCH   7  11
TORSDOF 1
ENDMDL
MODEL 5
REMARK VINA RESULT:    -3.535      1.096      2.892
REMARK INTER + INTRA:          -3.638
REMARK INTER:                  -3.638
REMARK INTRA:                   0.000
REMARK UNBOUND:                 0.000
REMARK SMILES CC1(C)[C@H]2CC[C@]1(C)[C@@H](O)C2
REMARK SMILES IDX 1 1 2 2 4 3 5 4 6 5 7 6 9 7 11 8 8 9 3 10 10 11
REMARK H PARENT 10 12
REMARK Flexibility Score: inf
ROOT
ATOM      1  C   UNL     1       5.784   0.283  -0.449  1.00  0.00     0.012 C 
ATOM      2  C   UNL     1       6.971   1.184  -0.907  1.00  0.00    -0.025 C 
ATOM      3  C   UNL     1       7.874   1.651   0.246  1.00  0.00    -0.002 C 
ATOM      4  C   UNL     1       8.875   2.605  -0.452  1.00  0.00     0.005 C 
ATOM      5  C   UNL     1       8.005   3.286  -1.528  1.00  0.00     0.010 C 
ATOM      6  C   UNL     1       6.612   2.638  -1.297  1.00  0.00    -0.001 C 
ATOM      7  C   UNL     1       6.076   3.263   0.027  1.00  0.00     0.121 C 
ATOM      8  C   UNL     1       6.940   2.551   1.096  1.00  0.00     0.036 C 
ATOM      9  C   UNL     1       5.673   2.800  -2.501  1.00  0.00     0.015 C 
ATOM     10  C   UNL     1       7.721   0.364  -2.004  1.00  0.00     0.012 C 
ENDROOT
BRANCH   7  11
ATOM     11  O   UNL     1       4.706   3.009   0.210  1.00  0.00    -0.393 OA
ATOM     12  H   UNL     1       4.344   2.764  -0.680  1.00  0.00     0.210 HD
ENDBRANCH   7  11
TORSDOF 1
ENDMDL
MODEL 6
REMARK VINA RESULT:    -3.455      1.745      2.979
REMARK INTER + INTRA:          -3.556
REMARK INTER:                  -3.556
REMARK INTRA:                   0.000
REMARK UNBOUND:                 0.000
REMARK SMILES CC1(C)[C@H]2CC[C@]1(C)[C@@H](O)C2
REMARK SMILES IDX 1 1 2 2 4 3 5 4 6 5 7 6 9 7 11 8 8 9 3 10 10 11
REMARK H PARENT 10 12
REMARK Flexibility Score: inf
ROOT
ATOM      1  C   UNL     1       8.012  -0.048   0.308  1.00  0.00     0.012 C 
ATOM      2  C   UNL     1       7.236   1.304   0.352  1.00  0.00    -0.025 C 
ATOM      3  C   UNL     1       5.745   1.173   0.000  1.00  0.00    -0.002 C 
ATOM      4  C   UNL     1       5.251   2.641  -0.000  1.00  0.00     0.005 C 
ATOM      5  C   UNL     1       6.463   3.410  -0.565  1.00  0.00     0.010 C 
ATOM      6  C   UNL     1       7.492   2.276  -0.825  1.00  0.00    -0.001 C 
ATOM      7  C   UNL     1       6.959   1.506  -2.072  1.00  0.00     0.121 C 
ATOM      8  C   UNL     1       5.762   0.722  -1.483  1.00  0.00     0.036 C 
ATOM      9  C   UNL     1       8.930   2.797  -0.968  1.00  0.00     0.015 C 
ATOM     10  C   UNL     1       7.500   1.894   1.774  1.00  0.00     0.012 C 
ENDROOT
BRANCH   7  11
ATOM     11  O   UNL     1       7.930   0.647  -2.614  1.00  0.00    -0.393 OA
ATOM     12  H   UNL     1       7.537  -0.264  -2.600  1.00  0.00     0.210 HD
ENDBRANCH   7  11
TORSDOF 1
ENDMDL
MODEL 7
REMARK VINA RESULT:    -3.444      1.690      3.067
REMARK INTER + INTRA:          -3.545
REMARK INTER:                  -3.545
REMARK INTRA:                   0.000
REMARK UNBOUND:                 0.000
REMARK SMILES CC1(C)[C@H]2CC[C@]1(C)[C@@H](O)C2
REMARK SMILES IDX 1 1 2 2 4 3 5 4 6 5 7 6 9 7 11 8 8 9 3 10 10 11
REMARK H PARENT 10 12
REMARK Flexibility Score: inf
ROOT
ATOM      1  C   UNL     1       8.707   0.984  -1.322  1.00  0.00     0.012 C 
ATOM      2  C   UNL     1       7.575   2.033  -1.098  1.00  0.00    -0.025 C 
ATOM      3  C   UNL     1       7.566   2.642   0.314  1.00  0.00    -0.002 C 
ATOM      4  C   UNL     1       6.302   3.537   0.305  1.00  0.00     0.005 C 
ATOM      5  C   UNL     1       5.316   2.729  -0.562  1.00  0.00     0.010 C 
ATOM      6  C   UNL     1       6.144   1.467  -0.930  1.00  0.00    -0.001 C 
ATOM      7  C   UNL     1       6.224   0.624   0.379  1.00  0.00     0.121 C 
ATOM      8  C   UNL     1       7.234   1.433   1.227  1.00  0.00     0.036 C 
ATOM      9  C   UNL     1       5.574   0.710  -2.138  1.00  0.00     0.015 C 
ATOM     10  C   UNL     1       7.747   3.086  -2.238  1.00  0.00     0.012 C 
ENDROOT
BRANCH   7  11
ATOM     11  O   UNL     1       6.677  -0.683   0.136  1.00  0.00    -0.393 OA
ATOM     12  H   UNL     1       5.867  -1.246   0.027  1.00  0.00     0.210 HD
ENDBRANCH   7  11
TORSDOF 1
ENDMDL
MODEL 8
REMARK VINA RESULT:    -3.410     13.039     14.425
REMARK INTER + INTRA:          -3.510
REMARK INTER:                  -3.510
REMARK INTRA:                   0.000
REMARK UNBOUND:                 0.000
REMARK SMILES CC1(C)[C@H]2CC[C@]1(C)[C@@H](O)C2
REMARK SMILES IDX 1 1 2 2 4 3 5 4 6 5 7 6 9 7 11 8 8 9 3 10 10 11
REMARK H PARENT 10 12
REMARK Flexibility Score: inf
ROOT
ATOM      1  C   UNL     1      -2.297  -4.252   5.780  1.00  0.00     0.012 C 
ATOM      2  C   UNL     1      -3.301  -5.443   5.711  1.00  0.00    -0.025 C 
ATOM      3  C   UNL     1      -3.229  -6.238   4.398  1.00  0.00    -0.002 C 
ATOM      4  C   UNL     1      -4.384  -7.260   4.538  1.00  0.00     0.005 C 
ATOM      5  C   UNL     1      -5.462  -6.456   5.292  1.00  0.00     0.010 C 
ATOM      6  C   UNL     1      -4.785  -5.070   5.476  1.00  0.00    -0.001 C 
ATOM      7  C   UNL     1      -4.789  -4.413   4.062  1.00  0.00     0.121 C 
ATOM      8  C   UNL     1      -3.686  -5.213   3.328  1.00  0.00     0.036 C 
ATOM      9  C   UNL     1      -5.449  -4.223   6.571  1.00  0.00     0.015 C 
ATOM     10  C   UNL     1      -3.023  -6.301   6.986  1.00  0.00     0.012 C 
ENDROOT
BRANCH   7  11
ATOM     11  O   UNL     1      -4.488  -3.042   4.118  1.00  0.00    -0.393 OA
ATOM     12  H   UNL     1      -4.057  -2.885   4.998  1.00  0.00     0.210 HD
ENDBRANCH   7  11
TORSDOF 1
ENDMDL
MODEL 9
REMARK VINA RESULT:    -3.401      1.631      2.963
REMARK INTER + INTRA:          -3.500
REMARK INTER:                  -3.500
REMARK INTRA:                   0.000
REMARK UNBOUND:                 0.000
REMARK SMILES CC1(C)[C@H]2CC[C@]1(C)[C@@H](O)C2
REMARK SMILES IDX 1 1 2 2 4 3 5 4 6 5 7 6 9 7 11 8 8 9 3 10 10 11
REMARK H PARENT 10 12
REMARK Flexibility Score: inf
ROOT
ATOM      1  C   UNL     1       5.632   0.942  -2.782  1.00  0.00     0.012 C 
ATOM      2  C   UNL     1       6.006   1.533  -1.388  1.00  0.00    -0.025 C 
ATOM      3  C   UNL     1       5.412   2.926  -1.127  1.00  0.00    -0.002 C 
ATOM      4  C   UNL     1       6.024   3.322   0.240  1.00  0.00     0.005 C 
ATOM      5  C   UNL     1       7.439   2.713   0.170  1.00  0.00     0.010 C 
ATOM      6  C   UNL     1       7.456   2.055  -1.237  1.00  0.00    -0.001 C 
ATOM      7  C   UNL     1       7.538   3.238  -2.249  1.00  0.00     0.121 C 
ATOM      8  C   UNL     1       6.106   3.821  -2.186  1.00  0.00     0.036 C 
ATOM      9  C   UNL     1       8.568   1.008  -1.392  1.00  0.00     0.015 C 
ATOM     10  C   UNL     1       5.573   0.456  -0.344  1.00  0.00     0.012 C 
ENDROOT
BRANCH   7  11
ATOM     11  O   UNL     1       7.866   2.800  -3.543  1.00  0.00    -0.393 OA
ATOM     12  H   UNL     1       8.281   1.905  -3.441  1.00  0.00     0.210 HD
ENDBRANCH   7  11
TORSDOF 1
ENDMDL
