MODEL 1
REMARK VINA RESULT:    -3.874      0.000      0.000
REMARK INTER + INTRA:          -4.891
REMARK INTER:                  -4.780
REMARK INTRA:                  -0.111
REMARK UNBOUND:                -0.111
REMARK SMILES COc1cc(-c2oc3cc(O)cc(O)c3c(=O)c2O)ccc1O
REMARK SMILES IDX 6 1 18 2 16 3 17 4 15 5 13 6 12 7 10 8 9 9 8 10 7 11 5 12
REMARK SMILES IDX 3 13 22 14 4 15 21 16 20 17 2 18 1 19 23 20 19 22 14 24
REMARK SMILES IDX 11 26
REMARK H PARENT 23 21 19 23 14 25 11 27
REMARK Flexibility Score: inf
ROOT
ATOM      1  C   UNL     1      -5.018 -17.999  -6.098  1.00  0.00     0.180 A 
ATOM      2  C   UNL     1      -4.886 -16.623  -5.846  1.00  0.00     0.208 A 
ATOM      3  C   UNL     1      -3.881 -16.184  -4.968  1.00  0.00     0.238 A 
ATOM      4  O   UNL     1      -3.733 -14.947  -4.787  1.00  0.00    -0.285 OA
ATOM      5  C   UNL     1      -3.031 -17.129  -4.343  1.00  0.00     0.111 A 
ATOM      6  C   UNL     1      -2.005 -16.800  -3.405  1.00  0.00     0.134 A 
ATOM      7  C   UNL     1      -1.140 -17.802  -2.949  1.00  0.00     0.093 A 
ATOM      8  C   UNL     1      -1.305 -19.132  -3.346  1.00  0.00     0.123 A 
ATOM      9  C   UNL     1      -2.340 -19.471  -4.213  1.00  0.00     0.094 A 
ATOM     10  C   UNL     1      -3.197 -18.488  -4.714  1.00  0.00     0.146 A 
ATOM     11  O   UNL     1      -4.163 -18.854  -5.547  1.00  0.00    -0.452 OA
ENDROOT
BRANCH   1  12
ATOM     12  C   UNL     1      -6.068 -18.539  -6.991  1.00  0.00     0.025 A 
ATOM     13  C   UNL     1      -6.940 -18.860  -9.254  1.00  0.00     0.161 A 
ATOM     14  C   UNL     1      -8.009 -19.600  -8.729  1.00  0.00     0.157 A 
ATOM     15  C   UNL     1      -5.967 -18.337  -8.378  1.00  0.00     0.062 A 
ATOM     16  C   UNL     1      -8.101 -19.821  -7.349  1.00  0.00     0.051 A 
ATOM     17  C   UNL     1      -7.135 -19.300  -6.486  1.00  0.00     0.016 A 
BRANCH  13  18
ATOM     18  O   UNL     1      -6.879 -18.665 -10.642  1.00  0.00    -0.493 OA
ATOM     19  C   UNL     1      -6.560 -19.682 -11.586  1.00  0.00     0.278 C 
ENDBRANCH  13  18
BRANCH  14  20
ATOM     20  O   UNL     1      -8.976 -20.118  -9.589  1.00  0.00    -0.504 OA
ATOM     21  H   UNL     1      -9.049 -21.113  -9.767  1.00  0.00     0.293 HD
ENDBRANCH  14  20
ENDBRANCH   1  12
BRANCH   2  22
ATOM     22  O   UNL     1      -5.721 -15.706  -6.490  1.00  0.00    -0.502 OA
ATOM     23  H   UNL     1      -6.103 -14.895  -6.021  1.00  0.00     0.293 HD
ENDBRANCH   2  22
BRANCH   6  24
ATOM     24  O   UNL     1      -1.814 -15.521  -2.875  1.00  0.00    -0.507 OA
ATOM     25  H   UNL     1      -1.537 -15.329  -1.924  1.00  0.00     0.293 HD
ENDBRANCH   6  24
BRANCH   8  26
ATOM     26  O   UNL     1      -0.449 -20.125  -2.875  1.00  0.00    -0.508 OA
ATOM     27  H   UNL     1       0.231 -19.937  -2.149  1.00  0.00     0.293 HD
ENDBRANCH   8  26
TORSDOF 6
ENDMDL
MODEL 2
REMARK VINA RESULT:    -3.612      1.640      7.106
REMARK INTER + INTRA:          -4.567
REMARK INTER:                  -4.389
REMARK INTRA:                  -0.178
REMARK UNBOUND:                -0.111
REMARK SMILES COc1cc(-c2oc3cc(O)cc(O)c3c(=O)c2O)ccc1O
REMARK SMILES IDX 6 1 18 2 16 3 17 4 15 5 13 6 12 7 10 8 9 9 8 10 7 11 5 12
REMARK SMILES IDX 3 13 22 14 4 15 21 16 20 17 2 18 1 19 23 20 19 22 14 24
REMARK SMILES IDX 11 26
REMARK H PARENT 23 21 19 23 14 25 11 27
REMARK Flexibility Score: inf
ROOT
ATOM      1  C   UNL     1      -5.450 -17.146  -6.811  1.00  0.00     0.180 A 
ATOM      2  C   UNL     1      -6.848 -17.048  -6.705  1.00  0.00     0.208 A 
ATOM      3  C   UNL     1      -7.647 -17.560  -7.741  1.00  0.00     0.238 A 
ATOM      4  O   UNL     1      -8.899 -17.519  -7.616  1.00  0.00    -0.285 OA
ATOM      5  C   UNL     1      -7.038 -18.148  -8.875  1.00  0.00     0.111 A 
ATOM      6  C   UNL     1      -7.748 -18.663 -10.002  1.00  0.00     0.134 A 
ATOM      7  C   UNL     1      -7.049 -19.340 -11.009  1.00  0.00     0.093 A 
ATOM      8  C   UNL     1      -5.658 -19.463 -10.961  1.00  0.00     0.123 A 
ATOM      9  C   UNL     1      -4.950 -18.911  -9.896  1.00  0.00     0.094 A 
ATOM     10  C   UNL     1      -5.624 -18.263  -8.858  1.00  0.00     0.146 A 
ATOM     11  O   UNL     1      -4.911 -17.761  -7.857  1.00  0.00    -0.452 OA
ENDROOT
BRANCH   1  12
ATOM     12  C   UNL     1      -4.543 -16.608  -5.772  1.00  0.00     0.025 A 
ATOM     13  C   UNL     1      -2.691 -16.960  -4.213  1.00  0.00     0.161 A 
ATOM     14  C   UNL     1      -2.758 -15.611  -3.839  1.00  0.00     0.157 A 
ATOM     15  C   UNL     1      -3.584 -17.452  -5.188  1.00  0.00     0.062 A 
ATOM     16  C   UNL     1      -3.699 -14.762  -4.435  1.00  0.00     0.051 A 
ATOM     17  C   UNL     1      -4.581 -15.253  -5.399  1.00  0.00     0.016 A 
BRANCH  13  18
ATOM     18  O   UNL     1      -1.730 -17.778  -3.599  1.00  0.00    -0.493 OA
ATOM     19  C   UNL     1      -1.736 -19.201  -3.641  1.00  0.00     0.278 C 
ENDBRANCH  13  18
BRANCH  14  20
ATOM     20  O   UNL     1      -1.880 -15.119  -2.875  1.00  0.00    -0.504 OA
ATOM     21  H   UNL     1      -0.876 -15.138  -3.013  1.00  0.00     0.293 HD
ENDBRANCH  14  20
ENDBRANCH   1  12
BRANCH   2  22
ATOM     22  O   UNL     1      -7.430 -16.484  -5.567  1.00  0.00    -0.502 OA
ATOM     23  H   UNL     1      -7.262 -16.842  -4.635  1.00  0.00     0.293 HD
ENDBRANCH   2  22
BRANCH   6  24
ATOM     24  O   UNL     1      -9.125 -18.513 -10.191  1.00  0.00    -0.507 OA
ATOM     25  H   UNL     1      -9.570 -18.366 -11.084  1.00  0.00     0.293 HD
ENDBRANCH   6  24
BRANCH   8  26
ATOM     26  O   UNL     1      -4.969 -20.125 -11.976  1.00  0.00    -0.508 OA
ATOM     27  H   UNL     1      -3.976 -20.313 -11.906  1.00  0.00     0.293 HD
ENDBRANCH   8  26
TORSDOF 6
ENDMDL
MODEL 3
REMARK VINA RESULT:    -3.590      3.056      7.158
REMARK INTER + INTRA:          -4.540
REMARK INTER:                  -4.994
REMARK INTRA:                   0.454
REMARK UNBOUND:                -0.111
REMARK SMILES COc1cc(-c2oc3cc(O)cc(O)c3c(=O)c2O)ccc1O
REMARK SMILES IDX 6 1 18 2 16 3 17 4 15 5 13 6 12 7 10 8 9 9 8 10 7 11 5 12
REMARK SMILES IDX 3 13 22 14 4 15 21 16 20 17 2 18 1 19 23 20 19 22 14 24
REMARK SMILES IDX 11 26
REMARK H PARENT 23 21 19 23 14 25 11 27
REMARK Flexibility Score: inf
ROOT
ATOM      1  C   UNL     1      -6.775 -17.157  -7.316  1.00  0.00     0.180 A 
ATOM      2  C   UNL     1      -5.411 -17.429  -7.518  1.00  0.00     0.208 A 
ATOM      3  C   UNL     1      -5.028 -18.205  -8.624  1.00  0.00     0.238 A 
ATOM      4  O   UNL     1      -3.801 -18.399  -8.830  1.00  0.00    -0.285 OA
ATOM      5  C   UNL     1      -6.014 -18.711  -9.505  1.00  0.00     0.111 A 
ATOM      6  C   UNL     1      -5.742 -19.541 -10.635  1.00  0.00     0.134 A 
ATOM      7  C   UNL     1      -6.782 -19.877 -11.511  1.00  0.00     0.093 A 
ATOM      8  C   UNL     1      -8.094 -19.467 -11.261  1.00  0.00     0.123 A 
ATOM      9  C   UNL     1      -8.379 -18.707 -10.130  1.00  0.00     0.094 A 
ATOM     10  C   UNL     1      -7.356 -18.326  -9.257  1.00  0.00     0.146 A 
ATOM     11  O   UNL     1      -7.670 -17.592  -8.196  1.00  0.00    -0.452 OA
ENDROOT
BRANCH   1  12
ATOM     12  C   UNL     1      -7.258 -16.368  -6.160  1.00  0.00     0.025 A 
ATOM     13  C   UNL     1      -6.788 -15.247  -4.038  1.00  0.00     0.161 A 
ATOM     14  C   UNL     1      -8.121 -14.818  -3.977  1.00  0.00     0.157 A 
ATOM     15  C   UNL     1      -6.360 -16.018  -5.138  1.00  0.00     0.062 A 
ATOM     16  C   UNL     1      -9.014 -15.149  -5.004  1.00  0.00     0.051 A 
ATOM     17  C   UNL     1      -8.586 -15.912  -6.091  1.00  0.00     0.016 A 
BRANCH  13  18
ATOM     18  O   UNL     1      -5.922 -14.891  -2.993  1.00  0.00    -0.493 OA
ATOM     19  C   UNL     1      -4.573 -15.331  -2.877  1.00  0.00     0.278 C 
ENDBRANCH  13  18
BRANCH  14  20
ATOM     20  O   UNL     1      -8.551 -14.058  -2.890  1.00  0.00    -0.504 OA
ATOM     21  H   UNL     1      -8.109 -14.134  -1.982  1.00  0.00     0.293 HD
ENDBRANCH  14  20
ENDBRANCH   1  12
BRANCH   2  22
ATOM     22  O   UNL     1      -4.453 -16.901  -6.650  1.00  0.00    -0.502 OA
ATOM     23  H   UNL     1      -3.797 -17.483  -6.144  1.00  0.00     0.293 HD
ENDBRANCH   2  22
BRANCH   6  24
ATOM     24  O   UNL     1      -4.485 -20.080 -10.923  1.00  0.00    -0.507 OA
ATOM     25  H   UNL     1      -4.083 -20.139 -11.846  1.00  0.00     0.293 HD
ENDBRANCH   6  24
BRANCH   8  26
ATOM     26  O   UNL     1      -9.125 -19.819 -12.131  1.00  0.00    -0.508 OA
ATOM     27  H   UNL     1      -9.260 -20.776 -12.433  1.00  0.00     0.293 HD
ENDBRANCH   8  26
TORSDOF 6
ENDMDL
MODEL 4
REMARK VINA RESULT:    -3.585      2.736      3.940
REMARK INTER + INTRA:          -4.534
REMARK INTER:                  -5.092
REMARK INTRA:                   0.557
REMARK UNBOUND:                -0.111
REMARK SMILES COc1cc(-c2oc3cc(O)cc(O)c3c(=O)c2O)ccc1O
REMARK SMILES IDX 6 1 18 2 16 3 17 4 15 5 13 6 12 7 10 8 9 9 8 10 7 11 5 12
REMARK SMILES IDX 3 13 22 14 4 15 21 16 20 17 2 18 1 19 23 20 19 22 14 24
REMARK SMILES IDX 11 26
REMARK H PARENT 23 21 19 23 14 25 11 27
REMARK Flexibility Score: inf
ROOT
ATOM      1  C   UNL     1      -6.535 -17.136  -7.164  1.00  0.00     0.180 A 
ATOM      2  C   UNL     1      -7.824 -16.752  -6.758  1.00  0.00     0.208 A 
ATOM      3  C   UNL     1      -7.974 -16.013  -5.572  1.00  0.00     0.238 A 
ATOM      4  O   UNL     1      -9.125 -15.625  -5.242  1.00  0.00    -0.285 OA
ATOM      5  C   UNL     1      -6.834 -15.682  -4.801  1.00  0.00     0.111 A 
ATOM      6  C   UNL     1      -6.871 -14.972  -3.563  1.00  0.00     0.134 A 
ATOM      7  C   UNL     1      -5.672 -14.587  -2.951  1.00  0.00     0.093 A 
ATOM      8  C   UNL     1      -4.437 -14.943  -3.500  1.00  0.00     0.123 A 
ATOM      9  C   UNL     1      -4.391 -15.687  -4.675  1.00  0.00     0.094 A 
ATOM     10  C   UNL     1      -5.570 -16.055  -5.328  1.00  0.00     0.146 A 
ATOM     11  O   UNL     1      -5.480 -16.755  -6.452  1.00  0.00    -0.452 OA
ENDROOT
BRANCH   1  12
ATOM     12  C   UNL     1      -6.301 -17.936  -8.387  1.00  0.00     0.025 A 
ATOM     13  C   UNL     1      -7.072 -18.696 -10.580  1.00  0.00     0.161 A 
ATOM     14  C   UNL     1      -5.869 -19.394 -10.754  1.00  0.00     0.157 A 
ATOM     15  C   UNL     1      -7.280 -17.962  -9.395  1.00  0.00     0.062 A 
ATOM     16  C   UNL     1      -4.883 -19.354  -9.760  1.00  0.00     0.051 A 
ATOM     17  C   UNL     1      -5.093 -18.626  -8.588  1.00  0.00     0.016 A 
BRANCH  13  18
ATOM     18  O   UNL     1      -8.033 -18.755 -11.601  1.00  0.00    -0.493 OA
ATOM     19  C   UNL     1      -8.815 -19.905 -11.908  1.00  0.00     0.278 C 
ENDBRANCH  13  18
BRANCH  14  20
ATOM     20  O   UNL     1      -5.659 -20.124 -11.923  1.00  0.00    -0.504 OA
ATOM     21  H   UNL     1      -6.182 -19.933 -12.769  1.00  0.00     0.293 HD
ENDBRANCH  14  20
ENDBRANCH   1  12
BRANCH   2  22
ATOM     22  O   UNL     1      -8.934 -17.069  -7.545  1.00  0.00    -0.502 OA
ATOM     23  H   UNL     1      -9.422 -16.379  -8.103  1.00  0.00     0.293 HD
ENDBRANCH   2  22
BRANCH   6  24
ATOM     24  O   UNL     1      -8.050 -14.648  -2.884  1.00  0.00    -0.507 OA
ATOM     25  H   UNL     1      -8.800 -14.094  -3.269  1.00  0.00     0.293 HD
ENDBRANCH   6  24
BRANCH   8  26
ATOM     26  O   UNL     1      -3.248 -14.568  -2.876  1.00  0.00    -0.508 OA
ATOM     27  H   UNL     1      -2.359 -14.973  -3.143  1.00  0.00     0.293 HD
ENDBRANCH   8  26
TORSDOF 6
ENDMDL
