MODEL 1
REMARK VINA RESULT:    -4.443      0.000      0.000
REMARK INTER + INTRA:          -7.056
REMARK INTER:                  -6.261
REMARK INTRA:                  -0.796
REMARK UNBOUND:                -0.796
REMARK SMILES C=CCCCCCCC(=O)[O-]
REMARK SMILES IDX 6 1 7 2 8 3 9 4 10 5 11 6 5 7 4 8 3 9 2 10 1 11
REMARK H PARENT
REMARK Flexibility Score: inf
ROOT
ATOM      1  C   UNL     1      19.206  22.785  10.321  1.00  0.00     0.000 C 
ENDROOT
BRANCH   1   2
ATOM      2  C   UNL     1      18.236  23.971  10.188  1.00  0.00     0.006 C 
BRANCH   2   3
ATOM      3  C   UNL     1      18.939  25.239   9.685  1.00  0.00     0.053 C 
BRANCH   3   4
ATOM      4  C   UNL     1      18.127  25.950   8.645  1.00  0.00     0.041 C 
ATOM      5  O   UNL     1      17.247  25.329   7.994  1.00  0.00    -0.550 OA
ATOM      6  O   UNL     1      18.365  27.292   8.376  1.00  0.00    -0.550 OA
ENDBRANCH   3   4
ENDBRANCH   2   3
ENDBRANCH   1   2
BRANCH   1   7
ATOM      7  C   UNL     1      20.680  23.217  10.259  1.00  0.00     0.000 C 
BRANCH   7   8
ATOM      8  C   UNL     1      21.468  22.478   9.164  1.00  0.00     0.004 C 
BRANCH   8   9
ATOM      9  C   UNL     1      21.441  23.231   7.825  1.00  0.00     0.027 C 
BRANCH   9  10
ATOM     10  C   UNL     1      20.612  22.525   6.785  1.00  0.00    -0.035 C 
ATOM     11  C   UNL     1      19.354  22.887   6.522  1.00  0.00     0.004 C 
ENDBRANCH   9  10
ENDBRANCH   8   9
ENDBRANCH   7   8
ENDBRANCH   1   7
TORSDOF 7
ENDMDL
MODEL 2
REMARK VINA RESULT:    -4.396      1.517      2.952
REMARK INTER + INTRA:          -6.991
REMARK INTER:                  -6.340
REMARK INTRA:                  -0.651
REMARK UNBOUND:                -0.796
REMARK SMILES C=CCCCCCCC(=O)[O-]
REMARK SMILES IDX 6 1 7 2 8 3 9 4 10 5 11 6 5 7 4 8 3 9 2 10 1 11
REMARK H PARENT
REMARK Flexibility Score: inf
ROOT
ATOM      1  C   UNL     1      17.751  23.515   6.432  1.00  0.00     0.000 C 
ENDROOT
BRANCH   1   2
ATOM      2  C   UNL     1      17.128  24.217   7.651  1.00  0.00     0.006 C 
BRANCH   2   3
ATOM      3  C   UNL     1      18.000  25.373   8.160  1.00  0.00     0.053 C 
BRANCH   3   4
ATOM      4  C   UNL     1      18.098  25.379   9.655  1.00  0.00     0.041 C 
ATOM      5  O   UNL     1      19.127  25.835  10.221  1.00  0.00    -0.550 OA
ATOM      6  O   UNL     1      17.065  24.855  10.422  1.00  0.00    -0.550 OA
ENDBRANCH   3   4
ENDBRANCH   2   3
ENDBRANCH   1   2
BRANCH   1   7
ATOM      7  C   UNL     1      18.698  22.371   6.829  1.00  0.00     0.000 C 
BRANCH   7   8
ATOM      8  C   UNL     1      20.044  22.431   6.086  1.00  0.00     0.004 C 
BRANCH   8   9
ATOM      9  C   UNL     1      21.238  22.420   7.053  1.00  0.00     0.027 C 
BRANCH   9  10
ATOM     10  C   UNL     1      21.056  23.376   8.202  1.00  0.00    -0.035 C 
ATOM     11  C   UNL     1      21.485  23.087   9.433  1.00  0.00     0.004 C 
ENDBRANCH   9  10
ENDBRANCH   8   9
ENDBRANCH   7   8
ENDBRANCH   1   7
TORSDOF 7
ENDMDL
MODEL 3
REMARK VINA RESULT:    -4.365      2.673      4.630
REMARK INTER + INTRA:          -6.946
REMARK INTER:                  -6.307
REMARK INTRA:                  -0.639
REMARK UNBOUND:                -0.796
REMARK SMILES C=CCCCCCCC(=O)[O-]
REMARK SMILES IDX 6 1 7 2 8 3 9 4 10 5 11 6 5 7 4 8 3 9 2 10 1 11
REMARK H PARENT
REMARK Flexibility Score: inf
ROOT
ATOM      1  C   UNL     1      18.666  23.215   6.502  1.00  0.00     0.000 C 
ENDROOT
BRANCH   1   2
ATOM      2  C   UNL     1      19.420  22.662   7.723  1.00  0.00     0.006 C 
BRANCH   2   3
ATOM      3  C   UNL     1      20.781  23.344   7.920  1.00  0.00     0.053 C 
BRANCH   3   4
ATOM      4  C   UNL     1      21.451  22.894   9.183  1.00  0.00     0.041 C 
ATOM      5  O   UNL     1      22.402  22.071   9.137  1.00  0.00    -0.550 OA
ATOM      6  O   UNL     1      21.005  23.363  10.412  1.00  0.00    -0.550 OA
ENDBRANCH   3   4
ENDBRANCH   2   3
ENDBRANCH   1   2
BRANCH   1   7
ATOM      7  C   UNL     1      17.347  23.906   6.883  1.00  0.00     0.000 C 
BRANCH   7   8
ATOM      8  C   UNL     1      17.210  24.126   8.400  1.00  0.00     0.004 C 
BRANCH   8   9
ATOM      9  C   UNL     1      17.224  25.616   8.771  1.00  0.00     0.027 C 
BRANCH   9  10
ATOM     10  C   UNL     1      18.575  26.076   9.251  1.00  0.00    -0.035 C 
ATOM     11  C   UNL     1      19.126  27.214   8.821  1.00  0.00     0.004 C 
ENDBRANCH   9  10
ENDBRANCH   8   9
ENDBRANCH   7   8
ENDBRANCH   1   7
TORSDOF 7
ENDMDL
MODEL 4
REMARK VINA RESULT:    -4.338      1.254      2.301
REMARK INTER + INTRA:          -6.909
REMARK INTER:                  -6.237
REMARK INTRA:                  -0.672
REMARK UNBOUND:                -0.796
REMARK SMILES C=CCCCCCCC(=O)[O-]
REMARK SMILES IDX 6 1 7 2 8 3 9 4 10 5 11 6 5 7 4 8 3 9 2 10 1 11
REMARK H PARENT
REMARK Flexibility Score: inf
ROOT
ATOM      1  C   UNL     1      17.490  23.260   8.845  1.00  0.00     0.000 C 
ENDROOT
BRANCH   1   2
ATOM      2  C   UNL     1      17.351  24.628   8.156  1.00  0.00     0.006 C 
BRANCH   2   3
ATOM      3  C   UNL     1      18.581  25.517   8.380  1.00  0.00     0.053 C 
BRANCH   3   4
ATOM      4  C   UNL     1      18.212  26.838   8.985  1.00  0.00     0.041 C 
ATOM      5  O   UNL     1      19.109  27.653   9.324  1.00  0.00    -0.550 OA
ATOM      6  O   UNL     1      16.876  27.154   9.198  1.00  0.00    -0.550 OA
ENDBRANCH   3   4
ENDBRANCH   2   3
ENDBRANCH   1   2
BRANCH   1   7
ATOM      7  C   UNL     1      18.170  23.358  10.221  1.00  0.00     0.000 C 
BRANCH   7   8
ATOM      8  C   UNL     1      19.400  22.442  10.341  1.00  0.00     0.004 C 
BRANCH   8   9
ATOM      9  C   UNL     1      20.715  23.236  10.309  1.00  0.00     0.027 C 
BRANCH   9  10
ATOM     10  C   UNL     1      21.612  22.816   9.175  1.00  0.00    -0.035 C 
ATOM     11  C   UNL     1      21.297  23.059   7.900  1.00  0.00     0.004 C 
ENDBRANCH   9  10
ENDBRANCH   8   9
ENDBRANCH   7   8
ENDBRANCH   1   7
TORSDOF 7
ENDMDL
MODEL 5
REMARK VINA RESULT:    -4.317      2.374      4.375
REMARK INTER + INTRA:          -6.879
REMARK INTER:                  -6.097
REMARK INTRA:                  -0.782
REMARK UNBOUND:                -0.796
REMARK SMILES C=CCCCCCCC(=O)[O-]
REMARK SMILES IDX 6 1 7 2 8 3 9 4 10 5 11 6 5 7 4 8 3 9 2 10 1 11
REMARK H PARENT
REMARK Flexibility Score: inf
ROOT
ATOM      1  C   UNL     1      18.751  23.344   6.887  1.00  0.00     0.000 C 
ENDROOT
BRANCH   1   2
ATOM      2  C   UNL     1      20.059  23.388   7.695  1.00  0.00     0.006 C 
BRANCH   2   3
ATOM      3  C   UNL     1      20.154  22.237   8.705  1.00  0.00     0.053 C 
BRANCH   3   4
ATOM      4  C   UNL     1      20.053  22.725  10.118  1.00  0.00     0.041 C 
ATOM      5  O   UNL     1      19.054  22.425  10.823  1.00  0.00    -0.550 OA
ATOM      6  O   UNL     1      21.050  23.536  10.645  1.00  0.00    -0.550 OA
ENDBRANCH   3   4
ENDBRANCH   2   3
ENDBRANCH   1   2
BRANCH   1   7
ATOM      7  C   UNL     1      17.510  23.604   7.755  1.00  0.00     0.000 C 
BRANCH   7   8
ATOM      8  C   UNL     1      17.289  25.099   8.041  1.00  0.00     0.004 C 
BRANCH   8   9
ATOM      9  C   UNL     1      17.576  25.454   9.508  1.00  0.00     0.027 C 
BRANCH   9  10
ATOM     10  C   UNL     1      18.823  26.284   9.665  1.00  0.00    -0.035 C 
ATOM     11  C   UNL     1      19.152  27.234   8.786  1.00  0.00     0.004 C 
ENDBRANCH   9  10
ENDBRANCH   8   9
ENDBRANCH   7   8
ENDBRANCH   1   7
TORSDOF 7
ENDMDL
MODEL 6
REMARK VINA RESULT:    -4.307      1.528      2.777
REMARK INTER + INTRA:          -6.865
REMARK INTER:                  -6.231
REMARK INTRA:                  -0.634
REMARK UNBOUND:                -0.796
REMARK SMILES C=CCCCCCCC(=O)[O-]
REMARK SMILES IDX 6 1 7 2 8 3 9 4 10 5 11 6 5 7 4 8 3 9 2 10 1 11
REMARK H PARENT
REMARK Flexibility Score: inf
ROOT
ATOM      1  C   UNL     1      17.367  23.906   6.574  1.00  0.00     0.000 C 
ENDROOT
BRANCH   1   2
ATOM      2  C   UNL     1      17.332  24.398   8.031  1.00  0.00     0.006 C 
BRANCH   2   3
ATOM      3  C   UNL     1      18.551  25.261   8.380  1.00  0.00     0.053 C 
BRANCH   3   4
ATOM      4  C   UNL     1      18.151  26.578   8.972  1.00  0.00     0.041 C 
ATOM      5  O   UNL     1      16.941  26.817   9.225  1.00  0.00    -0.550 OA
ATOM      6  O   UNL     1      19.112  27.550   9.219  1.00  0.00    -0.550 OA
ENDBRANCH   3   4
ENDBRANCH   2   3
ENDBRANCH   1   2
BRANCH   1   7
ATOM      7  C   UNL     1      17.943  22.487   6.443  1.00  0.00     0.000 C 
BRANCH   7   8
ATOM      8  C   UNL     1      19.293  22.461   5.706  1.00  0.00     0.004 C 
BRANCH   8   9
ATOM      9  C   UNL     1      20.403  21.824   6.556  1.00  0.00     0.027 C 
BRANCH   9  10
ATOM     10  C   UNL     1      21.233  22.850   7.280  1.00  0.00    -0.035 C 
ATOM     11  C   UNL     1      21.336  22.860   8.611  1.00  0.00     0.004 C 
ENDBRANCH   9  10
ENDBRANCH   8   9
ENDBRANCH   7   8
ENDBRANCH   1   7
TORSDOF 7
ENDMDL
MODEL 7
REMARK VINA RESULT:    -4.248      1.205      1.939
REMARK INTER + INTRA:          -6.782
REMARK INTER:                  -6.105
REMARK INTRA:                  -0.677
REMARK UNBOUND:                -0.796
REMARK SMILES C=CCCCCCCC(=O)[O-]
REMARK SMILES IDX 6 1 7 2 8 3 9 4 10 5 11 6 5 7 4 8 3 9 2 10 1 11
REMARK H PARENT
REMARK Flexibility Score: inf
ROOT
ATOM      1  C   UNL     1      20.627  23.314  10.275  1.00  0.00     0.000 C 
ENDROOT
BRANCH   1   2
ATOM      2  C   UNL     1      19.440  22.390  10.597  1.00  0.00     0.006 C 
BRANCH   2   3
ATOM      3  C   UNL     1      18.220  22.688   9.714  1.00  0.00     0.053 C 
BRANCH   3   4
ATOM      4  C   UNL     1      17.798  24.122   9.813  1.00  0.00     0.041 C 
ATOM      5  O   UNL     1      17.328  24.571  10.892  1.00  0.00    -0.550 OA
ATOM      6  O   UNL     1      17.898  24.954   8.706  1.00  0.00    -0.550 OA
ENDBRANCH   3   4
ENDBRANCH   2   3
ENDBRANCH   1   2
BRANCH   1   7
ATOM      7  C   UNL     1      21.593  22.701   9.249  1.00  0.00     0.000 C 
BRANCH   7   8
ATOM      8  C   UNL     1      21.339  23.206   7.818  1.00  0.00     0.004 C 
BRANCH   8   9
ATOM      9  C   UNL     1      21.361  22.065   6.790  1.00  0.00     0.027 C 
BRANCH   9  10
ATOM     10  C   UNL     1      20.158  22.083   5.885  1.00  0.00    -0.035 C 
ATOM     11  C   UNL     1      19.077  22.816   6.165  1.00  0.00     0.004 C 
ENDBRANCH   9  10
ENDBRANCH   8   9
ENDBRANCH   7   8
ENDBRANCH   1   7
TORSDOF 7
ENDMDL
MODEL 8
REMARK VINA RESULT:    -4.192      2.223      4.231
REMARK INTER + INTRA:          -6.703
REMARK INTER:                  -6.033
REMARK INTRA:                  -0.670
REMARK UNBOUND:                -0.796
REMARK SMILES C=CCCCCCCC(=O)[O-]
REMARK SMILES IDX 6 1 7 2 8 3 9 4 10 5 11 6 5 7 4 8 3 9 2 10 1 11
REMARK H PARENT
REMARK Flexibility Score: inf
ROOT
ATOM      1  C   UNL     1      19.824  23.686  10.206  1.00  0.00     0.000 C 
ENDROOT
BRANCH   1   2
ATOM      2  C   UNL     1      20.795  22.817   9.388  1.00  0.00     0.006 C 
BRANCH   2   3
ATOM      3  C   UNL     1      21.183  23.479   8.059  1.00  0.00     0.053 C 
BRANCH   3   4
ATOM      4  C   UNL     1      20.730  22.670   6.882  1.00  0.00     0.041 C 
ATOM      5  O   UNL     1      21.476  21.777   6.401  1.00  0.00    -0.550 OA
ATOM      6  O   UNL     1      19.495  22.924   6.298  1.00  0.00    -0.550 OA
ENDBRANCH   3   4
ENDBRANCH   2   3
ENDBRANCH   1   2
BRANCH   1   7
ATOM      7  C   UNL     1      18.352  23.312   9.968  1.00  0.00     0.000 C 
BRANCH   7   8
ATOM      8  C   UNL     1      17.460  24.542   9.723  1.00  0.00     0.004 C 
BRANCH   8   9
ATOM      9  C   UNL     1      17.813  25.259   8.412  1.00  0.00     0.027 C 
BRANCH   9  10
ATOM     10  C   UNL     1      17.953  26.747   8.590  1.00  0.00    -0.035 C 
ATOM     11  C   UNL     1      19.068  27.296   9.081  1.00  0.00     0.004 C 
ENDBRANCH   9  10
ENDBRANCH   8   9
ENDBRANCH   7   8
ENDBRANCH   1   7
TORSDOF 7
ENDMDL
MODEL 9
REMARK VINA RESULT:    -4.184      1.658      2.944
REMARK INTER + INTRA:          -6.692
REMARK INTER:                  -5.909
REMARK INTRA:                  -0.783
REMARK UNBOUND:                -0.796
REMARK SMILES C=CCCCCCCC(=O)[O-]
REMARK SMILES IDX 6 1 7 2 8 3 9 4 10 5 11 6 5 7 4 8 3 9 2 10 1 11
REMARK H PARENT
REMARK Flexibility Score: inf
ROOT
ATOM      1  C   UNL     1      19.506  24.255   8.135  1.00  0.00     0.000 C 
ENDROOT
BRANCH   1   2
ATOM      2  C   UNL     1      18.205  24.027   7.346  1.00  0.00     0.006 C 
BRANCH   2   3
ATOM      3  C   UNL     1      16.959  24.212   8.222  1.00  0.00     0.053 C 
BRANCH   3   4
ATOM      4  C   UNL     1      17.128  25.331   9.203  1.00  0.00     0.041 C 
ATOM      5  O   UNL     1      17.231  26.519   8.798  1.00  0.00    -0.550 OA
ATOM      6  O   UNL     1      17.202  25.058  10.563  1.00  0.00    -0.550 OA
ENDBRANCH   3   4
ENDBRANCH   2   3
ENDBRANCH   1   2
BRANCH   1   7
ATOM      7  C   UNL     1      20.495  23.086   7.994  1.00  0.00     0.000 C 
BRANCH   7   8
ATOM      8  C   UNL     1      20.388  22.076   9.149  1.00  0.00     0.004 C 
BRANCH   8   9
ATOM      9  C   UNL     1      19.900  22.735  10.449  1.00  0.00     0.027 C 
BRANCH   9  10
ATOM     10  C   UNL     1      18.805  21.948  11.116  1.00  0.00    -0.035 C 
ATOM     11  C   UNL     1      17.873  21.300  10.412  1.00  0.00     0.004 C 
ENDBRANCH   9  10
ENDBRANCH   8   9
ENDBRANCH   7   8
ENDBRANCH   1   7
TORSDOF 7
ENDMDL
