MODEL 1
REMARK VINA RESULT:    -2.787      0.000      0.000
REMARK INTER + INTRA:          -4.269
REMARK INTER:                  -4.253
REMARK INTRA:                  -0.016
REMARK UNBOUND:                -0.016
REMARK SMILES CC1=CCC[C@H](C)C(=O)C[C@@H](C(C)C)C(=O)C1
REMARK SMILES IDX 8 1 9 2 6 3 7 4 5 5 4 6 3 7 2 8 1 9 10 11 11 12 15 13 16 14
REMARK SMILES IDX 17 15 12 17 13 18 14 19
REMARK H PARENT
REMARK Flexibility Score: 70.00
ROOT
ATOM      1  C   UNL     1     192.779 187.356 237.685  1.00  0.00     0.136 C 
ATOM      2  O   UNL     1     193.872 186.945 237.318  1.00  0.00    -0.299 OA
ENDROOT
BRANCH   1   3
ATOM      3  C   UNL     1     192.044 186.638 238.795  1.00  0.00     0.053 C 
ATOM      4  C   UNL     1     191.765 185.178 238.423  1.00  0.00     0.016 C 
BRANCH   3   5
ATOM      5  C   UNL     1     192.871 186.746 240.099  1.00  0.00     0.015 C 
BRANCH   5   6
ATOM      6  C   UNL     1     192.467 187.880 241.062  1.00  0.00     0.028 C 
BRANCH   6   7
ATOM      7  C   UNL     1     191.002 188.257 241.109  1.00  0.00    -0.028 C 
ATOM      8  C   UNL     1     190.457 189.451 240.774  1.00  0.00    -0.070 CG0
ATOM      9  C   UNL     1     188.978 189.636 241.012  1.00  0.00     0.039 C 
ATOM     10  G   UNL     1     191.218 190.580 240.101  1.00  0.00     0.000 G0
ENDBRANCH   6   7
ENDBRANCH   5   6
ENDBRANCH   3   5
ENDBRANCH   1   3
BRANCH   1  11
ATOM     11  C   UNL     1     192.222 188.619 237.069  1.00  0.00     0.087 C 
BRANCH  11  12
ATOM     12  C   UNL     1     192.544 189.886 237.915  1.00  0.00     0.066 C 
BRANCH  12  13
ATOM     13  C   UNL     1     191.294 190.424 238.600  1.00  0.00     0.140 C 
ATOM     14  O   UNL     1     190.326 190.734 237.918  1.00  0.00    -0.299 OA
BRANCH  13  15
ATOM     15  C   UNL     1     191.216 190.612 240.102  1.00  0.00     0.106 CG0
ATOM     16  G   UNL     1     190.470 189.460 240.752  1.00  0.00     0.000 G0
ENDBRANCH  13  15
ENDBRANCH  12  13
BRANCH  12  17
ATOM     17  C   UNL     1     193.273 190.978 237.074  1.00  0.00    -0.006 C 
ATOM     18  C   UNL     1     192.722 192.401 237.277  1.00  0.00     0.008 C 
ATOM     19  C   UNL     1     194.789 190.958 237.320  1.00  0.00     0.008 C 
ENDBRANCH  12  17
ENDBRANCH  11  12
ENDBRANCH   1  11
TORSDOF 1
ENDMDL
MODEL 2
REMARK VINA RESULT:    -2.696     14.633     15.919
REMARK INTER + INTRA:          -4.131
REMARK INTER:                  -3.834
REMARK INTRA:                  -0.296
REMARK UNBOUND:                -0.016
REMARK SMILES CC1=CCC[C@H](C)C(=O)C[C@@H](C(C)C)C(=O)C1
REMARK SMILES IDX 8 1 9 2 6 3 7 4 5 5 4 6 3 7 2 8 1 9 10 11 11 12 15 13 16 14
REMARK SMILES IDX 17 15 12 17 13 18 14 19
REMARK H PARENT
REMARK Flexibility Score: 70.00
ROOT
ATOM      1  C   UNL     1     184.241 190.262 224.658  1.00  0.00     0.136 C 
ATOM      2  O   UNL     1     184.078 191.204 223.894  1.00  0.00    -0.299 OA
ENDROOT
BRANCH   1   3
ATOM      3  C   UNL     1     185.374 190.297 225.659  1.00  0.00     0.053 C 
ATOM      4  C   UNL     1     186.729 190.096 224.972  1.00  0.00     0.016 C 
BRANCH   3   5
ATOM      5  C   UNL     1     185.321 191.636 226.434  1.00  0.00     0.015 C 
BRANCH   5   6
ATOM      6  C   UNL     1     184.135 191.810 227.402  1.00  0.00     0.028 C 
BRANCH   6   7
ATOM      7  C   UNL     1     183.979 190.774 228.495  1.00  0.00    -0.028 C 
ATOM      8  C   UNL     1     182.878 190.031 228.763  1.00  0.00    -0.070 CG0
ATOM      9  C   UNL     1     182.914 189.141 229.980  1.00  0.00     0.039 C 
ATOM     10  G   UNL     1     181.649 189.974 227.873  1.00  0.00     0.000 G0
ENDBRANCH   6   7
ENDBRANCH   5   6
ENDBRANCH   3   5
ENDBRANCH   1   3
BRANCH   1  11
ATOM     11  C   UNL     1     183.257 189.114 224.634  1.00  0.00     0.087 C 
BRANCH  11  12
ATOM     12  C   UNL     1     181.890 189.488 225.277  1.00  0.00     0.066 C 
BRANCH  12  13
ATOM     13  C   UNL     1     181.810 189.008 226.721  1.00  0.00     0.140 C 
ATOM     14  O   UNL     1     181.880 187.809 226.956  1.00  0.00    -0.299 OA
BRANCH  13  15
ATOM     15  C   UNL     1     181.623 189.967 227.880  1.00  0.00     0.106 CG0
ATOM     16  G   UNL     1     182.876 190.030 228.736  1.00  0.00     0.000 G0
ENDBRANCH  13  15
ENDBRANCH  12  13
BRANCH  12  17
ATOM     17  C   UNL     1     180.687 188.987 224.421  1.00  0.00    -0.006 C 
ATOM     18  C   UNL     1     179.307 189.365 224.992  1.00  0.00     0.008 C 
ATOM     19  C   UNL     1     180.800 189.456 222.963  1.00  0.00     0.008 C 
ENDBRANCH  12  17
ENDBRANCH  11  12
ENDBRANCH   1  11
TORSDOF 1
ENDMDL
MODEL 3
REMARK VINA RESULT:    -2.680     15.479     17.096
REMARK INTER + INTRA:          -4.106
REMARK INTER:                  -3.850
REMARK INTRA:                  -0.256
REMARK UNBOUND:                -0.016
REMARK SMILES CC1=CCC[C@H](C)C(=O)C[C@@H](C(C)C)C(=O)C1
REMARK SMILES IDX 8 1 9 2 6 3 7 4 5 5 4 6 3 7 2 8 1 9 10 11 11 12 15 13 16 14
REMARK SMILES IDX 17 15 12 17 13 18 14 19
REMARK H PARENT
REMARK Flexibility Score: 70.00
ROOT
ATOM      1  C   UNL     1     181.850 187.866 224.331  1.00  0.00     0.136 C 
ATOM      2  O   UNL     1     180.920 187.346 224.933  1.00  0.00    -0.299 OA
ENDROOT
BRANCH   1   3
ATOM      3  C   UNL     1     181.916 189.372 224.213  1.00  0.00     0.053 C 
ATOM      4  C   UNL     1     180.671 189.930 223.515  1.00  0.00     0.016 C 
BRANCH   3   5
ATOM      5  C   UNL     1     182.099 189.981 225.624  1.00  0.00     0.015 C 
BRANCH   5   6
ATOM      6  C   UNL     1     183.427 190.723 225.872  1.00  0.00     0.028 C 
BRANCH   6   7
ATOM      7  C   UNL     1     184.306 190.986 224.668  1.00  0.00    -0.028 C 
ATOM      8  C   UNL     1     185.408 190.290 224.295  1.00  0.00    -0.070 CG0
ATOM      9  C   UNL     1     186.196 190.808 223.118  1.00  0.00     0.039 C 
ATOM     10  G   UNL     1     185.849 188.984 224.931  1.00  0.00     0.000 G0
ENDBRANCH   6   7
ENDBRANCH   5   6
ENDBRANCH   3   5
ENDBRANCH   1   3
BRANCH   1  11
ATOM     11  C   UNL     1     182.955 186.991 223.782  1.00  0.00     0.087 C 
BRANCH  11  12
ATOM     12  C   UNL     1     184.189 186.927 224.728  1.00  0.00     0.066 C 
BRANCH  12  13
ATOM     13  C   UNL     1     185.335 187.778 224.197  1.00  0.00     0.140 C 
ATOM     14  O   UNL     1     185.869 187.470 223.140  1.00  0.00    -0.299 OA
BRANCH  13  15
ATOM     15  C   UNL     1     185.855 188.987 224.949  1.00  0.00     0.106 CG0
ATOM     16  G   UNL     1     185.405 190.274 224.280  1.00  0.00     0.000 G0
ENDBRANCH  13  15
ENDBRANCH  12  13
BRANCH  12  17
ATOM     17  C   UNL     1     184.628 185.458 225.012  1.00  0.00    -0.006 C 
ATOM     18  C   UNL     1     185.332 185.263 226.368  1.00  0.00     0.008 C 
ATOM     19  C   UNL     1     183.447 184.483 224.885  1.00  0.00     0.008 C 
ENDBRANCH  12  17
ENDBRANCH  11  12
ENDBRANCH   1  11
TORSDOF 1
ENDMDL
MODEL 4
REMARK VINA RESULT:    -2.617     16.319     18.303
REMARK INTER + INTRA:          -4.010
REMARK INTER:                  -3.736
REMARK INTRA:                  -0.273
REMARK UNBOUND:                -0.016
REMARK SMILES CC1=CCC[C@H](C)C(=O)C[C@@H](C(C)C)C(=O)C1
REMARK SMILES IDX 8 1 9 2 6 3 7 4 5 5 4 6 3 7 2 8 1 9 10 11 11 12 15 13 16 14
REMARK SMILES IDX 17 15 12 17 13 18 14 19
REMARK H PARENT
REMARK Flexibility Score: 70.00
ROOT
ATOM      1  C   UNL     1     180.458 179.118 234.370  1.00  0.00     0.136 C 
ATOM      2  O   UNL     1     181.273 179.465 235.213  1.00  0.00    -0.299 OA
ENDROOT
BRANCH   1   3
ATOM      3  C   UNL     1     180.650 177.811 233.635  1.00  0.00     0.053 C 
ATOM      4  C   UNL     1     182.107 177.630 233.194  1.00  0.00     0.016 C 
BRANCH   3   5
ATOM      5  C   UNL     1     180.182 176.648 234.543  1.00  0.00     0.015 C 
BRANCH   5   6
ATOM      6  C   UNL     1     178.874 175.949 234.125  1.00  0.00     0.028 C 
BRANCH   6   7
ATOM      7  C   UNL     1     178.255 176.372 232.810  1.00  0.00    -0.028 C 
ATOM      8  C   UNL     1     177.116 177.085 232.637  1.00  0.00    -0.070 CG0
ATOM      9  C   UNL     1     176.628 177.291 231.224  1.00  0.00     0.039 C 
ATOM     10  G   UNL     1     176.349 177.757 233.762  1.00  0.00     0.000 G0
ENDBRANCH   6   7
ENDBRANCH   5   6
ENDBRANCH   3   5
ENDBRANCH   1   3
BRANCH   1  11
ATOM     11  C   UNL     1     179.232 179.972 234.134  1.00  0.00     0.087 C 
BRANCH  11  12
ATOM     12  C   UNL     1     177.995 179.472 234.934  1.00  0.00     0.066 C 
BRANCH  12  13
ATOM     13  C   UNL     1     176.820 179.182 234.009  1.00  0.00     0.140 C 
ATOM     14  O   UNL     1     176.247 180.114 233.462  1.00  0.00    -0.299 OA
BRANCH  13  15
ATOM     15  C   UNL     1     176.321 177.773 233.759  1.00  0.00     0.106 CG0
ATOM     16  G   UNL     1     177.102 177.114 232.636  1.00  0.00     0.000 G0
ENDBRANCH  13  15
ENDBRANCH  12  13
BRANCH  12  17
ATOM     17  C   UNL     1     177.611 180.452 236.085  1.00  0.00    -0.006 C 
ATOM     18  C   UNL     1     176.273 180.124 236.772  1.00  0.00     0.008 C 
ATOM     19  C   UNL     1     178.730 180.555 237.133  1.00  0.00     0.008 C 
ENDBRANCH  12  17
ENDBRANCH  11  12
ENDBRANCH   1  11
TORSDOF 1
ENDMDL
MODEL 5
REMARK VINA RESULT:    -2.552     14.657     15.903
REMARK INTER + INTRA:          -3.911
REMARK INTER:                  -3.539
REMARK INTRA:                  -0.372
REMARK UNBOUND:                -0.016
REMARK SMILES CC1=CCC[C@H](C)C(=O)C[C@@H](C(C)C)C(=O)C1
REMARK SMILES IDX 8 1 9 2 6 3 7 4 5 5 4 6 3 7 2 8 1 9 10 11 11 12 15 13 16 14
REMARK SMILES IDX 17 15 12 17 13 18 14 19
REMARK H PARENT
REMARK Flexibility Score: 70.00
ROOT
ATOM      1  C   UNL     1     185.227 186.637 225.290  1.00  0.00     0.136 C 
ATOM      2  O   UNL     1     185.688 186.137 226.307  1.00  0.00    -0.299 OA
ENDROOT
BRANCH   1   3
ATOM      3  C   UNL     1     183.749 186.515 225.000  1.00  0.00     0.053 C 
ATOM      4  C   UNL     1     183.336 185.050 224.820  1.00  0.00     0.016 C 
BRANCH   3   5
ATOM      5  C   UNL     1     182.953 187.195 226.140  1.00  0.00     0.015 C 
BRANCH   5   6
ATOM      6  C   UNL     1     182.968 188.736 226.149  1.00  0.00     0.028 C 
BRANCH   6   7
ATOM      7  C   UNL     1     182.710 189.436 224.832  1.00  0.00    -0.028 C 
ATOM      8  C   UNL     1     183.467 190.403 224.260  1.00  0.00    -0.070 CG0
ATOM      9  C   UNL     1     182.950 191.039 222.994  1.00  0.00     0.039 C 
ATOM     10  G   UNL     1     184.836 190.825 224.763  1.00  0.00     0.000 G0
ENDBRANCH   6   7
ENDBRANCH   5   6
ENDBRANCH   3   5
ENDBRANCH   1   3
BRANCH   1  11
ATOM     11  C   UNL     1     186.138 187.432 224.381  1.00  0.00     0.087 C 
BRANCH  11  12
ATOM     12  C   UNL     1     186.536 188.807 224.991  1.00  0.00     0.066 C 
BRANCH  12  13
ATOM     13  C   UNL     1     185.942 189.959 224.189  1.00  0.00     0.140 C 
ATOM     14  O   UNL     1     186.374 190.190 223.068  1.00  0.00    -0.299 OA
BRANCH  13  15
ATOM     15  C   UNL     1     184.846 190.846 224.745  1.00  0.00     0.106 CG0
ATOM     16  G   UNL     1     183.483 190.395 224.248  1.00  0.00     0.000 G0
ENDBRANCH  13  15
ENDBRANCH  12  13
BRANCH  12  17
ATOM     17  C   UNL     1     188.079 188.942 225.165  1.00  0.00    -0.006 C 
ATOM     18  C   UNL     1     188.505 189.751 226.404  1.00  0.00     0.008 C 
ATOM     19  C   UNL     1     188.767 187.569 225.169  1.00  0.00     0.008 C 
ENDBRANCH  12  17
ENDBRANCH  11  12
ENDBRANCH   1  11
TORSDOF 1
ENDMDL
MODEL 6
REMARK VINA RESULT:    -2.545     17.295     18.688
REMARK INTER + INTRA:          -3.900
REMARK INTER:                  -3.581
REMARK INTRA:                  -0.319
REMARK UNBOUND:                -0.016
REMARK SMILES CC1=CCC[C@H](C)C(=O)C[C@@H](C(C)C)C(=O)C1
REMARK SMILES IDX 8 1 9 2 6 3 7 4 5 5 4 6 3 7 2 8 1 9 10 11 11 12 15 13 16 14
REMARK SMILES IDX 17 15 12 17 13 18 14 19
REMARK H PARENT
REMARK Flexibility Score: 70.00
ROOT
ATOM      1  C   UNL     1     179.205 189.003 227.088  1.00  0.00     0.136 C 
ATOM      2  O   UNL     1     178.480 188.595 227.985  1.00  0.00    -0.299 OA
ENDROOT
BRANCH   1   3
ATOM      3  C   UNL     1     180.700 189.073 227.308  1.00  0.00     0.053 C 
ATOM      4  C   UNL     1     181.039 189.887 228.562  1.00  0.00     0.016 C 
BRANCH   3   5
ATOM      5  C   UNL     1     181.265 187.635 227.393  1.00  0.00     0.015 C 
BRANCH   5   6
ATOM      6  C   UNL     1     182.244 187.227 226.274  1.00  0.00     0.028 C 
BRANCH   6   7
ATOM      7  C   UNL     1     182.756 188.328 225.371  1.00  0.00    -0.028 C 
ATOM      8  C   UNL     1     182.353 188.599 224.106  1.00  0.00    -0.070 CG0
ATOM      9  C   UNL     1     183.091 189.678 223.352  1.00  0.00     0.039 C 
ATOM     10  G   UNL     1     181.158 187.948 223.432  1.00  0.00     0.000 G0
ENDBRANCH   6   7
ENDBRANCH   5   6
ENDBRANCH   3   5
ENDBRANCH   1   3
BRANCH   1  11
ATOM     11  C   UNL     1     178.596 189.359 225.751  1.00  0.00     0.087 C 
BRANCH  11  12
ATOM     12  C   UNL     1     178.848 188.266 224.672  1.00  0.00     0.066 C 
BRANCH  12  13
ATOM     13  C   UNL     1     179.888 188.723 223.656  1.00  0.00     0.140 C 
ATOM     14  O   UNL     1     179.677 189.735 223.001  1.00  0.00    -0.299 OA
BRANCH  13  15
ATOM     15  C   UNL     1     181.168 187.950 223.412  1.00  0.00     0.106 CG0
ATOM     16  G   UNL     1     182.343 188.617 224.107  1.00  0.00     0.000 G0
ENDBRANCH  13  15
ENDBRANCH  12  13
BRANCH  12  17
ATOM     17  C   UNL     1     177.523 187.802 223.993  1.00  0.00    -0.006 C 
ATOM     18  C   UNL     1     177.720 186.762 222.875  1.00  0.00     0.008 C 
ATOM     19  C   UNL     1     176.514 187.281 225.027  1.00  0.00     0.008 C 
ENDBRANCH  12  17
ENDBRANCH  11  12
ENDBRANCH   1  11
TORSDOF 1
ENDMDL
MODEL 7
REMARK VINA RESULT:    -2.542     13.155     14.980
REMARK INTER + INTRA:          -3.896
REMARK INTER:                  -3.833
REMARK INTRA:                  -0.063
REMARK UNBOUND:                -0.016
REMARK SMILES CC1=CCC[C@H](C)C(=O)C[C@@H](C(C)C)C(=O)C1
REMARK SMILES IDX 8 1 9 2 6 3 7 4 5 5 4 6 3 7 2 8 1 9 10 11 11 12 15 13 16 14
REMARK SMILES IDX 17 15 12 17 13 18 14 19
REMARK H PARENT
REMARK Flexibility Score: 70.00
ROOT
ATOM      1  C   UNL     1     190.957 183.375 227.714  1.00  0.00     0.136 C 
ATOM      2  O   UNL     1     191.085 182.414 228.460  1.00  0.00    -0.299 OA
ENDROOT
BRANCH   1   3
ATOM      3  C   UNL     1     192.026 184.444 227.681  1.00  0.00     0.053 C 
ATOM      4  C   UNL     1     192.529 184.770 229.092  1.00  0.00     0.016 C 
BRANCH   3   5
ATOM      5  C   UNL     1     193.178 183.978 226.759  1.00  0.00     0.015 C 
BRANCH   5   6
ATOM      6  C   UNL     1     193.324 184.736 225.425  1.00  0.00     0.028 C 
BRANCH   6   7
ATOM      7  C   UNL     1     192.469 185.971 225.236  1.00  0.00    -0.028 C 
ATOM      8  C   UNL     1     191.425 186.117 224.384  1.00  0.00    -0.070 CG0
ATOM      9  C   UNL     1     190.791 187.482 224.283  1.00  0.00     0.039 C 
ATOM     10  G   UNL     1     190.803 184.980 223.592  1.00  0.00     0.000 G0
ENDBRANCH   6   7
ENDBRANCH   5   6
ENDBRANCH   3   5
ENDBRANCH   1   3
BRANCH   1  11
ATOM     11  C   UNL     1     189.766 183.434 226.784  1.00  0.00     0.087 C 
BRANCH  11  12
ATOM     12  C   UNL     1     190.143 183.099 225.312  1.00  0.00     0.066 C 
BRANCH  12  13
ATOM     13  C   UNL     1     189.765 184.238 224.373  1.00  0.00     0.140 C 
ATOM     14  O   UNL     1     188.588 184.550 224.256  1.00  0.00    -0.299 OA
BRANCH  13  15
ATOM     15  C   UNL     1     190.801 184.987 223.559  1.00  0.00     0.106 CG0
ATOM     16  G   UNL     1     191.412 186.117 224.369  1.00  0.00     0.000 G0
ENDBRANCH  13  15
ENDBRANCH  12  13
BRANCH  12  17
ATOM     17  C   UNL     1     189.544 181.734 224.854  1.00  0.00    -0.006 C 
ATOM     18  C   UNL     1     188.067 181.533 225.241  1.00  0.00     0.008 C 
ATOM     19  C   UNL     1     189.729 181.517 223.344  1.00  0.00     0.008 C 
ENDBRANCH  12  17
ENDBRANCH  11  12
ENDBRANCH   1  11
TORSDOF 1
ENDMDL
MODEL 8
REMARK VINA RESULT:    -2.471     16.476     17.960
REMARK INTER + INTRA:          -3.787
REMARK INTER:                  -3.447
REMARK INTRA:                  -0.340
REMARK UNBOUND:                -0.016
REMARK SMILES CC1=CCC[C@H](C)C(=O)C[C@@H](C(C)C)C(=O)C1
REMARK SMILES IDX 8 1 9 2 6 3 7 4 5 5 4 6 3 7 2 8 1 9 10 11 11 12 15 13 16 14
REMARK SMILES IDX 17 15 12 17 13 18 14 19
REMARK H PARENT
REMARK Flexibility Score: 70.00
ROOT
ATOM      1  C   UNL     1     183.142 189.014 226.451  1.00  0.00     0.136 C 
ATOM      2  O   UNL     1     184.151 188.806 227.112  1.00  0.00    -0.299 OA
ENDROOT
BRANCH   1   3
ATOM      3  C   UNL     1     183.124 190.144 225.447  1.00  0.00     0.053 C 
ATOM      4  C   UNL     1     183.870 191.373 225.979  1.00  0.00     0.016 C 
BRANCH   3   5
ATOM      5  C   UNL     1     183.731 189.644 224.114  1.00  0.00     0.015 C 
BRANCH   5   6
ATOM      6  C   UNL     1     182.791 189.666 222.893  1.00  0.00     0.028 C 
BRANCH   6   7
ATOM      7  C   UNL     1     181.331 189.974 223.152  1.00  0.00    -0.028 C 
ATOM      8  C   UNL     1     180.314 189.084 223.245  1.00  0.00    -0.070 CG0
ATOM      9  C   UNL     1     178.916 189.633 223.393  1.00  0.00     0.039 C 
ATOM     10  G   UNL     1     180.499 187.578 223.294  1.00  0.00     0.000 G0
ENDBRANCH   6   7
ENDBRANCH   5   6
ENDBRANCH   3   5
ENDBRANCH   1   3
BRANCH   1  11
ATOM     11  C   UNL     1     181.957 188.087 226.603  1.00  0.00     0.087 C 
BRANCH  11  12
ATOM     12  C   UNL     1     181.896 187.010 225.481  1.00  0.00     0.066 C 
BRANCH  12  13
ATOM     13  C   UNL     1     180.578 187.081 224.720  1.00  0.00     0.140 C 
ATOM     14  O   UNL     1     179.550 186.715 225.272  1.00  0.00    -0.299 OA
BRANCH  13  15
ATOM     15  C   UNL     1     180.501 187.570 223.287  1.00  0.00     0.106 CG0
ATOM     16  G   UNL     1     180.285 189.072 223.240  1.00  0.00     0.000 G0
ENDBRANCH  13  15
ENDBRANCH  12  13
BRANCH  12  17
ATOM     17  C   UNL     1     182.185 185.580 226.030  1.00  0.00    -0.006 C 
ATOM     18  C   UNL     1     183.446 184.922 225.439  1.00  0.00     0.008 C 
ATOM     19  C   UNL     1     182.253 185.570 227.564  1.00  0.00     0.008 C 
ENDBRANCH  12  17
ENDBRANCH  11  12
ENDBRANCH   1  11
TORSDOF 1
ENDMDL
MODEL 9
REMARK VINA RESULT:    -2.366     16.535     18.030
REMARK INTER + INTRA:          -3.627
REMARK INTER:                  -3.436
REMARK INTRA:                  -0.191
REMARK UNBOUND:                -0.016
REMARK SMILES CC1=CCC[C@H](C)C(=O)C[C@@H](C(C)C)C(=O)C1
REMARK SMILES IDX 8 1 9 2 6 3 7 4 5 5 4 6 3 7 2 8 1 9 10 11 11 12 15 13 16 14
REMARK SMILES IDX 17 15 12 17 13 18 14 19
REMARK H PARENT
REMARK Flexibility Score: 70.00
ROOT
ATOM      1  C   UNL     1     179.952 186.291 224.554  1.00  0.00     0.136 C 
ATOM      2  O   UNL     1     179.204 185.879 225.430  1.00  0.00    -0.299 OA
ENDROOT
BRANCH   1   3
ATOM      3  C   UNL     1     179.478 187.375 223.613  1.00  0.00     0.053 C 
ATOM      4  C   UNL     1     177.963 187.298 223.395  1.00  0.00     0.016 C 
BRANCH   3   5
ATOM      5  C   UNL     1     179.903 188.753 224.176  1.00  0.00     0.015 C 
BRANCH   5   6
ATOM      6  C   UNL     1     180.926 189.541 223.334  1.00  0.00     0.028 C 
BRANCH   6   7
ATOM      7  C   UNL     1     182.163 190.045 224.047  1.00  0.00    -0.028 C 
ATOM      8  C   UNL     1     183.244 189.317 224.418  1.00  0.00    -0.070 CG0
ATOM      9  C   UNL     1     184.312 190.013 225.224  1.00  0.00     0.039 C 
ATOM     10  G   UNL     1     183.486 187.876 224.005  1.00  0.00     0.000 G0
ENDBRANCH   6   7
ENDBRANCH   5   6
ENDBRANCH   3   5
ENDBRANCH   1   3
BRANCH   1  11
ATOM     11  C   UNL     1     181.365 185.756 224.478  1.00  0.00     0.087 C 
BRANCH  11  12
ATOM     12  C   UNL     1     182.247 186.233 225.668  1.00  0.00     0.066 C 
BRANCH  12  13
ATOM     13  C   UNL     1     183.502 186.942 225.175  1.00  0.00     0.140 C 
ATOM     14  O   UNL     1     184.557 186.772 225.770  1.00  0.00    -0.299 OA
BRANCH  13  15
ATOM     15  C   UNL     1     183.483 187.873 223.978  1.00  0.00     0.106 CG0
ATOM     16  G   UNL     1     183.238 189.307 224.414  1.00  0.00     0.000 G0
ENDBRANCH  13  15
ENDBRANCH  12  13
BRANCH  12  17
ATOM     17  C   UNL     1     182.575 185.070 226.654  1.00  0.00    -0.006 C 
ATOM     18  C   UNL     1     181.563 184.916 227.804  1.00  0.00     0.008 C 
ATOM     19  C   UNL     1     182.739 183.735 225.913  1.00  0.00     0.008 C 
ENDBRANCH  12  17
ENDBRANCH  11  12
ENDBRANCH   1  11
TORSDOF 1
ENDMDL
