MODEL 1
REMARK VINA RESULT:    -1.786      0.000      0.000
REMARK INTER + INTRA:          -3.605
REMARK INTER:                  -3.038
REMARK INTRA:                  -0.566
REMARK UNBOUND:                -0.566
REMARK SMILES CCCCCCCCCCCCCC(=O)[O-]
REMARK SMILES IDX 8 1 9 2 10 3 11 4 12 5 13 6 14 7 15 8 16 9 7 10 6 11 5 12
REMARK SMILES IDX 4 13 3 14 2 15 1 16
REMARK H PARENT
REMARK Flexibility Score: inf
ROOT
ATOM      1  C   UNL     1      30.378  24.839  29.555  1.00  0.00     0.000 C 
ENDROOT
BRANCH   1   2
ATOM      2  C   UNL     1      29.631  23.837  28.659  1.00  0.00     0.000 C 
BRANCH   2   3
ATOM      3  C   UNL     1      29.832  24.124  27.161  1.00  0.00     0.000 C 
BRANCH   3   4
ATOM      4  C   UNL     1      31.138  24.884  26.875  1.00  0.00     0.000 C 
BRANCH   4   5
ATOM      5  C   UNL     1      32.381  23.984  26.968  1.00  0.00     0.006 C 
BRANCH   5   6
ATOM      6  C   UNL     1      33.665  24.814  26.876  1.00  0.00     0.053 C 
BRANCH   6   7
ATOM      7  C   UNL     1      34.788  24.123  27.582  1.00  0.00     0.041 C 
ATOM      8  O   UNL     1      35.637  23.463  26.926  1.00  0.00    -0.550 OA
ATOM      9  O   UNL     1      34.926  24.249  28.958  1.00  0.00    -0.550 OA
ENDBRANCH   6   7
ENDBRANCH   5   6
ENDBRANCH   4   5
ENDBRANCH   3   4
ENDBRANCH   2   3
ENDBRANCH   1   2
BRANCH   1  10
ATOM     10  C   UNL     1      31.045  24.162  30.765  1.00  0.00     0.000 C 
BRANCH  10  11
ATOM     11  C   UNL     1      31.255  25.124  31.950  1.00  0.00    -0.000 C 
BRANCH  11  12
ATOM     12  C   UNL     1      32.188  24.610  33.068  1.00  0.00    -0.000 C 
BRANCH  12  13
ATOM     13  C   UNL     1      33.642  25.119  32.994  1.00  0.00    -0.000 C 
BRANCH  13  14
ATOM     14  C   UNL     1      34.612  24.377  33.943  1.00  0.00    -0.000 C 
BRANCH  14  15
ATOM     15  C   UNL     1      36.075  24.409  33.470  1.00  0.00    -0.003 C 
ATOM     16  C   UNL     1      36.247  25.103  32.120  1.00  0.00     0.004 C 
ENDBRANCH  14  15
ENDBRANCH  13  14
ENDBRANCH  12  13
ENDBRANCH  11  12
ENDBRANCH  10  11
ENDBRANCH   1  10
TORSDOF 12
ENDMDL
MODEL 2
REMARK VINA RESULT:    -1.650      1.214      2.235
REMARK INTER + INTRA:          -3.375
REMARK INTER:                  -2.928
REMARK INTRA:                  -0.447
REMARK UNBOUND:                -0.566
REMARK SMILES CCCCCCCCCCCCCC(=O)[O-]
REMARK SMILES IDX 8 1 9 2 10 3 11 4 12 5 13 6 14 7 15 8 16 9 7 10 6 11 5 12
REMARK SMILES IDX 4 13 3 14 2 15 1 16
REMARK H PARENT
REMARK Flexibility Score: inf
ROOT
ATOM      1  C   UNL     1      29.922  23.679  28.317  1.00  0.00     0.000 C 
ENDROOT
BRANCH   1   2
ATOM      2  C   UNL     1      31.247  22.912  28.176  1.00  0.00     0.000 C 
BRANCH   2   3
ATOM      3  C   UNL     1      32.133  23.470  27.049  1.00  0.00     0.000 C 
BRANCH   3   4
ATOM      4  C   UNL     1      32.537  24.935  27.286  1.00  0.00     0.000 C 
BRANCH   4   5
ATOM      5  C   UNL     1      34.049  25.108  27.497  1.00  0.00     0.006 C 
BRANCH   5   6
ATOM      6  C   UNL     1      34.808  23.848  27.068  1.00  0.00     0.053 C 
BRANCH   6   7
ATOM      7  C   UNL     1      35.946  23.578  28.001  1.00  0.00     0.041 C 
ATOM      8  O   UNL     1      36.166  24.351  28.970  1.00  0.00    -0.550 OA
ATOM      9  O   UNL     1      36.731  22.446  27.831  1.00  0.00    -0.550 OA
ENDBRANCH   6   7
ENDBRANCH   5   6
ENDBRANCH   4   5
ENDBRANCH   3   4
ENDBRANCH   2   3
ENDBRANCH   1   2
BRANCH   1  10
ATOM     10  C   UNL     1      30.063  24.946  29.179  1.00  0.00     0.000 C 
BRANCH  10  11
ATOM     11  C   UNL     1      30.982  24.743  30.398  1.00  0.00    -0.000 C 
BRANCH  11  12
ATOM     12  C   UNL     1      30.277  24.301  31.699  1.00  0.00    -0.000 C 
BRANCH  12  13
ATOM     13  C   UNL     1      30.809  24.958  32.988  1.00  0.00    -0.000 C 
BRANCH  13  14
ATOM     14  C   UNL     1      32.346  25.125  33.015  1.00  0.00    -0.000 C 
BRANCH  14  15
ATOM     15  C   UNL     1      33.027  24.350  34.156  1.00  0.00    -0.003 C 
ATOM     16  C   UNL     1      34.540  24.234  33.973  1.00  0.00     0.004 C 
ENDBRANCH  14  15
ENDBRANCH  13  14
ENDBRANCH  12  13
ENDBRANCH  11  12
ENDBRANCH  10  11
ENDBRANCH   1  10
TORSDOF 12
ENDMDL
MODEL 3
REMARK VINA RESULT:    -1.626      2.062      4.205
REMARK INTER + INTRA:          -3.333
REMARK INTER:                  -2.909
REMARK INTRA:                  -0.425
REMARK UNBOUND:                -0.566
REMARK SMILES CCCCCCCCCCCCCC(=O)[O-]
REMARK SMILES IDX 8 1 9 2 10 3 11 4 12 5 13 6 14 7 15 8 16 9 7 10 6 11 5 12
REMARK SMILES IDX 4 13 3 14 2 15 1 16
REMARK H PARENT
REMARK Flexibility Score: inf
ROOT
ATOM      1  C   UNL     1      32.732  24.925  32.850  1.00  0.00     0.000 C 
ENDROOT
BRANCH   1   2
ATOM      2  C   UNL     1      31.332  24.372  33.166  1.00  0.00     0.000 C 
BRANCH   2   3
ATOM      3  C   UNL     1      30.326  24.635  32.033  1.00  0.00     0.000 C 
BRANCH   3   4
ATOM      4  C   UNL     1      31.009  25.070  30.725  1.00  0.00     0.000 C 
BRANCH   4   5
ATOM      5  C   UNL     1      31.550  23.882  29.915  1.00  0.00     0.006 C 
BRANCH   5   6
ATOM      6  C   UNL     1      30.544  23.446  28.846  1.00  0.00     0.053 C 
BRANCH   6   7
ATOM      7  C   UNL     1      30.602  24.364  27.666  1.00  0.00     0.041 C 
ATOM      8  O   UNL     1      29.608  25.079  27.371  1.00  0.00    -0.550 OA
ATOM      9  O   UNL     1      31.770  24.468  26.922  1.00  0.00    -0.550 OA
ENDBRANCH   6   7
ENDBRANCH   5   6
ENDBRANCH   4   5
ENDBRANCH   3   4
ENDBRANCH   2   3
ENDBRANCH   1   2
BRANCH   1  10
ATOM     10  C   UNL     1      33.671  24.884  34.069  1.00  0.00     0.000 C 
BRANCH  10  11
ATOM     11  C   UNL     1      34.923  24.019  33.834  1.00  0.00    -0.000 C 
BRANCH  11  12
ATOM     12  C   UNL     1      36.139  24.755  33.231  1.00  0.00    -0.000 C 
BRANCH  12  13
ATOM     13  C   UNL     1      36.007  25.124  31.739  1.00  0.00    -0.000 C 
BRANCH  13  14
ATOM     14  C   UNL     1      37.114  24.517  30.847  1.00  0.00    -0.000 C 
BRANCH  14  15
ATOM     15  C   UNL     1      37.090  25.039  29.400  1.00  0.00    -0.003 C 
ATOM     16  C   UNL     1      36.491  24.034  28.417  1.00  0.00     0.004 C 
ENDBRANCH  14  15
ENDBRANCH  13  14
ENDBRANCH  12  13
ENDBRANCH  11  12
ENDBRANCH  10  11
ENDBRANCH   1  10
TORSDOF 12
ENDMDL
MODEL 4
REMARK VINA RESULT:    -0.953      1.787      5.082
REMARK INTER + INTRA:          -2.189
REMARK INTER:                  -1.314
REMARK INTRA:                  -0.874
REMARK UNBOUND:                -0.566
REMARK SMILES CCCCCCCCCCCCCC(=O)[O-]
REMARK SMILES IDX 8 1 9 2 10 3 11 4 12 5 13 6 14 7 15 8 16 9 7 10 6 11 5 12
REMARK SMILES IDX 4 13 3 14 2 15 1 16
REMARK H PARENT
REMARK Flexibility Score: inf
ROOT
ATOM      1  C   UNL     1      30.130  23.473  31.271  1.00  0.00     0.000 C 
ENDROOT
BRANCH   1   2
ATOM      2  C   UNL     1      30.955  24.574  31.958  1.00  0.00     0.000 C 
BRANCH   2   3
ATOM      3  C   UNL     1      31.870  24.020  33.064  1.00  0.00     0.000 C 
BRANCH   3   4
ATOM      4  C   UNL     1      32.662  25.125  33.784  1.00  0.00     0.000 C 
BRANCH   4   5
ATOM      5  C   UNL     1      34.180  24.887  33.747  1.00  0.00     0.006 C 
BRANCH   5   6
ATOM      6  C   UNL     1      34.736  25.125  32.340  1.00  0.00     0.053 C 
BRANCH   6   7
ATOM      7  C   UNL     1      36.112  24.551  32.216  1.00  0.00     0.041 C 
ATOM      8  O   UNL     1      36.875  24.932  31.289  1.00  0.00    -0.550 OA
ATOM      9  O   UNL     1      36.570  23.635  33.153  1.00  0.00    -0.550 OA
ENDBRANCH   6   7
ENDBRANCH   5   6
ENDBRANCH   4   5
ENDBRANCH   3   4
ENDBRANCH   2   3
ENDBRANCH   1   2
BRANCH   1  10
ATOM     10  C   UNL     1      29.686  23.868  29.852  1.00  0.00     0.000 C 
BRANCH  10  11
ATOM     11  C   UNL     1      30.412  25.119  29.322  1.00  0.00    -0.000 C 
BRANCH  11  12
ATOM     12  C   UNL     1      31.486  24.860  28.244  1.00  0.00    -0.000 C 
BRANCH  12  13
ATOM     13  C   UNL     1      32.381  23.629  28.493  1.00  0.00    -0.000 C 
BRANCH  13  14
ATOM     14  C   UNL     1      33.894  23.947  28.487  1.00  0.00    -0.000 C 
BRANCH  14  15
ATOM     15  C   UNL     1      34.562  23.721  27.120  1.00  0.00    -0.003 C 
ATOM     16  C   UNL     1      36.081  23.591  27.216  1.00  0.00     0.004 C 
ENDBRANCH  14  15
ENDBRANCH  13  14
ENDBRANCH  12  13
ENDBRANCH  11  12
ENDBRANCH  10  11
ENDBRANCH   1  10
TORSDOF 12
ENDMDL
MODEL 5
REMARK VINA RESULT:    -0.225      1.551      5.273
REMARK INTER + INTRA:          -0.949
REMARK INTER:                  -0.311
REMARK INTRA:                  -0.637
REMARK UNBOUND:                -0.566
REMARK SMILES CCCCCCCCCCCCCC(=O)[O-]
REMARK SMILES IDX 8 1 9 2 10 3 11 4 12 5 13 6 14 7 15 8 16 9 7 10 6 11 5 12
REMARK SMILES IDX 4 13 3 14 2 15 1 16
REMARK H PARENT
REMARK Flexibility Score: inf
ROOT
ATOM      1  C   UNL     1      31.312  23.840  32.716  1.00  0.00     0.000 C 
ENDROOT
BRANCH   1   2
ATOM      2  C   UNL     1      32.010  24.559  33.882  1.00  0.00     0.000 C 
BRANCH   2   3
ATOM      3  C   UNL     1      33.401  23.976  34.186  1.00  0.00     0.000 C 
BRANCH   3   4
ATOM      4  C   UNL     1      34.541  24.915  33.758  1.00  0.00     0.000 C 
BRANCH   4   5
ATOM      5  C   UNL     1      34.617  25.101  32.234  1.00  0.00     0.006 C 
BRANCH   5   6
ATOM      6  C   UNL     1      35.954  24.592  31.687  1.00  0.00     0.053 C 
BRANCH   6   7
ATOM      7  C   UNL     1      36.010  24.758  30.202  1.00  0.00     0.041 C 
ATOM      8  O   UNL     1      37.110  24.664  29.595  1.00  0.00    -0.550 OA
ATOM      9  O   UNL     1      34.841  24.965  29.481  1.00  0.00    -0.550 OA
ENDBRANCH   6   7
ENDBRANCH   5   6
ENDBRANCH   4   5
ENDBRANCH   3   4
ENDBRANCH   2   3
ENDBRANCH   1   2
BRANCH   1  10
ATOM     10  C   UNL     1      29.788  24.047  32.723  1.00  0.00     0.000 C 
BRANCH  10  11
ATOM     11  C   UNL     1      29.273  24.763  31.460  1.00  0.00    -0.000 C 
BRANCH  11  12
ATOM     12  C   UNL     1      30.328  25.020  30.363  1.00  0.00    -0.000 C 
BRANCH  12  13
ATOM     13  C   UNL     1      29.806  24.915  28.915  1.00  0.00    -0.000 C 
BRANCH  13  14
ATOM     14  C   UNL     1      30.139  23.570  28.229  1.00  0.00    -0.000 C 
BRANCH  14  15
ATOM     15  C   UNL     1      31.472  23.586  27.463  1.00  0.00    -0.003 C 
ATOM     16  C   UNL     1      32.624  22.979  28.264  1.00  0.00     0.004 C 
ENDBRANCH  14  15
ENDBRANCH  13  14
ENDBRANCH  12  13
ENDBRANCH  11  12
ENDBRANCH  10  11
ENDBRANCH   1  10
TORSDOF 12
ENDMDL
