MODEL 1
REMARK VINA RESULT:    -4.266      0.000      0.000
REMARK INTER + INTRA:          -7.712
REMARK INTER:                  -6.510
REMARK INTRA:                  -1.203
REMARK UNBOUND:                -1.203
REMARK SMILES CCCCCCCCCCC(=O)[O-]
REMARK SMILES IDX 7 1 8 2 9 3 10 4 11 5 12 6 13 7 6 8 5 9 4 10 3 11 2 12 1 13
REMARK H PARENT
REMARK Flexibility Score: inf
ROOT
ATOM      1  C   UNL     1      86.490  76.951  70.646  1.00  0.00     0.000 C 
ENDROOT
BRANCH   1   2
ATOM      2  C   UNL     1      85.610  75.724  70.361  1.00  0.00     0.000 C 
BRANCH   2   3
ATOM      3  C   UNL     1      86.155  74.480  71.080  1.00  0.00     0.006 C 
BRANCH   3   4
ATOM      4  C   UNL     1      87.639  74.236  70.777  1.00  0.00     0.053 C 
BRANCH   4   5
ATOM      5  C   UNL     1      88.388  73.790  71.995  1.00  0.00     0.041 C 
ATOM      6  O   UNL     1      88.341  74.471  73.053  1.00  0.00    -0.550 OA
ATOM      7  O   UNL     1      89.166  72.639  71.951  1.00  0.00    -0.550 OA
ENDBRANCH   4   5
ENDBRANCH   3   4
ENDBRANCH   2   3
ENDBRANCH   1   2
BRANCH   1   8
ATOM      8  C   UNL     1      86.477  77.971  69.497  1.00  0.00     0.000 C 
BRANCH   8   9
ATOM      9  C   UNL     1      86.429  77.302  68.112  1.00  0.00    -0.000 C 
BRANCH   9  10
ATOM     10  C   UNL     1      87.816  77.198  67.457  1.00  0.00    -0.000 C 
BRANCH  10  11
ATOM     11  C   UNL     1      88.115  75.790  66.921  1.00  0.00    -0.000 C 
BRANCH  11  12
ATOM     12  C   UNL     1      86.840  74.939  66.875  1.00  0.00    -0.003 C 
ATOM     13  C   UNL     1      87.145  73.472  67.165  1.00  0.00     0.004 C 
ENDBRANCH  11  12
ENDBRANCH  10  11
ENDBRANCH   9  10
ENDBRANCH   8   9
ENDBRANCH   1   8
TORSDOF 9
ENDMDL
MODEL 2
REMARK VINA RESULT:    -4.028      1.055      2.838
REMARK INTER + INTRA:          -7.350
REMARK INTER:                  -6.460
REMARK INTRA:                  -0.890
REMARK UNBOUND:                -1.203
REMARK SMILES CCCCCCCCCCC(=O)[O-]
REMARK SMILES IDX 7 1 8 2 9 3 10 4 11 5 12 6 13 7 6 8 5 9 4 10 3 11 2 12 1 13
REMARK H PARENT
REMARK Flexibility Score: inf
ROOT
ATOM      1  C   UNL     1      88.000  74.014  69.078  1.00  0.00     0.000 C 
ENDROOT
BRANCH   1   2
ATOM      2  C   UNL     1      86.960  74.424  70.132  1.00  0.00     0.000 C 
BRANCH   2   3
ATOM      3  C   UNL     1      87.563  74.376  71.544  1.00  0.00     0.006 C 
BRANCH   3   4
ATOM      4  C   UNL     1      88.688  73.340  71.662  1.00  0.00     0.053 C 
BRANCH   4   5
ATOM      5  C   UNL     1      89.208  73.243  73.064  1.00  0.00     0.041 C 
ATOM      6  O   UNL     1      89.320  72.120  73.623  1.00  0.00    -0.550 OA
ATOM      7  O   UNL     1      89.538  74.397  73.764  1.00  0.00    -0.550 OA
ENDBRANCH   4   5
ENDBRANCH   3   4
ENDBRANCH   2   3
ENDBRANCH   1   2
BRANCH   1   8
ATOM      8  C   UNL     1      87.380  73.776  67.692  1.00  0.00     0.000 C 
BRANCH   8   9
ATOM      9  C   UNL     1      87.040  75.088  66.963  1.00  0.00    -0.000 C 
BRANCH   9  10
ATOM     10  C   UNL     1      88.193  76.104  67.007  1.00  0.00    -0.000 C 
BRANCH  10  11
ATOM     11  C   UNL     1      87.726  77.516  67.392  1.00  0.00    -0.000 C 
BRANCH  11  12
ATOM     12  C   UNL     1      86.326  77.477  68.016  1.00  0.00    -0.003 C 
ATOM     13  C   UNL     1      86.349  77.987  69.455  1.00  0.00     0.004 C 
ENDBRANCH  11  12
ENDBRANCH  10  11
ENDBRANCH   9  10
ENDBRANCH   8   9
ENDBRANCH   1   8
TORSDOF 9
ENDMDL
MODEL 3
REMARK VINA RESULT:    -3.957      1.785      4.058
REMARK INTER + INTRA:          -7.242
REMARK INTER:                  -6.122
REMARK INTRA:                  -1.121
REMARK UNBOUND:                -1.203
REMARK SMILES CCCCCCCCCCC(=O)[O-]
REMARK SMILES IDX 7 1 8 2 9 3 10 4 11 5 12 6 13 7 6 8 5 9 4 10 3 11 2 12 1 13
REMARK H PARENT
REMARK Flexibility Score: inf
ROOT
ATOM      1  C   UNL     1      86.247  77.326  68.065  1.00  0.00     0.000 C 
ENDROOT
BRANCH   1   2
ATOM      2  C   UNL     1      87.489  77.506  67.178  1.00  0.00     0.000 C 
BRANCH   2   3
ATOM      3  C   UNL     1      88.146  76.150  66.875  1.00  0.00     0.006 C 
BRANCH   3   4
ATOM      4  C   UNL     1      88.743  75.500  68.130  1.00  0.00     0.053 C 
BRANCH   4   5
ATOM      5  C   UNL     1      88.347  74.061  68.250  1.00  0.00     0.041 C 
ATOM      6  O   UNL     1      89.024  73.274  68.964  1.00  0.00    -0.550 OA
ATOM      7  O   UNL     1      87.249  73.580  67.547  1.00  0.00    -0.550 OA
ENDBRANCH   4   5
ENDBRANCH   3   4
ENDBRANCH   2   3
ENDBRANCH   1   2
BRANCH   1   8
ATOM      8  C   UNL     1      86.371  78.051  69.415  1.00  0.00     0.000 C 
BRANCH   8   9
ATOM      9  C   UNL     1      86.255  77.095  70.614  1.00  0.00    -0.000 C 
BRANCH   9  10
ATOM     10  C   UNL     1      85.672  75.726  70.224  1.00  0.00    -0.000 C 
BRANCH  10  11
ATOM     11  C   UNL     1      86.073  74.610  71.201  1.00  0.00    -0.000 C 
BRANCH  11  12
ATOM     12  C   UNL     1      87.260  75.044  72.069  1.00  0.00    -0.003 C 
ATOM     13  C   UNL     1      88.233  73.888  72.290  1.00  0.00     0.004 C 
ENDBRANCH  11  12
ENDBRANCH  10  11
ENDBRANCH   9  10
ENDBRANCH   8   9
ENDBRANCH   1   8
TORSDOF 9
ENDMDL
MODEL 4
REMARK VINA RESULT:    -3.943      2.495      4.798
REMARK INTER + INTRA:          -7.220
REMARK INTER:                  -6.550
REMARK INTRA:                  -0.669
REMARK UNBOUND:                -1.203
REMARK SMILES CCCCCCCCCCC(=O)[O-]
REMARK SMILES IDX 7 1 8 2 9 3 10 4 11 5 12 6 13 7 6 8 5 9 4 10 3 11 2 12 1 13
REMARK H PARENT
REMARK Flexibility Score: inf
ROOT
ATOM      1  C   UNL     1      86.798  76.962  70.476  1.00  0.00     0.000 C 
ENDROOT
BRANCH   1   2
ATOM      2  C   UNL     1      86.516  77.834  69.242  1.00  0.00     0.000 C 
BRANCH   2   3
ATOM      3  C   UNL     1      86.251  76.962  68.005  1.00  0.00     0.006 C 
BRANCH   3   4
ATOM      4  C   UNL     1      87.261  77.225  66.881  1.00  0.00     0.053 C 
BRANCH   4   5
ATOM      5  C   UNL     1      88.666  76.953  67.323  1.00  0.00     0.041 C 
ATOM      6  O   UNL     1      89.547  77.848  67.223  1.00  0.00    -0.550 OA
ATOM      7  O   UNL     1      89.011  75.700  67.814  1.00  0.00    -0.550 OA
ENDBRANCH   4   5
ENDBRANCH   3   4
ENDBRANCH   2   3
ENDBRANCH   1   2
BRANCH   1   8
ATOM      8  C   UNL     1      85.677  75.949  70.757  1.00  0.00     0.000 C 
BRANCH   8   9
ATOM      9  C   UNL     1      86.161  74.491  70.668  1.00  0.00    -0.000 C 
BRANCH   9  10
ATOM     10  C   UNL     1      87.637  74.333  71.067  1.00  0.00    -0.000 C 
BRANCH  10  11
ATOM     11  C   UNL     1      87.827  74.165  72.583  1.00  0.00    -0.000 C 
BRANCH  11  12
ATOM     12  C   UNL     1      89.081  73.337  72.888  1.00  0.00    -0.003 C 
ATOM     13  C   UNL     1      89.507  72.513  71.676  1.00  0.00     0.004 C 
ENDBRANCH  11  12
ENDBRANCH  10  11
ENDBRANCH   9  10
ENDBRANCH   8   9
ENDBRANCH   1   8
TORSDOF 9
ENDMDL
MODEL 5
REMARK VINA RESULT:    -3.909      2.422      5.046
REMARK INTER + INTRA:          -7.169
REMARK INTER:                  -6.313
REMARK INTRA:                  -0.856
REMARK UNBOUND:                -1.203
REMARK SMILES CCCCCCCCCCC(=O)[O-]
REMARK SMILES IDX 7 1 8 2 9 3 10 4 11 5 12 6 13 7 6 8 5 9 4 10 3 11 2 12 1 13
REMARK H PARENT
REMARK Flexibility Score: inf
ROOT
ATOM      1  C   UNL     1      87.426  75.138  66.908  1.00  0.00     0.000 C 
ENDROOT
BRANCH   1   2
ATOM      2  C   UNL     1      88.596  76.116  67.096  1.00  0.00     0.000 C 
BRANCH   2   3
ATOM      3  C   UNL     1      88.105  77.455  67.666  1.00  0.00     0.006 C 
BRANCH   3   4
ATOM      4  C   UNL     1      86.618  77.417  68.041  1.00  0.00     0.053 C 
BRANCH   4   5
ATOM      5  C   UNL     1      86.344  78.185  69.298  1.00  0.00     0.041 C 
ATOM      6  O   UNL     1      86.802  77.783  70.400  1.00  0.00    -0.550 OA
ATOM      7  O   UNL     1      85.554  79.328  69.257  1.00  0.00    -0.550 OA
ENDBRANCH   4   5
ENDBRANCH   3   4
ENDBRANCH   2   3
ENDBRANCH   1   2
BRANCH   1   8
ATOM      8  C   UNL     1      87.673  73.778  67.580  1.00  0.00     0.000 C 
BRANCH   8   9
ATOM      9  C   UNL     1      88.196  73.916  69.020  1.00  0.00    -0.000 C 
BRANCH   9  10
ATOM     10  C   UNL     1      87.087  74.287  70.018  1.00  0.00    -0.000 C 
BRANCH  10  11
ATOM     11  C   UNL     1      87.597  74.382  71.464  1.00  0.00    -0.000 C 
BRANCH  11  12
ATOM     12  C   UNL     1      86.429  74.392  72.457  1.00  0.00    -0.003 C 
ATOM     13  C   UNL     1      85.088  74.324  71.732  1.00  0.00     0.004 C 
ENDBRANCH  11  12
ENDBRANCH  10  11
ENDBRANCH   9  10
ENDBRANCH   8   9
ENDBRANCH   1   8
TORSDOF 9
ENDMDL
MODEL 6
REMARK VINA RESULT:    -3.863     13.130     14.905
REMARK INTER + INTRA:          -7.099
REMARK INTER:                  -6.632
REMARK INTRA:                  -0.467
REMARK UNBOUND:                -1.203
REMARK SMILES CCCCCCCCCCC(=O)[O-]
REMARK SMILES IDX 7 1 8 2 9 3 10 4 11 5 12 6 13 7 6 8 5 9 4 10 3 11 2 12 1 13
REMARK H PARENT
REMARK Flexibility Score: inf
ROOT
ATOM      1  C   UNL     1      95.236  85.040  77.869  1.00  0.00     0.000 C 
ENDROOT
BRANCH   1   2
ATOM      2  C   UNL     1      94.150  84.686  76.841  1.00  0.00     0.000 C 
BRANCH   2   3
ATOM      3  C   UNL     1      92.767  84.613  77.507  1.00  0.00     0.006 C 
BRANCH   3   4
ATOM      4  C   UNL     1      91.874  83.537  76.877  1.00  0.00     0.053 C 
BRANCH   4   5
ATOM      5  C   UNL     1      90.538  84.088  76.482  1.00  0.00     0.041 C 
ATOM      6  O   UNL     1      90.461  85.030  75.649  1.00  0.00    -0.550 OA
ATOM      7  O   UNL     1      89.379  83.582  77.058  1.00  0.00    -0.550 OA
ENDBRANCH   4   5
ENDBRANCH   3   4
ENDBRANCH   2   3
ENDBRANCH   1   2
BRANCH   1   8
ATOM      8  C   UNL     1      96.217  83.884  78.119  1.00  0.00     0.000 C 
BRANCH   8   9
ATOM      9  C   UNL     1      95.655  82.831  79.091  1.00  0.00    -0.000 C 
BRANCH   9  10
ATOM     10  C   UNL     1      96.551  81.585  79.194  1.00  0.00    -0.000 C 
BRANCH  10  11
ATOM     11  C   UNL     1      98.048  81.930  79.202  1.00  0.00    -0.000 C 
BRANCH  11  12
ATOM     12  C   UNL     1      98.546  82.171  80.632  1.00  0.00    -0.003 C 
ATOM     13  C   UNL     1     100.013  82.592  80.642  1.00  0.00     0.004 C 
ENDBRANCH  11  12
ENDBRANCH  10  11
ENDBRANCH   9  10
ENDBRANCH   8   9
ENDBRANCH   1   8
TORSDOF 9
ENDMDL
MODEL 7
REMARK VINA RESULT:    -3.845      2.096      4.553
REMARK INTER + INTRA:          -7.070
REMARK INTER:                  -6.267
REMARK INTRA:                  -0.803
REMARK UNBOUND:                -1.203
REMARK SMILES CCCCCCCCCCC(=O)[O-]
REMARK SMILES IDX 7 1 8 2 9 3 10 4 11 5 12 6 13 7 6 8 5 9 4 10 3 11 2 12 1 13
REMARK H PARENT
REMARK Flexibility Score: inf
ROOT
ATOM      1  C   UNL     1      86.288  76.810  70.253  1.00  0.00     0.000 C 
ENDROOT
BRANCH   1   2
ATOM      2  C   UNL     1      86.457  76.995  68.737  1.00  0.00     0.000 C 
BRANCH   2   3
ATOM      3  C   UNL     1      87.625  76.149  68.209  1.00  0.00     0.006 C 
BRANCH   3   4
ATOM      4  C   UNL     1      87.178  75.143  67.140  1.00  0.00     0.053 C 
BRANCH   4   5
ATOM      5  C   UNL     1      87.389  73.729  67.586  1.00  0.00     0.041 C 
ATOM      6  O   UNL     1      88.248  73.463  68.468  1.00  0.00    -0.550 OA
ATOM      7  O   UNL     1      86.660  72.700  67.004  1.00  0.00    -0.550 OA
ENDBRANCH   4   5
ENDBRANCH   3   4
ENDBRANCH   2   3
ENDBRANCH   1   2
BRANCH   1   8
ATOM      8  C   UNL     1      85.445  75.575  70.611  1.00  0.00     0.000 C 
BRANCH   8   9
ATOM      9  C   UNL     1      86.268  74.479  71.310  1.00  0.00    -0.000 C 
BRANCH   9  10
ATOM     10  C   UNL     1      87.614  74.999  71.840  1.00  0.00    -0.000 C 
BRANCH  10  11
ATOM     11  C   UNL     1      88.328  73.982  72.744  1.00  0.00    -0.000 C 
BRANCH  11  12
ATOM     12  C   UNL     1      89.101  72.955  71.907  1.00  0.00    -0.003 C 
ATOM     13  C   UNL     1      90.251  72.345  72.706  1.00  0.00     0.004 C 
ENDBRANCH  11  12
ENDBRANCH  10  11
ENDBRANCH   9  10
ENDBRANCH   8   9
ENDBRANCH   1   8
TORSDOF 9
ENDMDL
MODEL 8
REMARK VINA RESULT:    -3.626     13.556     14.909
REMARK INTER + INTRA:          -6.736
REMARK INTER:                  -5.910
REMARK INTRA:                  -0.826
REMARK UNBOUND:                -1.203
REMARK SMILES CCCCCCCCCCC(=O)[O-]
REMARK SMILES IDX 7 1 8 2 9 3 10 4 11 5 12 6 13 7 6 8 5 9 4 10 3 11 2 12 1 13
REMARK H PARENT
REMARK Flexibility Score: inf
ROOT
ATOM      1  C   UNL     1      96.021  84.002  78.124  1.00  0.00     0.000 C 
ENDROOT
BRANCH   1   2
ATOM      2  C   UNL     1      95.330  82.852  78.873  1.00  0.00     0.000 C 
BRANCH   2   3
ATOM      3  C   UNL     1      96.364  81.945  79.558  1.00  0.00     0.006 C 
BRANCH   3   4
ATOM      4  C   UNL     1      97.795  82.237  79.089  1.00  0.00     0.053 C 
BRANCH   4   5
ATOM      5  C   UNL     1      98.645  82.769  80.202  1.00  0.00     0.041 C 
ATOM      6  O   UNL     1      99.093  81.992  81.086  1.00  0.00    -0.550 OA
ATOM      7  O   UNL     1      98.916  84.130  80.280  1.00  0.00    -0.550 OA
ENDBRANCH   4   5
ENDBRANCH   3   4
ENDBRANCH   2   3
ENDBRANCH   1   2
BRANCH   1   8
ATOM      8  C   UNL     1      95.052  85.135  77.752  1.00  0.00     0.000 C 
BRANCH   8   9
ATOM      9  C   UNL     1      94.196  84.801  76.518  1.00  0.00    -0.000 C 
BRANCH   9  10
ATOM     10  C   UNL     1      92.702  84.663  76.854  1.00  0.00    -0.000 C 
BRANCH  10  11
ATOM     11  C   UNL     1      92.258  83.199  76.996  1.00  0.00    -0.000 C 
BRANCH  11  12
ATOM     12  C   UNL     1      91.505  82.981  78.314  1.00  0.00    -0.003 C 
ATOM     13  C   UNL     1      91.788  84.108  79.304  1.00  0.00     0.004 C 
ENDBRANCH  11  12
ENDBRANCH  10  11
ENDBRANCH   9  10
ENDBRANCH   8   9
ENDBRANCH   1   8
TORSDOF 9
ENDMDL
MODEL 9
REMARK VINA RESULT:    -3.604     12.658     14.217
REMARK INTER + INTRA:          -6.703
REMARK INTER:                  -5.880
REMARK INTRA:                  -0.824
REMARK UNBOUND:                -1.203
REMARK SMILES CCCCCCCCCCC(=O)[O-]
REMARK SMILES IDX 7 1 8 2 9 3 10 4 11 5 12 6 13 7 6 8 5 9 4 10 3 11 2 12 1 13
REMARK H PARENT
REMARK Flexibility Score: inf
ROOT
ATOM      1  C   UNL     1      93.292  84.574  79.667  1.00  0.00     0.000 C 
ENDROOT
BRANCH   1   2
ATOM      2  C   UNL     1      91.791  84.425  79.378  1.00  0.00     0.000 C 
BRANCH   2   3
ATOM      3  C   UNL     1      91.526  83.219  78.464  1.00  0.00     0.006 C 
BRANCH   3   4
ATOM      4  C   UNL     1      91.608  83.586  76.977  1.00  0.00     0.053 C 
BRANCH   4   5
ATOM      5  C   UNL     1      90.300  84.106  76.462  1.00  0.00     0.041 C 
ATOM      6  O   UNL     1      89.215  83.642  76.901  1.00  0.00    -0.550 OA
ATOM      7  O   UNL     1      90.281  85.080  75.471  1.00  0.00    -0.550 OA
ENDBRANCH   4   5
ENDBRANCH   3   4
ENDBRANCH   2   3
ENDBRANCH   1   2
BRANCH   1   8
ATOM      8  C   UNL     1      93.926  85.758  78.921  1.00  0.00     0.000 C 
BRANCH   8   9
ATOM      9  C   UNL     1      94.995  85.315  77.907  1.00  0.00    -0.000 C 
BRANCH   9  10
ATOM     10  C   UNL     1      95.463  83.868  78.136  1.00  0.00    -0.000 C 
BRANCH  10  11
ATOM     11  C   UNL     1      96.948  83.779  78.521  1.00  0.00    -0.000 C 
BRANCH  11  12
ATOM     12  C   UNL     1      97.200  82.592  79.458  1.00  0.00    -0.003 C 
ATOM     13  C   UNL     1      96.184  81.477  79.221  1.00  0.00     0.004 C 
ENDBRANCH  11  12
ENDBRANCH  10  11
ENDBRANCH   9  10
ENDBRANCH   8   9
ENDBRANCH   1   8
TORSDOF 9
ENDMDL
