MODEL 1
REMARK VINA RESULT:    -5.276      0.000      0.000
REMARK INTER + INTRA:          -5.276
REMARK INTER:                  -5.276
REMARK INTRA:                   0.000
REMARK UNBOUND:                 0.000
REMARK SMILES O=c1ccc2ccccc2o1
REMARK SMILES IDX 7 1 8 2 9 3 10 4 5 5 6 6 4 7 3 8 2 9 1 10 11 11
REMARK H PARENT
REMARK Flexibility Score: inf
ROOT
ATOM      1  C   UNL     1      10.245 -16.039   6.127  1.00  0.00     0.001 A 
ATOM      2  C   UNL     1       9.682 -16.654   7.251  1.00  0.00     0.004 A 
ATOM      3  C   UNL     1       8.373 -16.350   7.638  1.00  0.00     0.048 A 
ATOM      4  C   UNL     1       7.621 -15.429   6.901  1.00  0.00     0.138 A 
ATOM      5  C   UNL     1       8.188 -14.808   5.765  1.00  0.00     0.018 A 
ATOM      6  C   UNL     1       9.502 -15.117   5.383  1.00  0.00     0.012 A 
ATOM      7  C   UNL     1       7.412 -13.893   5.049  1.00  0.00     0.019 A 
ATOM      8  C   UNL     1       6.111 -13.620   5.471  1.00  0.00     0.094 A 
ATOM      9  C   UNL     1       5.615 -14.273   6.605  1.00  0.00     0.336 A 
ATOM     10  O   UNL     1       4.443 -14.040   7.002  1.00  0.00    -0.246 OA
ATOM     11  O   UNL     1       6.374 -15.140   7.270  1.00  0.00    -0.423 OA
ENDROOT
TORSDOF 0
ENDMDL
MODEL 2
REMARK VINA RESULT:    -5.213      2.028      4.093
REMARK INTER + INTRA:          -5.213
REMARK INTER:                  -5.213
REMARK INTRA:                   0.000
REMARK UNBOUND:                 0.000
REMARK SMILES O=c1ccc2ccccc2o1
REMARK SMILES IDX 7 1 8 2 9 3 10 4 5 5 6 6 4 7 3 8 2 9 1 10 11 11
REMARK H PARENT
REMARK Flexibility Score: inf
ROOT
ATOM      1  C   UNL     1       3.448 -14.638   8.743  1.00  0.00     0.001 A 
ATOM      2  C   UNL     1       4.309 -15.527   9.396  1.00  0.00     0.004 A 
ATOM      3  C   UNL     1       5.562 -15.824   8.849  1.00  0.00     0.048 A 
ATOM      4  C   UNL     1       5.959 -15.230   7.646  1.00  0.00     0.138 A 
ATOM      5  C   UNL     1       5.091 -14.331   6.986  1.00  0.00     0.018 A 
ATOM      6  C   UNL     1       3.836 -14.039   7.540  1.00  0.00     0.012 A 
ATOM      7  C   UNL     1       5.516 -13.754   5.786  1.00  0.00     0.019 A 
ATOM      8  C   UNL     1       6.773 -14.078   5.278  1.00  0.00     0.094 A 
ATOM      9  C   UNL     1       7.580 -14.975   5.985  1.00  0.00     0.336 A 
ATOM     10  O   UNL     1       8.719 -15.280   5.543  1.00  0.00    -0.246 OA
ATOM     11  O   UNL     1       7.152 -15.512   7.126  1.00  0.00    -0.423 OA
ENDROOT
TORSDOF 0
ENDMDL
MODEL 3
REMARK VINA RESULT:    -5.150      0.887      1.177
REMARK INTER + INTRA:          -5.150
REMARK INTER:                  -5.150
REMARK INTRA:                   0.000
REMARK UNBOUND:                 0.000
REMARK SMILES O=c1ccc2ccccc2o1
REMARK SMILES IDX 7 1 8 2 9 3 10 4 5 5 6 6 4 7 3 8 2 9 1 10 11 11
REMARK H PARENT
REMARK Flexibility Score: inf
ROOT
ATOM      1  C   UNL     1       9.483 -15.455   5.456  1.00  0.00     0.001 A 
ATOM      2  C   UNL     1       9.511 -16.223   6.626  1.00  0.00     0.004 A 
ATOM      3  C   UNL     1       8.411 -16.230   7.490  1.00  0.00     0.048 A 
ATOM      4  C   UNL     1       7.277 -15.469   7.186  1.00  0.00     0.138 A 
ATOM      5  C   UNL     1       7.247 -14.694   6.004  1.00  0.00     0.018 A 
ATOM      6  C   UNL     1       8.355 -14.691   5.144  1.00  0.00     0.012 A 
ATOM      7  C   UNL     1       6.100 -13.945   5.728  1.00  0.00     0.019 A 
ATOM      8  C   UNL     1       5.028 -13.981   6.618  1.00  0.00     0.094 A 
ATOM      9  C   UNL     1       5.126 -14.772   7.768  1.00  0.00     0.336 A 
ATOM     10  O   UNL     1       4.168 -14.820   8.583  1.00  0.00    -0.246 OA
ATOM     11  O   UNL     1       6.230 -15.477   8.009  1.00  0.00    -0.423 OA
ENDROOT
TORSDOF 0
ENDMDL
MODEL 4
REMARK VINA RESULT:    -5.138      1.621      3.829
REMARK INTER + INTRA:          -5.138
REMARK INTER:                  -5.138
REMARK INTRA:                   0.000
REMARK UNBOUND:                 0.000
REMARK SMILES O=c1ccc2ccccc2o1
REMARK SMILES IDX 7 1 8 2 9 3 10 4 5 5 6 6 4 7 3 8 2 9 1 10 11 11
REMARK H PARENT
REMARK Flexibility Score: inf
ROOT
ATOM      1  C   UNL     1       5.724 -13.648   5.690  1.00  0.00     0.001 A 
ATOM      2  C   UNL     1       5.325 -14.390   6.807  1.00  0.00     0.004 A 
ATOM      3  C   UNL     1       6.209 -15.294   7.405  1.00  0.00     0.048 A 
ATOM      4  C   UNL     1       7.498 -15.458   6.888  1.00  0.00     0.138 A 
ATOM      5  C   UNL     1       7.903 -14.708   5.761  1.00  0.00     0.018 A 
ATOM      6  C   UNL     1       7.011 -13.804   5.165  1.00  0.00     0.012 A 
ATOM      7  C   UNL     1       9.198 -14.893   5.267  1.00  0.00     0.019 A 
ATOM      8  C   UNL     1      10.046 -15.805   5.894  1.00  0.00     0.094 A 
ATOM      9  C   UNL     1       9.578 -16.513   7.007  1.00  0.00     0.336 A 
ATOM     10  O   UNL     1      10.328 -17.340   7.588  1.00  0.00    -0.246 OA
ATOM     11  O   UNL     1       8.340 -16.318   7.457  1.00  0.00    -0.423 OA
ENDROOT
TORSDOF 0
ENDMDL
MODEL 5
REMARK VINA RESULT:    -5.080      1.982      4.389
REMARK INTER + INTRA:          -5.080
REMARK INTER:                  -5.080
REMARK INTRA:                   0.000
REMARK UNBOUND:                 0.000
REMARK SMILES O=c1ccc2ccccc2o1
REMARK SMILES IDX 7 1 8 2 9 3 10 4 5 5 6 6 4 7 3 8 2 9 1 10 11 11
REMARK H PARENT
REMARK Flexibility Score: inf
ROOT
ATOM      1  C   UNL     1       5.508 -14.246   6.501  1.00  0.00     0.001 A 
ATOM      2  C   UNL     1       6.058 -13.585   5.397  1.00  0.00     0.004 A 
ATOM      3  C   UNL     1       7.377 -13.840   5.009  1.00  0.00     0.048 A 
ATOM      4  C   UNL     1       8.152 -14.759   5.723  1.00  0.00     0.138 A 
ATOM      5  C   UNL     1       7.598 -15.429   6.838  1.00  0.00     0.018 A 
ATOM      6  C   UNL     1       6.275 -15.167   7.223  1.00  0.00     0.012 A 
ATOM      7  C   UNL     1       8.397 -16.342   7.532  1.00  0.00     0.019 A 
ATOM      8  C   UNL     1       9.707 -16.565   7.109  1.00  0.00     0.094 A 
ATOM      9  C   UNL     1      10.189 -15.867   5.997  1.00  0.00     0.336 A 
ATOM     10  O   UNL     1      11.368 -16.055   5.599  1.00  0.00    -0.246 OA
ATOM     11  O   UNL     1       9.408 -15.002   5.353  1.00  0.00    -0.423 OA
ENDROOT
TORSDOF 0
ENDMDL
MODEL 6
REMARK VINA RESULT:    -4.967      1.128      1.564
REMARK INTER + INTRA:          -4.967
REMARK INTER:                  -4.967
REMARK INTRA:                   0.000
REMARK UNBOUND:                 0.000
REMARK SMILES O=c1ccc2ccccc2o1
REMARK SMILES IDX 7 1 8 2 9 3 10 4 5 5 6 6 4 7 3 8 2 9 1 10 11 11
REMARK H PARENT
REMARK Flexibility Score: inf
ROOT
ATOM      1  C   UNL     1      11.613 -16.741   6.506  1.00  0.00     0.001 A 
ATOM      2  C   UNL     1      10.822 -17.443   7.424  1.00  0.00     0.004 A 
ATOM      3  C   UNL     1       9.468 -17.127   7.572  1.00  0.00     0.048 A 
ATOM      4  C   UNL     1       8.898 -16.108   6.801  1.00  0.00     0.138 A 
ATOM      5  C   UNL     1       9.695 -15.400   5.874  1.00  0.00     0.018 A 
ATOM      6  C   UNL     1      11.053 -15.721   5.731  1.00  0.00     0.012 A 
ATOM      7  C   UNL     1       9.097 -14.387   5.118  1.00  0.00     0.019 A 
ATOM      8  C   UNL     1       7.744 -14.106   5.299  1.00  0.00     0.094 A 
ATOM      9  C   UNL     1       7.016 -14.849   6.235  1.00  0.00     0.336 A 
ATOM     10  O   UNL     1       5.792 -14.611   6.412  1.00  0.00    -0.246 OA
ATOM     11  O   UNL     1       7.608 -15.808   6.942  1.00  0.00    -0.423 OA
ENDROOT
TORSDOF 0
ENDMDL
MODEL 7
REMARK VINA RESULT:    -4.875      1.831      4.318
REMARK INTER + INTRA:          -4.875
REMARK INTER:                  -4.875
REMARK INTRA:                   0.000
REMARK UNBOUND:                 0.000
REMARK SMILES O=c1ccc2ccccc2o1
REMARK SMILES IDX 7 1 8 2 9 3 10 4 5 5 6 6 4 7 3 8 2 9 1 10 11 11
REMARK H PARENT
REMARK Flexibility Score: inf
ROOT
ATOM      1  C   UNL     1       4.482 -14.750   8.063  1.00  0.00     0.001 A 
ATOM      2  C   UNL     1       4.489 -14.008   6.876  1.00  0.00     0.004 A 
ATOM      3  C   UNL     1       5.613 -14.024   6.043  1.00  0.00     0.048 A 
ATOM      4  C   UNL     1       6.734 -14.784   6.394  1.00  0.00     0.138 A 
ATOM      5  C   UNL     1       6.727 -15.534   7.592  1.00  0.00     0.018 A 
ATOM      6  C   UNL     1       5.597 -15.512   8.423  1.00  0.00     0.012 A 
ATOM      7  C   UNL     1       7.862 -16.283   7.916  1.00  0.00     0.019 A 
ATOM      8  C   UNL     1       8.959 -16.269   7.056  1.00  0.00     0.094 A 
ATOM      9  C   UNL     1       8.895 -15.504   5.886  1.00  0.00     0.336 A 
ATOM     10  O   UNL     1       9.876 -15.479   5.097  1.00  0.00    -0.246 OA
ATOM     11  O   UNL     1       7.803 -14.799   5.601  1.00  0.00    -0.423 OA
ENDROOT
TORSDOF 0
ENDMDL
MODEL 8
REMARK VINA RESULT:    -4.779      1.449      3.050
REMARK INTER + INTRA:          -4.779
REMARK INTER:                  -4.779
REMARK INTRA:                   0.000
REMARK UNBOUND:                 0.000
REMARK SMILES O=c1ccc2ccccc2o1
REMARK SMILES IDX 7 1 8 2 9 3 10 4 5 5 6 6 4 7 3 8 2 9 1 10 11 11
REMARK H PARENT
REMARK Flexibility Score: inf
ROOT
ATOM      1  C   UNL     1       8.308 -14.883   5.623  1.00  0.00     0.001 A 
ATOM      2  C   UNL     1       7.524 -13.949   4.936  1.00  0.00     0.004 A 
ATOM      3  C   UNL     1       6.241 -13.634   5.396  1.00  0.00     0.048 A 
ATOM      4  C   UNL     1       5.738 -14.251   6.546  1.00  0.00     0.138 A 
ATOM      5  C   UNL     1       6.530 -15.193   7.241  1.00  0.00     0.018 A 
ATOM      6  C   UNL     1       7.815 -15.505   6.774  1.00  0.00     0.012 A 
ATOM      7  C   UNL     1       6.000 -15.793   8.387  1.00  0.00     0.019 A 
ATOM      8  C   UNL     1       4.717 -15.449   8.809  1.00  0.00     0.094 A 
ATOM      9  C   UNL     1       3.990 -14.507   8.072  1.00  0.00     0.336 A 
ATOM     10  O   UNL     1       2.830 -14.182   8.437  1.00  0.00    -0.246 OA
ATOM     11  O   UNL     1       4.517 -13.950   6.984  1.00  0.00    -0.423 OA
ENDROOT
TORSDOF 0
ENDMDL
MODEL 9
REMARK VINA RESULT:    -4.776      1.659      2.832
REMARK INTER + INTRA:          -4.776
REMARK INTER:                  -4.776
REMARK INTRA:                   0.000
REMARK UNBOUND:                 0.000
REMARK SMILES O=c1ccc2ccccc2o1
REMARK SMILES IDX 7 1 8 2 9 3 10 4 5 5 6 6 4 7 3 8 2 9 1 10 11 11
REMARK H PARENT
REMARK Flexibility Score: inf
ROOT
ATOM      1  C   UNL     1      11.329 -17.400   7.617  1.00  0.00     0.001 A 
ATOM      2  C   UNL     1      11.891 -16.760   6.506  1.00  0.00     0.004 A 
ATOM      3  C   UNL     1      11.121 -15.885   5.734  1.00  0.00     0.048 A 
ATOM      4  C   UNL     1       9.785 -15.645   6.071  1.00  0.00     0.138 A 
ATOM      5  C   UNL     1       9.217 -16.289   7.193  1.00  0.00     0.018 A 
ATOM      6  C   UNL     1       9.995 -17.167   7.962  1.00  0.00     0.012 A 
ATOM      7  C   UNL     1       7.879 -16.029   7.504  1.00  0.00     0.019 A 
ATOM      8  C   UNL     1       7.149 -15.149   6.706  1.00  0.00     0.094 A 
ATOM      9  C   UNL     1       7.777 -14.546   5.611  1.00  0.00     0.336 A 
ATOM     10  O   UNL     1       7.135 -13.748   4.879  1.00  0.00    -0.246 OA
ATOM     11  O   UNL     1       9.052 -14.811   5.335  1.00  0.00    -0.423 OA
ENDROOT
TORSDOF 0
ENDMDL
