MODEL 1
REMARK VINA RESULT:    -4.865      0.000      0.000
REMARK INTER + INTRA:          -7.212
REMARK INTER:                  -6.857
REMARK INTRA:                  -0.355
REMARK UNBOUND:                -0.355
REMARK SMILES C=CCCCCCCC(=O)[O-]
REMARK SMILES IDX 6 1 7 2 8 3 9 4 10 5 11 6 5 7 4 8 3 9 2 10 1 11
REMARK H PARENT
REMARK Flexibility Score: inf
ROOT
ATOM      1  C   UNL     1      -5.083  -8.212  -9.419  1.00  0.00     0.000 C 
ENDROOT
BRANCH   1   2
ATOM      2  C   UNL     1      -4.138  -8.801  -8.365  1.00  0.00     0.006 C 
BRANCH   2   3
ATOM      3  C   UNL     1      -2.912  -9.443  -9.021  1.00  0.00     0.053 C 
BRANCH   3   4
ATOM      4  C   UNL     1      -3.028 -10.934  -9.004  1.00  0.00     0.041 C 
ATOM      5  O   UNL     1      -4.119 -11.488  -9.297  1.00  0.00    -0.550 OA
ATOM      6  O   UNL     1      -1.944 -11.710  -8.615  1.00  0.00    -0.550 OA
ENDBRANCH   3   4
ENDBRANCH   2   3
ENDBRANCH   1   2
BRANCH   1   7
ATOM      7  C   UNL     1      -6.079  -7.233  -8.780  1.00  0.00     0.000 C 
BRANCH   7   8
ATOM      8  C   UNL     1      -6.469  -7.635  -7.349  1.00  0.00     0.004 C 
BRANCH   8   9
ATOM      9  C   UNL     1      -6.414  -6.452  -6.369  1.00  0.00     0.027 C 
BRANCH   9  10
ATOM     10  C   UNL     1      -5.095  -5.736  -6.456  1.00  0.00    -0.035 C 
ATOM     11  C   UNL     1      -4.991  -4.514  -6.985  1.00  0.00     0.004 C 
ENDBRANCH   9  10
ENDBRANCH   8   9
ENDBRANCH   7   8
ENDBRANCH   1   7
TORSDOF 7
ENDMDL
MODEL 2
REMARK VINA RESULT:    -4.711      1.023      1.631
REMARK INTER + INTRA:          -6.994
REMARK INTER:                  -6.640
REMARK INTRA:                  -0.354
REMARK UNBOUND:                -0.355
REMARK SMILES C=CCCCCCCC(=O)[O-]
REMARK SMILES IDX 6 1 7 2 8 3 9 4 10 5 11 6 5 7 4 8 3 9 2 10 1 11
REMARK H PARENT
REMARK Flexibility Score: inf
ROOT
ATOM      1  C   UNL     1      -5.428  -8.895  -8.302  1.00  0.00     0.000 C 
ENDROOT
BRANCH   1   2
ATOM      2  C   UNL     1      -3.929  -8.604  -8.157  1.00  0.00     0.006 C 
BRANCH   2   3
ATOM      3  C   UNL     1      -3.121  -9.329  -9.238  1.00  0.00     0.053 C 
BRANCH   3   4
ATOM      4  C   UNL     1      -3.072 -10.798  -8.959  1.00  0.00     0.041 C 
ATOM      5  O   UNL     1      -3.902 -11.574  -9.499  1.00  0.00    -0.550 OA
ATOM      6  O   UNL     1      -2.140 -11.303  -8.062  1.00  0.00    -0.550 OA
ENDBRANCH   3   4
ENDBRANCH   2   3
ENDBRANCH   1   2
BRANCH   1   7
ATOM      7  C   UNL     1      -6.261  -7.629  -8.050  1.00  0.00     0.000 C 
BRANCH   7   8
ATOM      8  C   UNL     1      -5.431  -6.482  -7.454  1.00  0.00     0.004 C 
BRANCH   8   9
ATOM      9  C   UNL     1      -6.039  -5.924  -6.158  1.00  0.00     0.027 C 
BRANCH   9  10
ATOM     10  C   UNL     1      -7.265  -6.696  -5.759  1.00  0.00    -0.035 C 
ATOM     11  C   UNL     1      -8.298  -6.110  -5.146  1.00  0.00     0.004 C 
ENDBRANCH   9  10
ENDBRANCH   8   9
ENDBRANCH   7   8
ENDBRANCH   1   7
TORSDOF 7
ENDMDL
MODEL 3
REMARK VINA RESULT:    -4.608      3.437      5.269
REMARK INTER + INTRA:          -6.849
REMARK INTER:                  -6.209
REMARK INTRA:                  -0.639
REMARK UNBOUND:                -0.355
REMARK SMILES C=CCCCCCCC(=O)[O-]
REMARK SMILES IDX 6 1 7 2 8 3 9 4 10 5 11 6 5 7 4 8 3 9 2 10 1 11
REMARK H PARENT
REMARK Flexibility Score: inf
ROOT
ATOM      1  C   UNL     1      -6.633  -8.679  -7.918  1.00  0.00     0.000 C 
ENDROOT
BRANCH   1   2
ATOM      2  C   UNL     1      -5.652  -7.579  -8.341  1.00  0.00     0.006 C 
BRANCH   2   3
ATOM      3  C   UNL     1      -5.048  -6.881  -7.119  1.00  0.00     0.053 C 
BRANCH   3   4
ATOM      4  C   UNL     1      -5.797  -5.624  -6.809  1.00  0.00     0.041 C 
ATOM      5  O   UNL     1      -5.292  -4.503  -7.076  1.00  0.00    -0.550 OA
ATOM      6  O   UNL     1      -7.033  -5.690  -6.180  1.00  0.00    -0.550 OA
ENDBRANCH   3   4
ENDBRANCH   2   3
ENDBRANCH   1   2
BRANCH   1   7
ATOM      7  C   UNL     1      -6.259 -10.025  -8.557  1.00  0.00     0.000 C 
BRANCH   7   8
ATOM      8  C   UNL     1      -5.214  -9.881  -9.674  1.00  0.00     0.004 C 
BRANCH   8   9
ATOM      9  C   UNL     1      -4.033 -10.850  -9.506  1.00  0.00     0.027 C 
BRANCH   9  10
ATOM     10  C   UNL     1      -2.829 -10.146  -8.945  1.00  0.00    -0.035 C 
ATOM     11  C   UNL     1      -2.408  -8.975  -9.431  1.00  0.00     0.004 C 
ENDBRANCH   9  10
ENDBRANCH   8   9
ENDBRANCH   7   8
ENDBRANCH   1   7
TORSDOF 7
ENDMDL
MODEL 4
REMARK VINA RESULT:    -4.558     14.163     15.824
REMARK INTER + INTRA:          -6.778
REMARK INTER:                  -6.206
REMARK INTRA:                  -0.571
REMARK UNBOUND:                -0.355
REMARK SMILES C=CCCCCCCC(=O)[O-]
REMARK SMILES IDX 6 1 7 2 8 3 9 4 10 5 11 6 5 7 4 8 3 9 2 10 1 11
REMARK H PARENT
REMARK Flexibility Score: inf
ROOT
ATOM      1  C   UNL     1       1.017   0.155   5.019  1.00  0.00     0.000 C 
ENDROOT
BRANCH   1   2
ATOM      2  C   UNL     1       1.562   1.005   3.865  1.00  0.00     0.006 C 
BRANCH   2   3
ATOM      3  C   UNL     1       2.354   0.145   2.876  1.00  0.00     0.053 C 
BRANCH   3   4
ATOM      4  C   UNL     1       3.303   0.992   2.089  1.00  0.00     0.041 C 
ATOM      5  O   UNL     1       4.499   1.118   2.462  1.00  0.00    -0.550 OA
ATOM      6  O   UNL     1       2.854   1.681   0.970  1.00  0.00    -0.550 OA
ENDBRANCH   3   4
ENDBRANCH   2   3
ENDBRANCH   1   2
BRANCH   1   7
ATOM      7  C   UNL     1      -0.516   0.064   4.960  1.00  0.00     0.000 C 
BRANCH   7   8
ATOM      8  C   UNL     1      -1.007  -1.147   4.152  1.00  0.00     0.004 C 
BRANCH   8   9
ATOM      9  C   UNL     1      -0.719  -2.483   4.856  1.00  0.00     0.027 C 
BRANCH   9  10
ATOM     10  C   UNL     1       0.293  -3.290   4.092  1.00  0.00    -0.035 C 
ATOM     11  C   UNL     1       0.647  -2.976   2.843  1.00  0.00     0.004 C 
ENDBRANCH   9  10
ENDBRANCH   8   9
ENDBRANCH   7   8
ENDBRANCH   1   7
TORSDOF 7
ENDMDL
MODEL 5
REMARK VINA RESULT:    -4.505     14.195     15.426
REMARK INTER + INTRA:          -6.704
REMARK INTER:                  -6.394
REMARK INTRA:                  -0.310
REMARK UNBOUND:                -0.355
REMARK SMILES C=CCCCCCCC(=O)[O-]
REMARK SMILES IDX 6 1 7 2 8 3 9 4 10 5 11 6 5 7 4 8 3 9 2 10 1 11
REMARK H PARENT
REMARK Flexibility Score: inf
ROOT
ATOM      1  C   UNL     1      -3.204  -0.132   4.846  1.00  0.00     0.000 C 
ENDROOT
BRANCH   1   2
ATOM      2  C   UNL     1      -4.616  -0.563   4.428  1.00  0.00     0.006 C 
BRANCH   2   3
ATOM      3  C   UNL     1      -5.407  -1.091   5.628  1.00  0.00     0.053 C 
BRANCH   3   4
ATOM      4  C   UNL     1      -6.761  -1.559   5.199  1.00  0.00     0.041 C 
ATOM      5  O   UNL     1      -7.209  -1.248   4.064  1.00  0.00    -0.550 OA
ATOM      6  O   UNL     1      -7.550  -2.296   6.072  1.00  0.00    -0.550 OA
ENDBRANCH   3   4
ENDBRANCH   2   3
ENDBRANCH   1   2
BRANCH   1   7
ATOM      7  C   UNL     1      -2.216  -0.279   3.678  1.00  0.00     0.000 C 
BRANCH   7   8
ATOM      8  C   UNL     1      -0.793  -0.617   4.146  1.00  0.00     0.004 C 
BRANCH   8   9
ATOM      9  C   UNL     1      -0.723  -1.946   4.914  1.00  0.00     0.027 C 
BRANCH   9  10
ATOM     10  C   UNL     1       0.004  -2.995   4.119  1.00  0.00    -0.035 C 
ATOM     11  C   UNL     1       0.600  -2.710   2.958  1.00  0.00     0.004 C 
ENDBRANCH   9  10
ENDBRANCH   8   9
ENDBRANCH   7   8
ENDBRANCH   1   7
TORSDOF 7
ENDMDL
MODEL 6
REMARK VINA RESULT:    -4.347     14.314     15.698
REMARK INTER + INTRA:          -6.481
REMARK INTER:                  -5.959
REMARK INTRA:                  -0.521
REMARK UNBOUND:                -0.355
REMARK SMILES C=CCCCCCCC(=O)[O-]
REMARK SMILES IDX 6 1 7 2 8 3 9 4 10 5 11 6 5 7 4 8 3 9 2 10 1 11
REMARK H PARENT
REMARK Flexibility Score: inf
ROOT
ATOM      1  C   UNL     1      -2.062   0.313   4.951  1.00  0.00     0.000 C 
ENDROOT
BRANCH   1   2
ATOM      2  C   UNL     1      -3.212  -0.078   4.014  1.00  0.00     0.006 C 
BRANCH   2   3
ATOM      3  C   UNL     1      -4.257  -0.923   4.750  1.00  0.00     0.053 C 
BRANCH   3   4
ATOM      4  C   UNL     1      -5.630  -0.376   4.518  1.00  0.00     0.041 C 
ATOM      5  O   UNL     1      -5.787   0.836   4.216  1.00  0.00    -0.550 OA
ATOM      6  O   UNL     1      -6.740  -1.193   4.687  1.00  0.00    -0.550 OA
ENDBRANCH   3   4
ENDBRANCH   2   3
ENDBRANCH   1   2
BRANCH   1   7
ATOM      7  C   UNL     1      -0.810   0.705   4.151  1.00  0.00     0.000 C 
BRANCH   7   8
ATOM      8  C   UNL     1       0.345  -0.292   4.331  1.00  0.00     0.004 C 
BRANCH   8   9
ATOM      9  C   UNL     1      -0.049  -1.502   5.193  1.00  0.00     0.027 C 
BRANCH   9  10
ATOM     10  C   UNL     1      -0.087  -2.762   4.373  1.00  0.00    -0.035 C 
ATOM     11  C   UNL     1       0.422  -2.815   3.138  1.00  0.00     0.004 C 
ENDBRANCH   9  10
ENDBRANCH   8   9
ENDBRANCH   7   8
ENDBRANCH   1   7
TORSDOF 7
ENDMDL
MODEL 7
REMARK VINA RESULT:    -4.196     14.481     15.602
REMARK INTER + INTRA:          -6.268
REMARK INTER:                  -5.749
REMARK INTRA:                  -0.518
REMARK UNBOUND:                -0.355
REMARK SMILES C=CCCCCCCC(=O)[O-]
REMARK SMILES IDX 6 1 7 2 8 3 9 4 10 5 11 6 5 7 4 8 3 9 2 10 1 11
REMARK H PARENT
REMARK Flexibility Score: inf
ROOT
ATOM      1  C   UNL     1      -0.970   0.195   4.974  1.00  0.00     0.000 C 
ENDROOT
BRANCH   1   2
ATOM      2  C   UNL     1      -1.510  -1.061   4.281  1.00  0.00     0.006 C 
BRANCH   2   3
ATOM      3  C   UNL     1      -0.839  -2.324   4.830  1.00  0.00     0.053 C 
BRANCH   3   4
ATOM      4  C   UNL     1       0.447  -2.588   4.114  1.00  0.00     0.041 C 
ATOM      5  O   UNL     1       0.449  -2.806   2.875  1.00  0.00    -0.550 OA
ATOM      6  O   UNL     1       1.639  -2.644   4.825  1.00  0.00    -0.550 OA
ENDBRANCH   3   4
ENDBRANCH   2   3
ENDBRANCH   1   2
BRANCH   1   7
ATOM      7  C   UNL     1      -0.144   1.049   3.999  1.00  0.00     0.000 C 
BRANCH   7   8
ATOM      8  C   UNL     1       1.367   0.956   4.264  1.00  0.00     0.004 C 
BRANCH   8   9
ATOM      9  C   UNL     1       2.203   1.156   2.990  1.00  0.00     0.027 C 
BRANCH   9  10
ATOM     10  C   UNL     1       2.999  -0.078   2.665  1.00  0.00    -0.035 C 
ATOM     11  C   UNL     1       4.329  -0.048   2.549  1.00  0.00     0.004 C 
ENDBRANCH   9  10
ENDBRANCH   8   9
ENDBRANCH   7   8
ENDBRANCH   1   7
TORSDOF 7
ENDMDL
MODEL 8
REMARK VINA RESULT:    -4.138     14.520     15.209
REMARK INTER + INTRA:          -6.186
REMARK INTER:                  -5.896
REMARK INTRA:                  -0.290
REMARK UNBOUND:                -0.355
REMARK SMILES C=CCCCCCCC(=O)[O-]
REMARK SMILES IDX 6 1 7 2 8 3 9 4 10 5 11 6 5 7 4 8 3 9 2 10 1 11
REMARK H PARENT
REMARK Flexibility Score: inf
ROOT
ATOM      1  C   UNL     1      -1.423  -0.084   4.359  1.00  0.00     0.000 C 
ENDROOT
BRANCH   1   2
ATOM      2  C   UNL     1      -1.128  -1.568   4.611  1.00  0.00     0.006 C 
BRANCH   2   3
ATOM      3  C   UNL     1      -0.132  -2.113   3.582  1.00  0.00     0.053 C 
BRANCH   3   4
ATOM      4  C   UNL     1       1.273  -1.897   4.048  1.00  0.00     0.041 C 
ATOM      5  O   UNL     1       1.672  -2.419   5.121  1.00  0.00    -0.550 OA
ATOM      6  O   UNL     1       2.127  -1.079   3.320  1.00  0.00    -0.550 OA
ENDBRANCH   3   4
ENDBRANCH   2   3
ENDBRANCH   1   2
BRANCH   1   7
ATOM      7  C   UNL     1      -2.857   0.112   3.844  1.00  0.00     0.000 C 
BRANCH   7   8
ATOM      8  C   UNL     1      -3.872  -0.791   4.560  1.00  0.00     0.004 C 
BRANCH   8   9
ATOM      9  C   UNL     1      -5.227  -0.098   4.780  1.00  0.00     0.027 C 
BRANCH   9  10
ATOM     10  C   UNL     1      -5.820  -0.478   6.108  1.00  0.00    -0.035 C 
ATOM     11  C   UNL     1      -6.223  -1.725   6.369  1.00  0.00     0.004 C 
ENDBRANCH   9  10
ENDBRANCH   8   9
ENDBRANCH   7   8
ENDBRANCH   1   7
TORSDOF 7
ENDMDL
MODEL 9
REMARK VINA RESULT:    -4.120     14.879     15.464
REMARK INTER + INTRA:          -6.161
REMARK INTER:                  -5.863
REMARK INTRA:                  -0.298
REMARK UNBOUND:                -0.355
REMARK SMILES C=CCCCCCCC(=O)[O-]
REMARK SMILES IDX 6 1 7 2 8 3 9 4 10 5 11 6 5 7 4 8 3 9 2 10 1 11
REMARK H PARENT
REMARK Flexibility Score: inf
ROOT
ATOM      1  C   UNL     1       1.033  -2.046   3.605  1.00  0.00     0.000 C 
ENDROOT
BRANCH   1   2
ATOM      2  C   UNL     1       1.649  -0.645   3.506  1.00  0.00     0.006 C 
BRANCH   2   3
ATOM      3  C   UNL     1       2.914  -0.661   2.643  1.00  0.00     0.053 C 
BRANCH   3   4
ATOM      4  C   UNL     1       3.333   0.734   2.302  1.00  0.00     0.041 C 
ATOM      5  O   UNL     1       2.501   1.546   1.819  1.00  0.00    -0.550 OA
ATOM      6  O   UNL     1       4.656   1.122   2.471  1.00  0.00    -0.550 OA
ENDBRANCH   3   4
ENDBRANCH   2   3
ENDBRANCH   1   2
BRANCH   1   7
ATOM      7  C   UNL     1      -0.472  -1.966   3.904  1.00  0.00     0.000 C 
BRANCH   7   8
ATOM      8  C   UNL     1      -0.866  -0.663   4.616  1.00  0.00     0.004 C 
BRANCH   8   9
ATOM      9  C   UNL     1      -1.985   0.094   3.885  1.00  0.00     0.027 C 
BRANCH   9  10
ATOM     10  C   UNL     1      -3.238   0.144   4.715  1.00  0.00    -0.035 C 
ATOM     11  C   UNL     1      -4.126  -0.855   4.710  1.00  0.00     0.004 C 
ENDBRANCH   9  10
ENDBRANCH   8   9
ENDBRANCH   7   8
ENDBRANCH   1   7
TORSDOF 7
ENDMDL
