MODEL 1
REMARK VINA RESULT:    -6.003      0.000      0.000
REMARK INTER + INTRA:         -10.614
REMARK INTER:                  -9.337
REMARK INTRA:                  -1.277
REMARK UNBOUND:                -1.277
REMARK SMILES COc1cc(CNC(=O)CCCCC=CC(C)C)ccc1O
REMARK SMILES IDX 11 1 12 2 13 3 14 4 15 5 16 6 17 7 18 8 10 9 8 10 9 11 7 12
REMARK SMILES IDX 6 14 5 15 4 16 19 17 3 18 20 19 21 20 2 21 1 22 22 23
REMARK H PARENT 7 13 22 24
REMARK Flexibility Score: inf
ROOT
ATOM      1  C   UNL     1     106.827 114.263 109.246  1.00  0.00     0.010 C 
ENDROOT
BRANCH   1   2
ATOM      2  C   UNL     1     106.388 115.149 108.069  1.00  0.00     0.005 C 
BRANCH   2   3
ATOM      3  C   UNL     1     107.206 114.882 106.801  1.00  0.00     0.027 C 
BRANCH   3   4
ATOM      4  C   UNL     1     107.926 116.125 106.346  1.00  0.00    -0.031 C 
ATOM      5  C   UNL     1     109.261 116.320 106.332  1.00  0.00    -0.028 C 
BRANCH   5   6
ATOM      6  C   UNL     1     110.349 115.400 106.864  1.00  0.00     0.005 C 
ATOM      7  C   UNL     1     110.889 115.805 108.245  1.00  0.00     0.012 C 
ATOM      8  C   UNL     1     111.473 115.165 105.843  1.00  0.00     0.012 C 
ENDBRANCH   5   6
ENDBRANCH   3   4
ENDBRANCH   2   3
ENDBRANCH   1   2
BRANCH   1   9
ATOM      9  C   UNL     1     107.796 114.988 110.189  1.00  0.00     0.100 C 
BRANCH   9  10
ATOM     10  C   UNL     1     108.923 114.093 110.621  1.00  0.00     0.220 C 
ATOM     11  O   UNL     1     108.935 112.886 110.247  1.00  0.00    -0.275 OA
ATOM     12  N   UNL     1     109.960 114.599 111.474  1.00  0.00    -0.352 N 
ATOM     13  H   UNL     1     110.001 115.627 111.662  1.00  0.00     0.163 HD
BRANCH  12  14
ATOM     14  C   UNL     1     110.753 113.727 112.337  1.00  0.00     0.151 C 
BRANCH  14  15
ATOM     15  C   UNL     1     112.185 113.736 111.879  1.00  0.00    -0.025 A 
ATOM     16  C   UNL     1     113.157 114.455 112.594  1.00  0.00     0.056 A 
ATOM     17  C   UNL     1     112.538 113.110 110.677  1.00  0.00     0.009 A 
ATOM     18  C   UNL     1     114.474 114.557 112.105  1.00  0.00     0.160 A 
ATOM     19  C   UNL     1     113.850 113.185 110.203  1.00  0.00     0.050 A 
ATOM     20  C   UNL     1     114.818 113.906 110.913  1.00  0.00     0.157 A 
BRANCH  18  21
ATOM     21  O   UNL     1     115.461 115.304 112.767  1.00  0.00    -0.493 OA
ATOM     22  C   UNL     1     115.784 116.657 112.462  1.00  0.00     0.278 C 
ENDBRANCH  18  21
BRANCH  20  23
ATOM     23  O   UNL     1     116.125 113.992 110.432  1.00  0.00    -0.504 OA
ATOM     24  H   UNL     1     116.668 113.161 110.215  1.00  0.00     0.293 HD
ENDBRANCH  20  23
ENDBRANCH  14  15
ENDBRANCH  12  14
ENDBRANCH   9  10
ENDBRANCH   1   9
TORSDOF 10
ENDMDL
MODEL 2
REMARK VINA RESULT:    -5.749      1.925      3.528
REMARK INTER + INTRA:         -10.219
REMARK INTER:                  -9.115
REMARK INTRA:                  -1.104
REMARK UNBOUND:                -1.277
REMARK SMILES COc1cc(CNC(=O)CCCCC=CC(C)C)ccc1O
REMARK SMILES IDX 11 1 12 2 13 3 14 4 15 5 16 6 17 7 18 8 10 9 8 10 9 11 7 12
REMARK SMILES IDX 6 14 5 15 4 16 19 17 3 18 20 19 21 20 2 21 1 22 22 23
REMARK H PARENT 7 13 22 24
REMARK Flexibility Score: inf
ROOT
ATOM      1  C   UNL     1     108.399 115.140 106.358  1.00  0.00     0.010 C 
ENDROOT
BRANCH   1   2
ATOM      2  C   UNL     1     109.690 115.974 106.394  1.00  0.00     0.005 C 
BRANCH   2   3
ATOM      3  C   UNL     1     110.949 115.102 106.344  1.00  0.00     0.027 C 
BRANCH   3   4
ATOM      4  C   UNL     1     111.859 115.525 105.220  1.00  0.00    -0.031 C 
ATOM      5  C   UNL     1     112.135 114.821 104.102  1.00  0.00    -0.028 C 
BRANCH   5   6
ATOM      6  C   UNL     1     111.698 113.406 103.752  1.00  0.00     0.005 C 
ATOM      7  C   UNL     1     112.725 112.624 102.918  1.00  0.00     0.012 C 
ATOM      8  C   UNL     1     110.290 113.359 103.140  1.00  0.00     0.012 C 
ENDBRANCH   5   6
ENDBRANCH   3   4
ENDBRANCH   2   3
ENDBRANCH   1   2
BRANCH   1   9
ATOM      9  C   UNL     1     107.428 115.522 107.483  1.00  0.00     0.100 C 
BRANCH   9  10
ATOM     10  C   UNL     1     107.412 114.491 108.576  1.00  0.00     0.220 C 
ATOM     11  O   UNL     1     106.305 114.065 109.012  1.00  0.00    -0.275 OA
ATOM     12  N   UNL     1     108.644 114.018 109.140  1.00  0.00    -0.352 N 
ATOM     13  H   UNL     1     109.544 114.284 108.679  1.00  0.00     0.163 HD
BRANCH  12  14
ATOM     14  C   UNL     1     108.720 113.462 110.488  1.00  0.00     0.151 C 
BRANCH  14  15
ATOM     15  C   UNL     1     110.073 113.755 111.076  1.00  0.00    -0.025 A 
ATOM     16  C   UNL     1     111.152 114.096 110.245  1.00  0.00     0.056 A 
ATOM     17  C   UNL     1     110.289 113.589 112.450  1.00  0.00     0.009 A 
ATOM     18  C   UNL     1     112.444 114.260 110.781  1.00  0.00     0.160 A 
ATOM     19  C   UNL     1     111.562 113.779 112.991  1.00  0.00     0.050 A 
ATOM     20  C   UNL     1     112.640 114.114 112.161  1.00  0.00     0.157 A 
BRANCH  18  21
ATOM     21  O   UNL     1     113.556 114.555 109.977  1.00  0.00    -0.493 OA
ATOM     22  C   UNL     1     114.350 113.576 109.314  1.00  0.00     0.278 C 
ENDBRANCH  18  21
BRANCH  20  23
ATOM     23  O   UNL     1     113.914 114.289 112.699  1.00  0.00    -0.504 OA
ATOM     24  H   UNL     1     114.057 114.429 113.696  1.00  0.00     0.293 HD
ENDBRANCH  20  23
ENDBRANCH  14  15
ENDBRANCH  12  14
ENDBRANCH   9  10
ENDBRANCH   1   9
TORSDOF 10
ENDMDL
MODEL 3
REMARK VINA RESULT:    -5.553      1.692      2.572
REMARK INTER + INTRA:          -9.914
REMARK INTER:                  -9.223
REMARK INTRA:                  -0.691
REMARK UNBOUND:                -1.277
REMARK SMILES COc1cc(CNC(=O)CCCCC=CC(C)C)ccc1O
REMARK SMILES IDX 11 1 12 2 13 3 14 4 15 5 16 6 17 7 18 8 10 9 8 10 9 11 7 12
REMARK SMILES IDX 6 14 5 15 4 16 19 17 3 18 20 19 21 20 2 21 1 22 22 23
REMARK H PARENT 7 13 22 24
REMARK Flexibility Score: inf
ROOT
ATOM      1  C   UNL     1     108.706 115.032 108.202  1.00  0.00     0.010 C 
ENDROOT
BRANCH   1   2
ATOM      2  C   UNL     1     110.126 115.058 107.614  1.00  0.00     0.005 C 
BRANCH   2   3
ATOM      3  C   UNL     1     110.136 114.802 106.103  1.00  0.00     0.027 C 
BRANCH   3   4
ATOM      4  C   UNL     1     111.464 115.174 105.497  1.00  0.00    -0.031 C 
ATOM      5  C   UNL     1     112.091 114.539 104.484  1.00  0.00    -0.028 C 
BRANCH   5   6
ATOM      6  C   UNL     1     111.681 113.251 103.787  1.00  0.00     0.005 C 
ATOM      7  C   UNL     1     112.758 112.677 102.853  1.00  0.00     0.012 C 
ATOM      8  C   UNL     1     110.312 113.362 103.102  1.00  0.00     0.012 C 
ENDBRANCH   5   6
ENDBRANCH   3   4
ENDBRANCH   2   3
ENDBRANCH   1   2
BRANCH   1   9
ATOM      9  C   UNL     1     108.528 113.918 109.242  1.00  0.00     0.100 C 
BRANCH   9  10
ATOM     10  C   UNL     1     109.030 114.339 110.595  1.00  0.00     0.220 C 
ATOM     11  O   UNL     1     108.707 115.472 111.052  1.00  0.00    -0.275 OA
ATOM     12  N   UNL     1     109.892 113.472 111.346  1.00  0.00    -0.352 N 
ATOM     13  H   UNL     1     110.038 112.493 111.010  1.00  0.00     0.163 HD
BRANCH  12  14
ATOM     14  C   UNL     1     110.814 113.979 112.359  1.00  0.00     0.151 C 
BRANCH  14  15
ATOM     15  C   UNL     1     112.225 113.870 111.852  1.00  0.00    -0.025 A 
ATOM     16  C   UNL     1     113.285 114.450 112.566  1.00  0.00     0.056 A 
ATOM     17  C   UNL     1     112.476 113.277 110.608  1.00  0.00     0.009 A 
ATOM     18  C   UNL     1     114.591 114.447 112.037  1.00  0.00     0.160 A 
ATOM     19  C   UNL     1     113.774 113.246 110.092  1.00  0.00     0.050 A 
ATOM     20  C   UNL     1     114.831 113.829 110.802  1.00  0.00     0.157 A 
BRANCH  18  21
ATOM     21  O   UNL     1     115.668 115.056 112.699  1.00  0.00    -0.493 OA
ATOM     22  C   UNL     1     116.103 114.712 114.011  1.00  0.00     0.278 C 
ENDBRANCH  18  21
BRANCH  20  23
ATOM     23  O   UNL     1     116.124 113.811 110.280  1.00  0.00    -0.504 OA
ATOM     24  H   UNL     1     116.427 113.089 109.633  1.00  0.00     0.293 HD
ENDBRANCH  20  23
ENDBRANCH  14  15
ENDBRANCH  12  14
ENDBRANCH   9  10
ENDBRANCH   1   9
TORSDOF 10
ENDMDL
MODEL 4
REMARK VINA RESULT:    -5.510      2.496      8.111
REMARK INTER + INTRA:          -9.847
REMARK INTER:                  -8.897
REMARK INTRA:                  -0.950
REMARK UNBOUND:                -1.277
REMARK SMILES COc1cc(CNC(=O)CCCCC=CC(C)C)ccc1O
REMARK SMILES IDX 11 1 12 2 13 3 14 4 15 5 16 6 17 7 18 8 10 9 8 10 9 11 7 12
REMARK SMILES IDX 6 14 5 15 4 16 19 17 3 18 20 19 21 20 2 21 1 22 22 23
REMARK H PARENT 7 13 22 24
REMARK Flexibility Score: inf
ROOT
ATOM      1  C   UNL     1     112.341 113.776 111.341  1.00  0.00     0.010 C 
ENDROOT
BRANCH   1   2
ATOM      2  C   UNL     1     113.382 112.871 110.664  1.00  0.00     0.005 C 
BRANCH   2   3
ATOM      3  C   UNL     1     114.554 113.668 110.079  1.00  0.00     0.027 C 
BRANCH   3   4
ATOM      4  C   UNL     1     115.623 113.902 111.114  1.00  0.00    -0.031 C 
ATOM      5  C   UNL     1     115.779 115.007 111.872  1.00  0.00    -0.028 C 
BRANCH   5   6
ATOM      6  C   UNL     1     115.001 116.313 111.798  1.00  0.00     0.005 C 
ATOM      7  C   UNL     1     115.670 117.389 110.928  1.00  0.00     0.012 C 
ATOM      8  C   UNL     1     114.608 116.844 113.184  1.00  0.00     0.012 C 
ENDBRANCH   5   6
ENDBRANCH   3   4
ENDBRANCH   2   3
ENDBRANCH   1   2
BRANCH   1   9
ATOM      9  C   UNL     1     111.410 114.453 110.326  1.00  0.00     0.100 C 
BRANCH   9  10
ATOM     10  C   UNL     1     109.963 114.235 110.668  1.00  0.00     0.220 C 
ATOM     11  O   UNL     1     109.657 113.401 111.567  1.00  0.00    -0.275 OA
ATOM     12  N   UNL     1     108.939 114.947 109.960  1.00  0.00    -0.352 N 
ATOM     13  H   UNL     1     109.217 115.723 109.316  1.00  0.00     0.163 HD
BRANCH  12  14
ATOM     14  C   UNL     1     107.574 114.439 109.846  1.00  0.00     0.151 C 
BRANCH  14  15
ATOM     15  C   UNL     1     107.084 114.631 108.438  1.00  0.00    -0.025 A 
ATOM     16  C   UNL     1     105.849 114.098 108.035  1.00  0.00     0.056 A 
ATOM     17  C   UNL     1     107.906 115.256 107.490  1.00  0.00     0.009 A 
ATOM     18  C   UNL     1     105.439 114.179 106.689  1.00  0.00     0.160 A 
ATOM     19  C   UNL     1     107.491 115.364 106.161  1.00  0.00     0.050 A 
ATOM     20  C   UNL     1     106.262 114.828 105.758  1.00  0.00     0.157 A 
BRANCH  18  21
ATOM     21  O   UNL     1     104.234 113.619 106.238  1.00  0.00    -0.493 OA
ATOM     22  C   UNL     1     102.962 113.871 106.828  1.00  0.00     0.278 C 
ENDBRANCH  18  21
BRANCH  20  23
ATOM     23  O   UNL     1     105.855 114.923 104.427  1.00  0.00    -0.504 OA
ATOM     24  H   UNL     1     106.485 114.706 103.661  1.00  0.00     0.293 HD
ENDBRANCH  20  23
ENDBRANCH  14  15
ENDBRANCH  12  14
ENDBRANCH   9  10
ENDBRANCH   1   9
TORSDOF 10
ENDMDL
MODEL 5
REMARK VINA RESULT:    -5.458      2.650      6.508
REMARK INTER + INTRA:          -9.766
REMARK INTER:                  -8.613
REMARK INTRA:                  -1.153
REMARK UNBOUND:                -1.277
REMARK SMILES COc1cc(CNC(=O)CCCCC=CC(C)C)ccc1O
REMARK SMILES IDX 11 1 12 2 13 3 14 4 15 5 16 6 17 7 18 8 10 9 8 10 9 11 7 12
REMARK SMILES IDX 6 14 5 15 4 16 19 17 3 18 20 19 21 20 2 21 1 22 22 23
REMARK H PARENT 7 13 22 24
REMARK Flexibility Score: inf
ROOT
ATOM      1  C   UNL     1     111.409 114.356 111.180  1.00  0.00     0.010 C 
ENDROOT
BRANCH   1   2
ATOM      2  C   UNL     1     112.310 113.321 110.489  1.00  0.00     0.005 C 
BRANCH   2   3
ATOM      3  C   UNL     1     113.449 113.974 109.698  1.00  0.00     0.027 C 
BRANCH   3   4
ATOM      4  C   UNL     1     114.761 113.282 109.961  1.00  0.00    -0.031 C 
ATOM      5  C   UNL     1     115.709 113.666 110.842  1.00  0.00    -0.028 C 
BRANCH   5   6
ATOM      6  C   UNL     1     115.745 114.927 111.692  1.00  0.00     0.005 C 
ATOM      7  C   UNL     1     114.728 114.931 112.845  1.00  0.00     0.012 C 
ATOM      8  C   UNL     1     115.677 116.208 110.848  1.00  0.00     0.012 C 
ENDBRANCH   5   6
ENDBRANCH   3   4
ENDBRANCH   2   3
ENDBRANCH   1   2
BRANCH   1   9
ATOM      9  C   UNL     1     110.076 113.752 111.640  1.00  0.00     0.100 C 
BRANCH   9  10
ATOM     10  C   UNL     1     109.057 113.750 110.535  1.00  0.00     0.220 C 
ATOM     11  O   UNL     1     108.259 112.776 110.428  1.00  0.00    -0.275 OA
ATOM     12  N   UNL     1     109.012 114.831 109.593  1.00  0.00    -0.352 N 
ATOM     13  H   UNL     1     109.591 115.683 109.776  1.00  0.00     0.163 HD
BRANCH  12  14
ATOM     14  C   UNL     1     108.461 114.671 108.250  1.00  0.00     0.151 C 
BRANCH  14  15
ATOM     15  C   UNL     1     109.506 115.035 107.232  1.00  0.00    -0.025 A 
ATOM     16  C   UNL     1     109.874 114.121 106.232  1.00  0.00     0.056 A 
ATOM     17  C   UNL     1     110.192 116.252 107.339  1.00  0.00     0.009 A 
ATOM     18  C   UNL     1     110.931 114.416 105.348  1.00  0.00     0.160 A 
ATOM     19  C   UNL     1     111.221 116.561 106.447  1.00  0.00     0.050 A 
ATOM     20  C   UNL     1     111.592 115.647 105.453  1.00  0.00     0.157 A 
BRANCH  18  21
ATOM     21  O   UNL     1     111.359 113.510 104.365  1.00  0.00    -0.493 OA
ATOM     22  C   UNL     1     110.584 113.129 103.232  1.00  0.00     0.278 C 
ENDBRANCH  18  21
BRANCH  20  23
ATOM     23  O   UNL     1     112.630 115.950 104.570  1.00  0.00    -0.504 OA
ATOM     24  H   UNL     1     112.564 116.726 103.919  1.00  0.00     0.293 HD
ENDBRANCH  20  23
ENDBRANCH  14  15
ENDBRANCH  12  14
ENDBRANCH   9  10
ENDBRANCH   1   9
TORSDOF 10
ENDMDL
MODEL 6
REMARK VINA RESULT:    -5.335      2.654      8.264
REMARK INTER + INTRA:          -9.575
REMARK INTER:                  -8.651
REMARK INTRA:                  -0.924
REMARK UNBOUND:                -1.277
REMARK SMILES COc1cc(CNC(=O)CCCCC=CC(C)C)ccc1O
REMARK SMILES IDX 11 1 12 2 13 3 14 4 15 5 16 6 17 7 18 8 10 9 8 10 9 11 7 12
REMARK SMILES IDX 6 14 5 15 4 16 19 17 3 18 20 19 21 20 2 21 1 22 22 23
REMARK H PARENT 7 13 22 24
REMARK Flexibility Score: inf
ROOT
ATOM      1  C   UNL     1     112.209 113.729 111.296  1.00  0.00     0.010 C 
ENDROOT
BRANCH   1   2
ATOM      2  C   UNL     1     113.287 112.847 110.645  1.00  0.00     0.005 C 
BRANCH   2   3
ATOM      3  C   UNL     1     114.436 113.671 110.054  1.00  0.00     0.027 C 
BRANCH   3   4
ATOM      4  C   UNL     1     115.538 113.870 111.062  1.00  0.00    -0.031 C 
ATOM      5  C   UNL     1     115.734 114.960 111.832  1.00  0.00    -0.028 C 
BRANCH   5   6
ATOM      6  C   UNL     1     114.979 116.280 111.800  1.00  0.00     0.005 C 
ATOM      7  C   UNL     1     115.654 117.364 110.944  1.00  0.00     0.012 C 
ATOM      8  C   UNL     1     114.617 116.786 113.204  1.00  0.00     0.012 C 
ENDBRANCH   5   6
ENDBRANCH   3   4
ENDBRANCH   2   3
ENDBRANCH   1   2
BRANCH   1   9
ATOM      9  C   UNL     1     110.862 113.632 110.567  1.00  0.00     0.100 C 
BRANCH   9  10
ATOM     10  C   UNL     1     110.774 114.611 109.431  1.00  0.00     0.220 C 
ATOM     11  O   UNL     1     111.276 115.763 109.564  1.00  0.00    -0.275 OA
ATOM     12  N   UNL     1     110.100 114.249 108.217  1.00  0.00    -0.352 N 
ATOM     13  H   UNL     1     109.810 113.254 108.079  1.00  0.00     0.163 HD
BRANCH  12  14
ATOM     14  C   UNL     1     109.521 115.246 107.321  1.00  0.00     0.151 C 
BRANCH  14  15
ATOM     15  C   UNL     1     108.040 115.017 107.205  1.00  0.00    -0.025 A 
ATOM     16  C   UNL     1     107.367 115.297 106.006  1.00  0.00     0.056 A 
ATOM     17  C   UNL     1     107.305 114.619 108.330  1.00  0.00     0.009 A 
ATOM     18  C   UNL     1     105.964 115.191 105.930  1.00  0.00     0.160 A 
ATOM     19  C   UNL     1     105.917 114.484 108.252  1.00  0.00     0.050 A 
ATOM     20  C   UNL     1     105.245 114.769 107.057  1.00  0.00     0.157 A 
BRANCH  18  21
ATOM     21  O   UNL     1     105.251 115.506 104.763  1.00  0.00    -0.493 OA
ATOM     22  C   UNL     1     104.918 114.565 103.747  1.00  0.00     0.278 C 
ENDBRANCH  18  21
BRANCH  20  23
ATOM     23  O   UNL     1     103.857 114.648 106.984  1.00  0.00    -0.504 OA
ATOM     24  H   UNL     1     103.310 115.189 106.321  1.00  0.00     0.293 HD
ENDBRANCH  20  23
ENDBRANCH  14  15
ENDBRANCH  12  14
ENDBRANCH   9  10
ENDBRANCH   1   9
TORSDOF 10
ENDMDL
MODEL 7
REMARK VINA RESULT:    -5.328      5.019      7.191
REMARK INTER + INTRA:          -9.564
REMARK INTER:                  -8.636
REMARK INTRA:                  -0.927
REMARK UNBOUND:                -1.277
REMARK SMILES COc1cc(CNC(=O)CCCCC=CC(C)C)ccc1O
REMARK SMILES IDX 11 1 12 2 13 3 14 4 15 5 16 6 17 7 18 8 10 9 8 10 9 11 7 12
REMARK SMILES IDX 6 14 5 15 4 16 19 17 3 18 20 19 21 20 2 21 1 22 22 23
REMARK H PARENT 7 13 22 24
REMARK Flexibility Score: inf
ROOT
ATOM      1  C   UNL     1     105.017 113.411 103.197  1.00  0.00     0.010 C 
ENDROOT
BRANCH   1   2
ATOM      2  C   UNL     1     104.045 113.038 102.066  1.00  0.00     0.005 C 
BRANCH   2   3
ATOM      3  C   UNL     1     104.581 111.903 101.187  1.00  0.00     0.027 C 
BRANCH   3   4
ATOM      4  C   UNL     1     106.037 112.111 100.859  1.00  0.00    -0.031 C 
ATOM      5  C   UNL     1     106.532 112.796  99.807  1.00  0.00    -0.028 C 
BRANCH   5   6
ATOM      6  C   UNL     1     105.768 113.421  98.650  1.00  0.00     0.005 C 
ATOM      7  C   UNL     1     106.477 113.293  97.292  1.00  0.00     0.012 C 
ATOM      8  C   UNL     1     105.329 114.863  98.946  1.00  0.00     0.012 C 
ENDBRANCH   5   6
ENDBRANCH   3   4
ENDBRANCH   2   3
ENDBRANCH   1   2
BRANCH   1   9
ATOM      9  C   UNL     1     104.473 113.029 104.581  1.00  0.00     0.100 C 
BRANCH   9  10
ATOM     10  C   UNL     1     105.248 113.692 105.684  1.00  0.00     0.220 C 
ATOM     11  O   UNL     1     105.029 113.360 106.883  1.00  0.00    -0.275 OA
ATOM     12  N   UNL     1     106.206 114.716 105.378  1.00  0.00    -0.352 N 
ATOM     13  H   UNL     1     106.464 114.881 104.378  1.00  0.00     0.163 HD
BRANCH  12  14
ATOM     14  C   UNL     1     106.590 115.738 106.348  1.00  0.00     0.151 C 
BRANCH  14  15
ATOM     15  C   UNL     1     107.973 115.448 106.861  1.00  0.00    -0.025 A 
ATOM     16  C   UNL     1     108.162 114.593 107.957  1.00  0.00     0.056 A 
ATOM     17  C   UNL     1     109.076 116.114 106.309  1.00  0.00     0.009 A 
ATOM     18  C   UNL     1     109.446 114.409 108.510  1.00  0.00     0.160 A 
ATOM     19  C   UNL     1     110.354 115.913 106.834  1.00  0.00     0.050 A 
ATOM     20  C   UNL     1     110.542 115.063 107.932  1.00  0.00     0.157 A 
BRANCH  18  21
ATOM     21  O   UNL     1     109.668 113.599 109.633  1.00  0.00    -0.493 OA
ATOM     22  C   UNL     1     109.482 114.024 110.980  1.00  0.00     0.278 C 
ENDBRANCH  18  21
BRANCH  20  23
ATOM     23  O   UNL     1     111.817 114.874 108.465  1.00  0.00    -0.504 OA
ATOM     24  H   UNL     1     112.348 114.026 108.287  1.00  0.00     0.293 HD
ENDBRANCH  20  23
ENDBRANCH  14  15
ENDBRANCH  12  14
ENDBRANCH   9  10
ENDBRANCH   1   9
TORSDOF 10
ENDMDL
MODEL 8
REMARK VINA RESULT:    -5.209      4.603      6.800
REMARK INTER + INTRA:          -9.379
REMARK INTER:                  -8.606
REMARK INTRA:                  -0.773
REMARK UNBOUND:                -1.277
REMARK SMILES COc1cc(CNC(=O)CCCCC=CC(C)C)ccc1O
REMARK SMILES IDX 11 1 12 2 13 3 14 4 15 5 16 6 17 7 18 8 10 9 8 10 9 11 7 12
REMARK SMILES IDX 6 14 5 15 4 16 19 17 3 18 20 19 21 20 2 21 1 22 22 23
REMARK H PARENT 7 13 22 24
REMARK Flexibility Score: inf
ROOT
ATOM      1  C   UNL     1     104.878 112.504 105.024  1.00  0.00     0.010 C 
ENDROOT
BRANCH   1   2
ATOM      2  C   UNL     1     105.372 112.979 103.648  1.00  0.00     0.005 C 
BRANCH   2   3
ATOM      3  C   UNL     1     104.228 113.472 102.756  1.00  0.00     0.027 C 
BRANCH   3   4
ATOM      4  C   UNL     1     103.865 112.442 101.719  1.00  0.00    -0.031 C 
ATOM      5  C   UNL     1     104.621 112.058 100.669  1.00  0.00    -0.028 C 
BRANCH   5   6
ATOM      6  C   UNL     1     105.952 112.635 100.211  1.00  0.00     0.005 C 
ATOM      7  C   UNL     1     105.872 113.419  98.891  1.00  0.00     0.012 C 
ATOM      8  C   UNL     1     107.075 111.587 100.200  1.00  0.00     0.012 C 
ENDBRANCH   5   6
ENDBRANCH   3   4
ENDBRANCH   2   3
ENDBRANCH   1   2
BRANCH   1   9
ATOM      9  C   UNL     1     103.651 113.291 105.504  1.00  0.00     0.100 C 
BRANCH   9  10
ATOM     10  C   UNL     1     103.873 113.887 106.866  1.00  0.00     0.220 C 
ATOM     11  O   UNL     1     102.926 114.495 107.440  1.00  0.00    -0.275 OA
ATOM     12  N   UNL     1     105.160 113.792 107.494  1.00  0.00    -0.352 N 
ATOM     13  H   UNL     1     105.887 113.176 107.063  1.00  0.00     0.163 HD
BRANCH  12  14
ATOM     14  C   UNL     1     105.604 114.746 108.507  1.00  0.00     0.151 C 
BRANCH  14  15
ATOM     15  C   UNL     1     107.014 114.422 108.916  1.00  0.00    -0.025 A 
ATOM     16  C   UNL     1     108.099 114.851 108.135  1.00  0.00     0.056 A 
ATOM     17  C   UNL     1     107.249 113.599 110.026  1.00  0.00     0.009 A 
ATOM     18  C   UNL     1     109.413 114.454 108.454  1.00  0.00     0.160 A 
ATOM     19  C   UNL     1     108.551 113.226 110.363  1.00  0.00     0.050 A 
ATOM     20  C   UNL     1     109.633 113.650 109.581  1.00  0.00     0.157 A 
BRANCH  18  21
ATOM     21  O   UNL     1     110.518 114.825 107.672  1.00  0.00    -0.493 OA
ATOM     22  C   UNL     1     110.447 115.156 106.289  1.00  0.00     0.278 C 
ENDBRANCH  18  21
BRANCH  20  23
ATOM     23  O   UNL     1     110.933 113.266 109.910  1.00  0.00    -0.504 OA
ATOM     24  H   UNL     1     111.395 112.494 109.438  1.00  0.00     0.293 HD
ENDBRANCH  20  23
ENDBRANCH  14  15
ENDBRANCH  12  14
ENDBRANCH   9  10
ENDBRANCH   1   9
TORSDOF 10
ENDMDL
