MODEL 1
REMARK VINA RESULT:    -3.133      0.000      0.000
REMARK INTER + INTRA:          -4.821
REMARK INTER:                  -4.415
REMARK INTRA:                  -0.406
REMARK UNBOUND:                -0.406
REMARK SMILES CCCCCCCCC(=O)[O-]
REMARK SMILES IDX 6 1 7 2 8 3 9 4 10 5 11 6 5 7 4 8 3 9 2 10 1 11
REMARK H PARENT
REMARK Flexibility Score: inf
ROOT
ATOM      1  C   UNL     1      40.779  20.611  78.603  1.00  0.00     0.000 C 
ENDROOT
BRANCH   1   2
ATOM      2  C   UNL     1      39.972  19.692  79.529  1.00  0.00     0.006 C 
BRANCH   2   3
ATOM      3  C   UNL     1      38.789  20.440  80.151  1.00  0.00     0.053 C 
BRANCH   3   4
ATOM      4  C   UNL     1      37.783  19.474  80.692  1.00  0.00     0.041 C 
ATOM      5  O   UNL     1      37.438  18.472  80.012  1.00  0.00    -0.550 OA
ATOM      6  O   UNL     1      37.191  19.706  81.925  1.00  0.00    -0.550 OA
ENDBRANCH   3   4
ENDBRANCH   2   3
ENDBRANCH   1   2
BRANCH   1   7
ATOM      7  C   UNL     1      40.011  21.903  78.305  1.00  0.00     0.000 C 
BRANCH   7   8
ATOM      8  C   UNL     1      40.376  22.454  76.921  1.00  0.00    -0.000 C 
BRANCH   8   9
ATOM      9  C   UNL     1      41.430  21.570  76.237  1.00  0.00    -0.000 C 
BRANCH   9  10
ATOM     10  C   UNL     1      41.254  21.514  74.712  1.00  0.00    -0.003 C 
ATOM     11  C   UNL     1      40.201  20.495  74.275  1.00  0.00     0.004 C 
ENDBRANCH   9  10
ENDBRANCH   8   9
ENDBRANCH   7   8
ENDBRANCH   1   7
TORSDOF 7
ENDMDL
MODEL 2
REMARK VINA RESULT:    -3.047      5.582      7.112
REMARK INTER + INTRA:          -4.700
REMARK INTER:                  -4.433
REMARK INTRA:                  -0.267
REMARK UNBOUND:                -0.406
REMARK SMILES CCCCCCCCC(=O)[O-]
REMARK SMILES IDX 6 1 7 2 8 3 9 4 10 5 11 6 5 7 4 8 3 9 2 10 1 11
REMARK H PARENT
REMARK Flexibility Score: inf
ROOT
ATOM      1  C   UNL     1      44.837  19.412  78.139  1.00  0.00     0.000 C 
ENDROOT
BRANCH   1   2
ATOM      2  C   UNL     1      46.165  18.956  77.520  1.00  0.00     0.006 C 
BRANCH   2   3
ATOM      3  C   UNL     1      45.969  18.508  76.069  1.00  0.00     0.053 C 
BRANCH   3   4
ATOM      4  C   UNL     1      45.981  17.015  75.976  1.00  0.00     0.041 C 
ATOM      5  O   UNL     1      46.026  16.315  77.021  1.00  0.00    -0.550 OA
ATOM      6  O   UNL     1      45.995  16.396  74.733  1.00  0.00    -0.550 OA
ENDBRANCH   3   4
ENDBRANCH   2   3
ENDBRANCH   1   2
BRANCH   1   7
ATOM      7  C   UNL     1      44.801  20.936  78.302  1.00  0.00     0.000 C 
BRANCH   7   8
ATOM      8  C   UNL     1      43.611  21.370  79.166  1.00  0.00    -0.000 C 
BRANCH   8   9
ATOM      9  C   UNL     1      42.291  20.828  78.596  1.00  0.00    -0.000 C 
BRANCH   9  10
ATOM     10  C   UNL     1      41.475  20.046  79.638  1.00  0.00    -0.003 C 
ATOM     11  C   UNL     1      39.968  20.146  79.405  1.00  0.00     0.004 C 
ENDBRANCH   9  10
ENDBRANCH   8   9
ENDBRANCH   7   8
ENDBRANCH   1   7
TORSDOF 7
ENDMDL
MODEL 3
REMARK VINA RESULT:    -3.004     18.011     19.157
REMARK INTER + INTRA:          -4.640
REMARK INTER:                  -4.298
REMARK INTRA:                  -0.342
REMARK UNBOUND:                -0.406
REMARK SMILES CCCCCCCCC(=O)[O-]
REMARK SMILES IDX 6 1 7 2 8 3 9 4 10 5 11 6 5 7 4 8 3 9 2 10 1 11
REMARK H PARENT
REMARK Flexibility Score: inf
ROOT
ATOM      1  C   UNL     1      47.517  32.195  88.314  1.00  0.00     0.000 C 
ENDROOT
BRANCH   1   2
ATOM      2  C   UNL     1      48.430  32.671  87.176  1.00  0.00     0.006 C 
BRANCH   2   3
ATOM      3  C   UNL     1      48.676  34.180  87.265  1.00  0.00     0.053 C 
BRANCH   3   4
ATOM      4  C   UNL     1      50.127  34.460  87.502  1.00  0.00     0.041 C 
ATOM      5  O   UNL     1      50.857  33.596  88.054  1.00  0.00    -0.550 OA
ATOM      6  O   UNL     1      50.660  35.696  87.160  1.00  0.00    -0.550 OA
ENDBRANCH   3   4
ENDBRANCH   2   3
ENDBRANCH   1   2
BRANCH   1   7
ATOM      7  C   UNL     1      48.266  31.250  89.260  1.00  0.00     0.000 C 
BRANCH   7   8
ATOM      8  C   UNL     1      47.472  31.022  90.553  1.00  0.00    -0.000 C 
BRANCH   8   9
ATOM      9  C   UNL     1      46.066  31.631  90.449  1.00  0.00    -0.000 C 
BRANCH   9  10
ATOM     10  C   UNL     1      45.043  30.910  91.341  1.00  0.00    -0.003 C 
ATOM     11  C   UNL     1      44.497  31.802  92.456  1.00  0.00     0.004 C 
ENDBRANCH   9  10
ENDBRANCH   8   9
ENDBRANCH   7   8
ENDBRANCH   1   7
TORSDOF 7
ENDMDL
MODEL 4
REMARK VINA RESULT:    -3.002     13.803     14.843
REMARK INTER + INTRA:          -4.637
REMARK INTER:                  -4.335
REMARK INTRA:                  -0.302
REMARK UNBOUND:                -0.406
REMARK SMILES CCCCCCCCC(=O)[O-]
REMARK SMILES IDX 6 1 7 2 8 3 9 4 10 5 11 6 5 7 4 8 3 9 2 10 1 11
REMARK H PARENT
REMARK Flexibility Score: inf
ROOT
ATOM      1  C   UNL     1      52.143  19.134  85.074  1.00  0.00     0.000 C 
ENDROOT
BRANCH   1   2
ATOM      2  C   UNL     1      50.762  18.499  85.283  1.00  0.00     0.006 C 
BRANCH   2   3
ATOM      3  C   UNL     1      49.789  19.497  85.917  1.00  0.00     0.053 C 
BRANCH   3   4
ATOM      4  C   UNL     1      48.584  19.678  85.049  1.00  0.00     0.041 C 
ATOM      5  O   UNL     1      47.858  20.699  85.177  1.00  0.00    -0.550 OA
ATOM      6  O   UNL     1      48.234  18.695  84.133  1.00  0.00    -0.550 OA
ENDBRANCH   3   4
ENDBRANCH   2   3
ENDBRANCH   1   2
BRANCH   1   7
ATOM      7  C   UNL     1      52.948  19.139  86.379  1.00  0.00     0.000 C 
BRANCH   7   8
ATOM      8  C   UNL     1      54.151  18.192  86.287  1.00  0.00    -0.000 C 
BRANCH   8   9
ATOM      9  C   UNL     1      54.722  18.165  84.861  1.00  0.00    -0.000 C 
BRANCH   9  10
ATOM     10  C   UNL     1      55.995  17.311  84.752  1.00  0.00    -0.003 C 
ATOM     11  C   UNL     1      56.125  16.294  85.885  1.00  0.00     0.004 C 
ENDBRANCH   9  10
ENDBRANCH   8   9
ENDBRANCH   7   8
ENDBRANCH   1   7
TORSDOF 7
ENDMDL
MODEL 5
REMARK VINA RESULT:    -3.000     17.873     19.107
REMARK INTER + INTRA:          -4.634
REMARK INTER:                  -4.098
REMARK INTRA:                  -0.536
REMARK UNBOUND:                -0.406
REMARK SMILES CCCCCCCCC(=O)[O-]
REMARK SMILES IDX 6 1 7 2 8 3 9 4 10 5 11 6 5 7 4 8 3 9 2 10 1 11
REMARK H PARENT
REMARK Flexibility Score: inf
ROOT
ATOM      1  C   UNL     1      47.945  32.049  86.975  1.00  0.00     0.000 C 
ENDROOT
BRANCH   1   2
ATOM      2  C   UNL     1      48.281  33.416  87.583  1.00  0.00     0.006 C 
BRANCH   2   3
ATOM      3  C   UNL     1      49.761  33.758  87.383  1.00  0.00     0.053 C 
BRANCH   3   4
ATOM      4  C   UNL     1      49.966  35.239  87.416  1.00  0.00     0.041 C 
ATOM      5  O   UNL     1      51.130  35.718  87.438  1.00  0.00    -0.550 OA
ATOM      6  O   UNL     1      48.871  36.091  87.474  1.00  0.00    -0.550 OA
ENDBRANCH   3   4
ENDBRANCH   2   3
ENDBRANCH   1   2
BRANCH   1   7
ATOM      7  C   UNL     1      47.196  31.168  87.981  1.00  0.00     0.000 C 
BRANCH   7   8
ATOM      8  C   UNL     1      46.827  31.962  89.240  1.00  0.00    -0.000 C 
BRANCH   8   9
ATOM      9  C   UNL     1      47.297  31.233  90.508  1.00  0.00    -0.000 C 
BRANCH   9  10
ATOM     10  C   UNL     1      48.811  30.970  90.511  1.00  0.00    -0.003 C 
ATOM     11  C   UNL     1      49.155  29.493  90.699  1.00  0.00     0.004 C 
ENDBRANCH   9  10
ENDBRANCH   8   9
ENDBRANCH   7   8
ENDBRANCH   1   7
TORSDOF 7
ENDMDL
MODEL 6
REMARK VINA RESULT:    -2.997      3.302      5.715
REMARK INTER + INTRA:          -4.630
REMARK INTER:                  -4.321
REMARK INTRA:                  -0.309
REMARK UNBOUND:                -0.406
REMARK SMILES CCCCCCCCC(=O)[O-]
REMARK SMILES IDX 6 1 7 2 8 3 9 4 10 5 11 6 5 7 4 8 3 9 2 10 1 11
REMARK H PARENT
REMARK Flexibility Score: inf
ROOT
ATOM      1  C   UNL     1      40.377  21.642  78.250  1.00  0.00     0.000 C 
ENDROOT
BRANCH   1   2
ATOM      2  C   UNL     1      41.238  21.897  77.007  1.00  0.00     0.006 C 
BRANCH   2   3
ATOM      3  C   UNL     1      40.366  22.048  75.756  1.00  0.00     0.053 C 
BRANCH   3   4
ATOM      4  C   UNL     1      40.870  21.167  74.657  1.00  0.00     0.041 C 
ATOM      5  O   UNL     1      40.091  20.362  74.083  1.00  0.00    -0.550 OA
ATOM      6  O   UNL     1      42.211  21.200  74.300  1.00  0.00    -0.550 OA
ENDBRANCH   3   4
ENDBRANCH   2   3
ENDBRANCH   1   2
BRANCH   1   7
ATOM      7  C   UNL     1      40.971  20.521  79.110  1.00  0.00     0.000 C 
BRANCH   7   8
ATOM      8  C   UNL     1      39.868  19.615  79.672  1.00  0.00    -0.000 C 
BRANCH   8   9
ATOM      9  C   UNL     1      38.636  20.436  80.080  1.00  0.00    -0.000 C 
BRANCH   9  10
ATOM     10  C   UNL     1      37.433  19.553  80.446  1.00  0.00    -0.003 C 
ATOM     11  C   UNL     1      37.643  18.085  80.078  1.00  0.00     0.004 C 
ENDBRANCH   9  10
ENDBRANCH   8   9
ENDBRANCH   7   8
ENDBRANCH   1   7
TORSDOF 7
ENDMDL
MODEL 7
REMARK VINA RESULT:    -2.966      2.171      3.222
REMARK INTER + INTRA:          -4.586
REMARK INTER:                  -3.971
REMARK INTRA:                  -0.614
REMARK UNBOUND:                -0.406
REMARK SMILES CCCCCCCCC(=O)[O-]
REMARK SMILES IDX 6 1 7 2 8 3 9 4 10 5 11 6 5 7 4 8 3 9 2 10 1 11
REMARK H PARENT
REMARK Flexibility Score: inf
ROOT
ATOM      1  C   UNL     1      39.437  21.784  80.426  1.00  0.00     0.000 C 
ENDROOT
BRANCH   1   2
ATOM      2  C   UNL     1      37.945  22.065  80.645  1.00  0.00     0.006 C 
BRANCH   2   3
ATOM      3  C   UNL     1      37.092  20.869  80.213  1.00  0.00     0.053 C 
BRANCH   3   4
ATOM      4  C   UNL     1      37.477  19.646  80.984  1.00  0.00     0.041 C 
ATOM      5  O   UNL     1      37.368  19.626  82.238  1.00  0.00    -0.550 OA
ATOM      6  O   UNL     1      38.004  18.545  80.321  1.00  0.00    -0.550 OA
ENDBRANCH   3   4
ENDBRANCH   2   3
ENDBRANCH   1   2
BRANCH   1   7
ATOM      7  C   UNL     1      39.786  21.797  78.933  1.00  0.00     0.000 C 
BRANCH   7   8
ATOM      8  C   UNL     1      40.420  20.467  78.505  1.00  0.00    -0.000 C 
BRANCH   8   9
ATOM      9  C   UNL     1      41.532  20.049  79.478  1.00  0.00    -0.000 C 
BRANCH   9  10
ATOM     10  C   UNL     1      42.936  20.376  78.945  1.00  0.00    -0.003 C 
ATOM     11  C   UNL     1      43.544  21.616  79.601  1.00  0.00     0.004 C 
ENDBRANCH   9  10
ENDBRANCH   8   9
ENDBRANCH   7   8
ENDBRANCH   1   7
TORSDOF 7
ENDMDL
MODEL 8
REMARK VINA RESULT:    -2.957     16.607     17.303
REMARK INTER + INTRA:          -4.573
REMARK INTER:                  -4.144
REMARK INTRA:                  -0.429
REMARK UNBOUND:                -0.406
REMARK SMILES CCCCCCCCC(=O)[O-]
REMARK SMILES IDX 6 1 7 2 8 3 9 4 10 5 11 6 5 7 4 8 3 9 2 10 1 11
REMARK H PARENT
REMARK Flexibility Score: inf
ROOT
ATOM      1  C   UNL     1      46.946  28.846  91.240  1.00  0.00     0.000 C 
ENDROOT
BRANCH   1   2
ATOM      2  C   UNL     1      45.420  28.957  91.121  1.00  0.00     0.006 C 
BRANCH   2   3
ATOM      3  C   UNL     1      44.767  29.051  92.503  1.00  0.00     0.053 C 
BRANCH   3   4
ATOM      4  C   UNL     1      43.786  30.180  92.542  1.00  0.00     0.041 C 
ATOM      5  O   UNL     1      42.652  30.054  92.009  1.00  0.00    -0.550 OA
ATOM      6  O   UNL     1      44.142  31.389  93.125  1.00  0.00    -0.550 OA
ENDBRANCH   3   4
ENDBRANCH   2   3
ENDBRANCH   1   2
BRANCH   1   7
ATOM      7  C   UNL     1      47.642  29.955  90.443  1.00  0.00     0.000 C 
BRANCH   7   8
ATOM      8  C   UNL     1      46.934  31.301  90.640  1.00  0.00    -0.000 C 
BRANCH   8   9
ATOM      9  C   UNL     1      46.641  31.971  89.288  1.00  0.00    -0.000 C 
BRANCH   9  10
ATOM     10  C   UNL     1      47.712  31.660  88.231  1.00  0.00    -0.003 C 
ATOM     11  C   UNL     1      48.260  32.917  87.557  1.00  0.00     0.004 C 
ENDBRANCH   9  10
ENDBRANCH   8   9
ENDBRANCH   7   8
ENDBRANCH   1   7
TORSDOF 7
ENDMDL
MODEL 9
REMARK VINA RESULT:    -2.926     14.674     15.783
REMARK INTER + INTRA:          -4.530
REMARK INTER:                  -3.961
REMARK INTRA:                  -0.569
REMARK UNBOUND:                -0.406
REMARK SMILES CCCCCCCCC(=O)[O-]
REMARK SMILES IDX 6 1 7 2 8 3 9 4 10 5 11 6 5 7 4 8 3 9 2 10 1 11
REMARK H PARENT
REMARK Flexibility Score: inf
ROOT
ATOM      1  C   UNL     1      53.249  20.001  84.497  1.00  0.00     0.000 C 
ENDROOT
BRANCH   1   2
ATOM      2  C   UNL     1      53.374  18.515  84.856  1.00  0.00     0.006 C 
BRANCH   2   3
ATOM      3  C   UNL     1      54.841  18.113  85.032  1.00  0.00     0.053 C 
BRANCH   3   4
ATOM      4  C   UNL     1      55.047  17.450  86.357  1.00  0.00     0.041 C 
ATOM      5  O   UNL     1      54.735  18.048  87.420  1.00  0.00    -0.550 OA
ATOM      6  O   UNL     1      55.631  16.192  86.421  1.00  0.00    -0.550 OA
ENDBRANCH   3   4
ENDBRANCH   2   3
ENDBRANCH   1   2
BRANCH   1   7
ATOM      7  C   UNL     1      52.116  20.665  85.287  1.00  0.00     0.000 C 
BRANCH   7   8
ATOM      8  C   UNL     1      51.758  19.844  86.532  1.00  0.00    -0.000 C 
BRANCH   8   9
ATOM      9  C   UNL     1      50.240  19.634  86.635  1.00  0.00    -0.000 C 
BRANCH   9  10
ATOM     10  C   UNL     1      49.698  18.697  85.544  1.00  0.00    -0.003 C 
ATOM     11  C   UNL     1      48.627  19.357  84.676  1.00  0.00     0.004 C 
ENDBRANCH   9  10
ENDBRANCH   8   9
ENDBRANCH   7   8
ENDBRANCH   1   7
TORSDOF 7
ENDMDL
