MODEL 1
REMARK VINA RESULT:    -3.664      0.000      0.000
REMARK INTER + INTRA:          -5.341
REMARK INTER:                  -4.949
REMARK INTRA:                  -0.393
REMARK UNBOUND:                -0.393
REMARK SMILES CCCCCCCC(=O)[O-]
REMARK SMILES IDX 5 1 6 2 7 3 8 4 9 5 10 6 4 7 3 8 2 9 1 10
REMARK H PARENT
REMARK Flexibility Score: inf
ROOT
ATOM      1  C   UNL     1      -1.366   6.571 -11.418  1.00  0.00     0.000 C 
ENDROOT
BRANCH   1   2
ATOM      2  C   UNL     1      -0.144   7.063 -10.634  1.00  0.00     0.006 C 
BRANCH   2   3
ATOM      3  C   UNL     1      -0.471   7.215  -9.145  1.00  0.00     0.053 C 
BRANCH   3   4
ATOM      4  C   UNL     1       0.784   7.357  -8.345  1.00  0.00     0.041 C 
ATOM      5  O   UNL     1       0.731   7.717  -7.139  1.00  0.00    -0.550 OA
ATOM      6  O   UNL     1       2.012   7.045  -8.915  1.00  0.00    -0.550 OA
ENDBRANCH   3   4
ENDBRANCH   2   3
ENDBRANCH   1   2
BRANCH   1   7
ATOM      7  C   UNL     1      -2.669   6.956 -10.706  1.00  0.00     0.000 C 
BRANCH   7   8
ATOM      8  C   UNL     1      -3.668   7.580 -11.687  1.00  0.00    -0.000 C 
BRANCH   8   9
ATOM      9  C   UNL     1      -4.364   8.796 -11.064  1.00  0.00    -0.003 C 
ATOM     10  C   UNL     1      -3.486   9.451 -10.003  1.00  0.00     0.004 C 
ENDBRANCH   8   9
ENDBRANCH   7   8
ENDBRANCH   1   7
TORSDOF 6
ENDMDL
MODEL 2
REMARK VINA RESULT:    -3.645      1.659      2.308
REMARK INTER + INTRA:          -5.316
REMARK INTER:                  -4.935
REMARK INTRA:                  -0.381
REMARK UNBOUND:                -0.393
REMARK SMILES CCCCCCCC(=O)[O-]
REMARK SMILES IDX 5 1 6 2 7 3 8 4 9 5 10 6 4 7 3 8 2 9 1 10
REMARK H PARENT
REMARK Flexibility Score: inf
ROOT
ATOM      1  C   UNL     1      -1.210   7.722  -8.735  1.00  0.00     0.000 C 
ENDROOT
BRANCH   1   2
ATOM      2  C   UNL     1       0.073   6.885  -8.782  1.00  0.00     0.006 C 
BRANCH   2   3
ATOM      3  C   UNL     1       1.304   7.748  -8.490  1.00  0.00     0.053 C 
BRANCH   3   4
ATOM      4  C   UNL     1       2.084   7.990  -9.744  1.00  0.00     0.041 C 
ATOM      5  O   UNL     1       3.018   8.834  -9.756  1.00  0.00    -0.550 OA
ATOM      6  O   UNL     1       1.812   7.248 -10.886  1.00  0.00    -0.550 OA
ENDBRANCH   3   4
ENDBRANCH   2   3
ENDBRANCH   1   2
BRANCH   1   7
ATOM      7  C   UNL     1      -1.654   8.130 -10.145  1.00  0.00     0.000 C 
BRANCH   7   8
ATOM      8  C   UNL     1      -1.837   6.900 -11.041  1.00  0.00    -0.000 C 
BRANCH   8   9
ATOM      9  C   UNL     1      -3.188   6.942 -11.766  1.00  0.00    -0.003 C 
ATOM     10  C   UNL     1      -3.996   8.169 -11.354  1.00  0.00     0.004 C 
ENDBRANCH   8   9
ENDBRANCH   7   8
ENDBRANCH   1   7
TORSDOF 6
ENDMDL
MODEL 3
REMARK VINA RESULT:    -3.620      2.118      3.361
REMARK INTER + INTRA:          -5.283
REMARK INTER:                  -4.811
REMARK INTRA:                  -0.472
REMARK UNBOUND:                -0.393
REMARK SMILES CCCCCCCC(=O)[O-]
REMARK SMILES IDX 5 1 6 2 7 3 8 4 9 5 10 6 4 7 3 8 2 9 1 10
REMARK H PARENT
REMARK Flexibility Score: inf
ROOT
ATOM      1  C   UNL     1       0.494   8.182  -7.931  1.00  0.00     0.000 C 
ENDROOT
BRANCH   1   2
ATOM      2  C   UNL     1       1.544   7.387  -8.715  1.00  0.00     0.006 C 
BRANCH   2   3
ATOM      3  C   UNL     1       2.372   8.308  -9.615  1.00  0.00     0.053 C 
BRANCH   3   4
ATOM      4  C   UNL     1       2.040   8.072 -11.054  1.00  0.00     0.041 C 
ATOM      5  O   UNL     1       1.306   8.884 -11.677  1.00  0.00    -0.550 OA
ATOM      6  O   UNL     1       2.580   6.981 -11.723  1.00  0.00    -0.550 OA
ENDBRANCH   3   4
ENDBRANCH   2   3
ENDBRANCH   1   2
BRANCH   1   7
ATOM      7  C   UNL     1      -0.906   7.980  -8.524  1.00  0.00     0.000 C 
BRANCH   7   8
ATOM      8  C   UNL     1      -0.975   6.686  -9.343  1.00  0.00    -0.000 C 
BRANCH   8   9
ATOM      9  C   UNL     1      -1.537   6.951 -10.745  1.00  0.00    -0.003 C 
ATOM     10  C   UNL     1      -2.978   7.444 -10.677  1.00  0.00     0.004 C 
ENDBRANCH   8   9
ENDBRANCH   7   8
ENDBRANCH   1   7
TORSDOF 6
ENDMDL
MODEL 4
REMARK VINA RESULT:    -3.561      2.598      4.572
REMARK INTER + INTRA:          -5.202
REMARK INTER:                  -4.722
REMARK INTRA:                  -0.480
REMARK UNBOUND:                -0.393
REMARK SMILES CCCCCCCC(=O)[O-]
REMARK SMILES IDX 5 1 6 2 7 3 8 4 9 5 10 6 4 7 3 8 2 9 1 10
REMARK H PARENT
REMARK Flexibility Score: inf
ROOT
ATOM      1  C   UNL     1       0.542   7.389 -11.085  1.00  0.00     0.000 C 
ENDROOT
BRANCH   1   2
ATOM      2  C   UNL     1      -0.436   8.563 -11.208  1.00  0.00     0.006 C 
BRANCH   2   3
ATOM      3  C   UNL     1      -1.605   8.410 -10.231  1.00  0.00     0.053 C 
BRANCH   3   4
ATOM      4  C   UNL     1      -2.259   7.076 -10.400  1.00  0.00     0.041 C 
ATOM      5  O   UNL     1      -2.216   6.226  -9.473  1.00  0.00    -0.550 OA
ATOM      6  O   UNL     1      -2.960   6.788 -11.565  1.00  0.00    -0.550 OA
ENDBRANCH   3   4
ENDBRANCH   2   3
ENDBRANCH   1   2
BRANCH   1   7
ATOM      7  C   UNL     1       1.989   7.886 -10.985  1.00  0.00     0.000 C 
BRANCH   7   8
ATOM      8  C   UNL     1       2.347   8.252  -9.541  1.00  0.00    -0.000 C 
BRANCH   8   9
ATOM      9  C   UNL     1       1.666   7.303  -8.547  1.00  0.00    -0.003 C 
ATOM     10  C   UNL     1       0.900   8.079  -7.480  1.00  0.00     0.004 C 
ENDBRANCH   8   9
ENDBRANCH   7   8
ENDBRANCH   1   7
TORSDOF 6
ENDMDL
MODEL 5
REMARK VINA RESULT:    -3.540      2.783      4.812
REMARK INTER + INTRA:          -5.175
REMARK INTER:                  -4.818
REMARK INTRA:                  -0.356
REMARK UNBOUND:                -0.393
REMARK SMILES CCCCCCCC(=O)[O-]
REMARK SMILES IDX 5 1 6 2 7 3 8 4 9 5 10 6 4 7 3 8 2 9 1 10
REMARK H PARENT
REMARK Flexibility Score: inf
ROOT
ATOM      1  C   UNL     1      -0.396   8.001  -8.400  1.00  0.00     0.000 C 
ENDROOT
BRANCH   1   2
ATOM      2  C   UNL     1      -0.922   6.837  -9.247  1.00  0.00     0.006 C 
BRANCH   2   3
ATOM      3  C   UNL     1      -2.239   7.208  -9.936  1.00  0.00     0.053 C 
BRANCH   3   4
ATOM      4  C   UNL     1      -2.293   6.625 -11.312  1.00  0.00     0.041 C 
ATOM      5  O   UNL     1      -3.235   6.926 -12.091  1.00  0.00    -0.550 OA
ATOM      6  O   UNL     1      -1.277   5.785 -11.752  1.00  0.00    -0.550 OA
ENDBRANCH   3   4
ENDBRANCH   2   3
ENDBRANCH   1   2
BRANCH   1   7
ATOM      7  C   UNL     1       1.026   7.720  -7.900  1.00  0.00     0.000 C 
BRANCH   7   8
ATOM      8  C   UNL     1       2.030   7.736  -9.058  1.00  0.00    -0.000 C 
BRANCH   8   9
ATOM      9  C   UNL     1       1.968   9.063  -9.823  1.00  0.00    -0.003 C 
ATOM     10  C   UNL     1       1.771   8.830 -11.318  1.00  0.00     0.004 C 
ENDBRANCH   8   9
ENDBRANCH   7   8
ENDBRANCH   1   7
TORSDOF 6
ENDMDL
MODEL 6
REMARK VINA RESULT:    -3.532      0.956      1.652
REMARK INTER + INTRA:          -5.164
REMARK INTER:                  -4.928
REMARK INTRA:                  -0.236
REMARK UNBOUND:                -0.393
REMARK SMILES CCCCCCCC(=O)[O-]
REMARK SMILES IDX 5 1 6 2 7 3 8 4 9 5 10 6 4 7 3 8 2 9 1 10
REMARK H PARENT
REMARK Flexibility Score: inf
ROOT
ATOM      1  C   UNL     1      -1.901   8.192 -10.328  1.00  0.00     0.000 C 
ENDROOT
BRANCH   1   2
ATOM      2  C   UNL     1      -1.519   7.612  -8.962  1.00  0.00     0.006 C 
BRANCH   2   3
ATOM      3  C   UNL     1      -0.350   6.631  -9.087  1.00  0.00     0.053 C 
BRANCH   3   4
ATOM      4  C   UNL     1       0.877   7.190  -8.440  1.00  0.00     0.041 C 
ATOM      5  O   UNL     1       1.972   7.203  -9.061  1.00  0.00    -0.550 OA
ATOM      6  O   UNL     1       0.801   7.744  -7.168  1.00  0.00    -0.550 OA
ENDBRANCH   3   4
ENDBRANCH   2   3
ENDBRANCH   1   2
BRANCH   1   7
ATOM      7  C   UNL     1      -2.969   7.330 -11.013  1.00  0.00     0.000 C 
BRANCH   7   8
ATOM      8  C   UNL     1      -4.079   8.202 -11.610  1.00  0.00    -0.000 C 
BRANCH   8   9
ATOM      9  C   UNL     1      -4.459   9.341 -10.655  1.00  0.00    -0.003 C 
ATOM     10  C   UNL     1      -5.230  10.437 -11.384  1.00  0.00     0.004 C 
ENDBRANCH   8   9
ENDBRANCH   7   8
ENDBRANCH   1   7
TORSDOF 6
ENDMDL
MODEL 7
REMARK VINA RESULT:    -3.441      2.892      3.851
REMARK INTER + INTRA:          -5.041
REMARK INTER:                  -4.382
REMARK INTRA:                  -0.659
REMARK UNBOUND:                -0.393
REMARK SMILES CCCCCCCC(=O)[O-]
REMARK SMILES IDX 5 1 6 2 7 3 8 4 9 5 10 6 4 7 3 8 2 9 1 10
REMARK H PARENT
REMARK Flexibility Score: inf
ROOT
ATOM      1  C   UNL     1       2.308   8.318  -9.527  1.00  0.00     0.000 C 
ENDROOT
BRANCH   1   2
ATOM      2  C   UNL     1       1.633   7.429  -8.477  1.00  0.00     0.006 C 
BRANCH   2   3
ATOM      3  C   UNL     1       0.317   8.048  -7.997  1.00  0.00     0.053 C 
BRANCH   3   4
ATOM      4  C   UNL     1      -0.845   7.414  -8.694  1.00  0.00     0.041 C 
ATOM      5  O   UNL     1      -0.751   6.244  -9.149  1.00  0.00    -0.550 OA
ATOM      6  O   UNL     1      -2.050   8.098  -8.799  1.00  0.00    -0.550 OA
ENDBRANCH   3   4
ENDBRANCH   2   3
ENDBRANCH   1   2
BRANCH   1   7
ATOM      7  C   UNL     1       2.239   7.676 -10.918  1.00  0.00     0.000 C 
BRANCH   7   8
ATOM      8  C   UNL     1       1.076   8.253 -11.734  1.00  0.00    -0.000 C 
BRANCH   8   9
ATOM      9  C   UNL     1       0.982   9.773 -11.558  1.00  0.00    -0.003 C 
ATOM     10  C   UNL     1      -0.452  10.208 -11.275  1.00  0.00     0.004 C 
ENDBRANCH   8   9
ENDBRANCH   7   8
ENDBRANCH   1   7
TORSDOF 6
ENDMDL
MODEL 8
REMARK VINA RESULT:    -3.402      3.473      5.263
REMARK INTER + INTRA:          -4.988
REMARK INTER:                  -4.681
REMARK INTRA:                  -0.307
REMARK UNBOUND:                -0.393
REMARK SMILES CCCCCCCC(=O)[O-]
REMARK SMILES IDX 5 1 6 2 7 3 8 4 9 5 10 6 4 7 3 8 2 9 1 10
REMARK H PARENT
REMARK Flexibility Score: inf
ROOT
ATOM      1  C   UNL     1      -2.300   7.000  -9.813  1.00  0.00     0.000 C 
ENDROOT
BRANCH   1   2
ATOM      2  C   UNL     1      -2.301   8.072 -10.909  1.00  0.00     0.006 C 
BRANCH   2   3
ATOM      3  C   UNL     1      -3.169   9.268 -10.507  1.00  0.00     0.053 C 
BRANCH   3   4
ATOM      4  C   UNL     1      -4.568   9.092 -11.006  1.00  0.00     0.041 C 
ATOM      5  O   UNL     1      -4.807   8.305 -11.960  1.00  0.00    -0.550 OA
ATOM      6  O   UNL     1      -5.617   9.759 -10.386  1.00  0.00    -0.550 OA
ENDBRANCH   3   4
ENDBRANCH   2   3
ENDBRANCH   1   2
BRANCH   1   7
ATOM      7  C   UNL     1      -0.958   6.974  -9.070  1.00  0.00     0.000 C 
BRANCH   7   8
ATOM      8  C   UNL     1       0.212   7.169 -10.041  1.00  0.00    -0.000 C 
BRANCH   8   9
ATOM      9  C   UNL     1       1.413   7.809  -9.334  1.00  0.00    -0.003 C 
ATOM     10  C   UNL     1       1.422   7.469  -7.847  1.00  0.00     0.004 C 
ENDBRANCH   8   9
ENDBRANCH   7   8
ENDBRANCH   1   7
TORSDOF 6
ENDMDL
MODEL 9
REMARK VINA RESULT:    -3.380     15.549     16.862
REMARK INTER + INTRA:          -4.958
REMARK INTER:                  -4.754
REMARK INTRA:                  -0.203
REMARK UNBOUND:                -0.393
REMARK SMILES CCCCCCCC(=O)[O-]
REMARK SMILES IDX 5 1 6 2 7 3 8 4 9 5 10 6 4 7 3 8 2 9 1 10
REMARK H PARENT
REMARK Flexibility Score: inf
ROOT
ATOM      1  C   UNL     1       2.958  12.681   5.922  1.00  0.00     0.000 C 
ENDROOT
BRANCH   1   2
ATOM      2  C   UNL     1       4.456  13.005   5.928  1.00  0.00     0.006 C 
BRANCH   2   3
ATOM      3  C   UNL     1       5.214  12.086   6.891  1.00  0.00     0.053 C 
BRANCH   3   4
ATOM      4  C   UNL     1       5.795  10.921   6.156  1.00  0.00     0.041 C 
ATOM      5  O   UNL     1       5.140   9.851   6.042  1.00  0.00    -0.550 OA
ATOM      6  O   UNL     1       7.042  11.031   5.552  1.00  0.00    -0.550 OA
ENDBRANCH   3   4
ENDBRANCH   2   3
ENDBRANCH   1   2
BRANCH   1   7
ATOM      7  C   UNL     1       2.232  13.455   4.815  1.00  0.00     0.000 C 
BRANCH   7   8
ATOM      8  C   UNL     1       0.771  13.719   5.197  1.00  0.00    -0.000 C 
BRANCH   8   9
ATOM      9  C   UNL     1      -0.187  13.017   4.226  1.00  0.00    -0.003 C 
ATOM     10  C   UNL     1      -0.388  11.555   4.611  1.00  0.00     0.004 C 
ENDBRANCH   8   9
ENDBRANCH   7   8
ENDBRANCH   1   7
TORSDOF 6
ENDMDL
