MODEL 1
REMARK VINA RESULT:    -6.493      0.000      0.000
REMARK INTER + INTRA:          -8.119
REMARK INTER:                  -7.821
REMARK INTRA:                  -0.298
REMARK UNBOUND:                -0.298
REMARK SMILES O=c1c(O)c(-c2ccc(O)c(O)c2)oc2cc(O)cc(O)c12
REMARK SMILES IDX 5 1 3 2 2 3 1 4 22 5 20 6 19 7 17 8 16 9 15 10 14 11 6 12
REMARK SMILES IDX 7 13 8 14 9 15 13 16 11 17 10 18 12 20 4 22 21 24 18 26
REMARK H PARENT 10 19 12 21 4 23 21 25 18 27
REMARK Flexibility Score: inf
ROOT
ATOM      1  C   UNL     1      21.821  33.078   6.038  1.00  0.00     0.180 A 
ATOM      2  C   UNL     1      22.276  32.771   7.332  1.00  0.00     0.208 A 
ATOM      3  C   UNL     1      22.899  31.534   7.560  1.00  0.00     0.238 A 
ATOM      4  O   UNL     1      23.257  31.243   8.731  1.00  0.00    -0.285 OA
ATOM      5  C   UNL     1      23.074  30.625   6.488  1.00  0.00     0.111 A 
ATOM      6  C   UNL     1      23.727  29.361   6.596  1.00  0.00     0.134 A 
ATOM      7  C   UNL     1      23.728  28.488   5.501  1.00  0.00     0.093 A 
ATOM      8  C   UNL     1      23.154  28.860   4.283  1.00  0.00     0.123 A 
ATOM      9  C   UNL     1      22.567  30.116   4.151  1.00  0.00     0.094 A 
ATOM     10  C   UNL     1      22.519  30.995   5.236  1.00  0.00     0.146 A 
ATOM     11  O   UNL     1      21.940  32.177   5.069  1.00  0.00    -0.452 OA
ENDROOT
BRANCH   1  12
ATOM     12  C   UNL     1      21.177  34.371   5.716  1.00  0.00     0.025 A 
ATOM     13  C   UNL     1      21.948  35.411   5.176  1.00  0.00     0.016 A 
ATOM     14  C   UNL     1      21.365  36.645   4.884  1.00  0.00     0.051 A 
ATOM     15  C   UNL     1      20.008  36.871   5.137  1.00  0.00     0.157 A 
ATOM     16  C   UNL     1      19.819  34.603   5.992  1.00  0.00     0.062 A 
ATOM     17  C   UNL     1      19.225  35.838   5.706  1.00  0.00     0.158 A 
BRANCH  15  18
ATOM     18  O   UNL     1      19.484  38.125   4.815  1.00  0.00    -0.504 OA
ATOM     19  H   UNL     1      18.679  38.534   5.267  1.00  0.00     0.293 HD
ENDBRANCH  15  18
BRANCH  17  20
ATOM     20  O   UNL     1      17.870  35.996   6.005  1.00  0.00    -0.504 OA
ATOM     21  H   UNL     1      17.261  35.239   6.280  1.00  0.00     0.293 HD
ENDBRANCH  17  20
ENDBRANCH   1  12
BRANCH   2  22
ATOM     22  O   UNL     1      22.074  33.673   8.380  1.00  0.00    -0.502 OA
ATOM     23  H   UNL     1      22.727  34.419   8.590  1.00  0.00     0.293 HD
ENDBRANCH   2  22
BRANCH   6  24
ATOM     24  O   UNL     1      24.410  28.930   7.737  1.00  0.00    -0.507 OA
ATOM     25  H   UNL     1      24.257  28.046   8.199  1.00  0.00     0.293 HD
ENDBRANCH   6  24
BRANCH   8  26
ATOM     26  O   UNL     1      23.172  27.992   3.194  1.00  0.00    -0.508 OA
ATOM     27  H   UNL     1      23.440  27.020   3.295  1.00  0.00     0.293 HD
ENDBRANCH   8  26
TORSDOF 6
ENDMDL
MODEL 2
REMARK VINA RESULT:    -6.159      1.358      2.854
REMARK INTER + INTRA:          -7.717
REMARK INTER:                  -7.433
REMARK INTRA:                  -0.284
REMARK UNBOUND:                -0.298
REMARK SMILES O=c1c(O)c(-c2ccc(O)c(O)c2)oc2cc(O)cc(O)c12
REMARK SMILES IDX 5 1 3 2 2 3 1 4 22 5 20 6 19 7 17 8 16 9 15 10 14 11 6 12
REMARK SMILES IDX 7 13 8 14 9 15 13 16 11 17 10 18 12 20 4 22 21 24 18 26
REMARK H PARENT 10 19 12 21 4 23 21 25 18 27
REMARK Flexibility Score: inf
ROOT
ATOM      1  C   UNL     1      22.178  32.670   5.352  1.00  0.00     0.180 A 
ATOM      2  C   UNL     1      21.893  31.708   4.368  1.00  0.00     0.208 A 
ATOM      3  C   UNL     1      22.508  30.449   4.446  1.00  0.00     0.238 A 
ATOM      4  O   UNL     1      22.290  29.610   3.534  1.00  0.00    -0.285 OA
ATOM      5  C   UNL     1      23.388  30.160   5.518  1.00  0.00     0.111 A 
ATOM      6  C   UNL     1      24.035  28.904   5.720  1.00  0.00     0.134 A 
ATOM      7  C   UNL     1      24.985  28.772   6.739  1.00  0.00     0.093 A 
ATOM      8  C   UNL     1      25.264  29.833   7.605  1.00  0.00     0.123 A 
ATOM      9  C   UNL     1      24.594  31.044   7.453  1.00  0.00     0.094 A 
ATOM     10  C   UNL     1      23.666  31.217   6.422  1.00  0.00     0.146 A 
ATOM     11  O   UNL     1      23.059  32.391   6.307  1.00  0.00    -0.452 OA
ENDROOT
BRANCH   1  12
ATOM     12  C   UNL     1      21.550  34.011   5.349  1.00  0.00     0.025 A 
ATOM     13  C   UNL     1      22.314  35.130   4.990  1.00  0.00     0.016 A 
ATOM     14  C   UNL     1      21.747  36.405   5.001  1.00  0.00     0.051 A 
ATOM     15  C   UNL     1      20.414  36.591   5.383  1.00  0.00     0.157 A 
ATOM     16  C   UNL     1      20.218  34.196   5.755  1.00  0.00     0.062 A 
ATOM     17  C   UNL     1      19.640  35.472   5.772  1.00  0.00     0.158 A 
BRANCH  15  18
ATOM     18  O   UNL     1      19.905  37.891   5.364  1.00  0.00    -0.504 OA
ATOM     19  H   UNL     1      20.085  38.558   4.628  1.00  0.00     0.293 HD
ENDBRANCH  15  18
BRANCH  17  20
ATOM     20  O   UNL     1      18.311  35.581   6.185  1.00  0.00    -0.504 OA
ATOM     21  H   UNL     1      17.983  35.328   7.106  1.00  0.00     0.293 HD
ENDBRANCH  17  20
ENDBRANCH   1  12
BRANCH   2  22
ATOM     22  O   UNL     1      21.038  32.021   3.307  1.00  0.00    -0.502 OA
ATOM     23  H   UNL     1      20.114  32.411   3.449  1.00  0.00     0.293 HD
ENDBRANCH   2  22
BRANCH   6  24
ATOM     24  O   UNL     1      23.761  27.756   4.971  1.00  0.00    -0.507 OA
ATOM     25  H   UNL     1      24.460  27.173   4.536  1.00  0.00     0.293 HD
ENDBRANCH   6  24
BRANCH   8  26
ATOM     26  O   UNL     1      26.200  29.689   8.627  1.00  0.00    -0.508 OA
ATOM     27  H   UNL     1      27.134  30.076   8.549  1.00  0.00     0.293 HD
ENDBRANCH   8  26
TORSDOF 6
ENDMDL
MODEL 3
REMARK VINA RESULT:    -5.996      1.203      1.386
REMARK INTER + INTRA:          -7.521
REMARK INTER:                  -7.213
REMARK INTRA:                  -0.309
REMARK UNBOUND:                -0.298
REMARK SMILES O=c1c(O)c(-c2ccc(O)c(O)c2)oc2cc(O)cc(O)c12
REMARK SMILES IDX 5 1 3 2 2 3 1 4 22 5 20 6 19 7 17 8 16 9 15 10 14 11 6 12
REMARK SMILES IDX 7 13 8 14 9 15 13 16 11 17 10 18 12 20 4 22 21 24 18 26
REMARK H PARENT 10 19 12 21 4 23 21 25 18 27
REMARK Flexibility Score: inf
ROOT
ATOM      1  C   UNL     1      22.364  32.398   6.664  1.00  0.00     0.180 A 
ATOM      2  C   UNL     1      23.240  32.446   7.762  1.00  0.00     0.208 A 
ATOM      3  C   UNL     1      24.095  31.359   8.000  1.00  0.00     0.238 A 
ATOM      4  O   UNL     1      24.839  31.385   9.015  1.00  0.00    -0.285 OA
ATOM      5  C   UNL     1      24.077  30.244   7.127  1.00  0.00     0.111 A 
ATOM      6  C   UNL     1      24.928  29.105   7.249  1.00  0.00     0.134 A 
ATOM      7  C   UNL     1      24.733  28.003   6.407  1.00  0.00     0.093 A 
ATOM      8  C   UNL     1      23.760  28.026   5.406  1.00  0.00     0.123 A 
ATOM      9  C   UNL     1      22.964  29.157   5.240  1.00  0.00     0.094 A 
ATOM     10  C   UNL     1      23.110  30.258   6.088  1.00  0.00     0.146 A 
ATOM     11  O   UNL     1      22.324  31.310   5.903  1.00  0.00    -0.452 OA
ENDROOT
BRANCH   1  12
ATOM     12  C   UNL     1      21.451  33.516   6.335  1.00  0.00     0.025 A 
ATOM     13  C   UNL     1      21.856  34.489   5.410  1.00  0.00     0.016 A 
ATOM     14  C   UNL     1      21.018  35.562   5.102  1.00  0.00     0.051 A 
ATOM     15  C   UNL     1      19.769  35.694   5.719  1.00  0.00     0.157 A 
ATOM     16  C   UNL     1      20.207  33.658   6.973  1.00  0.00     0.062 A 
ATOM     17  C   UNL     1      19.361  34.732   6.673  1.00  0.00     0.158 A 
BRANCH  15  18
ATOM     18  O   UNL     1      18.976  36.786   5.360  1.00  0.00    -0.504 OA
ATOM     19  H   UNL     1      18.512  36.878   4.469  1.00  0.00     0.293 HD
ENDBRANCH  15  18
BRANCH  17  20
ATOM     20  O   UNL     1      18.139  34.807   7.344  1.00  0.00    -0.504 OA
ATOM     21  H   UNL     1      17.979  34.435   8.270  1.00  0.00     0.293 HD
ENDBRANCH  17  20
ENDBRANCH   1  12
BRANCH   2  22
ATOM     22  O   UNL     1      23.227  33.547   8.624  1.00  0.00    -0.502 OA
ATOM     23  H   UNL     1      22.766  33.527   9.526  1.00  0.00     0.293 HD
ENDBRANCH   2  22
BRANCH   6  24
ATOM     24  O   UNL     1      25.990  29.018   8.154  1.00  0.00    -0.507 OA
ATOM     25  H   UNL     1      26.953  28.859   7.897  1.00  0.00     0.293 HD
ENDBRANCH   6  24
BRANCH   8  26
ATOM     26  O   UNL     1      23.582  26.932   4.561  1.00  0.00    -0.508 OA
ATOM     27  H   UNL     1      23.792  26.987   3.571  1.00  0.00     0.293 HD
ENDBRANCH   8  26
TORSDOF 6
ENDMDL
MODEL 4
REMARK VINA RESULT:    -5.891      1.776      7.220
REMARK INTER + INTRA:          -7.394
REMARK INTER:                  -7.096
REMARK INTRA:                  -0.298
REMARK UNBOUND:                -0.298
REMARK SMILES O=c1c(O)c(-c2ccc(O)c(O)c2)oc2cc(O)cc(O)c12
REMARK SMILES IDX 5 1 3 2 2 3 1 4 22 5 20 6 19 7 17 8 16 9 15 10 14 11 6 12
REMARK SMILES IDX 7 13 8 14 9 15 13 16 11 17 10 18 12 20 4 22 21 24 18 26
REMARK H PARENT 10 19 12 21 4 23 21 25 18 27
REMARK Flexibility Score: inf
ROOT
ATOM      1  C   UNL     1      22.318  32.894   6.424  1.00  0.00     0.180 A 
ATOM      2  C   UNL     1      22.562  33.832   5.407  1.00  0.00     0.208 A 
ATOM      3  C   UNL     1      21.820  35.024   5.386  1.00  0.00     0.238 A 
ATOM      4  O   UNL     1      22.006  35.836   4.443  1.00  0.00    -0.285 OA
ATOM      5  C   UNL     1      20.854  35.270   6.392  1.00  0.00     0.111 A 
ATOM      6  C   UNL     1      20.073  36.460   6.492  1.00  0.00     0.134 A 
ATOM      7  C   UNL     1      19.056  36.540   7.451  1.00  0.00     0.093 A 
ATOM      8  C   UNL     1      18.835  35.498   8.355  1.00  0.00     0.123 A 
ATOM      9  C   UNL     1      19.632  34.357   8.303  1.00  0.00     0.094 A 
ATOM     10  C   UNL     1      20.631  34.233   7.334  1.00  0.00     0.146 A 
ATOM     11  O   UNL     1      21.360  33.124   7.314  1.00  0.00    -0.452 OA
ENDROOT
BRANCH   1  12
ATOM     12  C   UNL     1      23.077  31.627   6.525  1.00  0.00     0.025 A 
ATOM     13  C   UNL     1      22.702  30.532   5.734  1.00  0.00     0.016 A 
ATOM     14  C   UNL     1      23.391  29.322   5.829  1.00  0.00     0.051 A 
ATOM     15  C   UNL     1      24.457  29.175   6.724  1.00  0.00     0.157 A 
ATOM     16  C   UNL     1      24.132  31.476   7.441  1.00  0.00     0.062 A 
ATOM     17  C   UNL     1      24.828  30.266   7.546  1.00  0.00     0.158 A 
BRANCH  15  18
ATOM     18  O   UNL     1      25.110  27.942   6.765  1.00  0.00    -0.504 OA
ATOM     19  H   UNL     1      24.868  27.155   6.181  1.00  0.00     0.293 HD
ENDBRANCH  15  18
BRANCH  17  20
ATOM     20  O   UNL     1      25.867  30.189   8.476  1.00  0.00    -0.504 OA
ATOM     21  H   UNL     1      26.817  30.476   8.287  1.00  0.00     0.293 HD
ENDBRANCH  17  20
ENDBRANCH   1  12
BRANCH   2  22
ATOM     22  O   UNL     1      23.505  33.560   4.411  1.00  0.00    -0.502 OA
ATOM     23  H   UNL     1      23.733  32.617   4.121  1.00  0.00     0.293 HD
ENDBRANCH   2  22
BRANCH   6  24
ATOM     24  O   UNL     1      20.273  37.594   5.699  1.00  0.00    -0.507 OA
ATOM     25  H   UNL     1      19.598  37.969   5.051  1.00  0.00     0.293 HD
ENDBRANCH   6  24
BRANCH   8  26
ATOM     26  O   UNL     1      17.831  35.592   9.316  1.00  0.00    -0.508 OA
ATOM     27  H   UNL     1      17.616  36.470   9.774  1.00  0.00     0.293 HD
ENDBRANCH   8  26
TORSDOF 6
ENDMDL
MODEL 5
REMARK VINA RESULT:    -5.876      1.999      3.318
REMARK INTER + INTRA:          -7.377
REMARK INTER:                  -7.648
REMARK INTRA:                   0.271
REMARK UNBOUND:                -0.298
REMARK SMILES O=c1c(O)c(-c2ccc(O)c(O)c2)oc2cc(O)cc(O)c12
REMARK SMILES IDX 5 1 3 2 2 3 1 4 22 5 20 6 19 7 17 8 16 9 15 10 14 11 6 12
REMARK SMILES IDX 7 13 8 14 9 15 13 16 11 17 10 18 12 20 4 22 21 24 18 26
REMARK H PARENT 10 19 12 21 4 23 21 25 18 27
REMARK Flexibility Score: inf
ROOT
ATOM      1  C   UNL     1      22.387  33.178   6.267  1.00  0.00     0.180 A 
ATOM      2  C   UNL     1      22.723  33.130   4.903  1.00  0.00     0.208 A 
ATOM      3  C   UNL     1      23.713  32.231   4.477  1.00  0.00     0.238 A 
ATOM      4  O   UNL     1      24.047  32.229   3.264  1.00  0.00    -0.285 OA
ATOM      5  C   UNL     1      24.344  31.380   5.416  1.00  0.00     0.111 A 
ATOM      6  C   UNL     1      25.332  30.403   5.090  1.00  0.00     0.134 A 
ATOM      7  C   UNL     1      25.982  29.708   6.117  1.00  0.00     0.093 A 
ATOM      8  C   UNL     1      25.634  29.909   7.455  1.00  0.00     0.123 A 
ATOM      9  C   UNL     1      24.629  30.817   7.779  1.00  0.00     0.094 A 
ATOM     10  C   UNL     1      23.987  31.552   6.779  1.00  0.00     0.146 A 
ATOM     11  O   UNL     1      23.043  32.414   7.133  1.00  0.00    -0.452 OA
ENDROOT
BRANCH   1  12
ATOM     12  C   UNL     1      21.336  34.082   6.788  1.00  0.00     0.025 A 
ATOM     13  C   UNL     1      21.384  34.497   8.127  1.00  0.00     0.016 A 
ATOM     14  C   UNL     1      20.392  35.333   8.643  1.00  0.00     0.051 A 
ATOM     15  C   UNL     1      19.328  35.758   7.842  1.00  0.00     0.157 A 
ATOM     16  C   UNL     1      20.256  34.489   5.986  1.00  0.00     0.062 A 
ATOM     17  C   UNL     1      19.255  35.325   6.496  1.00  0.00     0.158 A 
BRANCH  15  18
ATOM     18  O   UNL     1      18.373  36.600   8.416  1.00  0.00    -0.504 OA
ATOM     19  H   UNL     1      17.958  37.389   7.943  1.00  0.00     0.293 HD
ENDBRANCH  15  18
BRANCH  17  20
ATOM     20  O   UNL     1      18.213  35.691   5.641  1.00  0.00    -0.504 OA
ATOM     21  H   UNL     1      18.204  36.540   5.094  1.00  0.00     0.293 HD
ENDBRANCH  17  20
ENDBRANCH   1  12
BRANCH   2  22
ATOM     22  O   UNL     1      22.103  33.994   3.996  1.00  0.00    -0.502 OA
ATOM     23  H   UNL     1      21.102  33.992   3.839  1.00  0.00     0.293 HD
ENDBRANCH   2  22
BRANCH   6  24
ATOM     24  O   UNL     1      25.687  30.059   3.782  1.00  0.00    -0.507 OA
ATOM     25  H   UNL     1      25.762  29.115   3.436  1.00  0.00     0.293 HD
ENDBRANCH   6  24
BRANCH   8  26
ATOM     26  O   UNL     1      26.274  29.201   8.470  1.00  0.00    -0.508 OA
ATOM     27  H   UNL     1      25.942  29.230   9.428  1.00  0.00     0.293 HD
ENDBRANCH   8  26
TORSDOF 6
ENDMDL
MODEL 6
REMARK VINA RESULT:    -5.461      2.108      7.164
REMARK INTER + INTRA:          -6.876
REMARK INTER:                  -6.922
REMARK INTRA:                   0.045
REMARK UNBOUND:                -0.298
REMARK SMILES O=c1c(O)c(-c2ccc(O)c(O)c2)oc2cc(O)cc(O)c12
REMARK SMILES IDX 5 1 3 2 2 3 1 4 22 5 20 6 19 7 17 8 16 9 15 10 14 11 6 12
REMARK SMILES IDX 7 13 8 14 9 15 13 16 11 17 10 18 12 20 4 22 21 24 18 26
REMARK H PARENT 10 19 12 21 4 23 21 25 18 27
REMARK Flexibility Score: inf
ROOT
ATOM      1  C   UNL     1      23.020  31.975   6.240  1.00  0.00     0.180 A 
ATOM      2  C   UNL     1      22.003  31.807   5.285  1.00  0.00     0.208 A 
ATOM      3  C   UNL     1      20.870  32.634   5.343  1.00  0.00     0.238 A 
ATOM      4  O   UNL     1      19.939  32.443   4.518  1.00  0.00    -0.285 OA
ATOM      5  C   UNL     1      20.775  33.630   6.345  1.00  0.00     0.111 A 
ATOM      6  C   UNL     1      19.691  34.550   6.473  1.00  0.00     0.134 A 
ATOM      7  C   UNL     1      19.639  35.406   7.580  1.00  0.00     0.093 A 
ATOM      8  C   UNL     1      20.665  35.420   8.528  1.00  0.00     0.123 A 
ATOM      9  C   UNL     1      21.756  34.568   8.379  1.00  0.00     0.094 A 
ATOM     10  C   UNL     1      21.819  33.676   7.305  1.00  0.00     0.146 A 
ATOM     11  O   UNL     1      22.871  32.874   7.207  1.00  0.00    -0.452 OA
ENDROOT
BRANCH   1  12
ATOM     12  C   UNL     1      24.255  31.158   6.229  1.00  0.00     0.025 A 
ATOM     13  C   UNL     1      24.957  30.987   5.027  1.00  0.00     0.016 A 
ATOM     14  C   UNL     1      26.112  30.203   4.990  1.00  0.00     0.051 A 
ATOM     15  C   UNL     1      26.580  29.565   6.144  1.00  0.00     0.157 A 
ATOM     16  C   UNL     1      24.709  30.501   7.384  1.00  0.00     0.062 A 
ATOM     17  C   UNL     1      25.864  29.711   7.357  1.00  0.00     0.158 A 
BRANCH  15  18
ATOM     18  O   UNL     1      27.745  28.803   6.042  1.00  0.00    -0.504 OA
ATOM     19  H   UNL     1      27.875  28.057   5.374  1.00  0.00     0.293 HD
ENDBRANCH  15  18
BRANCH  17  20
ATOM     20  O   UNL     1      26.258  29.089   8.543  1.00  0.00    -0.504 OA
ATOM     21  H   UNL     1      26.912  28.320   8.588  1.00  0.00     0.293 HD
ENDBRANCH  17  20
ENDBRANCH   1  12
BRANCH   2  22
ATOM     22  O   UNL     1      22.106  30.804   4.318  1.00  0.00    -0.502 OA
ATOM     23  H   UNL     1      21.853  29.841   4.503  1.00  0.00     0.293 HD
ENDBRANCH   2  22
BRANCH   6  24
ATOM     24  O   UNL     1      18.664  34.682   5.534  1.00  0.00    -0.507 OA
ATOM     25  H   UNL     1      18.654  35.356   4.784  1.00  0.00     0.293 HD
ENDBRANCH   6  24
BRANCH   8  26
ATOM     26  O   UNL     1      20.614  36.287   9.618  1.00  0.00    -0.508 OA
ATOM     27  H   UNL     1      20.040  36.085  10.429  1.00  0.00     0.293 HD
ENDBRANCH   8  26
TORSDOF 6
ENDMDL
MODEL 7
REMARK VINA RESULT:    -5.376      2.628      4.120
REMARK INTER + INTRA:          -6.774
REMARK INTER:                  -6.849
REMARK INTRA:                   0.075
REMARK UNBOUND:                -0.298
REMARK SMILES O=c1c(O)c(-c2ccc(O)c(O)c2)oc2cc(O)cc(O)c12
REMARK SMILES IDX 5 1 3 2 2 3 1 4 22 5 20 6 19 7 17 8 16 9 15 10 14 11 6 12
REMARK SMILES IDX 7 13 8 14 9 15 13 16 11 17 10 18 12 20 4 22 21 24 18 26
REMARK H PARENT 10 19 12 21 4 23 21 25 18 27
REMARK Flexibility Score: inf
ROOT
ATOM      1  C   UNL     1      23.710  31.768   6.272  1.00  0.00     0.180 A 
ATOM      2  C   UNL     1      24.142  31.757   4.935  1.00  0.00     0.208 A 
ATOM      3  C   UNL     1      25.235  30.952   4.578  1.00  0.00     0.238 A 
ATOM      4  O   UNL     1      25.650  30.987   3.390  1.00  0.00    -0.285 OA
ATOM      5  C   UNL     1      25.874  30.156   5.559  1.00  0.00     0.111 A 
ATOM      6  C   UNL     1      26.965  29.273   5.302  1.00  0.00     0.134 A 
ATOM      7  C   UNL     1      27.603  28.633   6.372  1.00  0.00     0.093 A 
ATOM      8  C   UNL     1      27.147  28.795   7.683  1.00  0.00     0.123 A 
ATOM      9  C   UNL     1      26.046  29.608   7.937  1.00  0.00     0.094 A 
ATOM     10  C   UNL     1      25.411  30.288   6.894  1.00  0.00     0.146 A 
ATOM     11  O   UNL     1      24.371  31.061   7.182  1.00  0.00    -0.452 OA
ENDROOT
BRANCH   1  12
ATOM     12  C   UNL     1      22.549  32.572   6.719  1.00  0.00     0.025 A 
ATOM     13  C   UNL     1      22.605  33.239   7.951  1.00  0.00     0.016 A 
ATOM     14  C   UNL     1      21.515  33.985   8.400  1.00  0.00     0.051 A 
ATOM     15  C   UNL     1      20.344  34.069   7.638  1.00  0.00     0.157 A 
ATOM     16  C   UNL     1      21.367  32.635   5.962  1.00  0.00     0.062 A 
ATOM     17  C   UNL     1      20.267  33.379   6.405  1.00  0.00     0.158 A 
BRANCH  15  18
ATOM     18  O   UNL     1      19.292  34.839   8.140  1.00  0.00    -0.504 OA
ATOM     19  H   UNL     1      18.575  34.482   8.755  1.00  0.00     0.293 HD
ENDBRANCH  15  18
BRANCH  17  20
ATOM     20  O   UNL     1      19.126  33.399   5.600  1.00  0.00    -0.504 OA
ATOM     21  H   UNL     1      18.524  32.601   5.455  1.00  0.00     0.293 HD
ENDBRANCH  17  20
ENDBRANCH   1  12
BRANCH   2  22
ATOM     22  O   UNL     1      23.511  32.567   3.986  1.00  0.00    -0.502 OA
ATOM     23  H   UNL     1      22.644  32.301   3.533  1.00  0.00     0.293 HD
ENDBRANCH   2  22
BRANCH   6  24
ATOM     24  O   UNL     1      27.439  28.969   4.022  1.00  0.00    -0.507 OA
ATOM     25  H   UNL     1      28.380  29.141   3.702  1.00  0.00     0.293 HD
ENDBRANCH   6  24
BRANCH   8  26
ATOM     26  O   UNL     1      27.778  28.143   8.740  1.00  0.00    -0.508 OA
ATOM     27  H   UNL     1      28.399  27.358   8.584  1.00  0.00     0.293 HD
ENDBRANCH   8  26
TORSDOF 6
ENDMDL
MODEL 8
REMARK VINA RESULT:    -5.211      1.785      6.714
REMARK INTER + INTRA:          -6.576
REMARK INTER:                  -6.258
REMARK INTRA:                  -0.318
REMARK UNBOUND:                -0.298
REMARK SMILES O=c1c(O)c(-c2ccc(O)c(O)c2)oc2cc(O)cc(O)c12
REMARK SMILES IDX 5 1 3 2 2 3 1 4 22 5 20 6 19 7 17 8 16 9 15 10 14 11 6 12
REMARK SMILES IDX 7 13 8 14 9 15 13 16 11 17 10 18 12 20 4 22 21 24 18 26
REMARK H PARENT 10 19 12 21 4 23 21 25 18 27
REMARK Flexibility Score: inf
ROOT
ATOM      1  C   UNL     1      22.867  32.346   5.890  1.00  0.00     0.180 A 
ATOM      2  C   UNL     1      22.779  32.279   7.291  1.00  0.00     0.208 A 
ATOM      3  C   UNL     1      22.116  33.305   7.982  1.00  0.00     0.238 A 
ATOM      4  O   UNL     1      22.087  33.267   9.240  1.00  0.00    -0.285 OA
ATOM      5  C   UNL     1      21.534  34.378   7.263  1.00  0.00     0.111 A 
ATOM      6  C   UNL     1      20.805  35.451   7.857  1.00  0.00     0.134 A 
ATOM      7  C   UNL     1      20.386  36.525   7.063  1.00  0.00     0.093 A 
ATOM      8  C   UNL     1      20.616  36.533   5.685  1.00  0.00     0.123 A 
ATOM      9  C   UNL     1      21.275  35.462   5.087  1.00  0.00     0.094 A 
ATOM     10  C   UNL     1      21.736  34.393   5.859  1.00  0.00     0.146 A 
ATOM     11  O   UNL     1      22.369  33.398   5.250  1.00  0.00    -0.452 OA
ENDROOT
BRANCH   1  12
ATOM     12  C   UNL     1      23.528  31.289   5.091  1.00  0.00     0.025 A 
ATOM     13  C   UNL     1      22.805  30.143   4.730  1.00  0.00     0.016 A 
ATOM     14  C   UNL     1      23.416  29.126   3.994  1.00  0.00     0.051 A 
ATOM     15  C   UNL     1      24.760  29.225   3.617  1.00  0.00     0.157 A 
ATOM     16  C   UNL     1      24.884  31.382   4.734  1.00  0.00     0.062 A 
ATOM     17  C   UNL     1      25.506  30.366   3.998  1.00  0.00     0.158 A 
BRANCH  15  18
ATOM     18  O   UNL     1      25.309  28.177   2.875  1.00  0.00    -0.504 OA
ATOM     19  H   UNL     1      25.527  28.235   1.891  1.00  0.00     0.293 HD
ENDBRANCH  15  18
BRANCH  17  20
ATOM     20  O   UNL     1      26.855  30.526   3.677  1.00  0.00    -0.504 OA
ATOM     21  H   UNL     1      27.322  30.024   2.934  1.00  0.00     0.293 HD
ENDBRANCH  17  20
ENDBRANCH   1  12
BRANCH   2  22
ATOM     22  O   UNL     1      23.378  31.223   7.983  1.00  0.00    -0.502 OA
ATOM     23  H   UNL     1      22.841  30.485   8.422  1.00  0.00     0.293 HD
ENDBRANCH   2  22
BRANCH   6  24
ATOM     24  O   UNL     1      20.442  35.495   9.207  1.00  0.00    -0.507 OA
ATOM     25  H   UNL     1      19.639  35.986   9.571  1.00  0.00     0.293 HD
ENDBRANCH   6  24
BRANCH   8  26
ATOM     26  O   UNL     1      20.183  37.599   4.898  1.00  0.00    -0.508 OA
ATOM     27  H   UNL     1      20.213  38.554   5.236  1.00  0.00     0.293 HD
ENDBRANCH   8  26
TORSDOF 6
ENDMDL
MODEL 9
REMARK VINA RESULT:    -5.060      2.178      3.270
REMARK INTER + INTRA:          -6.393
REMARK INTER:                  -6.344
REMARK INTRA:                  -0.049
REMARK UNBOUND:                -0.298
REMARK SMILES O=c1c(O)c(-c2ccc(O)c(O)c2)oc2cc(O)cc(O)c12
REMARK SMILES IDX 5 1 3 2 2 3 1 4 22 5 20 6 19 7 17 8 16 9 15 10 14 11 6 12
REMARK SMILES IDX 7 13 8 14 9 15 13 16 11 17 10 18 12 20 4 22 21 24 18 26
REMARK H PARENT 10 19 12 21 4 23 21 25 18 27
REMARK Flexibility Score: inf
ROOT
ATOM      1  C   UNL     1      23.444  30.809   6.884  1.00  0.00     0.180 A 
ATOM      2  C   UNL     1      24.639  30.502   7.559  1.00  0.00     0.208 A 
ATOM      3  C   UNL     1      25.234  29.248   7.355  1.00  0.00     0.238 A 
ATOM      4  O   UNL     1      26.274  28.959   8.002  1.00  0.00    -0.285 OA
ATOM      5  C   UNL     1      24.637  28.320   6.467  1.00  0.00     0.111 A 
ATOM      6  C   UNL     1      25.175  27.035   6.154  1.00  0.00     0.134 A 
ATOM      7  C   UNL     1      24.432  26.150   5.364  1.00  0.00     0.093 A 
ATOM      8  C   UNL     1      23.201  26.527   4.822  1.00  0.00     0.123 A 
ATOM      9  C   UNL     1      22.696  27.800   5.073  1.00  0.00     0.094 A 
ATOM     10  C   UNL     1      23.397  28.694   5.887  1.00  0.00     0.146 A 
ATOM     11  O   UNL     1      22.874  29.893   6.109  1.00  0.00    -0.452 OA
ENDROOT
BRANCH   1  12
ATOM     12  C   UNL     1      22.772  32.120   7.029  1.00  0.00     0.025 A 
ATOM     13  C   UNL     1      22.376  32.555   8.302  1.00  0.00     0.016 A 
ATOM     14  C   UNL     1      21.722  33.778   8.457  1.00  0.00     0.051 A 
ATOM     15  C   UNL     1      21.437  34.583   7.349  1.00  0.00     0.157 A 
ATOM     16  C   UNL     1      22.467  32.914   5.911  1.00  0.00     0.062 A 
ATOM     17  C   UNL     1      21.809  34.142   6.057  1.00  0.00     0.158 A 
BRANCH  15  18
ATOM     18  O   UNL     1      20.788  35.799   7.574  1.00  0.00    -0.504 OA
ATOM     19  H   UNL     1      19.872  36.025   7.214  1.00  0.00     0.293 HD
ENDBRANCH  15  18
BRANCH  17  20
ATOM     20  O   UNL     1      21.541  34.880   4.902  1.00  0.00    -0.504 OA
ATOM     21  H   UNL     1      22.216  35.047   4.170  1.00  0.00     0.293 HD
ENDBRANCH  17  20
ENDBRANCH   1  12
BRANCH   2  22
ATOM     22  O   UNL     1      25.200  31.424   8.447  1.00  0.00    -0.502 OA
ATOM     23  H   UNL     1      25.871  31.156   9.157  1.00  0.00     0.293 HD
ENDBRANCH   2  22
BRANCH   6  24
ATOM     24  O   UNL     1      26.435  26.595   6.568  1.00  0.00    -0.507 OA
ATOM     25  H   UNL     1      27.262  27.172   6.604  1.00  0.00     0.293 HD
ENDBRANCH   6  24
BRANCH   8  26
ATOM     26  O   UNL     1      22.476  25.645   4.023  1.00  0.00    -0.508 OA
ATOM     27  H   UNL     1      22.190  25.894   3.083  1.00  0.00     0.293 HD
ENDBRANCH   8  26
TORSDOF 6
ENDMDL
