MODEL 1
REMARK VINA RESULT:    -6.110      0.000      0.000
REMARK INTER + INTRA:         -10.334
REMARK INTER:                  -9.324
REMARK INTRA:                  -1.010
REMARK UNBOUND:                -1.010
REMARK SMILES OC[C@@H]1O[C@H](O[C@]2(CO)O[C@H](CO)[C@@H](O)[C@@H]2O)[C@H](O)[C@H](O)[C@H]1O
REMARK SMILES IDX 6 1 5 2 3 3 22 4 4 5 20 6 18 7 2 8 1 9 23 11 21 13 19 15
REMARK SMILES IDX 7 17 16 18 10 19 14 20 11 21 8 22 9 23 17 25 15 27 12 29
REMARK SMILES IDX 13 30
REMARK H PARENT 1 10 23 12 21 14 19 16 9 24 17 26 15 28 13 31
REMARK Flexibility Score: inf
ROOT
ATOM      1  O   UNL     1     122.524 130.002 148.112  1.00  0.00    -0.313 OA
ENDROOT
BRANCH   1   2
ATOM      2  C   UNL     1     121.107 130.071 148.046  1.00  0.00     0.285 C 
ATOM      3  C   UNL     1     120.420 127.872 148.770  1.00  0.00     0.178 C 
ATOM      4  C   UNL     1     121.213 128.220 150.062  1.00  0.00     0.177 C 
ATOM      5  O   UNL     1     120.568 128.801 147.697  1.00  0.00    -0.341 OA
ATOM      6  C   UNL     1     120.876 129.649 150.552  1.00  0.00     0.179 C 
ATOM      7  C   UNL     1     120.538 130.597 149.375  1.00  0.00     0.202 C 
BRANCH   3   8
ATOM      8  C   UNL     1     120.825 126.482 148.255  1.00  0.00     0.191 C 
BRANCH   8   9
ATOM      9  O   UNL     1     122.164 126.213 148.570  1.00  0.00    -0.394 OA
ATOM     10  H   UNL     1     122.641 127.083 148.557  1.00  0.00     0.210 HD
ENDBRANCH   8   9
ENDBRANCH   3   8
BRANCH   4  11
ATOM     11  O   UNL     1     120.972 127.283 151.084  1.00  0.00    -0.387 OA
ATOM     12  H   UNL     1     121.439 127.600 151.901  1.00  0.00     0.211 HD
ENDBRANCH   4  11
BRANCH   6  13
ATOM     13  O   UNL     1     121.920 130.150 151.352  1.00  0.00    -0.387 OA
ATOM     14  H   UNL     1     122.779 129.857 150.945  1.00  0.00     0.211 HD
ENDBRANCH   6  13
BRANCH   7  15
ATOM     15  O   UNL     1     121.019 131.897 149.615  1.00  0.00    -0.385 OA
ATOM     16  H   UNL     1     120.432 132.516 149.110  1.00  0.00     0.211 HD
ENDBRANCH   7  15
ENDBRANCH   1   2
BRANCH   1  17
ATOM     17  C   UNL     1     123.187 130.847 147.171  1.00  0.00     0.224 C 
ATOM     18  C   UNL     1     123.441 130.044 145.877  1.00  0.00     0.208 C 
ATOM     19  O   UNL     1     122.394 131.970 146.820  1.00  0.00    -0.337 OA
ATOM     20  C   UNL     1     123.150 131.036 144.759  1.00  0.00     0.180 C 
ATOM     21  C   UNL     1     122.682 132.302 145.484  1.00  0.00     0.179 C 
BRANCH  17  22
ATOM     22  C   UNL     1     124.519 131.339 147.789  1.00  0.00     0.225 C 
BRANCH  22  23
ATOM     23  O   UNL     1     124.875 130.553 148.896  1.00  0.00    -0.391 OA
ATOM     24  H   UNL     1     125.234 129.697 148.545  1.00  0.00     0.210 HD
ENDBRANCH  22  23
ENDBRANCH  17  22
BRANCH  18  25
ATOM     25  O   UNL     1     122.557 128.954 145.790  1.00  0.00    -0.385 OA
ATOM     26  H   UNL     1     122.606 128.618 144.857  1.00  0.00     0.211 HD
ENDBRANCH  18  25
BRANCH  20  27
ATOM     27  O   UNL     1     124.283 131.280 143.960  1.00  0.00    -0.387 OA
ATOM     28  H   UNL     1     124.046 131.969 143.286  1.00  0.00     0.211 HD
ENDBRANCH  20  27
BRANCH  21  29
ATOM     29  C   UNL     1     121.435 132.916 144.842  1.00  0.00     0.191 C 
BRANCH  29  30
ATOM     30  O   UNL     1     121.300 134.254 145.236  1.00  0.00    -0.394 OA
ATOM     31  H   UNL     1     120.775 134.241 146.078  1.00  0.00     0.210 HD
ENDBRANCH  29  30
ENDBRANCH  21  29
ENDBRANCH   1  17
TORSDOF 13
ENDMDL
MODEL 2
REMARK VINA RESULT:    -6.046      1.369      2.660
REMARK INTER + INTRA:         -10.236
REMARK INTER:                  -9.735
REMARK INTRA:                  -0.501
REMARK UNBOUND:                -1.010
REMARK SMILES OC[C@@H]1O[C@H](O[C@]2(CO)O[C@H](CO)[C@@H](O)[C@@H]2O)[C@H](O)[C@H](O)[C@H]1O
REMARK SMILES IDX 6 1 5 2 3 3 22 4 4 5 20 6 18 7 2 8 1 9 23 11 21 13 19 15
REMARK SMILES IDX 7 17 16 18 10 19 14 20 11 21 8 22 9 23 17 25 15 27 12 29
REMARK SMILES IDX 13 30
REMARK H PARENT 1 10 23 12 21 14 19 16 9 24 17 26 15 28 13 31
REMARK Flexibility Score: inf
ROOT
ATOM      1  O   UNL     1     122.325 130.114 147.701  1.00  0.00    -0.313 OA
ENDROOT
BRANCH   1   2
ATOM      2  C   UNL     1     123.127 129.644 148.774  1.00  0.00     0.285 C 
ATOM      3  C   UNL     1     121.492 128.962 150.416  1.00  0.00     0.178 C 
ATOM      4  C   UNL     1     120.979 128.024 149.287  1.00  0.00     0.177 C 
ATOM      5  O   UNL     1     122.486 129.906 150.018  1.00  0.00    -0.341 OA
ATOM      6  C   UNL     1     122.154 127.291 148.596  1.00  0.00     0.179 C 
ATOM      7  C   UNL     1     123.443 128.150 148.588  1.00  0.00     0.202 C 
BRANCH   3   8
ATOM      8  C   UNL     1     120.321 129.738 151.038  1.00  0.00     0.191 C 
BRANCH   8   9
ATOM      9  O   UNL     1     119.875 129.102 152.205  1.00  0.00    -0.394 OA
ATOM     10  H   UNL     1     120.675 128.701 152.635  1.00  0.00     0.210 HD
ENDBRANCH   8   9
ENDBRANCH   3   8
BRANCH   4  11
ATOM     11  O   UNL     1     120.041 127.094 149.774  1.00  0.00    -0.387 OA
ATOM     12  H   UNL     1     120.520 126.473 150.382  1.00  0.00     0.211 HD
ENDBRANCH   4  11
BRANCH   6  13
ATOM     13  O   UNL     1     121.782 126.884 147.300  1.00  0.00    -0.387 OA
ATOM     14  H   UNL     1     121.481 127.692 146.806  1.00  0.00     0.211 HD
ENDBRANCH   6  13
BRANCH   7  15
ATOM     15  O   UNL     1     124.171 127.965 147.400  1.00  0.00    -0.385 OA
ATOM     16  H   UNL     1     123.927 127.069 147.052  1.00  0.00     0.211 HD
ENDBRANCH   7  15
ENDBRANCH   1   2
BRANCH   1  17
ATOM     17  C   UNL     1     123.024 130.958 146.786  1.00  0.00     0.224 C 
ATOM     18  C   UNL     1     123.248 130.184 145.468  1.00  0.00     0.208 C 
ATOM     19  O   UNL     1     122.279 132.122 146.467  1.00  0.00    -0.337 OA
ATOM     20  C   UNL     1     123.000 131.219 144.380  1.00  0.00     0.180 C 
ATOM     21  C   UNL     1     122.583 132.481 145.142  1.00  0.00     0.179 C 
BRANCH  17  22
ATOM     22  C   UNL     1     124.374 131.377 147.418  1.00  0.00     0.225 C 
BRANCH  22  23
ATOM     23  O   UNL     1     124.890 132.518 146.781  1.00  0.00    -0.391 OA
ATOM     24  H   UNL     1     124.174 132.874 146.193  1.00  0.00     0.210 HD
ENDBRANCH  22  23
ENDBRANCH  17  22
BRANCH  18  25
ATOM     25  O   UNL     1     122.320 129.133 145.350  1.00  0.00    -0.385 OA
ATOM     26  H   UNL     1     121.463 129.465 145.725  1.00  0.00     0.211 HD
ENDBRANCH  18  25
BRANCH  20  27
ATOM     27  O   UNL     1     124.144 131.439 143.590  1.00  0.00    -0.387 OA
ATOM     28  H   UNL     1     123.888 132.024 142.829  1.00  0.00     0.211 HD
ENDBRANCH  20  27
BRANCH  21  29
ATOM     29  C   UNL     1     121.363 133.164 144.516  1.00  0.00     0.191 C 
BRANCH  29  30
ATOM     30  O   UNL     1     121.003 134.290 145.270  1.00  0.00    -0.394 OA
ATOM     31  H   UNL     1     121.533 135.045 144.906  1.00  0.00     0.210 HD
ENDBRANCH  29  30
ENDBRANCH  21  29
ENDBRANCH   1  17
TORSDOF 13
ENDMDL
MODEL 3
REMARK VINA RESULT:    -5.981      1.451      5.827
REMARK INTER + INTRA:         -10.137
REMARK INTER:                  -8.723
REMARK INTRA:                  -1.414
REMARK UNBOUND:                -1.010
REMARK SMILES OC[C@@H]1O[C@H](O[C@]2(CO)O[C@H](CO)[C@@H](O)[C@@H]2O)[C@H](O)[C@H](O)[C@H]1O
REMARK SMILES IDX 6 1 5 2 3 3 22 4 4 5 20 6 18 7 2 8 1 9 23 11 21 13 19 15
REMARK SMILES IDX 7 17 16 18 10 19 14 20 11 21 8 22 9 23 17 25 15 27 12 29
REMARK SMILES IDX 13 30
REMARK H PARENT 1 10 23 12 21 14 19 16 9 24 17 26 15 28 13 31
REMARK Flexibility Score: inf
ROOT
ATOM      1  O   UNL     1     122.863 130.389 146.574  1.00  0.00    -0.313 OA
ENDROOT
BRANCH   1   2
ATOM      2  C   UNL     1     122.067 129.702 145.620  1.00  0.00     0.285 C 
ATOM      3  C   UNL     1     120.771 131.474 144.613  1.00  0.00     0.178 C 
ATOM      4  C   UNL     1     122.161 132.077 144.259  1.00  0.00     0.177 C 
ATOM      5  O   UNL     1     120.803 130.342 145.481  1.00  0.00    -0.341 OA
ATOM      6  C   UNL     1     123.105 130.995 143.680  1.00  0.00     0.179 C 
ATOM      7  C   UNL     1     122.814 129.596 144.279  1.00  0.00     0.202 C 
BRANCH   3   8
ATOM      8  C   UNL     1     119.875 132.542 145.257  1.00  0.00     0.191 C 
BRANCH   8   9
ATOM      9  O   UNL     1     120.647 133.447 145.999  1.00  0.00    -0.394 OA
ATOM     10  H   UNL     1     120.758 133.053 146.904  1.00  0.00     0.210 HD
ENDBRANCH   8   9
ENDBRANCH   3   8
BRANCH   4  11
ATOM     11  O   UNL     1     122.043 133.154 143.362  1.00  0.00    -0.387 OA
ATOM     12  H   UNL     1     122.477 132.887 142.510  1.00  0.00     0.211 HD
ENDBRANCH   4  11
BRANCH   6  13
ATOM     13  O   UNL     1     124.449 131.376 143.854  1.00  0.00    -0.387 OA
ATOM     14  H   UNL     1     124.663 132.052 143.157  1.00  0.00     0.211 HD
ENDBRANCH   6  13
BRANCH   7  15
ATOM     15  O   UNL     1     124.000 128.862 144.455  1.00  0.00    -0.385 OA
ATOM     16  H   UNL     1     123.741 127.993 144.856  1.00  0.00     0.211 HD
ENDBRANCH   7  15
ENDBRANCH   1   2
BRANCH   1  17
ATOM     17  C   UNL     1     122.946 129.731 147.838  1.00  0.00     0.224 C 
ATOM     18  C   UNL     1     122.071 130.497 148.854  1.00  0.00     0.208 C 
ATOM     19  O   UNL     1     122.450 128.403 147.775  1.00  0.00    -0.337 OA
ATOM     20  C   UNL     1     121.398 129.401 149.669  1.00  0.00     0.180 C 
ATOM     21  C   UNL     1     121.873 128.097 149.020  1.00  0.00     0.179 C 
BRANCH  17  22
ATOM     22  C   UNL     1     124.425 129.699 148.293  1.00  0.00     0.225 C 
BRANCH  22  23
ATOM     23  O   UNL     1     124.774 130.898 148.935  1.00  0.00    -0.391 OA
ATOM     24  H   UNL     1     123.929 131.354 149.185  1.00  0.00     0.210 HD
ENDBRANCH  22  23
ENDBRANCH  17  22
BRANCH  18  25
ATOM     25  O   UNL     1     121.097 131.263 148.188  1.00  0.00    -0.385 OA
ATOM     26  H   UNL     1     120.378 130.636 147.913  1.00  0.00     0.211 HD
ENDBRANCH  18  25
BRANCH  20  27
ATOM     27  O   UNL     1     121.749 129.465 151.031  1.00  0.00    -0.387 OA
ATOM     28  H   UNL     1     122.342 130.251 151.163  1.00  0.00     0.211 HD
ENDBRANCH  20  27
BRANCH  21  29
ATOM     29  C   UNL     1     120.730 127.099 148.810  1.00  0.00     0.191 C 
BRANCH  29  30
ATOM     30  O   UNL     1     121.107 126.126 147.875  1.00  0.00    -0.394 OA
ATOM     31  H   UNL     1     121.519 125.390 148.396  1.00  0.00     0.210 HD
ENDBRANCH  29  30
ENDBRANCH  21  29
ENDBRANCH   1  17
TORSDOF 13
ENDMDL
MODEL 4
REMARK VINA RESULT:    -5.753      1.514      5.524
REMARK INTER + INTRA:          -9.790
REMARK INTER:                  -8.703
REMARK INTRA:                  -1.087
REMARK UNBOUND:                -1.010
REMARK SMILES OC[C@@H]1O[C@H](O[C@]2(CO)O[C@H](CO)[C@@H](O)[C@@H]2O)[C@H](O)[C@H](O)[C@H]1O
REMARK SMILES IDX 6 1 5 2 3 3 22 4 4 5 20 6 18 7 2 8 1 9 23 11 21 13 19 15
REMARK SMILES IDX 7 17 16 18 10 19 14 20 11 21 8 22 9 23 17 25 15 27 12 29
REMARK SMILES IDX 13 30
REMARK H PARENT 1 10 23 12 21 14 19 16 9 24 17 26 15 28 13 31
REMARK Flexibility Score: inf
ROOT
ATOM      1  O   UNL     1     122.584 129.913 146.732  1.00  0.00    -0.313 OA
ENDROOT
BRANCH   1   2
ATOM      2  C   UNL     1     121.785 129.830 145.561  1.00  0.00     0.285 C 
ATOM      3  C   UNL     1     120.709 131.990 145.481  1.00  0.00     0.178 C 
ATOM      4  C   UNL     1     122.164 132.541 145.461  1.00  0.00     0.177 C 
ATOM      5  O   UNL     1     120.592 130.589 145.725  1.00  0.00    -0.341 OA
ATOM      6  C   UNL     1     123.040 131.756 144.454  1.00  0.00     0.179 C 
ATOM      7  C   UNL     1     122.594 130.278 144.332  1.00  0.00     0.202 C 
BRANCH   3   8
ATOM      8  C   UNL     1     119.875 132.728 146.541  1.00  0.00     0.191 C 
BRANCH   8   9
ATOM      9  O   UNL     1     120.384 132.481 147.824  1.00  0.00    -0.394 OA
ATOM     10  H   UNL     1     121.102 133.149 147.979  1.00  0.00     0.210 HD
ENDBRANCH   8   9
ENDBRANCH   3   8
BRANCH   4  11
ATOM     11  O   UNL     1     122.192 133.916 145.166  1.00  0.00    -0.387 OA
ATOM     12  H   UNL     1     122.956 134.079 144.554  1.00  0.00     0.211 HD
ENDBRANCH   4  11
BRANCH   6  13
ATOM     13  O   UNL     1     124.400 131.872 144.796  1.00  0.00    -0.387 OA
ATOM     14  H   UNL     1     124.688 131.003 145.183  1.00  0.00     0.211 HD
ENDBRANCH   6  13
BRANCH   7  15
ATOM     15  O   UNL     1     123.699 129.426 144.156  1.00  0.00    -0.385 OA
ATOM     16  H   UNL     1     124.498 129.928 144.461  1.00  0.00     0.211 HD
ENDBRANCH   7  15
ENDBRANCH   1   2
BRANCH   1  17
ATOM     17  C   UNL     1     122.072 129.163 147.834  1.00  0.00     0.224 C 
ATOM     18  C   UNL     1     123.112 129.187 148.976  1.00  0.00     0.208 C 
ATOM     19  O   UNL     1     120.874 129.727 148.345  1.00  0.00    -0.337 OA
ATOM     20  C   UNL     1     122.277 129.350 150.238  1.00  0.00     0.180 C 
ATOM     21  C   UNL     1     120.837 129.482 149.729  1.00  0.00     0.179 C 
BRANCH  17  22
ATOM     22  C   UNL     1     121.792 127.713 147.369  1.00  0.00     0.225 C 
BRANCH  22  23
ATOM     23  O   UNL     1     122.766 126.833 147.868  1.00  0.00    -0.391 OA
ATOM     24  H   UNL     1     122.661 125.974 147.384  1.00  0.00     0.210 HD
ENDBRANCH  22  23
ENDBRANCH  17  22
BRANCH  18  25
ATOM     25  O   UNL     1     123.979 130.285 148.831  1.00  0.00    -0.385 OA
ATOM     26  H   UNL     1     124.899 129.917 148.767  1.00  0.00     0.211 HD
ENDBRANCH  18  25
BRANCH  20  27
ATOM     27  O   UNL     1     122.423 128.257 151.114  1.00  0.00    -0.387 OA
ATOM     28  H   UNL     1     123.061 127.615 150.705  1.00  0.00     0.211 HD
ENDBRANCH  20  27
BRANCH  21  29
ATOM     29  C   UNL     1     120.076 130.619 150.418  1.00  0.00     0.191 C 
BRANCH  29  30
ATOM     30  O   UNL     1     120.957 131.659 150.744  1.00  0.00    -0.394 OA
ATOM     31  H   UNL     1     121.834 131.409 150.351  1.00  0.00     0.210 HD
ENDBRANCH  29  30
ENDBRANCH  21  29
ENDBRANCH   1  17
TORSDOF 13
ENDMDL
MODEL 5
REMARK VINA RESULT:    -5.574      1.546      5.706
REMARK INTER + INTRA:          -9.516
REMARK INTER:                  -8.269
REMARK INTRA:                  -1.247
REMARK UNBOUND:                -1.010
REMARK SMILES OC[C@@H]1O[C@H](O[C@]2(CO)O[C@H](CO)[C@@H](O)[C@@H]2O)[C@H](O)[C@H](O)[C@H]1O
REMARK SMILES IDX 6 1 5 2 3 3 22 4 4 5 20 6 18 7 2 8 1 9 23 11 21 13 19 15
REMARK SMILES IDX 7 17 16 18 10 19 14 20 11 21 8 22 9 23 17 25 15 27 12 29
REMARK SMILES IDX 13 30
REMARK H PARENT 1 10 23 12 21 14 19 16 9 24 17 26 15 28 13 31
REMARK Flexibility Score: inf
ROOT
ATOM      1  O   UNL     1     122.042 129.730 147.312  1.00  0.00    -0.313 OA
ENDROOT
BRANCH   1   2
ATOM      2  C   UNL     1     121.671 131.094 147.182  1.00  0.00     0.285 C 
ATOM      3  C   UNL     1     123.679 132.125 146.323  1.00  0.00     0.178 C 
ATOM      4  C   UNL     1     123.520 131.103 145.161  1.00  0.00     0.177 C 
ATOM      5  O   UNL     1     122.793 131.935 147.425  1.00  0.00    -0.341 OA
ATOM      6  C   UNL     1     122.057 131.055 144.659  1.00  0.00     0.179 C 
ATOM      7  C   UNL     1     121.047 131.346 145.798  1.00  0.00     0.202 C 
BRANCH   3   8
ATOM      8  C   UNL     1     125.118 132.102 146.860  1.00  0.00     0.191 C 
BRANCH   8   9
ATOM      9  O   UNL     1     125.946 132.923 146.081  1.00  0.00    -0.394 OA
ATOM     10  H   UNL     1     125.736 133.860 146.333  1.00  0.00     0.210 HD
ENDBRANCH   8   9
ENDBRANCH   3   8
BRANCH   4  11
ATOM     11  O   UNL     1     124.394 131.391 144.097  1.00  0.00    -0.387 OA
ATOM     12  H   UNL     1     124.980 132.140 144.381  1.00  0.00     0.211 HD
ENDBRANCH   4  11
BRANCH   6  13
ATOM     13  O   UNL     1     121.798 129.826 144.023  1.00  0.00    -0.387 OA
ATOM     14  H   UNL     1     121.805 129.119 144.722  1.00  0.00     0.211 HD
ENDBRANCH   6  13
BRANCH   7  15
ATOM     15  O   UNL     1     119.883 130.570 145.655  1.00  0.00    -0.385 OA
ATOM     16  H   UNL     1     119.115 131.194 145.722  1.00  0.00     0.211 HD
ENDBRANCH   7  15
ENDBRANCH   1   2
BRANCH   1  17
ATOM     17  C   UNL     1     121.553 129.111 148.502  1.00  0.00     0.224 C 
ATOM     18  C   UNL     1     122.708 129.018 149.524  1.00  0.00     0.208 C 
ATOM     19  O   UNL     1     120.519 129.871 149.106  1.00  0.00    -0.337 OA
ATOM     20  C   UNL     1     122.056 129.356 150.857  1.00  0.00     0.180 C 
ATOM     21  C   UNL     1     120.603 129.688 150.498  1.00  0.00     0.179 C 
BRANCH  17  22
ATOM     22  C   UNL     1     121.010 127.704 148.151  1.00  0.00     0.225 C 
BRANCH  22  23
ATOM     23  O   UNL     1     121.619 126.721 148.949  1.00  0.00    -0.391 OA
ATOM     24  H   UNL     1     120.895 126.240 149.426  1.00  0.00     0.210 HD
ENDBRANCH  22  23
ENDBRANCH  17  22
BRANCH  18  25
ATOM     25  O   UNL     1     123.706 129.964 149.227  1.00  0.00    -0.385 OA
ATOM     26  H   UNL     1     123.695 130.632 149.961  1.00  0.00     0.211 HD
ENDBRANCH  18  25
BRANCH  20  27
ATOM     27  O   UNL     1     122.137 128.289 151.771  1.00  0.00    -0.387 OA
ATOM     28  H   UNL     1     121.249 128.179 152.201  1.00  0.00     0.211 HD
ENDBRANCH  20  27
BRANCH  21  29
ATOM     29  C   UNL     1     120.102 130.954 151.200  1.00  0.00     0.191 C 
BRANCH  29  30
ATOM     30  O   UNL     1     121.100 131.938 151.186  1.00  0.00    -0.394 OA
ATOM     31  H   UNL     1     121.020 132.398 150.310  1.00  0.00     0.210 HD
ENDBRANCH  29  30
ENDBRANCH  21  29
ENDBRANCH   1  17
TORSDOF 13
ENDMDL
MODEL 6
REMARK VINA RESULT:    -5.451      1.723      5.732
REMARK INTER + INTRA:          -9.328
REMARK INTER:                  -8.892
REMARK INTRA:                  -0.436
REMARK UNBOUND:                -1.010
REMARK SMILES OC[C@@H]1O[C@H](O[C@]2(CO)O[C@H](CO)[C@@H](O)[C@@H]2O)[C@H](O)[C@H](O)[C@H]1O
REMARK SMILES IDX 6 1 5 2 3 3 22 4 4 5 20 6 18 7 2 8 1 9 23 11 21 13 19 15
REMARK SMILES IDX 7 17 16 18 10 19 14 20 11 21 8 22 9 23 17 25 15 27 12 29
REMARK SMILES IDX 13 30
REMARK H PARENT 1 10 23 12 21 14 19 16 9 24 17 26 15 28 13 31
REMARK Flexibility Score: inf
ROOT
ATOM      1  O   UNL     1     121.352 129.947 146.308  1.00  0.00    -0.313 OA
ENDROOT
BRANCH   1   2
ATOM      2  C   UNL     1     121.122 131.316 146.009  1.00  0.00     0.285 C 
ATOM      3  C   UNL     1     123.356 132.207 145.787  1.00  0.00     0.178 C 
ATOM      4  C   UNL     1     123.509 131.127 144.679  1.00  0.00     0.177 C 
ATOM      5  O   UNL     1     122.159 132.120 146.560  1.00  0.00    -0.341 OA
ATOM      6  C   UNL     1     122.277 131.113 143.742  1.00  0.00     0.179 C 
ATOM      7  C   UNL     1     120.980 131.513 144.490  1.00  0.00     0.202 C 
BRANCH   3   8
ATOM      8  C   UNL     1     124.550 132.154 146.752  1.00  0.00     0.191 C 
BRANCH   8   9
ATOM      9  O   UNL     1     125.640 132.859 146.223  1.00  0.00    -0.394 OA
ATOM     10  H   UNL     1     126.261 133.033 146.978  1.00  0.00     0.210 HD
ENDBRANCH   8   9
ENDBRANCH   3   8
BRANCH   4  11
ATOM     11  O   UNL     1     124.688 131.314 143.934  1.00  0.00    -0.387 OA
ATOM     12  H   UNL     1     124.583 130.829 143.074  1.00  0.00     0.211 HD
ENDBRANCH   4  11
BRANCH   6  13
ATOM     13  O   UNL     1     122.157 129.861 143.109  1.00  0.00    -0.387 OA
ATOM     14  H   UNL     1     121.370 129.398 143.503  1.00  0.00     0.211 HD
ENDBRANCH   6  13
BRANCH   7  15
ATOM     15  O   UNL     1     119.875 130.781 144.019  1.00  0.00    -0.385 OA
ATOM     16  H   UNL     1     119.715 130.054 144.674  1.00  0.00     0.211 HD
ENDBRANCH   7  15
ENDBRANCH   1   2
BRANCH   1  17
ATOM     17  C   UNL     1     121.235 129.632 147.696  1.00  0.00     0.224 C 
ATOM     18  C   UNL     1     121.334 128.101 147.867  1.00  0.00     0.208 C 
ATOM     19  O   UNL     1     122.285 130.208 148.458  1.00  0.00    -0.337 OA
ATOM     20  C   UNL     1     122.181 127.918 149.119  1.00  0.00     0.180 C 
ATOM     21  C   UNL     1     122.565 129.343 149.531  1.00  0.00     0.179 C 
BRANCH  17  22
ATOM     22  C   UNL     1     119.878 130.162 148.220  1.00  0.00     0.225 C 
BRANCH  22  23
ATOM     23  O   UNL     1     120.045 131.386 148.887  1.00  0.00    -0.391 OA
ATOM     24  H   UNL     1     120.008 132.102 148.202  1.00  0.00     0.210 HD
ENDBRANCH  22  23
ENDBRANCH  17  22
BRANCH  18  25
ATOM     25  O   UNL     1     121.985 127.522 146.762  1.00  0.00    -0.385 OA
ATOM     26  H   UNL     1     122.862 127.978 146.675  1.00  0.00     0.211 HD
ENDBRANCH  18  25
BRANCH  20  27
ATOM     27  O   UNL     1     121.477 127.252 150.140  1.00  0.00    -0.387 OA
ATOM     28  H   UNL     1     122.138 126.882 150.783  1.00  0.00     0.211 HD
ENDBRANCH  20  27
BRANCH  21  29
ATOM     29  C   UNL     1     124.047 129.466 149.897  1.00  0.00     0.191 C 
BRANCH  29  30
ATOM     30  O   UNL     1     124.830 129.482 148.734  1.00  0.00    -0.394 OA
ATOM     31  H   UNL     1     124.192 129.509 147.974  1.00  0.00     0.210 HD
ENDBRANCH  29  30
ENDBRANCH  21  29
ENDBRANCH   1  17
TORSDOF 13
ENDMDL
MODEL 7
REMARK VINA RESULT:    -5.383      1.595      6.070
REMARK INTER + INTRA:          -9.226
REMARK INTER:                  -7.879
REMARK INTRA:                  -1.346
REMARK UNBOUND:                -1.010
REMARK SMILES OC[C@@H]1O[C@H](O[C@]2(CO)O[C@H](CO)[C@@H](O)[C@@H]2O)[C@H](O)[C@H](O)[C@H]1O
REMARK SMILES IDX 6 1 5 2 3 3 22 4 4 5 20 6 18 7 2 8 1 9 23 11 21 13 19 15
REMARK SMILES IDX 7 17 16 18 10 19 14 20 11 21 8 22 9 23 17 25 15 27 12 29
REMARK SMILES IDX 13 30
REMARK H PARENT 1 10 23 12 21 14 19 16 9 24 17 26 15 28 13 31
REMARK Flexibility Score: inf
ROOT
ATOM      1  O   UNL     1     121.565 130.056 148.773  1.00  0.00    -0.313 OA
ENDROOT
BRANCH   1   2
ATOM      2  C   UNL     1     121.579 129.536 147.452  1.00  0.00     0.285 C 
ATOM      3  C   UNL     1     121.766 131.521 146.088  1.00  0.00     0.178 C 
ATOM      4  C   UNL     1     123.069 131.768 146.901  1.00  0.00     0.177 C 
ATOM      5  O   UNL     1     120.950 130.448 146.558  1.00  0.00    -0.341 OA
ATOM      6  C   UNL     1     123.911 130.474 147.007  1.00  0.00     0.179 C 
ATOM      7  C   UNL     1     123.020 129.207 147.025  1.00  0.00     0.202 C 
BRANCH   3   8
ATOM      8  C   UNL     1     120.906 132.794 146.059  1.00  0.00     0.191 C 
BRANCH   8   9
ATOM      9  O   UNL     1     121.401 133.699 145.110  1.00  0.00    -0.394 OA
ATOM     10  H   UNL     1     122.284 134.008 145.444  1.00  0.00     0.210 HD
ENDBRANCH   8   9
ENDBRANCH   3   8
BRANCH   4  11
ATOM     11  O   UNL     1     123.836 132.807 146.343  1.00  0.00    -0.387 OA
ATOM     12  H   UNL     1     123.772 133.590 146.949  1.00  0.00     0.211 HD
ENDBRANCH   4  11
BRANCH   6  13
ATOM     13  O   UNL     1     124.764 130.536 148.125  1.00  0.00    -0.387 OA
ATOM     14  H   UNL     1     124.207 130.401 148.937  1.00  0.00     0.211 HD
ENDBRANCH   6  13
BRANCH   7  15
ATOM     15  O   UNL     1     123.552 128.223 147.877  1.00  0.00    -0.385 OA
ATOM     16  H   UNL     1     124.190 127.691 147.336  1.00  0.00     0.211 HD
ENDBRANCH   7  15
ENDBRANCH   1   2
BRANCH   1  17
ATOM     17  C   UNL     1     120.873 129.230 149.710  1.00  0.00     0.224 C 
ATOM     18  C   UNL     1     121.912 128.456 150.550  1.00  0.00     0.208 C 
ATOM     19  O   UNL     1     120.091 129.997 150.612  1.00  0.00    -0.337 OA
ATOM     20  C   UNL     1     121.344 128.480 151.963  1.00  0.00     0.180 C 
ATOM     21  C   UNL     1     120.069 129.322 151.846  1.00  0.00     0.179 C 
BRANCH  17  22
ATOM     22  C   UNL     1     119.949 128.257 148.938  1.00  0.00     0.225 C 
BRANCH  22  23
ATOM     23  O   UNL     1     120.225 126.925 149.287  1.00  0.00    -0.391 OA
ATOM     24  H   UNL     1     120.673 126.941 150.172  1.00  0.00     0.210 HD
ENDBRANCH  22  23
ENDBRANCH  17  22
BRANCH  18  25
ATOM     25  O   UNL     1     123.156 129.113 150.524  1.00  0.00    -0.385 OA
ATOM     26  H   UNL     1     123.630 128.796 149.711  1.00  0.00     0.211 HD
ENDBRANCH  18  25
BRANCH  20  27
ATOM     27  O   UNL     1     121.073 127.186 152.445  1.00  0.00    -0.387 OA
ATOM     28  H   UNL     1     120.802 127.260 153.398  1.00  0.00     0.211 HD
ENDBRANCH  20  27
BRANCH  21  29
ATOM     29  C   UNL     1     119.943 130.350 152.975  1.00  0.00     0.191 C 
BRANCH  29  30
ATOM     30  O   UNL     1     120.850 130.051 154.001  1.00  0.00    -0.394 OA
ATOM     31  H   UNL     1     120.629 130.663 154.750  1.00  0.00     0.210 HD
ENDBRANCH  29  30
ENDBRANCH  21  29
ENDBRANCH   1  17
TORSDOF 13
ENDMDL
MODEL 8
REMARK VINA RESULT:    -5.375      2.793      6.989
REMARK INTER + INTRA:          -9.213
REMARK INTER:                  -8.503
REMARK INTRA:                  -0.711
REMARK UNBOUND:                -1.010
REMARK SMILES OC[C@@H]1O[C@H](O[C@]2(CO)O[C@H](CO)[C@@H](O)[C@@H]2O)[C@H](O)[C@H](O)[C@H]1O
REMARK SMILES IDX 6 1 5 2 3 3 22 4 4 5 20 6 18 7 2 8 1 9 23 11 21 13 19 15
REMARK SMILES IDX 7 17 16 18 10 19 14 20 11 21 8 22 9 23 17 25 15 27 12 29
REMARK SMILES IDX 13 30
REMARK H PARENT 1 10 23 12 21 14 19 16 9 24 17 26 15 28 13 31
REMARK Flexibility Score: inf
ROOT
ATOM      1  O   UNL     1     121.770 128.344 151.055  1.00  0.00    -0.313 OA
ENDROOT
BRANCH   1   2
ATOM      2  C   UNL     1     120.982 128.975 150.056  1.00  0.00     0.285 C 
ATOM      3  C   UNL     1     122.639 129.877 148.548  1.00  0.00     0.178 C 
ATOM      4  C   UNL     1     123.108 128.399 148.428  1.00  0.00     0.177 C 
ATOM      5  O   UNL     1     121.656 130.123 149.552  1.00  0.00    -0.341 OA
ATOM      6  C   UNL     1     121.904 127.447 148.232  1.00  0.00     0.179 C 
ATOM      7  C   UNL     1     120.632 127.973 148.943  1.00  0.00     0.202 C 
BRANCH   3   8
ATOM      8  C   UNL     1     123.838 130.797 148.820  1.00  0.00     0.191 C 
BRANCH   8   9
ATOM      9  O   UNL     1     124.951 130.046 149.224  1.00  0.00    -0.394 OA
ATOM     10  H   UNL     1     124.879 129.935 150.208  1.00  0.00     0.210 HD
ENDBRANCH   8   9
ENDBRANCH   3   8
BRANCH   4  11
ATOM     11  O   UNL     1     124.037 128.235 147.384  1.00  0.00    -0.387 OA
ATOM     12  H   UNL     1     124.088 129.093 146.888  1.00  0.00     0.211 HD
ENDBRANCH   4  11
BRANCH   6  13
ATOM     13  O   UNL     1     122.239 126.143 148.643  1.00  0.00    -0.387 OA
ATOM     14  H   UNL     1     121.903 126.025 149.571  1.00  0.00     0.211 HD
ENDBRANCH   6  13
BRANCH   7  15
ATOM     15  O   UNL     1     119.875 126.916 149.479  1.00  0.00    -0.385 OA
ATOM     16  H   UNL     1     119.566 126.369 148.712  1.00  0.00     0.211 HD
ENDBRANCH   7  15
ENDBRANCH   1   2
BRANCH   1  17
ATOM     17  C   UNL     1     121.495 128.801 152.380  1.00  0.00     0.224 C 
ATOM     18  C   UNL     1     120.413 127.893 153.003  1.00  0.00     0.208 C 
ATOM     19  O   UNL     1     122.640 128.722 153.214  1.00  0.00    -0.337 OA
ATOM     20  C   UNL     1     120.868 127.703 154.444  1.00  0.00     0.180 C 
ATOM     21  C   UNL     1     122.205 128.449 154.522  1.00  0.00     0.179 C 
BRANCH  17  22
ATOM     22  C   UNL     1     121.014 130.272 152.316  1.00  0.00     0.225 C 
BRANCH  22  23
ATOM     23  O   UNL     1     119.881 130.461 153.123  1.00  0.00    -0.391 OA
ATOM     24  H   UNL     1     119.156 129.898 152.747  1.00  0.00     0.210 HD
ENDBRANCH  22  23
ENDBRANCH  17  22
BRANCH  18  25
ATOM     25  O   UNL     1     120.374 126.649 152.347  1.00  0.00    -0.385 OA
ATOM     26  H   UNL     1     121.306 126.306 152.328  1.00  0.00     0.211 HD
ENDBRANCH  18  25
BRANCH  20  27
ATOM     27  O   UNL     1     119.932 128.211 155.365  1.00  0.00    -0.387 OA
ATOM     28  H   UNL     1     120.180 129.149 155.575  1.00  0.00     0.211 HD
ENDBRANCH  20  27
BRANCH  21  29
ATOM     29  C   UNL     1     123.283 127.639 155.249  1.00  0.00     0.191 C 
BRANCH  29  30
ATOM     30  O   UNL     1     124.115 128.496 155.983  1.00  0.00    -0.394 OA
ATOM     31  H   UNL     1     124.053 128.197 156.927  1.00  0.00     0.210 HD
ENDBRANCH  29  30
ENDBRANCH  21  29
ENDBRANCH   1  17
TORSDOF 13
ENDMDL
MODEL 9
REMARK VINA RESULT:    -5.299      1.647      3.675
REMARK INTER + INTRA:          -9.096
REMARK INTER:                  -7.692
REMARK INTRA:                  -1.404
REMARK UNBOUND:                -1.010
REMARK SMILES OC[C@@H]1O[C@H](O[C@]2(CO)O[C@H](CO)[C@@H](O)[C@@H]2O)[C@H](O)[C@H](O)[C@H]1O
REMARK SMILES IDX 6 1 5 2 3 3 22 4 4 5 20 6 18 7 2 8 1 9 23 11 21 13 19 15
REMARK SMILES IDX 7 17 16 18 10 19 14 20 11 21 8 22 9 23 17 25 15 27 12 29
REMARK SMILES IDX 13 30
REMARK H PARENT 1 10 23 12 21 14 19 16 9 24 17 26 15 28 13 31
REMARK Flexibility Score: inf
ROOT
ATOM      1  O   UNL     1     121.407 129.640 147.454  1.00  0.00    -0.313 OA
ENDROOT
BRANCH   1   2
ATOM      2  C   UNL     1     122.534 129.328 148.260  1.00  0.00     0.285 C 
ATOM      3  C   UNL     1     121.646 129.443 150.504  1.00  0.00     0.178 C 
ATOM      4  C   UNL     1     120.654 128.356 150.000  1.00  0.00     0.177 C 
ATOM      5  O   UNL     1     122.465 130.033 149.495  1.00  0.00    -0.341 OA
ATOM      6  C   UNL     1     121.396 127.250 149.211  1.00  0.00     0.179 C 
ATOM      7  C   UNL     1     122.636 127.807 148.467  1.00  0.00     0.202 C 
BRANCH   3   8
ATOM      8  C   UNL     1     120.883 130.571 151.216  1.00  0.00     0.191 C 
BRANCH   8   9
ATOM      9  O   UNL     1     121.339 131.823 150.781  1.00  0.00    -0.394 OA
ATOM     10  H   UNL     1     121.732 132.274 151.573  1.00  0.00     0.210 HD
ENDBRANCH   8   9
ENDBRANCH   3   8
BRANCH   4  11
ATOM     11  O   UNL     1     119.923 127.792 151.062  1.00  0.00    -0.387 OA
ATOM     12  H   UNL     1     119.848 126.817 150.893  1.00  0.00     0.211 HD
ENDBRANCH   4  11
BRANCH   6  13
ATOM     13  O   UNL     1     120.508 126.591 148.340  1.00  0.00    -0.387 OA
ATOM     14  H   UNL     1     120.967 126.488 147.464  1.00  0.00     0.211 HD
ENDBRANCH   6  13
BRANCH   7  15
ATOM     15  O   UNL     1     122.811 127.172 147.224  1.00  0.00    -0.385 OA
ATOM     16  H   UNL     1     123.024 127.883 146.567  1.00  0.00     0.211 HD
ENDBRANCH   7  15
ENDBRANCH   1   2
BRANCH   1  17
ATOM     17  C   UNL     1     121.712 130.475 146.337  1.00  0.00     0.224 C 
ATOM     18  C   UNL     1     121.140 131.885 146.602  1.00  0.00     0.208 C 
ATOM     19  O   UNL     1     123.111 130.617 146.150  1.00  0.00    -0.337 OA
ATOM     20  C   UNL     1     122.216 132.828 146.081  1.00  0.00     0.180 C 
ATOM     21  C   UNL     1     123.349 131.901 145.627  1.00  0.00     0.179 C 
BRANCH  17  22
ATOM     22  C   UNL     1     121.089 129.856 145.061  1.00  0.00     0.225 C 
BRANCH  22  23
ATOM     23  O   UNL     1     120.224 130.767 144.436  1.00  0.00    -0.391 OA
ATOM     24  H   UNL     1     120.747 131.589 144.250  1.00  0.00     0.210 HD
ENDBRANCH  22  23
ENDBRANCH  17  22
BRANCH  18  25
ATOM     25  O   UNL     1     120.951 132.090 147.980  1.00  0.00    -0.385 OA
ATOM     26  H   UNL     1     120.035 132.455 148.093  1.00  0.00     0.211 HD
ENDBRANCH  18  25
BRANCH  20  27
ATOM     27  O   UNL     1     121.747 133.635 145.027  1.00  0.00    -0.387 OA
ATOM     28  H   UNL     1     122.489 134.227 144.735  1.00  0.00     0.211 HD
ENDBRANCH  20  27
BRANCH  21  29
ATOM     29  C   UNL     1     124.724 132.385 146.098  1.00  0.00     0.191 C 
BRANCH  29  30
ATOM     30  O   UNL     1     124.950 131.978 147.420  1.00  0.00    -0.394 OA
ATOM     31  H   UNL     1     124.074 132.048 147.882  1.00  0.00     0.210 HD
ENDBRANCH  29  30
ENDBRANCH  21  29
ENDBRANCH   1  17
TORSDOF 13
ENDMDL
