MODEL 1
REMARK VINA RESULT:    -6.830      0.000      0.000
REMARK INTER + INTRA:          -8.590
REMARK INTER:                  -8.227
REMARK INTRA:                  -0.363
REMARK UNBOUND:                -0.363
REMARK SMILES COc1ccc([C@@H]2CC(=O)c3c(O)cc(O)cc3O2)cc1O
REMARK SMILES IDX 7 1 8 2 9 3 10 4 11 5 12 6 14 7 15 8 17 9 18 10 19 11 6 12
REMARK SMILES IDX 3 13 21 14 4 15 20 16 5 17 2 18 1 19 22 20 13 22 16 24
REMARK H PARENT 22 21 13 23 16 25
REMARK Flexibility Score: inf
ROOT
ATOM      1  C   UNL     1      46.350  -3.381   0.735  1.00  0.00     0.211 C 
ATOM      2  C   UNL     1      46.011  -3.735  -0.720  1.00  0.00     0.131 C 
ATOM      3  C   UNL     1      44.539  -4.003  -0.830  1.00  0.00     0.174 C 
ATOM      4  O   UNL     1      44.142  -5.021  -1.455  1.00  0.00    -0.294 OA
ATOM      5  C   UNL     1      43.594  -3.091  -0.139  1.00  0.00     0.102 A 
ATOM      6  C   UNL     1      42.214  -2.985  -0.456  1.00  0.00     0.133 A 
ATOM      7  C   UNL     1      41.395  -2.141   0.303  1.00  0.00     0.093 A 
ATOM      8  C   UNL     1      41.930  -1.359   1.333  1.00  0.00     0.123 A 
ATOM      9  C   UNL     1      43.295  -1.427   1.616  1.00  0.00     0.093 A 
ATOM     10  C   UNL     1      44.124  -2.291   0.897  1.00  0.00     0.138 A 
ATOM     11  O   UNL     1      45.487  -2.346   1.215  1.00  0.00    -0.484 OA
ENDROOT
BRANCH   1  12
ATOM     12  C   UNL     1      47.792  -2.950   0.857  1.00  0.00    -0.003 A 
ATOM     13  C   UNL     1      50.493  -2.192   1.139  1.00  0.00     0.160 A 
ATOM     14  C   UNL     1      50.131  -3.179   0.212  1.00  0.00     0.158 A 
ATOM     15  C   UNL     1      49.497  -1.592   1.933  1.00  0.00     0.051 A 
ATOM     16  C   UNL     1      48.788  -3.558   0.076  1.00  0.00     0.057 A 
ATOM     17  C   UNL     1      48.160  -1.974   1.795  1.00  0.00     0.011 A 
BRANCH  13  18
ATOM     18  O   UNL     1      51.848  -1.837   1.244  1.00  0.00    -0.493 OA
ATOM     19  C   UNL     1      52.440  -0.717   0.593  1.00  0.00     0.278 C 
ENDBRANCH  13  18
BRANCH  14  20
ATOM     20  O   UNL     1      51.113  -3.781  -0.572  1.00  0.00    -0.504 OA
ATOM     21  H   UNL     1      50.982  -4.703  -0.971  1.00  0.00     0.293 HD
ENDBRANCH  14  20
ENDBRANCH   1  12
BRANCH   6  22
ATOM     22  O   UNL     1      41.623  -3.662  -1.526  1.00  0.00    -0.507 OA
ATOM     23  H   UNL     1      41.435  -4.653  -1.532  1.00  0.00     0.293 HD
ENDBRANCH   6  22
BRANCH   8  24
ATOM     24  O   UNL     1      41.116  -0.507   2.075  1.00  0.00    -0.508 OA
ATOM     25  H   UNL     1      40.107  -0.598   2.066  1.00  0.00     0.293 HD
ENDBRANCH   8  24
TORSDOF 5
ENDMDL
MODEL 2
REMARK VINA RESULT:    -6.747      1.773      2.705
REMARK INTER + INTRA:          -8.490
REMARK INTER:                  -8.126
REMARK INTRA:                  -0.365
REMARK UNBOUND:                -0.363
REMARK SMILES COc1ccc([C@@H]2CC(=O)c3c(O)cc(O)cc3O2)cc1O
REMARK SMILES IDX 7 1 8 2 9 3 10 4 11 5 12 6 14 7 15 8 17 9 18 10 19 11 6 12
REMARK SMILES IDX 3 13 21 14 4 15 20 16 5 17 2 18 1 19 22 20 13 22 16 24
REMARK H PARENT 22 21 13 23 16 25
REMARK Flexibility Score: inf
ROOT
ATOM      1  C   UNL     1      48.938  -3.289   0.679  1.00  0.00     0.211 C 
ATOM      2  C   UNL     1      48.650  -4.080  -0.605  1.00  0.00     0.131 C 
ATOM      3  C   UNL     1      47.219  -4.530  -0.594  1.00  0.00     0.174 C 
ATOM      4  O   UNL     1      46.944  -5.722  -0.892  1.00  0.00    -0.294 OA
ATOM      5  C   UNL     1      46.171  -3.570  -0.167  1.00  0.00     0.102 A 
ATOM      6  C   UNL     1      44.790  -3.713  -0.463  1.00  0.00     0.133 A 
ATOM      7  C   UNL     1      43.876  -2.784   0.046  1.00  0.00     0.093 A 
ATOM      8  C   UNL     1      44.312  -1.685   0.795  1.00  0.00     0.123 A 
ATOM      9  C   UNL     1      45.673  -1.516   1.048  1.00  0.00     0.093 A 
ATOM     10  C   UNL     1      46.600  -2.453   0.584  1.00  0.00     0.138 A 
ATOM     11  O   UNL     1      47.959  -2.263   0.868  1.00  0.00    -0.484 OA
ENDROOT
BRANCH   1  12
ATOM     12  C   UNL     1      50.319  -2.683   0.634  1.00  0.00    -0.003 A 
ATOM     13  C   UNL     1      52.890  -1.523   0.615  1.00  0.00     0.160 A 
ATOM     14  C   UNL     1      52.714  -2.839   1.063  1.00  0.00     0.158 A 
ATOM     15  C   UNL     1      51.770  -0.786   0.185  1.00  0.00     0.051 A 
ATOM     16  C   UNL     1      51.435  -3.413   1.077  1.00  0.00     0.057 A 
ATOM     17  C   UNL     1      50.497  -1.361   0.201  1.00  0.00     0.011 A 
BRANCH  13  18
ATOM     18  O   UNL     1      54.187  -0.985   0.614  1.00  0.00    -0.493 OA
ATOM     19  C   UNL     1      54.942  -0.705  -0.561  1.00  0.00     0.278 C 
ENDBRANCH  13  18
BRANCH  14  20
ATOM     20  O   UNL     1      53.817  -3.573   1.497  1.00  0.00    -0.504 OA
ATOM     21  H   UNL     1      53.727  -4.307   2.189  1.00  0.00     0.293 HD
ENDBRANCH  14  20
ENDBRANCH   1  12
BRANCH   6  22
ATOM     22  O   UNL     1      44.287  -4.729  -1.279  1.00  0.00    -0.507 OA
ATOM     23  H   UNL     1      43.364  -5.126  -1.181  1.00  0.00     0.293 HD
ENDBRANCH   6  22
BRANCH   8  24
ATOM     24  O   UNL     1      43.401  -0.752   1.285  1.00  0.00    -0.508 OA
ATOM     25  H   UNL     1      43.561   0.244   1.191  1.00  0.00     0.293 HD
ENDBRANCH   8  24
TORSDOF 5
ENDMDL
MODEL 3
REMARK VINA RESULT:    -6.358      1.968      2.542
REMARK INTER + INTRA:          -8.022
REMARK INTER:                  -7.680
REMARK INTRA:                  -0.342
REMARK UNBOUND:                -0.363
REMARK SMILES COc1ccc([C@@H]2CC(=O)c3c(O)cc(O)cc3O2)cc1O
REMARK SMILES IDX 7 1 8 2 9 3 10 4 11 5 12 6 14 7 15 8 17 9 18 10 19 11 6 12
REMARK SMILES IDX 3 13 21 14 4 15 20 16 5 17 2 18 1 19 22 20 13 22 16 24
REMARK H PARENT 22 21 13 23 16 25
REMARK Flexibility Score: inf
ROOT
ATOM      1  C   UNL     1      45.182  -1.949   1.168  1.00  0.00     0.211 C 
ATOM      2  C   UNL     1      44.379  -2.463  -0.036  1.00  0.00     0.131 C 
ATOM      3  C   UNL     1      42.964  -1.979   0.076  1.00  0.00     0.174 C 
ATOM      4  O   UNL     1      42.017  -2.788  -0.116  1.00  0.00    -0.294 OA
ATOM      5  C   UNL     1      42.719  -0.570   0.473  1.00  0.00     0.102 A 
ATOM      6  C   UNL     1      41.499   0.120   0.251  1.00  0.00     0.133 A 
ATOM      7  C   UNL     1      41.351   1.428   0.727  1.00  0.00     0.093 A 
ATOM      8  C   UNL     1      42.409   2.083   1.368  1.00  0.00     0.123 A 
ATOM      9  C   UNL     1      43.625   1.423   1.545  1.00  0.00     0.093 A 
ATOM     10  C   UNL     1      43.783   0.103   1.114  1.00  0.00     0.138 A 
ATOM     11  O   UNL     1      45.012  -0.537   1.320  1.00  0.00    -0.484 OA
ENDROOT
BRANCH   1  12
ATOM     12  C   UNL     1      46.646  -2.280   1.013  1.00  0.00    -0.003 A 
ATOM     13  C   UNL     1      49.378  -2.941   0.783  1.00  0.00     0.160 A 
ATOM     14  C   UNL     1      48.412  -3.684   0.090  1.00  0.00     0.158 A 
ATOM     15  C   UNL     1      48.969  -1.870   1.601  1.00  0.00     0.051 A 
ATOM     16  C   UNL     1      47.054  -3.358   0.209  1.00  0.00     0.057 A 
ATOM     17  C   UNL     1      47.614  -1.549   1.718  1.00  0.00     0.011 A 
BRANCH  13  18
ATOM     18  O   UNL     1      50.729  -3.296   0.636  1.00  0.00    -0.493 OA
ATOM     19  C   UNL     1      51.824  -2.503   1.084  1.00  0.00     0.278 C 
ENDBRANCH  13  18
BRANCH  14  20
ATOM     20  O   UNL     1      48.811  -4.749  -0.716  1.00  0.00    -0.504 OA
ATOM     21  H   UNL     1      48.165  -5.483  -0.981  1.00  0.00     0.293 HD
ENDBRANCH  14  20
ENDBRANCH   1  12
BRANCH   6  22
ATOM     22  O   UNL     1      40.429  -0.430  -0.459  1.00  0.00    -0.507 OA
ATOM     23  H   UNL     1      40.530  -0.961  -1.311  1.00  0.00     0.293 HD
ENDBRANCH   6  22
BRANCH   8  24
ATOM     24  O   UNL     1      42.264   3.391   1.824  1.00  0.00    -0.508 OA
ATOM     25  H   UNL     1      42.527   3.656   2.766  1.00  0.00     0.293 HD
ENDBRANCH   8  24
TORSDOF 5
ENDMDL
MODEL 4
REMARK VINA RESULT:    -6.346      1.724      7.219
REMARK INTER + INTRA:          -8.007
REMARK INTER:                  -7.644
REMARK INTRA:                  -0.363
REMARK UNBOUND:                -0.363
REMARK SMILES COc1ccc([C@@H]2CC(=O)c3c(O)cc(O)cc3O2)cc1O
REMARK SMILES IDX 7 1 8 2 9 3 10 4 11 5 12 6 14 7 15 8 17 9 18 10 19 11 6 12
REMARK SMILES IDX 3 13 21 14 4 15 20 16 5 17 2 18 1 19 22 20 13 22 16 24
REMARK H PARENT 22 21 13 23 16 25
REMARK Flexibility Score: inf
ROOT
ATOM      1  C   UNL     1      45.819  -2.770  -0.202  1.00  0.00     0.211 C 
ATOM      2  C   UNL     1      45.846  -4.300  -0.076  1.00  0.00     0.131 C 
ATOM      3  C   UNL     1      47.246  -4.787  -0.303  1.00  0.00     0.174 C 
ATOM      4  O   UNL     1      47.444  -5.766  -1.071  1.00  0.00    -0.294 OA
ATOM      5  C   UNL     1      48.369  -4.057   0.336  1.00  0.00     0.102 A 
ATOM      6  C   UNL     1      49.666  -4.601   0.530  1.00  0.00     0.133 A 
ATOM      7  C   UNL     1      50.673  -3.802   1.083  1.00  0.00     0.093 A 
ATOM      8  C   UNL     1      50.403  -2.493   1.499  1.00  0.00     0.123 A 
ATOM      9  C   UNL     1      49.118  -1.972   1.353  1.00  0.00     0.093 A 
ATOM     10  C   UNL     1      48.107  -2.737   0.767  1.00  0.00     0.138 A 
ATOM     11  O   UNL     1      46.829  -2.180   0.621  1.00  0.00    -0.484 OA
ENDROOT
BRANCH   1  12
ATOM     12  C   UNL     1      44.462  -2.227   0.176  1.00  0.00    -0.003 A 
ATOM     13  C   UNL     1      41.952  -1.199   0.949  1.00  0.00     0.160 A 
ATOM     14  C   UNL     1      42.887  -0.373   0.310  1.00  0.00     0.158 A 
ATOM     15  C   UNL     1      42.285  -2.543   1.209  1.00  0.00     0.051 A 
ATOM     16  C   UNL     1      44.136  -0.883  -0.069  1.00  0.00     0.057 A 
ATOM     17  C   UNL     1      43.531  -3.048   0.830  1.00  0.00     0.011 A 
BRANCH  13  18
ATOM     18  O   UNL     1      40.711  -0.652   1.311  1.00  0.00    -0.493 OA
ATOM     19  C   UNL     1      39.512  -0.806   0.557  1.00  0.00     0.278 C 
ENDBRANCH  13  18
BRANCH  14  20
ATOM     20  O   UNL     1      42.567   0.960   0.055  1.00  0.00    -0.504 OA
ATOM     21  H   UNL     1      41.798   1.421   0.529  1.00  0.00     0.293 HD
ENDBRANCH  14  20
ENDBRANCH   1  12
BRANCH   6  22
ATOM     22  O   UNL     1      49.991  -5.925   0.226  1.00  0.00    -0.507 OA
ATOM     23  H   UNL     1      50.725  -6.194  -0.412  1.00  0.00     0.293 HD
ENDBRANCH   6  22
BRANCH   8  24
ATOM     24  O   UNL     1      51.403  -1.706   2.066  1.00  0.00    -0.508 OA
ATOM     25  H   UNL     1      51.343  -1.381   3.024  1.00  0.00     0.293 HD
ENDBRANCH   8  24
TORSDOF 5
ENDMDL
MODEL 5
REMARK VINA RESULT:    -6.279      3.298      7.172
REMARK INTER + INTRA:          -7.926
REMARK INTER:                  -7.547
REMARK INTRA:                  -0.379
REMARK UNBOUND:                -0.363
REMARK SMILES COc1ccc([C@@H]2CC(=O)c3c(O)cc(O)cc3O2)cc1O
REMARK SMILES IDX 7 1 8 2 9 3 10 4 11 5 12 6 14 7 15 8 17 9 18 10 19 11 6 12
REMARK SMILES IDX 3 13 21 14 4 15 20 16 5 17 2 18 1 19 22 20 13 22 16 24
REMARK H PARENT 22 21 13 23 16 25
REMARK Flexibility Score: inf
ROOT
ATOM      1  C   UNL     1      43.510  -0.190   1.343  1.00  0.00     0.211 C 
ATOM      2  C   UNL     1      44.981  -0.133   0.902  1.00  0.00     0.131 C 
ATOM      3  C   UNL     1      45.493  -1.530   0.718  1.00  0.00     0.174 C 
ATOM      4  O   UNL     1      46.609  -1.849   1.208  1.00  0.00    -0.294 OA
ATOM      5  C   UNL     1      44.636  -2.519   0.017  1.00  0.00     0.102 A 
ATOM      6  C   UNL     1      45.117  -3.724  -0.559  1.00  0.00     0.133 A 
ATOM      7  C   UNL     1      44.213  -4.620  -1.138  1.00  0.00     0.093 A 
ATOM      8  C   UNL     1      42.848  -4.317  -1.208  1.00  0.00     0.123 A 
ATOM      9  C   UNL     1      42.379  -3.112  -0.686  1.00  0.00     0.093 A 
ATOM     10  C   UNL     1      43.258  -2.221  -0.066  1.00  0.00     0.138 A 
ATOM     11  O   UNL     1      42.753  -1.025   0.462  1.00  0.00    -0.484 OA
ENDROOT
BRANCH   1  12
ATOM     12  C   UNL     1      42.912   1.194   1.385  1.00  0.00    -0.003 A 
ATOM     13  C   UNL     1      41.837   3.802   1.410  1.00  0.00     0.160 A 
ATOM     14  C   UNL     1      41.209   2.787   0.675  1.00  0.00     0.158 A 
ATOM     15  C   UNL     1      43.013   3.508   2.125  1.00  0.00     0.051 A 
ATOM     16  C   UNL     1      41.747   1.492   0.659  1.00  0.00     0.057 A 
ATOM     17  C   UNL     1      43.547   2.217   2.107  1.00  0.00     0.011 A 
BRANCH  13  18
ATOM     18  O   UNL     1      41.266   5.085   1.402  1.00  0.00    -0.493 OA
ATOM     19  C   UNL     1      42.011   6.297   1.329  1.00  0.00     0.278 C 
ENDBRANCH  13  18
BRANCH  14  20
ATOM     20  O   UNL     1      40.047   3.073  -0.041  1.00  0.00    -0.504 OA
ATOM     21  H   UNL     1      39.165   2.625   0.178  1.00  0.00     0.293 HD
ENDBRANCH  14  20
ENDBRANCH   1  12
BRANCH   6  22
ATOM     22  O   UNL     1      46.473  -4.056  -0.610  1.00  0.00    -0.507 OA
ATOM     23  H   UNL     1      46.886  -4.633  -1.328  1.00  0.00     0.293 HD
ENDBRANCH   6  22
BRANCH   8  24
ATOM     24  O   UNL     1      41.953  -5.204  -1.803  1.00  0.00    -0.508 OA
ATOM     25  H   UNL     1      41.503  -4.990  -2.685  1.00  0.00     0.293 HD
ENDBRANCH   8  24
TORSDOF 5
ENDMDL
MODEL 6
REMARK VINA RESULT:    -6.088      4.156      6.793
REMARK INTER + INTRA:          -7.696
REMARK INTER:                  -7.311
REMARK INTRA:                  -0.385
REMARK UNBOUND:                -0.363
REMARK SMILES COc1ccc([C@@H]2CC(=O)c3c(O)cc(O)cc3O2)cc1O
REMARK SMILES IDX 7 1 8 2 9 3 10 4 11 5 12 6 14 7 15 8 17 9 18 10 19 11 6 12
REMARK SMILES IDX 3 13 21 14 4 15 20 16 5 17 2 18 1 19 22 20 13 22 16 24
REMARK H PARENT 22 21 13 23 16 25
REMARK Flexibility Score: inf
ROOT
ATOM      1  C   UNL     1      41.407   0.581   0.880  1.00  0.00     0.211 C 
ATOM      2  C   UNL     1      40.824   0.623  -0.540  1.00  0.00     0.131 C 
ATOM      3  C   UNL     1      39.897   1.796  -0.656  1.00  0.00     0.174 C 
ATOM      4  O   UNL     1      38.766   1.640  -1.186  1.00  0.00    -0.294 OA
ATOM      5  C   UNL     1      40.318   3.099  -0.081  1.00  0.00     0.102 A 
ATOM      6  C   UNL     1      39.748   4.349  -0.438  1.00  0.00     0.133 A 
ATOM      7  C   UNL     1      40.172   5.511   0.215  1.00  0.00     0.093 A 
ATOM      8  C   UNL     1      41.190   5.464   1.174  1.00  0.00     0.123 A 
ATOM      9  C   UNL     1      41.785   4.244   1.493  1.00  0.00     0.093 A 
ATOM     10  C   UNL     1      41.350   3.065   0.883  1.00  0.00     0.138 A 
ATOM     11  O   UNL     1      41.958   1.852   1.236  1.00  0.00    -0.484 OA
ENDROOT
BRANCH   1  12
ATOM     12  C   UNL     1      42.465  -0.490   0.991  1.00  0.00    -0.003 A 
ATOM     13  C   UNL     1      44.448  -2.490   1.127  1.00  0.00     0.160 A 
ATOM     14  C   UNL     1      44.796  -1.141   1.279  1.00  0.00     0.158 A 
ATOM     15  C   UNL     1      43.102  -2.833   0.895  1.00  0.00     0.051 A 
ATOM     16  C   UNL     1      43.810  -0.147   1.207  1.00  0.00     0.057 A 
ATOM     17  C   UNL     1      42.123  -1.840   0.823  1.00  0.00     0.011 A 
BRANCH  13  18
ATOM     18  O   UNL     1      45.464  -3.456   1.208  1.00  0.00    -0.493 OA
ATOM     19  C   UNL     1      46.033  -4.123   0.085  1.00  0.00     0.278 C 
ENDBRANCH  13  18
BRANCH  14  20
ATOM     20  O   UNL     1      46.127  -0.793   1.501  1.00  0.00    -0.504 OA
ATOM     21  H   UNL     1      46.675  -0.313   0.797  1.00  0.00     0.293 HD
ENDBRANCH  14  20
ENDBRANCH   1  12
BRANCH   6  22
ATOM     22  O   UNL     1      38.794   4.491  -1.448  1.00  0.00    -0.507 OA
ATOM     23  H   UNL     1      38.999   4.418  -2.433  1.00  0.00     0.293 HD
ENDBRANCH   6  22
BRANCH   8  24
ATOM     24  O   UNL     1      41.623   6.626   1.809  1.00  0.00    -0.508 OA
ATOM     25  H   UNL     1      42.385   6.613   2.477  1.00  0.00     0.293 HD
ENDBRANCH   8  24
TORSDOF 5
ENDMDL
MODEL 7
REMARK VINA RESULT:    -6.044      2.737      4.843
REMARK INTER + INTRA:          -7.644
REMARK INTER:                  -7.312
REMARK INTRA:                  -0.332
REMARK UNBOUND:                -0.363
REMARK SMILES COc1ccc([C@@H]2CC(=O)c3c(O)cc(O)cc3O2)cc1O
REMARK SMILES IDX 7 1 8 2 9 3 10 4 11 5 12 6 14 7 15 8 17 9 18 10 19 11 6 12
REMARK SMILES IDX 3 13 21 14 4 15 20 16 5 17 2 18 1 19 22 20 13 22 16 24
REMARK H PARENT 22 21 13 23 16 25
REMARK Flexibility Score: inf
ROOT
ATOM      1  C   UNL     1      43.264  -1.187   1.141  1.00  0.00     0.211 C 
ATOM      2  C   UNL     1      42.012  -1.405   0.278  1.00  0.00     0.131 C 
ATOM      3  C   UNL     1      40.923  -0.489   0.755  1.00  0.00     0.174 C 
ATOM      4  O   UNL     1      39.762  -0.946   0.925  1.00  0.00    -0.294 OA
ATOM      5  C   UNL     1      41.263   0.920   1.073  1.00  0.00     0.102 A 
ATOM      6  C   UNL     1      40.312   1.971   1.156  1.00  0.00     0.133 A 
ATOM      7  C   UNL     1      40.731   3.252   1.532  1.00  0.00     0.093 A 
ATOM      8  C   UNL     1      42.084   3.523   1.770  1.00  0.00     0.123 A 
ATOM      9  C   UNL     1      43.027   2.504   1.643  1.00  0.00     0.093 A 
ATOM     10  C   UNL     1      42.626   1.208   1.309  1.00  0.00     0.138 A 
ATOM     11  O   UNL     1      43.597   0.202   1.204  1.00  0.00    -0.484 OA
ENDROOT
BRANCH   1  12
ATOM     12  C   UNL     1      44.430  -1.974   0.594  1.00  0.00    -0.003 A 
ATOM     13  C   UNL     1      46.598  -3.495  -0.377  1.00  0.00     0.160 A 
ATOM     14  C   UNL     1      45.327  -3.631  -0.953  1.00  0.00     0.158 A 
ATOM     15  C   UNL     1      46.777  -2.600   0.696  1.00  0.00     0.051 A 
ATOM     16  C   UNL     1      44.249  -2.878  -0.466  1.00  0.00     0.057 A 
ATOM     17  C   UNL     1      45.700  -1.852   1.179  1.00  0.00     0.011 A 
BRANCH  13  18
ATOM     18  O   UNL     1      47.653  -4.264  -0.894  1.00  0.00    -0.493 OA
ATOM     19  C   UNL     1      48.883  -4.503  -0.216  1.00  0.00     0.278 C 
ENDBRANCH  13  18
BRANCH  14  20
ATOM     20  O   UNL     1      45.142  -4.519  -2.010  1.00  0.00    -0.504 OA
ATOM     21  H   UNL     1      44.784  -4.210  -2.906  1.00  0.00     0.293 HD
ENDBRANCH  14  20
ENDBRANCH   1  12
BRANCH   6  22
ATOM     22  O   UNL     1      38.961   1.802   0.846  1.00  0.00    -0.507 OA
ATOM     23  H   UNL     1      38.572   0.957   0.454  1.00  0.00     0.293 HD
ENDBRANCH   6  22
BRANCH   8  24
ATOM     24  O   UNL     1      42.500   4.804   2.125  1.00  0.00    -0.508 OA
ATOM     25  H   UNL     1      42.627   5.532   1.431  1.00  0.00     0.293 HD
ENDBRANCH   8  24
TORSDOF 5
ENDMDL
MODEL 8
REMARK VINA RESULT:    -6.033     14.696     17.043
REMARK INTER + INTRA:          -7.630
REMARK INTER:                  -7.304
REMARK INTRA:                  -0.325
REMARK UNBOUND:                -0.363
REMARK SMILES COc1ccc([C@@H]2CC(=O)c3c(O)cc(O)cc3O2)cc1O
REMARK SMILES IDX 7 1 8 2 9 3 10 4 11 5 12 6 14 7 15 8 17 9 18 10 19 11 6 12
REMARK SMILES IDX 3 13 21 14 4 15 20 16 5 17 2 18 1 19 22 20 13 22 16 24
REMARK H PARENT 22 21 13 23 16 25
REMARK Flexibility Score: inf
ROOT
ATOM      1  C   UNL     1      41.095  10.394  -8.153  1.00  0.00     0.211 C 
ATOM      2  C   UNL     1      40.287  10.232  -9.449  1.00  0.00     0.131 C 
ATOM      3  C   UNL     1      41.207   9.794 -10.549  1.00  0.00     0.174 C 
ATOM      4  O   UNL     1      41.148  10.367 -11.669  1.00  0.00    -0.294 OA
ATOM      5  C   UNL     1      42.209   8.736 -10.265  1.00  0.00     0.102 A 
ATOM      6  C   UNL     1      42.861   7.967 -11.263  1.00  0.00     0.133 A 
ATOM      7  C   UNL     1      43.841   7.040 -10.890  1.00  0.00     0.093 A 
ATOM      8  C   UNL     1      44.144   6.822  -9.541  1.00  0.00     0.123 A 
ATOM      9  C   UNL     1      43.470   7.543  -8.555  1.00  0.00     0.093 A 
ATOM     10  C   UNL     1      42.518   8.502  -8.907  1.00  0.00     0.138 A 
ATOM     11  O   UNL     1      41.869   9.219  -7.893  1.00  0.00    -0.484 OA
ENDROOT
BRANCH   1  12
ATOM     12  C   UNL     1      40.181  10.679  -6.986  1.00  0.00    -0.003 A 
ATOM     13  C   UNL     1      38.439  11.263  -4.846  1.00  0.00     0.160 A 
ATOM     14  C   UNL     1      38.123  10.243  -5.754  1.00  0.00     0.158 A 
ATOM     15  C   UNL     1      39.628  11.998  -5.021  1.00  0.00     0.051 A 
ATOM     16  C   UNL     1      38.987   9.957  -6.820  1.00  0.00     0.057 A 
ATOM     17  C   UNL     1      40.486  11.710  -6.085  1.00  0.00     0.011 A 
BRANCH  13  18
ATOM     18  O   UNL     1      37.550  11.519  -3.790  1.00  0.00    -0.493 OA
ATOM     19  C   UNL     1      37.945  11.949  -2.491  1.00  0.00     0.278 C 
ENDBRANCH  13  18
BRANCH  14  20
ATOM     20  O   UNL     1      36.945   9.517  -5.591  1.00  0.00    -0.504 OA
ATOM     21  H   UNL     1      36.403   9.199  -6.386  1.00  0.00     0.293 HD
ENDBRANCH  14  20
ENDBRANCH   1  12
BRANCH   6  22
ATOM     22  O   UNL     1      42.551   8.061 -12.622  1.00  0.00    -0.507 OA
ATOM     23  H   UNL     1      43.164   7.757 -13.364  1.00  0.00     0.293 HD
ENDBRANCH   6  22
BRANCH   8  24
ATOM     24  O   UNL     1      45.107   5.885  -9.171  1.00  0.00    -0.508 OA
ATOM     25  H   UNL     1      45.770   5.515  -9.842  1.00  0.00     0.293 HD
ENDBRANCH   8  24
TORSDOF 5
ENDMDL
MODEL 9
REMARK VINA RESULT:    -5.924      3.331      5.594
REMARK INTER + INTRA:          -7.499
REMARK INTER:                  -7.128
REMARK INTRA:                  -0.371
REMARK UNBOUND:                -0.363
REMARK SMILES COc1ccc([C@@H]2CC(=O)c3c(O)cc(O)cc3O2)cc1O
REMARK SMILES IDX 7 1 8 2 9 3 10 4 11 5 12 6 14 7 15 8 17 9 18 10 19 11 6 12
REMARK SMILES IDX 3 13 21 14 4 15 20 16 5 17 2 18 1 19 22 20 13 22 16 24
REMARK H PARENT 22 21 13 23 16 25
REMARK Flexibility Score: inf
ROOT
ATOM      1  C   UNL     1      43.855   0.149   0.279  1.00  0.00     0.211 C 
ATOM      2  C   UNL     1      43.907   0.814   1.662  1.00  0.00     0.131 C 
ATOM      3  C   UNL     1      43.113   2.085   1.626  1.00  0.00     0.174 C 
ATOM      4  O   UNL     1      43.603   3.135   2.120  1.00  0.00    -0.294 OA
ATOM      5  C   UNL     1      41.792   2.084   0.949  1.00  0.00     0.102 A 
ATOM      6  C   UNL     1      40.787   3.063   1.161  1.00  0.00     0.133 A 
ATOM      7  C   UNL     1      39.601   3.006   0.419  1.00  0.00     0.093 A 
ATOM      8  C   UNL     1      39.372   1.964  -0.487  1.00  0.00     0.123 A 
ATOM      9  C   UNL     1      40.339   0.974  -0.662  1.00  0.00     0.093 A 
ATOM     10  C   UNL     1      41.546   1.033   0.038  1.00  0.00     0.138 A 
ATOM     11  O   UNL     1      42.503   0.031  -0.172  1.00  0.00    -0.484 OA
ENDROOT
BRANCH   1  12
ATOM     12  C   UNL     1      44.509  -1.211   0.315  1.00  0.00    -0.003 A 
ATOM     13  C   UNL     1      45.667  -3.781   0.402  1.00  0.00     0.160 A 
ATOM     14  C   UNL     1      45.188  -3.264  -0.809  1.00  0.00     0.158 A 
ATOM     15  C   UNL     1      45.553  -3.009   1.574  1.00  0.00     0.051 A 
ATOM     16  C   UNL     1      44.608  -1.988  -0.851  1.00  0.00     0.057 A 
ATOM     17  C   UNL     1      44.974  -1.738   1.530  1.00  0.00     0.011 A 
BRANCH  13  18
ATOM     18  O   UNL     1      46.243  -5.062   0.402  1.00  0.00    -0.493 OA
ATOM     19  C   UNL     1      47.636  -5.318   0.550  1.00  0.00     0.278 C 
ENDBRANCH  13  18
BRANCH  14  20
ATOM     20  O   UNL     1      45.291  -4.026  -1.972  1.00  0.00    -0.504 OA
ATOM     21  H   UNL     1      45.844  -3.715  -2.763  1.00  0.00     0.293 HD
ENDBRANCH  14  20
ENDBRANCH   1  12
BRANCH   6  22
ATOM     22  O   UNL     1      40.901   4.081   2.111  1.00  0.00    -0.507 OA
ATOM     23  H   UNL     1      41.676   4.725   2.158  1.00  0.00     0.293 HD
ENDBRANCH   6  22
BRANCH   8  24
ATOM     24  O   UNL     1      38.183   1.900  -1.210  1.00  0.00    -0.508 OA
ATOM     25  H   UNL     1      37.681   1.028  -1.328  1.00  0.00     0.293 HD
ENDBRANCH   8  24
TORSDOF 5
ENDMDL
