MODEL 1
REMARK VINA RESULT:    -3.296      0.000      0.000
REMARK INTER + INTRA:          -4.967
REMARK INTER:                  -4.645
REMARK INTRA:                  -0.322
REMARK UNBOUND:                -0.322
REMARK SMILES CCCCCCCCC(=O)[O-]
REMARK SMILES IDX 6 1 7 2 8 3 9 4 10 5 11 6 5 7 4 8 3 9 2 10 1 11
REMARK H PARENT
REMARK Flexibility Score: inf
ROOT
ATOM      1  C   UNL     1      20.357  28.807  55.965  1.00  0.00     0.000 C 
ENDROOT
BRANCH   1   2
ATOM      2  C   UNL     1      20.931  30.169  56.373  1.00  0.00     0.006 C 
BRANCH   2   3
ATOM      3  C   UNL     1      21.928  30.023  57.526  1.00  0.00     0.053 C 
BRANCH   3   4
ATOM      4  C   UNL     1      21.222  30.101  58.842  1.00  0.00     0.041 C 
ATOM      5  O   UNL     1      20.860  29.049  59.431  1.00  0.00    -0.550 OA
ATOM      6  O   UNL     1      21.009  31.335  59.445  1.00  0.00    -0.550 OA
ENDBRANCH   3   4
ENDBRANCH   2   3
ENDBRANCH   1   2
BRANCH   1   7
ATOM      7  C   UNL     1      18.860  28.916  55.637  1.00  0.00     0.000 C 
BRANCH   7   8
ATOM      8  C   UNL     1      18.571  29.942  54.529  1.00  0.00    -0.000 C 
BRANCH   8   9
ATOM      9  C   UNL     1      17.161  29.785  53.932  1.00  0.00    -0.000 C 
BRANCH   9  10
ATOM     10  C   UNL     1      16.108  29.430  54.994  1.00  0.00    -0.003 C 
ATOM     11  C   UNL     1      15.058  28.449  54.476  1.00  0.00     0.004 C 
ENDBRANCH   9  10
ENDBRANCH   8   9
ENDBRANCH   7   8
ENDBRANCH   1   7
TORSDOF 7
ENDMDL
MODEL 2
REMARK VINA RESULT:    -3.204     12.712     14.400
REMARK INTER + INTRA:          -4.838
REMARK INTER:                  -4.403
REMARK INTRA:                  -0.435
REMARK UNBOUND:                -0.322
REMARK SMILES CCCCCCCCC(=O)[O-]
REMARK SMILES IDX 6 1 7 2 8 3 9 4 10 5 11 6 5 7 4 8 3 9 2 10 1 11
REMARK H PARENT
REMARK Flexibility Score: inf
ROOT
ATOM      1  C   UNL     1      16.710  19.153  50.283  1.00  0.00     0.000 C 
ENDROOT
BRANCH   1   2
ATOM      2  C   UNL     1      16.173  19.018  48.853  1.00  0.00     0.006 C 
BRANCH   2   3
ATOM      3  C   UNL     1      17.244  18.452  47.915  1.00  0.00     0.053 C 
BRANCH   3   4
ATOM      4  C   UNL     1      16.690  18.268  46.538  1.00  0.00     0.041 C 
ATOM      5  O   UNL     1      17.325  18.694  45.537  1.00  0.00    -0.550 OA
ATOM      6  O   UNL     1      15.497  17.581  46.354  1.00  0.00    -0.550 OA
ENDBRANCH   3   4
ENDBRANCH   2   3
ENDBRANCH   1   2
BRANCH   1   7
ATOM      7  C   UNL     1      17.929  18.245  50.502  1.00  0.00     0.000 C 
BRANCH   7   8
ATOM      8  C   UNL     1      17.978  17.653  51.919  1.00  0.00    -0.000 C 
BRANCH   8   9
ATOM      9  C   UNL     1      16.586  17.543  52.564  1.00  0.00    -0.000 C 
BRANCH   9  10
ATOM     10  C   UNL     1      16.581  17.984  54.035  1.00  0.00    -0.003 C 
ATOM     11  C   UNL     1      17.463  19.207  54.286  1.00  0.00     0.004 C 
ENDBRANCH   9  10
ENDBRANCH   8   9
ENDBRANCH   7   8
ENDBRANCH   1   7
TORSDOF 7
ENDMDL
MODEL 3
REMARK VINA RESULT:    -3.187      1.498      2.065
REMARK INTER + INTRA:          -4.813
REMARK INTER:                  -4.384
REMARK INTRA:                  -0.430
REMARK UNBOUND:                -0.322
REMARK SMILES CCCCCCCCC(=O)[O-]
REMARK SMILES IDX 6 1 7 2 8 3 9 4 10 5 11 6 5 7 4 8 3 9 2 10 1 11
REMARK H PARENT
REMARK Flexibility Score: inf
ROOT
ATOM      1  C   UNL     1      18.669  28.750  55.796  1.00  0.00     0.000 C 
ENDROOT
BRANCH   1   2
ATOM      2  C   UNL     1      20.068  28.789  56.420  1.00  0.00     0.006 C 
BRANCH   2   3
ATOM      3  C   UNL     1      20.907  29.923  55.823  1.00  0.00     0.053 C 
BRANCH   3   4
ATOM      4  C   UNL     1      22.053  30.259  56.723  1.00  0.00     0.041 C 
ATOM      5  O   UNL     1      21.935  30.138  57.971  1.00  0.00    -0.550 OA
ATOM      6  O   UNL     1      23.269  30.657  56.182  1.00  0.00    -0.550 OA
ENDBRANCH   3   4
ENDBRANCH   2   3
ENDBRANCH   1   2
BRANCH   1   7
ATOM      7  C   UNL     1      18.560  29.742  54.628  1.00  0.00     0.000 C 
BRANCH   7   8
ATOM      8  C   UNL     1      17.104  30.004  54.208  1.00  0.00    -0.000 C 
BRANCH   8   9
ATOM      9  C   UNL     1      16.087  29.378  55.178  1.00  0.00    -0.000 C 
BRANCH   9  10
ATOM     10  C   UNL     1      15.052  28.499  54.459  1.00  0.00    -0.003 C 
ATOM     11  C   UNL     1      15.584  27.913  53.152  1.00  0.00     0.004 C 
ENDBRANCH   9  10
ENDBRANCH   8   9
ENDBRANCH   7   8
ENDBRANCH   1   7
TORSDOF 7
ENDMDL
MODEL 4
REMARK VINA RESULT:    -3.150      3.064      5.293
REMARK INTER + INTRA:          -4.761
REMARK INTER:                  -4.142
REMARK INTRA:                  -0.619
REMARK UNBOUND:                -0.322
REMARK SMILES CCCCCCCCC(=O)[O-]
REMARK SMILES IDX 6 1 7 2 8 3 9 4 10 5 11 6 5 7 4 8 3 9 2 10 1 11
REMARK H PARENT
REMARK Flexibility Score: inf
ROOT
ATOM      1  C   UNL     1      20.488  30.225  55.778  1.00  0.00     0.000 C 
ENDROOT
BRANCH   1   2
ATOM      2  C   UNL     1      19.677  29.278  54.886  1.00  0.00     0.006 C 
BRANCH   2   3
ATOM      3  C   UNL     1      18.293  29.008  55.485  1.00  0.00     0.053 C 
BRANCH   3   4
ATOM      4  C   UNL     1      17.236  29.725  54.708  1.00  0.00     0.041 C 
ATOM      5  O   UNL     1      17.551  30.455  53.731  1.00  0.00    -0.550 OA
ATOM      6  O   UNL     1      15.896  29.547  55.029  1.00  0.00    -0.550 OA
ENDBRANCH   3   4
ENDBRANCH   2   3
ENDBRANCH   1   2
BRANCH   1   7
ATOM      7  C   UNL     1      21.923  29.710  55.964  1.00  0.00     0.000 C 
BRANCH   7   8
ATOM      8  C   UNL     1      22.405  29.813  57.420  1.00  0.00    -0.000 C 
BRANCH   8   9
ATOM      9  C   UNL     1      21.316  30.346  58.367  1.00  0.00    -0.000 C 
BRANCH   9  10
ATOM     10  C   UNL     1      20.893  29.311  59.420  1.00  0.00    -0.003 C 
ATOM     11  C   UNL     1      19.896  28.289  58.875  1.00  0.00     0.004 C 
ENDBRANCH   9  10
ENDBRANCH   8   9
ENDBRANCH   7   8
ENDBRANCH   1   7
TORSDOF 7
ENDMDL
MODEL 5
REMARK VINA RESULT:    -3.102     11.397     12.224
REMARK INTER + INTRA:          -4.693
REMARK INTER:                  -4.227
REMARK INTRA:                  -0.466
REMARK UNBOUND:                -0.322
REMARK SMILES CCCCCCCCC(=O)[O-]
REMARK SMILES IDX 6 1 7 2 8 3 9 4 10 5 11 6 5 7 4 8 3 9 2 10 1 11
REMARK H PARENT
REMARK Flexibility Score: inf
ROOT
ATOM      1  C   UNL     1      16.158  18.783  53.256  1.00  0.00     0.000 C 
ENDROOT
BRANCH   1   2
ATOM      2  C   UNL     1      15.961  18.737  54.776  1.00  0.00     0.006 C 
BRANCH   2   3
ATOM      3  C   UNL     1      17.302  18.854  55.508  1.00  0.00     0.053 C 
BRANCH   3   4
ATOM      4  C   UNL     1      17.252  18.127  56.813  1.00  0.00     0.041 C 
ATOM      5  O   UNL     1      18.253  18.125  57.577  1.00  0.00    -0.550 OA
ATOM      6  O   UNL     1      16.082  17.493  57.212  1.00  0.00    -0.550 OA
ENDBRANCH   3   4
ENDBRANCH   2   3
ENDBRANCH   1   2
BRANCH   1   7
ATOM      7  C   UNL     1      16.677  17.438  52.727  1.00  0.00     0.000 C 
BRANCH   7   8
ATOM      8  C   UNL     1      18.013  17.572  51.980  1.00  0.00    -0.000 C 
BRANCH   8   9
ATOM      9  C   UNL     1      18.075  18.832  51.099  1.00  0.00    -0.000 C 
BRANCH   9  10
ATOM     10  C   UNL     1      17.629  18.563  49.654  1.00  0.00    -0.003 C 
ATOM     11  C   UNL     1      16.262  19.170  49.336  1.00  0.00     0.004 C 
ENDBRANCH   9  10
ENDBRANCH   8   9
ENDBRANCH   7   8
ENDBRANCH   1   7
TORSDOF 7
ENDMDL
MODEL 6
REMARK VINA RESULT:    -3.100     13.176     14.798
REMARK INTER + INTRA:          -4.691
REMARK INTER:                  -4.301
REMARK INTRA:                  -0.389
REMARK UNBOUND:                -0.322
REMARK SMILES CCCCCCCCC(=O)[O-]
REMARK SMILES IDX 6 1 7 2 8 3 9 4 10 5 11 6 5 7 4 8 3 9 2 10 1 11
REMARK H PARENT
REMARK Flexibility Score: inf
ROOT
ATOM      1  C   UNL     1      17.764  19.638  47.923  1.00  0.00     0.000 C 
ENDROOT
BRANCH   1   2
ATOM      2  C   UNL     1      17.256  18.252  47.510  1.00  0.00     0.006 C 
BRANCH   2   3
ATOM      3  C   UNL     1      16.264  18.354  46.347  1.00  0.00     0.053 C 
BRANCH   3   4
ATOM      4  C   UNL     1      14.902  17.910  46.779  1.00  0.00     0.041 C 
ATOM      5  O   UNL     1      14.374  16.890  46.263  1.00  0.00    -0.550 OA
ATOM      6  O   UNL     1      14.236  18.593  47.789  1.00  0.00    -0.550 OA
ENDBRANCH   3   4
ENDBRANCH   2   3
ENDBRANCH   1   2
BRANCH   1   7
ATOM      7  C   UNL     1      17.784  19.783  49.452  1.00  0.00     0.000 C 
BRANCH   7   8
ATOM      8  C   UNL     1      17.205  18.554  50.171  1.00  0.00    -0.000 C 
BRANCH   8   9
ATOM      9  C   UNL     1      18.218  17.893  51.122  1.00  0.00    -0.000 C 
BRANCH   9  10
ATOM     10  C   UNL     1      17.900  18.165  52.601  1.00  0.00    -0.003 C 
ATOM     11  C   UNL     1      16.617  17.475  53.064  1.00  0.00     0.004 C 
ENDBRANCH   9  10
ENDBRANCH   8   9
ENDBRANCH   7   8
ENDBRANCH   1   7
TORSDOF 7
ENDMDL
MODEL 7
REMARK VINA RESULT:    -3.100      3.588      5.927
REMARK INTER + INTRA:          -4.690
REMARK INTER:                  -4.339
REMARK INTRA:                  -0.351
REMARK UNBOUND:                -0.322
REMARK SMILES CCCCCCCCC(=O)[O-]
REMARK SMILES IDX 6 1 7 2 8 3 9 4 10 5 11 6 5 7 4 8 3 9 2 10 1 11
REMARK H PARENT
REMARK Flexibility Score: inf
ROOT
ATOM      1  C   UNL     1      18.721  29.077  55.238  1.00  0.00     0.000 C 
ENDROOT
BRANCH   1   2
ATOM      2  C   UNL     1      17.669  29.745  54.345  1.00  0.00     0.006 C 
BRANCH   2   3
ATOM      3  C   UNL     1      16.261  29.559  54.919  1.00  0.00     0.053 C 
BRANCH   3   4
ATOM      4  C   UNL     1      15.539  28.467  54.195  1.00  0.00     0.041 C 
ATOM      5  O   UNL     1      14.684  27.765  54.795  1.00  0.00    -0.550 OA
ATOM      6  O   UNL     1      15.773  28.258  52.841  1.00  0.00    -0.550 OA
ENDBRANCH   3   4
ENDBRANCH   2   3
ENDBRANCH   1   2
BRANCH   1   7
ATOM      7  C   UNL     1      19.952  29.979  55.407  1.00  0.00     0.000 C 
BRANCH   7   8
ATOM      8  C   UNL     1      20.855  29.536  56.569  1.00  0.00    -0.000 C 
BRANCH   8   9
ATOM      9  C   UNL     1      20.134  28.601  57.555  1.00  0.00    -0.000 C 
BRANCH   9  10
ATOM     10  C   UNL     1      20.329  29.026  59.019  1.00  0.00    -0.003 C 
ATOM     11  C   UNL     1      21.039  30.373  59.151  1.00  0.00     0.004 C 
ENDBRANCH   9  10
ENDBRANCH   8   9
ENDBRANCH   7   8
ENDBRANCH   1   7
TORSDOF 7
ENDMDL
MODEL 8
REMARK VINA RESULT:    -2.978     12.059     13.366
REMARK INTER + INTRA:          -4.518
REMARK INTER:                  -4.226
REMARK INTRA:                  -0.292
REMARK UNBOUND:                -0.322
REMARK SMILES CCCCCCCCC(=O)[O-]
REMARK SMILES IDX 6 1 7 2 8 3 9 4 10 5 11 6 5 7 4 8 3 9 2 10 1 11
REMARK H PARENT
REMARK Flexibility Score: inf
ROOT
ATOM      1  C   UNL     1      16.899  19.075  50.450  1.00  0.00     0.000 C 
ENDROOT
BRANCH   1   2
ATOM      2  C   UNL     1      15.954  18.399  51.449  1.00  0.00     0.006 C 
BRANCH   2   3
ATOM      3  C   UNL     1      16.732  17.531  52.443  1.00  0.00     0.053 C 
BRANCH   3   4
ATOM      4  C   UNL     1      16.983  18.284  53.711  1.00  0.00     0.041 C 
ATOM      5  O   UNL     1      16.182  18.184  54.677  1.00  0.00    -0.550 OA
ATOM      6  O   UNL     1      18.129  19.057  53.845  1.00  0.00    -0.550 OA
ENDBRANCH   3   4
ENDBRANCH   2   3
ENDBRANCH   1   2
BRANCH   1   7
ATOM      7  C   UNL     1      16.330  19.013  49.025  1.00  0.00     0.000 C 
BRANCH   7   8
ATOM      8  C   UNL     1      17.348  18.483  48.003  1.00  0.00    -0.000 C 
BRANCH   8   9
ATOM      9  C   UNL     1      16.743  18.309  46.599  1.00  0.00    -0.000 C 
BRANCH   9  10
ATOM     10  C   UNL     1      15.214  18.462  46.595  1.00  0.00    -0.003 C 
ATOM     11  C   UNL     1      14.491  17.134  46.372  1.00  0.00     0.004 C 
ENDBRANCH   9  10
ENDBRANCH   8   9
ENDBRANCH   7   8
ENDBRANCH   1   7
TORSDOF 7
ENDMDL
MODEL 9
REMARK VINA RESULT:    -2.940     17.177     18.011
REMARK INTER + INTRA:          -4.464
REMARK INTER:                  -3.627
REMARK INTRA:                  -0.838
REMARK UNBOUND:                -0.322
REMARK SMILES CCCCCCCCC(=O)[O-]
REMARK SMILES IDX 6 1 7 2 8 3 9 4 10 5 11 6 5 7 4 8 3 9 2 10 1 11
REMARK H PARENT
REMARK Flexibility Score: inf
ROOT
ATOM      1  C   UNL     1      22.627  17.116  43.074  1.00  0.00     0.000 C 
ENDROOT
BRANCH   1   2
ATOM      2  C   UNL     1      22.599  18.156  44.200  1.00  0.00     0.006 C 
BRANCH   2   3
ATOM      3  C   UNL     1      23.877  18.088  45.043  1.00  0.00     0.053 C 
BRANCH   3   4
ATOM      4  C   UNL     1      24.742  19.279  44.780  1.00  0.00     0.041 C 
ATOM      5  O   UNL     1      25.991  19.149  44.694  1.00  0.00    -0.550 OA
ATOM      6  O   UNL     1      24.165  20.527  44.579  1.00  0.00    -0.550 OA
ENDBRANCH   3   4
ENDBRANCH   2   3
ENDBRANCH   1   2
BRANCH   1   7
ATOM      7  C   UNL     1      22.965  17.773  41.727  1.00  0.00     0.000 C 
BRANCH   7   8
ATOM      8  C   UNL     1      22.366  19.182  41.589  1.00  0.00    -0.000 C 
BRANCH   8   9
ATOM      9  C   UNL     1      23.411  20.231  41.172  1.00  0.00    -0.000 C 
BRANCH   9  10
ATOM     10  C   UNL     1      24.795  19.615  40.920  1.00  0.00    -0.003 C 
ATOM     11  C   UNL     1      25.934  20.485  41.451  1.00  0.00     0.004 C 
ENDBRANCH   9  10
ENDBRANCH   8   9
ENDBRANCH   7   8
ENDBRANCH   1   7
TORSDOF 7
ENDMDL
