MODEL 1
REMARK VINA RESULT:    -3.599      0.000      0.000
REMARK INTER + INTRA:          -6.584
REMARK INTER:                  -5.703
REMARK INTRA:                  -0.881
REMARK UNBOUND:                -0.881
REMARK SMILES CCCCCCCCCCCC(=O)[O-]
REMARK SMILES IDX 7 1 8 2 9 3 10 4 11 5 12 6 13 7 14 8 6 9 5 10 4 11 3 12 2 13
REMARK SMILES IDX 1 14
REMARK H PARENT
REMARK Flexibility Score: inf
ROOT
ATOM      1  C   UNL     1      26.287 155.875 119.924  1.00  0.00     0.000 C 
ENDROOT
BRANCH   1   2
ATOM      2  C   UNL     1      26.687 156.114 121.388  1.00  0.00     0.000 C 
BRANCH   2   3
ATOM      3  C   UNL     1      27.386 157.468 121.596  1.00  0.00     0.000 C 
BRANCH   3   4
ATOM      4  C   UNL     1      28.919 157.344 121.621  1.00  0.00     0.006 C 
BRANCH   4   5
ATOM      5  C   UNL     1      29.611 158.630 121.151  1.00  0.00     0.053 C 
BRANCH   5   6
ATOM      6  C   UNL     1      31.026 158.375 120.732  1.00  0.00     0.041 C 
ATOM      7  O   UNL     1      31.581 157.278 121.004  1.00  0.00    -0.550 OA
ATOM      8  O   UNL     1      31.744 159.363 120.070  1.00  0.00    -0.550 OA
ENDBRANCH   5   6
ENDBRANCH   4   5
ENDBRANCH   3   4
ENDBRANCH   2   3
ENDBRANCH   1   2
BRANCH   1   9
ATOM      9  C   UNL     1      25.453 157.046 119.385  1.00  0.00     0.000 C 
BRANCH   9  10
ATOM     10  C   UNL     1      25.537 157.180 117.856  1.00  0.00    -0.000 C 
BRANCH  10  11
ATOM     11  C   UNL     1      25.754 158.634 117.402  1.00  0.00    -0.000 C 
BRANCH  11  12
ATOM     12  C   UNL     1      26.919 159.314 118.137  1.00  0.00    -0.000 C 
BRANCH  12  13
ATOM     13  C   UNL     1      27.785 160.174 117.204  1.00  0.00    -0.003 C 
ATOM     14  C   UNL     1      29.224 160.250 117.704  1.00  0.00     0.004 C 
ENDBRANCH  12  13
ENDBRANCH  11  12
ENDBRANCH  10  11
ENDBRANCH   9  10
ENDBRANCH   1   9
TORSDOF 10
ENDMDL
MODEL 2
REMARK VINA RESULT:    -3.546      1.377      3.693
REMARK INTER + INTRA:          -6.500
REMARK INTER:                  -5.422
REMARK INTRA:                  -1.077
REMARK UNBOUND:                -0.881
REMARK SMILES CCCCCCCCCCCC(=O)[O-]
REMARK SMILES IDX 7 1 8 2 9 3 10 4 11 5 12 6 13 7 14 8 6 9 5 10 4 11 3 12 2 13
REMARK SMILES IDX 1 14
REMARK H PARENT
REMARK Flexibility Score: inf
ROOT
ATOM      1  C   UNL     1      25.649 159.000 117.789  1.00  0.00     0.000 C 
ENDROOT
BRANCH   1   2
ATOM      2  C   UNL     1      26.913 159.566 117.123  1.00  0.00     0.000 C 
BRANCH   2   3
ATOM      3  C   UNL     1      27.916 160.129 118.141  1.00  0.00     0.000 C 
BRANCH   3   4
ATOM      4  C   UNL     1      29.353 160.174 117.593  1.00  0.00     0.006 C 
BRANCH   4   5
ATOM      5  C   UNL     1      30.369 160.594 118.664  1.00  0.00     0.053 C 
BRANCH   5   6
ATOM      6  C   UNL     1      31.717 159.991 118.415  1.00  0.00     0.041 C 
ATOM      7  O   UNL     1      32.280 159.307 119.309  1.00  0.00    -0.550 OA
ATOM      8  O   UNL     1      32.365 160.212 117.207  1.00  0.00    -0.550 OA
ENDBRANCH   5   6
ENDBRANCH   4   5
ENDBRANCH   3   4
ENDBRANCH   2   3
ENDBRANCH   1   2
BRANCH   1   9
ATOM      9  C   UNL     1      25.589 157.473 117.640  1.00  0.00     0.000 C 
BRANCH   9  10
ATOM     10  C   UNL     1      25.595 156.745 118.994  1.00  0.00    -0.000 C 
BRANCH  10  11
ATOM     11  C   UNL     1      25.120 157.644 120.149  1.00  0.00    -0.000 C 
BRANCH  11  12
ATOM     12  C   UNL     1      26.114 157.670 121.322  1.00  0.00    -0.000 C 
BRANCH  12  13
ATOM     13  C   UNL     1      27.523 157.218 120.912  1.00  0.00    -0.003 C 
ATOM     14  C   UNL     1      28.559 158.289 121.236  1.00  0.00     0.004 C 
ENDBRANCH  12  13
ENDBRANCH  11  12
ENDBRANCH  10  11
ENDBRANCH   9  10
ENDBRANCH   1   9
TORSDOF 10
ENDMDL
MODEL 3
REMARK VINA RESULT:    -3.532      1.340      3.789
REMARK INTER + INTRA:          -6.477
REMARK INTER:                  -5.748
REMARK INTRA:                  -0.729
REMARK UNBOUND:                -0.881
REMARK SMILES CCCCCCCCCCCC(=O)[O-]
REMARK SMILES IDX 7 1 8 2 9 3 10 4 11 5 12 6 13 7 14 8 6 9 5 10 4 11 3 12 2 13
REMARK SMILES IDX 1 14
REMARK H PARENT
REMARK Flexibility Score: inf
ROOT
ATOM      1  C   UNL     1      28.363 160.174 117.369  1.00  0.00     0.000 C 
ENDROOT
BRANCH   1   2
ATOM      2  C   UNL     1      29.748 160.268 118.029  1.00  0.00     0.000 C 
BRANCH   2   3
ATOM      3  C   UNL     1      29.711 159.933 119.528  1.00  0.00     0.000 C 
BRANCH   3   4
ATOM      4  C   UNL     1      31.078 160.121 120.210  1.00  0.00     0.006 C 
BRANCH   4   5
ATOM      5  C   UNL     1      31.247 159.207 121.430  1.00  0.00     0.053 C 
BRANCH   5   6
ATOM      6  C   UNL     1      31.574 157.802 121.027  1.00  0.00     0.041 C 
ATOM      7  O   UNL     1      30.818 156.853 121.365  1.00  0.00    -0.550 OA
ATOM      8  O   UNL     1      32.732 157.536 120.307  1.00  0.00    -0.550 OA
ENDBRANCH   5   6
ENDBRANCH   4   5
ENDBRANCH   3   4
ENDBRANCH   2   3
ENDBRANCH   1   2
BRANCH   1   9
ATOM      9  C   UNL     1      27.281 159.849 118.408  1.00  0.00     0.000 C 
BRANCH   9  10
ATOM     10  C   UNL     1      26.279 158.795 117.910  1.00  0.00    -0.000 C 
BRANCH  10  11
ATOM     11  C   UNL     1      25.669 157.971 119.058  1.00  0.00    -0.000 C 
BRANCH  11  12
ATOM     12  C   UNL     1      26.722 157.518 120.082  1.00  0.00    -0.000 C 
BRANCH  12  13
ATOM     13  C   UNL     1      26.441 156.113 120.635  1.00  0.00    -0.003 C 
ATOM     14  C   UNL     1      26.143 155.128 119.509  1.00  0.00     0.004 C 
ENDBRANCH  12  13
ENDBRANCH  11  12
ENDBRANCH  10  11
ENDBRANCH   9  10
ENDBRANCH   1   9
TORSDOF 10
ENDMDL
MODEL 4
REMARK VINA RESULT:    -3.447      2.706      4.853
REMARK INTER + INTRA:          -6.344
REMARK INTER:                  -5.381
REMARK INTRA:                  -0.963
REMARK UNBOUND:                -0.881
REMARK SMILES CCCCCCCCCCCC(=O)[O-]
REMARK SMILES IDX 7 1 8 2 9 3 10 4 11 5 12 6 13 7 14 8 6 9 5 10 4 11 3 12 2 13
REMARK SMILES IDX 1 14
REMARK H PARENT
REMARK Flexibility Score: inf
ROOT
ATOM      1  C   UNL     1      31.270 157.239 121.017  1.00  0.00     0.000 C 
ENDROOT
BRANCH   1   2
ATOM      2  C   UNL     1      30.163 157.852 121.889  1.00  0.00     0.000 C 
BRANCH   2   3
ATOM      3  C   UNL     1      28.893 156.988 121.925  1.00  0.00     0.000 C 
BRANCH   3   4
ATOM      4  C   UNL     1      27.806 157.493 120.960  1.00  0.00     0.006 C 
BRANCH   4   5
ATOM      5  C   UNL     1      26.520 156.663 121.050  1.00  0.00     0.053 C 
BRANCH   5   6
ATOM      6  C   UNL     1      26.157 156.058 119.729  1.00  0.00     0.041 C 
ATOM      7  O   UNL     1      26.353 154.832 119.518  1.00  0.00    -0.550 OA
ATOM      8  O   UNL     1      25.634 156.855 118.719  1.00  0.00    -0.550 OA
ENDBRANCH   5   6
ENDBRANCH   4   5
ENDBRANCH   3   4
ENDBRANCH   2   3
ENDBRANCH   1   2
BRANCH   1   9
ATOM      9  C   UNL     1      32.297 158.304 120.606  1.00  0.00     0.000 C 
BRANCH   9  10
ATOM     10  C   UNL     1      31.639 159.596 120.097  1.00  0.00    -0.000 C 
BRANCH  10  11
ATOM     11  C   UNL     1      31.790 159.776 118.576  1.00  0.00    -0.000 C 
BRANCH  11  12
ATOM     12  C   UNL     1      30.518 160.334 117.918  1.00  0.00    -0.000 C 
BRANCH  12  13
ATOM     13  C   UNL     1      29.277 160.183 118.811  1.00  0.00    -0.003 C 
ATOM     14  C   UNL     1      28.048 159.814 117.986  1.00  0.00     0.004 C 
ENDBRANCH  12  13
ENDBRANCH  11  12
ENDBRANCH  10  11
ENDBRANCH   9  10
ENDBRANCH   1   9
TORSDOF 10
ENDMDL
MODEL 5
REMARK VINA RESULT:    -3.444      2.535      5.262
REMARK INTER + INTRA:          -6.338
REMARK INTER:                  -5.406
REMARK INTRA:                  -0.931
REMARK UNBOUND:                -0.881
REMARK SMILES CCCCCCCCCCCC(=O)[O-]
REMARK SMILES IDX 7 1 8 2 9 3 10 4 11 5 12 6 13 7 14 8 6 9 5 10 4 11 3 12 2 13
REMARK SMILES IDX 1 14
REMARK H PARENT
REMARK Flexibility Score: inf
ROOT
ATOM      1  C   UNL     1      28.574 160.221 117.292  1.00  0.00     0.000 C 
ENDROOT
BRANCH   1   2
ATOM      2  C   UNL     1      27.343 159.643 118.006  1.00  0.00     0.000 C 
BRANCH   2   3
ATOM      3  C   UNL     1      27.644 159.213 119.451  1.00  0.00     0.000 C 
BRANCH   3   4
ATOM      4  C   UNL     1      26.465 158.475 120.107  1.00  0.00     0.006 C 
BRANCH   4   5
ATOM      5  C   UNL     1      25.996 157.276 119.272  1.00  0.00     0.053 C 
BRANCH   5   6
ATOM      6  C   UNL     1      26.248 155.978 119.978  1.00  0.00     0.041 C 
ATOM      7  O   UNL     1      26.156 154.889 119.353  1.00  0.00    -0.550 OA
ATOM      8  O   UNL     1      26.552 155.971 121.333  1.00  0.00    -0.550 OA
ENDBRANCH   5   6
ENDBRANCH   4   5
ENDBRANCH   3   4
ENDBRANCH   2   3
ENDBRANCH   1   2
BRANCH   1   9
ATOM      9  C   UNL     1      29.643 160.652 118.306  1.00  0.00     0.000 C 
BRANCH   9  10
ATOM     10  C   UNL     1      31.049 160.155 117.932  1.00  0.00    -0.000 C 
BRANCH  10  11
ATOM     11  C   UNL     1      31.910 159.837 119.168  1.00  0.00    -0.000 C 
BRANCH  11  12
ATOM     12  C   UNL     1      31.148 160.043 120.486  1.00  0.00    -0.000 C 
BRANCH  12  13
ATOM     13  C   UNL     1      30.958 158.736 121.269  1.00  0.00    -0.003 C 
ATOM     14  C   UNL     1      31.919 157.657 120.779  1.00  0.00     0.004 C 
ENDBRANCH  12  13
ENDBRANCH  11  12
ENDBRANCH  10  11
ENDBRANCH   9  10
ENDBRANCH   1   9
TORSDOF 10
ENDMDL
MODEL 6
REMARK VINA RESULT:    -3.432      2.963      5.752
REMARK INTER + INTRA:          -6.319
REMARK INTER:                  -5.341
REMARK INTRA:                  -0.978
REMARK UNBOUND:                -0.881
REMARK SMILES CCCCCCCCCCCC(=O)[O-]
REMARK SMILES IDX 7 1 8 2 9 3 10 4 11 5 12 6 13 7 14 8 6 9 5 10 4 11 3 12 2 13
REMARK SMILES IDX 1 14
REMARK H PARENT
REMARK Flexibility Score: inf
ROOT
ATOM      1  C   UNL     1      29.619 160.251 117.598  1.00  0.00     0.000 C 
ENDROOT
BRANCH   1   2
ATOM      2  C   UNL     1      28.200 159.987 118.125  1.00  0.00     0.000 C 
BRANCH   2   3
ATOM      3  C   UNL     1      28.188 159.540 119.595  1.00  0.00     0.000 C 
BRANCH   3   4
ATOM      4  C   UNL     1      26.980 158.650 119.933  1.00  0.00     0.006 C 
BRANCH   4   5
ATOM      5  C   UNL     1      26.026 158.492 118.742  1.00  0.00     0.053 C 
BRANCH   5   6
ATOM      6  C   UNL     1      25.625 157.063 118.540  1.00  0.00     0.041 C 
ATOM      7  O   UNL     1      25.665 156.251 119.502  1.00  0.00    -0.550 OA
ATOM      8  O   UNL     1      25.239 156.620 117.282  1.00  0.00    -0.550 OA
ENDBRANCH   5   6
ENDBRANCH   4   5
ENDBRANCH   3   4
ENDBRANCH   2   3
ENDBRANCH   1   2
BRANCH   1   9
ATOM      9  C   UNL     1      30.573 160.605 118.748  1.00  0.00     0.000 C 
BRANCH   9  10
ATOM     10  C   UNL     1      32.019 160.160 118.476  1.00  0.00    -0.000 C 
BRANCH  10  11
ATOM     11  C   UNL     1      32.489 159.059 119.443  1.00  0.00    -0.000 C 
BRANCH  11  12
ATOM     12  C   UNL     1      31.585 158.935 120.680  1.00  0.00    -0.000 C 
BRANCH  12  13
ATOM     13  C   UNL     1      31.521 157.500 121.223  1.00  0.00    -0.003 C 
ATOM     14  C   UNL     1      30.103 157.139 121.654  1.00  0.00     0.004 C 
ENDBRANCH  12  13
ENDBRANCH  11  12
ENDBRANCH  10  11
ENDBRANCH   9  10
ENDBRANCH   1   9
TORSDOF 10
ENDMDL
MODEL 7
REMARK VINA RESULT:    -3.350      3.300      6.310
REMARK INTER + INTRA:          -6.189
REMARK INTER:                  -4.995
REMARK INTRA:                  -1.194
REMARK UNBOUND:                -0.881
REMARK SMILES CCCCCCCCCCCC(=O)[O-]
REMARK SMILES IDX 7 1 8 2 9 3 10 4 11 5 12 6 13 7 14 8 6 9 5 10 4 11 3 12 2 13
REMARK SMILES IDX 1 14
REMARK H PARENT
REMARK Flexibility Score: inf
ROOT
ATOM      1  C   UNL     1      31.467 160.443 117.907  1.00  0.00     0.000 C 
ENDROOT
BRANCH   1   2
ATOM      2  C   UNL     1      30.700 161.405 118.828  1.00  0.00     0.000 C 
BRANCH   2   3
ATOM      3  C   UNL     1      29.181 161.358 118.598  1.00  0.00     0.000 C 
BRANCH   3   4
ATOM      4  C   UNL     1      28.741 160.117 117.804  1.00  0.00     0.006 C 
BRANCH   4   5
ATOM      5  C   UNL     1      27.420 159.535 118.324  1.00  0.00     0.053 C 
BRANCH   5   6
ATOM      6  C   UNL     1      26.447 159.289 117.213  1.00  0.00     0.041 C 
ATOM      7  O   UNL     1      25.677 158.293 117.252  1.00  0.00    -0.550 OA
ATOM      8  O   UNL     1      26.413 160.142 116.117  1.00  0.00    -0.550 OA
ENDBRANCH   5   6
ENDBRANCH   4   5
ENDBRANCH   3   4
ENDBRANCH   2   3
ENDBRANCH   1   2
BRANCH   1   9
ATOM      9  C   UNL     1      32.412 159.544 118.717  1.00  0.00     0.000 C 
BRANCH   9  10
ATOM     10  C   UNL     1      32.661 160.076 120.138  1.00  0.00    -0.000 C 
BRANCH  10  11
ATOM     11  C   UNL     1      32.607 158.965 121.202  1.00  0.00    -0.000 C 
BRANCH  11  12
ATOM     12  C   UNL     1      31.834 157.726 120.722  1.00  0.00    -0.000 C 
BRANCH  12  13
ATOM     13  C   UNL     1      30.555 157.477 121.535  1.00  0.00    -0.003 C 
ATOM     14  C   UNL     1      29.444 158.436 121.121  1.00  0.00     0.004 C 
ENDBRANCH  12  13
ENDBRANCH  11  12
ENDBRANCH  10  11
ENDBRANCH   9  10
ENDBRANCH   1   9
TORSDOF 10
ENDMDL
MODEL 8
REMARK VINA RESULT:    -3.275      2.728      4.895
REMARK INTER + INTRA:          -6.071
REMARK INTER:                  -5.044
REMARK INTRA:                  -1.027
REMARK UNBOUND:                -0.881
REMARK SMILES CCCCCCCCCCCC(=O)[O-]
REMARK SMILES IDX 7 1 8 2 9 3 10 4 11 5 12 6 13 7 14 8 6 9 5 10 4 11 3 12 2 13
REMARK SMILES IDX 1 14
REMARK H PARENT
REMARK Flexibility Score: inf
ROOT
ATOM      1  C   UNL     1      27.383 160.157 116.448  1.00  0.00     0.000 C 
ENDROOT
BRANCH   1   2
ATOM      2  C   UNL     1      26.333 159.172 116.983  1.00  0.00     0.000 C 
BRANCH   2   3
ATOM      3  C   UNL     1      25.382 159.818 118.004  1.00  0.00     0.000 C 
BRANCH   3   4
ATOM      4  C   UNL     1      25.443 159.136 119.382  1.00  0.00     0.006 C 
BRANCH   4   5
ATOM      5  C   UNL     1      26.677 158.238 119.530  1.00  0.00     0.053 C 
BRANCH   5   6
ATOM      6  C   UNL     1      26.298 156.821 119.834  1.00  0.00     0.041 C 
ATOM      7  O   UNL     1      25.768 156.102 118.946  1.00  0.00    -0.550 OA
ATOM      8  O   UNL     1      26.499 156.305 121.107  1.00  0.00    -0.550 OA
ENDBRANCH   5   6
ENDBRANCH   4   5
ENDBRANCH   3   4
ENDBRANCH   2   3
ENDBRANCH   1   2
BRANCH   1   9
ATOM      9  C   UNL     1      27.439 161.423 117.315  1.00  0.00     0.000 C 
BRANCH   9  10
ATOM     10  C   UNL     1      28.647 161.437 118.266  1.00  0.00    -0.000 C 
BRANCH  10  11
ATOM     11  C   UNL     1      29.635 160.292 117.982  1.00  0.00    -0.000 C 
BRANCH  11  12
ATOM     12  C   UNL     1      30.520 159.962 119.195  1.00  0.00    -0.000 C 
BRANCH  12  13
ATOM     13  C   UNL     1      31.988 159.727 118.808  1.00  0.00    -0.003 C 
ATOM     14  C   UNL     1      32.289 160.294 117.425  1.00  0.00     0.004 C 
ENDBRANCH  12  13
ENDBRANCH  11  12
ENDBRANCH  10  11
ENDBRANCH   9  10
ENDBRANCH   1   9
TORSDOF 10
ENDMDL
MODEL 9
REMARK VINA RESULT:    -3.038      1.725      3.715
REMARK INTER + INTRA:          -5.696
REMARK INTER:                  -4.652
REMARK INTRA:                  -1.043
REMARK UNBOUND:                -0.881
REMARK SMILES CCCCCCCCCCCC(=O)[O-]
REMARK SMILES IDX 7 1 8 2 9 3 10 4 11 5 12 6 13 7 14 8 6 9 5 10 4 11 3 12 2 13
REMARK SMILES IDX 1 14
REMARK H PARENT
REMARK Flexibility Score: inf
ROOT
ATOM      1  C   UNL     1      28.724 161.549 118.387  1.00  0.00     0.000 C 
ENDROOT
BRANCH   1   2
ATOM      2  C   UNL     1      29.458 160.202 118.482  1.00  0.00     0.000 C 
BRANCH   2   3
ATOM      3  C   UNL     1      29.319 159.550 119.866  1.00  0.00     0.000 C 
BRANCH   3   4
ATOM      4  C   UNL     1      30.239 160.192 120.919  1.00  0.00     0.006 C 
BRANCH   4   5
ATOM      5  C   UNL     1      31.251 159.191 121.492  1.00  0.00     0.053 C 
BRANCH   5   6
ATOM      6  C   UNL     1      32.361 158.913 120.526  1.00  0.00     0.041 C 
ATOM      7  O   UNL     1      32.887 159.855 119.876  1.00  0.00    -0.550 OA
ATOM      8  O   UNL     1      32.793 157.610 120.319  1.00  0.00    -0.550 OA
ENDBRANCH   5   6
ENDBRANCH   4   5
ENDBRANCH   3   4
ENDBRANCH   2   3
ENDBRANCH   1   2
BRANCH   1   9
ATOM      9  C   UNL     1      27.413 161.403 117.602  1.00  0.00     0.000 C 
BRANCH   9  10
ATOM     10  C   UNL     1      27.454 160.249 116.588  1.00  0.00    -0.000 C 
BRANCH  10  11
ATOM     11  C   UNL     1      26.382 159.180 116.867  1.00  0.00    -0.000 C 
BRANCH  11  12
ATOM     12  C   UNL     1      25.637 159.423 118.189  1.00  0.00    -0.000 C 
BRANCH  12  13
ATOM     13  C   UNL     1      25.912 158.328 119.231  1.00  0.00    -0.003 C 
ATOM     14  C   UNL     1      25.600 156.944 118.668  1.00  0.00     0.004 C 
ENDBRANCH  12  13
ENDBRANCH  11  12
ENDBRANCH  10  11
ENDBRANCH   9  10
ENDBRANCH   1   9
TORSDOF 10
ENDMDL
