MODEL 1
REMARK VINA RESULT:    -4.025      0.000      0.000
REMARK INTER + INTRA:          -5.040
REMARK INTER:                  -4.966
REMARK INTRA:                  -0.074
REMARK UNBOUND:                -0.074
REMARK SMILES CCCCCC(C)=O
REMARK SMILES IDX 4 1 3 2 2 3 1 4 5 5 6 6 8 7 7 8
REMARK H PARENT
REMARK Flexibility Score: inf
ROOT
ATOM      1  C   UNL     1      25.477  56.215  -9.384  1.00  0.00     0.008 C 
ENDROOT
BRANCH   1   2
ATOM      2  C   UNL     1      24.146  55.455  -9.278  1.00  0.00     0.000 C 
BRANCH   2   3
ATOM      3  C   UNL     1      23.790  55.090  -7.829  1.00  0.00    -0.003 C 
ATOM      4  C   UNL     1      22.466  54.335  -7.716  1.00  0.00     0.004 C 
ENDBRANCH   2   3
ENDBRANCH   1   2
BRANCH   1   5
ATOM      5  C   UNL     1      25.246  57.730  -9.384  1.00  0.00     0.075 C 
BRANCH   5   6
ATOM      6  C   UNL     1      26.345  58.437 -10.132  1.00  0.00     0.129 C 
ATOM      7  O   UNL     1      26.943  57.849 -11.021  1.00  0.00    -0.300 OA
ATOM      8  C   UNL     1      26.716  59.856  -9.819  1.00  0.00     0.087 C 
ENDBRANCH   5   6
ENDBRANCH   1   5
TORSDOF 4
ENDMDL
MODEL 2
REMARK VINA RESULT:    -3.798      1.846      4.799
REMARK INTER + INTRA:          -4.759
REMARK INTER:                  -4.627
REMARK INTRA:                  -0.132
REMARK UNBOUND:                -0.074
REMARK SMILES CCCCCC(C)=O
REMARK SMILES IDX 4 1 3 2 2 3 1 4 5 5 6 6 8 7 7 8
REMARK H PARENT
REMARK Flexibility Score: inf
ROOT
ATOM      1  C   UNL     1      25.037  57.778  -9.321  1.00  0.00     0.008 C 
ENDROOT
BRANCH   1   2
ATOM      2  C   UNL     1      26.093  58.811  -9.741  1.00  0.00     0.000 C 
BRANCH   2   3
ATOM      3  C   UNL     1      27.100  58.247 -10.754  1.00  0.00    -0.003 C 
ATOM      4  C   UNL     1      28.358  59.106 -10.880  1.00  0.00     0.004 C 
ENDBRANCH   2   3
ENDBRANCH   1   2
BRANCH   1   5
ATOM      5  C   UNL     1      25.443  56.367  -9.763  1.00  0.00     0.075 C 
BRANCH   5   6
ATOM      6  C   UNL     1      24.931  55.336  -8.792  1.00  0.00     0.129 C 
ATOM      7  O   UNL     1      25.724  54.607  -8.215  1.00  0.00    -0.300 OA
ATOM      8  C   UNL     1      23.466  55.189  -8.507  1.00  0.00     0.087 C 
ENDBRANCH   5   6
ENDBRANCH   1   5
TORSDOF 4
ENDMDL
MODEL 3
REMARK VINA RESULT:    -3.586      1.632      2.221
REMARK INTER + INTRA:          -4.498
REMARK INTER:                  -4.417
REMARK INTRA:                  -0.081
REMARK UNBOUND:                -0.074
REMARK SMILES CCCCCC(C)=O
REMARK SMILES IDX 4 1 3 2 2 3 1 4 5 5 6 6 8 7 7 8
REMARK H PARENT
REMARK Flexibility Score: inf
ROOT
ATOM      1  C   UNL     1      26.278  57.738  -9.949  1.00  0.00     0.008 C 
ENDROOT
BRANCH   1   2
ATOM      2  C   UNL     1      25.046  57.238  -9.179  1.00  0.00     0.000 C 
BRANCH   2   3
ATOM      3  C   UNL     1      24.862  55.717  -9.286  1.00  0.00    -0.003 C 
ATOM      4  C   UNL     1      23.917  55.159  -8.222  1.00  0.00     0.004 C 
ENDBRANCH   2   3
ENDBRANCH   1   2
BRANCH   1   5
ATOM      5  C   UNL     1      26.365  59.268  -9.912  1.00  0.00     0.075 C 
BRANCH   5   6
ATOM      6  C   UNL     1      27.744  59.733 -10.297  1.00  0.00     0.129 C 
ATOM      7  O   UNL     1      28.114  60.852  -9.974  1.00  0.00    -0.300 OA
ATOM      8  C   UNL     1      28.684  58.848 -11.060  1.00  0.00     0.087 C 
ENDBRANCH   5   6
ENDBRANCH   1   5
TORSDOF 4
ENDMDL
MODEL 4
REMARK VINA RESULT:    -3.529     16.390     17.904
REMARK INTER + INTRA:          -4.427
REMARK INTER:                  -4.165
REMARK INTRA:                  -0.263
REMARK UNBOUND:                -0.074
REMARK SMILES CCCCCC(C)=O
REMARK SMILES IDX 4 1 3 2 2 3 1 4 5 5 6 6 8 7 7 8
REMARK H PARENT
REMARK Flexibility Score: inf
ROOT
ATOM      1  C   UNL     1      16.856  43.417   0.552  1.00  0.00     0.008 C 
ENDROOT
BRANCH   1   2
ATOM      2  C   UNL     1      15.701  44.223   1.164  1.00  0.00     0.000 C 
BRANCH   2   3
ATOM      3  C   UNL     1      14.904  45.006   0.109  1.00  0.00    -0.003 C 
ATOM      4  C   UNL     1      15.715  45.288  -1.156  1.00  0.00     0.004 C 
ENDBRANCH   2   3
ENDBRANCH   1   2
BRANCH   1   5
ATOM      5  C   UNL     1      18.123  43.539   1.405  1.00  0.00     0.075 C 
BRANCH   5   6
ATOM      6  C   UNL     1      19.323  43.823   0.540  1.00  0.00     0.129 C 
ATOM      7  O   UNL     1      20.317  43.120   0.640  1.00  0.00    -0.300 OA
ATOM      8  C   UNL     1      19.323  44.946  -0.455  1.00  0.00     0.087 C 
ENDBRANCH   5   6
ENDBRANCH   1   5
TORSDOF 4
ENDMDL
MODEL 5
REMARK VINA RESULT:    -3.509     16.461     17.749
REMARK INTER + INTRA:          -4.404
REMARK INTER:                  -4.225
REMARK INTRA:                  -0.179
REMARK UNBOUND:                -0.074
REMARK SMILES CCCCCC(C)=O
REMARK SMILES IDX 4 1 3 2 2 3 1 4 5 5 6 6 8 7 7 8
REMARK H PARENT
REMARK Flexibility Score: inf
ROOT
ATOM      1  C   UNL     1      18.018  45.252  -0.761  1.00  0.00     0.008 C 
ENDROOT
BRANCH   1   2
ATOM      2  C   UNL     1      19.434  44.850  -0.322  1.00  0.00     0.000 C 
BRANCH   2   3
ATOM      3  C   UNL     1      19.438  44.023   0.973  1.00  0.00    -0.003 C 
ATOM      4  C   UNL     1      20.284  42.755   0.863  1.00  0.00     0.004 C 
ENDBRANCH   2   3
ENDBRANCH   1   2
BRANCH   1   5
ATOM      5  C   UNL     1      16.999  44.171  -0.385  1.00  0.00     0.075 C 
BRANCH   5   6
ATOM      6  C   UNL     1      15.659  44.785  -0.076  1.00  0.00     0.129 C 
ATOM      7  O   UNL     1      15.090  45.447  -0.930  1.00  0.00    -0.300 OA
ATOM      8  C   UNL     1      14.999  44.593   1.257  1.00  0.00     0.087 C 
ENDBRANCH   5   6
ENDBRANCH   1   5
TORSDOF 4
ENDMDL
MODEL 6
REMARK VINA RESULT:    -3.468     16.947     18.293
REMARK INTER + INTRA:          -4.353
REMARK INTER:                  -4.015
REMARK INTRA:                  -0.338
REMARK UNBOUND:                -0.074
REMARK SMILES CCCCCC(C)=O
REMARK SMILES IDX 4 1 3 2 2 3 1 4 5 5 6 6 8 7 7 8
REMARK H PARENT
REMARK Flexibility Score: inf
ROOT
ATOM      1  C   UNL     1      17.714  44.641  -0.480  1.00  0.00     0.008 C 
ENDROOT
BRANCH   1   2
ATOM      2  C   UNL     1      19.229  44.562  -0.236  1.00  0.00     0.000 C 
BRANCH   2   3
ATOM      3  C   UNL     1      19.581  43.777   1.036  1.00  0.00    -0.003 C 
ATOM      4  C   UNL     1      20.551  42.626   0.771  1.00  0.00     0.004 C 
ENDBRANCH   2   3
ENDBRANCH   1   2
BRANCH   1   5
ATOM      5  C   UNL     1      17.004  43.400   0.074  1.00  0.00     0.075 C 
BRANCH   5   6
ATOM      6  C   UNL     1      16.733  42.406  -1.024  1.00  0.00     0.129 C 
ATOM      7  O   UNL     1      15.731  42.529  -1.713  1.00  0.00    -0.300 OA
ATOM      8  C   UNL     1      17.673  41.271  -1.302  1.00  0.00     0.087 C 
ENDBRANCH   5   6
ENDBRANCH   1   5
TORSDOF 4
ENDMDL
MODEL 7
REMARK VINA RESULT:    -3.468     16.605     18.157
REMARK INTER + INTRA:          -4.352
REMARK INTER:                  -4.090
REMARK INTRA:                  -0.263
REMARK UNBOUND:                -0.074
REMARK SMILES CCCCCC(C)=O
REMARK SMILES IDX 4 1 3 2 2 3 1 4 5 5 6 6 8 7 7 8
REMARK H PARENT
REMARK Flexibility Score: inf
ROOT
ATOM      1  C   UNL     1      16.971  43.473   0.435  1.00  0.00     0.008 C 
ENDROOT
BRANCH   1   2
ATOM      2  C   UNL     1      18.164  43.556   1.399  1.00  0.00     0.000 C 
BRANCH   2   3
ATOM      3  C   UNL     1      19.473  43.930   0.687  1.00  0.00    -0.003 C 
ATOM      4  C   UNL     1      19.263  44.928  -0.452  1.00  0.00     0.004 C 
ENDBRANCH   2   3
ENDBRANCH   1   2
BRANCH   1   5
ATOM      5  C   UNL     1      15.720  44.105   1.054  1.00  0.00     0.075 C 
BRANCH   5   6
ATOM      6  C   UNL     1      15.075  45.065   0.090  1.00  0.00     0.129 C 
ATOM      7  O   UNL     1      14.057  45.656   0.419  1.00  0.00    -0.300 OA
ATOM      8  C   UNL     1      15.662  45.325  -1.266  1.00  0.00     0.087 C 
ENDBRANCH   5   6
ENDBRANCH   1   5
TORSDOF 4
ENDMDL
MODEL 8
REMARK VINA RESULT:    -3.439     17.487     18.453
REMARK INTER + INTRA:          -4.317
REMARK INTER:                  -3.939
REMARK INTRA:                  -0.377
REMARK UNBOUND:                -0.074
REMARK SMILES CCCCCC(C)=O
REMARK SMILES IDX 4 1 3 2 2 3 1 4 5 5 6 6 8 7 7 8
REMARK H PARENT
REMARK Flexibility Score: inf
ROOT
ATOM      1  C   UNL     1      17.173  43.509   1.104  1.00  0.00     0.008 C 
ENDROOT
BRANCH   1   2
ATOM      2  C   UNL     1      16.818  42.064   0.722  1.00  0.00     0.000 C 
BRANCH   2   3
ATOM      3  C   UNL     1      16.587  41.894  -0.787  1.00  0.00    -0.003 C 
ATOM      4  C   UNL     1      17.698  41.097  -1.470  1.00  0.00     0.004 C 
ENDBRANCH   2   3
ENDBRANCH   1   2
BRANCH   1   5
ATOM      5  C   UNL     1      18.605  43.598   1.646  1.00  0.00     0.075 C 
BRANCH   5   6
ATOM      6  C   UNL     1      19.604  43.558   0.520  1.00  0.00     0.129 C 
ATOM      7  O   UNL     1      19.568  44.418  -0.347  1.00  0.00    -0.300 OA
ATOM      8  C   UNL     1      20.654  42.489   0.443  1.00  0.00     0.087 C 
ENDBRANCH   5   6
ENDBRANCH   1   5
TORSDOF 4
ENDMDL
MODEL 9
REMARK VINA RESULT:    -3.353     16.644     18.671
REMARK INTER + INTRA:          -4.211
REMARK INTER:                  -3.873
REMARK INTRA:                  -0.339
REMARK UNBOUND:                -0.074
REMARK SMILES CCCCCC(C)=O
REMARK SMILES IDX 4 1 3 2 2 3 1 4 5 5 6 6 8 7 7 8
REMARK H PARENT
REMARK Flexibility Score: inf
ROOT
ATOM      1  C   UNL     1      18.436  42.135  -0.139  1.00  0.00     0.008 C 
ENDROOT
BRANCH   1   2
ATOM      2  C   UNL     1      19.608  42.670   0.697  1.00  0.00     0.000 C 
BRANCH   2   3
ATOM      3  C   UNL     1      19.556  44.194   0.877  1.00  0.00    -0.003 C 
ATOM      4  C   UNL     1      19.278  44.936  -0.431  1.00  0.00     0.004 C 
ENDBRANCH   2   3
ENDBRANCH   1   2
BRANCH   1   5
ATOM      5  C   UNL     1      17.162  42.026   0.707  1.00  0.00     0.075 C 
BRANCH   5   6
ATOM      6  C   UNL     1      16.117  42.997   0.224  1.00  0.00     0.129 C 
ATOM      7  O   UNL     1      15.623  42.847  -0.883  1.00  0.00    -0.300 OA
ATOM      8  C   UNL     1      15.658  44.141   1.078  1.00  0.00     0.087 C 
ENDBRANCH   5   6
ENDBRANCH   1   5
TORSDOF 4
ENDMDL
