MODEL 1
REMARK VINA RESULT:     0.361      0.000      0.000
REMARK INTER + INTRA:           0.361
REMARK INTER:                   0.361
REMARK INTRA:                   0.000
REMARK UNBOUND:                 0.000
REMARK SMILES CC1=CC[C@]2(C)CCCC(C)(C)[C@]23C[C@H]13
REMARK SMILES IDX 1 1 2 2 3 3 4 4 5 5 7 6 8 7 9 8 10 9 13 10 15 11 14 12 11 13
REMARK SMILES IDX 12 14 6 15
REMARK H PARENT
REMARK Flexibility Score: inf
ROOT
ATOM      1  C   UNL     1       3.846  11.279  13.442  1.00  0.00     0.039 C 
ATOM      2  C   UNL     1       3.999   9.786  13.515  1.00  0.00    -0.074 C 
ATOM      3  C   UNL     1       2.916   9.003  13.328  1.00  0.00    -0.027 C 
ATOM      4  C   UNL     1       2.997   7.498  13.397  1.00  0.00     0.034 C 
ATOM      5  C   UNL     1       4.365   6.985  12.857  1.00  0.00    -0.022 C 
ATOM      6  C   UNL     1       4.466   5.462  13.115  1.00  0.00     0.008 C 
ATOM      7  C   UNL     1       5.843   4.875  12.754  1.00  0.00     0.001 C 
ATOM      8  C   UNL     1       6.994   5.580  13.487  1.00  0.00     0.007 C 
ATOM      9  C   UNL     1       7.037   7.125  13.306  1.00  0.00    -0.029 C 
ATOM     10  C   UNL     1       5.579   7.694  13.580  1.00  0.00    -0.012 C 
ATOM     11  C   UNL     1       5.375   9.201  13.800  1.00  0.00     0.022 C 
ATOM     12  C   UNL     1       5.364   8.267  15.008  1.00  0.00     0.017 C 
ATOM     13  C   UNL     1       8.135   7.653  14.275  1.00  0.00     0.012 C 
ATOM     14  C   UNL     1       7.514   7.497  11.879  1.00  0.00     0.012 C 
ATOM     15  C   UNL     1       4.364   7.273  11.322  1.00  0.00     0.012 C 
ENDROOT
TORSDOF 0
ENDMDL
MODEL 2
REMARK VINA RESULT:     0.826      1.285      4.255
REMARK INTER + INTRA:           0.826
REMARK INTER:                   0.826
REMARK INTRA:                   0.000
REMARK UNBOUND:                 0.000
REMARK SMILES CC1=CC[C@]2(C)CCCC(C)(C)[C@]23C[C@H]13
REMARK SMILES IDX 1 1 2 2 3 3 4 4 5 5 7 6 8 7 9 8 10 9 13 10 15 11 14 12 11 13
REMARK SMILES IDX 12 14 6 15
REMARK H PARENT
REMARK Flexibility Score: inf
ROOT
ATOM      1  C   UNL     1       7.001   4.875  14.619  1.00  0.00     0.039 C 
ATOM      2  C   UNL     1       6.538   6.004  13.743  1.00  0.00    -0.074 C 
ATOM      3  C   UNL     1       6.896   6.017  12.441  1.00  0.00    -0.027 C 
ATOM      4  C   UNL     1       6.474   7.125  11.508  1.00  0.00     0.034 C 
ATOM      5  C   UNL     1       5.057   7.657  11.874  1.00  0.00    -0.022 C 
ATOM      6  C   UNL     1       4.750   8.902  11.008  1.00  0.00     0.008 C 
ATOM      7  C   UNL     1       3.433   9.600  11.392  1.00  0.00     0.001 C 
ATOM      8  C   UNL     1       3.392  10.005  12.874  1.00  0.00     0.007 C 
ATOM      9  C   UNL     1       3.665   8.847  13.876  1.00  0.00    -0.029 C 
ATOM     10  C   UNL     1       4.969   8.077  13.396  1.00  0.00    -0.012 C 
ATOM     11  C   UNL     1       5.676   7.101  14.351  1.00  0.00     0.022 C 
ATOM     12  C   UNL     1       6.274   8.489  14.132  1.00  0.00     0.017 C 
ATOM     13  C   UNL     1       3.776   9.500  15.285  1.00  0.00     0.012 C 
ATOM     14  C   UNL     1       2.452   7.885  13.948  1.00  0.00     0.012 C 
ATOM     15  C   UNL     1       4.058   6.505  11.538  1.00  0.00     0.012 C 
ENDROOT
TORSDOF 0
ENDMDL
MODEL 3
REMARK VINA RESULT:     1.663      1.476      3.147
REMARK INTER + INTRA:           1.663
REMARK INTER:                   1.663
REMARK INTRA:                   0.000
REMARK UNBOUND:                 0.000
REMARK SMILES CC1=CC[C@]2(C)CCCC(C)(C)[C@]23C[C@H]13
REMARK SMILES IDX 1 1 2 2 3 3 4 4 5 5 7 6 8 7 9 8 10 9 13 10 15 11 14 12 11 13
REMARK SMILES IDX 12 14 6 15
REMARK H PARENT
REMARK Flexibility Score: inf
ROOT
ATOM      1  C   UNL     1       1.029  10.511  11.667  1.00  0.00     0.039 C 
ATOM      2  C   UNL     1       2.319  10.192  12.369  1.00  0.00    -0.074 C 
ATOM      3  C   UNL     1       2.636  10.858  13.500  1.00  0.00    -0.027 C 
ATOM      4  C   UNL     1       3.919  10.595  14.249  1.00  0.00     0.034 C 
ATOM      5  C   UNL     1       4.325   9.095  14.154  1.00  0.00    -0.022 C 
ATOM      6  C   UNL     1       5.729   8.915  14.781  1.00  0.00     0.008 C 
ATOM      7  C   UNL     1       6.294   7.494  14.608  1.00  0.00     0.001 C 
ATOM      8  C   UNL     1       6.350   7.058  13.137  1.00  0.00     0.007 C 
ATOM      9  C   UNL     1       4.999   7.164  12.371  1.00  0.00    -0.029 C 
ATOM     10  C   UNL     1       4.385   8.602  12.653  1.00  0.00    -0.012 C 
ATOM     11  C   UNL     1       3.231   9.124  11.782  1.00  0.00     0.022 C 
ATOM     12  C   UNL     1       4.644   9.649  11.535  1.00  0.00     0.017 C 
ATOM     13  C   UNL     1       5.316   6.873  10.875  1.00  0.00     0.012 C 
ATOM     14  C   UNL     1       4.023   6.049  12.823  1.00  0.00     0.012 C 
ATOM     15  C   UNL     1       3.261   8.301  14.976  1.00  0.00     0.012 C 
ENDROOT
TORSDOF 0
ENDMDL
