MODEL 1
REMARK VINA RESULT:    -3.728      0.000      0.000
REMARK INTER + INTRA:          -6.598
REMARK INTER:                  -5.689
REMARK INTRA:                  -0.909
REMARK UNBOUND:                -0.909
REMARK SMILES CCCCCCCCCCC(=O)[O-]
REMARK SMILES IDX 7 1 8 2 9 3 10 4 11 5 12 6 13 7 6 8 5 9 4 10 3 11 2 12 1 13
REMARK H PARENT
REMARK Flexibility Score: inf
ROOT
ATOM      1  C   UNL     1      29.782   5.443  15.784  1.00  0.00     0.000 C 
ENDROOT
BRANCH   1   2
ATOM      2  C   UNL     1      28.566   6.352  15.539  1.00  0.00     0.000 C 
BRANCH   2   3
ATOM      3  C   UNL     1      27.244   5.570  15.469  1.00  0.00     0.006 C 
BRANCH   3   4
ATOM      4  C   UNL     1      26.823   5.273  14.023  1.00  0.00     0.053 C 
BRANCH   4   5
ATOM      5  C   UNL     1      26.454   6.522  13.284  1.00  0.00     0.041 C 
ATOM      6  O   UNL     1      25.695   7.373  13.817  1.00  0.00    -0.550 OA
ATOM      7  O   UNL     1      26.979   6.764  12.020  1.00  0.00    -0.550 OA
ENDBRANCH   4   5
ENDBRANCH   3   4
ENDBRANCH   2   3
ENDBRANCH   1   2
BRANCH   1   8
ATOM      8  C   UNL     1      30.812   6.079  16.733  1.00  0.00     0.000 C 
BRANCH   8   9
ATOM      9  C   UNL     1      31.028   5.251  18.011  1.00  0.00    -0.000 C 
BRANCH   9  10
ATOM     10  C   UNL     1      29.722   4.994  18.780  1.00  0.00    -0.000 C 
BRANCH  10  11
ATOM     11  C   UNL     1      29.488   3.489  18.971  1.00  0.00    -0.000 C 
BRANCH  11  12
ATOM     12  C   UNL     1      28.323   2.959  18.118  1.00  0.00    -0.003 C 
ATOM     13  C   UNL     1      26.961   3.446  18.611  1.00  0.00     0.004 C 
ENDBRANCH  11  12
ENDBRANCH  10  11
ENDBRANCH   9  10
ENDBRANCH   8   9
ENDBRANCH   1   8
TORSDOF 9
ENDMDL
MODEL 2
REMARK VINA RESULT:    -3.684      9.270     12.550
REMARK INTER + INTRA:          -6.531
REMARK INTER:                  -5.164
REMARK INTRA:                  -1.367
REMARK UNBOUND:                -0.909
REMARK SMILES CCCCCCCCCCC(=O)[O-]
REMARK SMILES IDX 7 1 8 2 9 3 10 4 11 5 12 6 13 7 6 8 5 9 4 10 3 11 2 12 1 13
REMARK H PARENT
REMARK Flexibility Score: inf
ROOT
ATOM      1  C   UNL     1      18.000   7.686  11.451  1.00  0.00     0.000 C 
ENDROOT
BRANCH   1   2
ATOM      2  C   UNL     1      18.246   6.169  11.415  1.00  0.00     0.000 C 
BRANCH   2   3
ATOM      3  C   UNL     1      19.591   5.800  10.767  1.00  0.00     0.006 C 
BRANCH   3   4
ATOM      4  C   UNL     1      20.264   7.008  10.103  1.00  0.00     0.053 C 
BRANCH   4   5
ATOM      5  C   UNL     1      21.653   7.225  10.621  1.00  0.00     0.041 C 
ATOM      6  O   UNL     1      21.865   8.068  11.532  1.00  0.00    -0.550 OA
ATOM      7  O   UNL     1      22.708   6.470  10.124  1.00  0.00    -0.550 OA
ENDBRANCH   4   5
ENDBRANCH   3   4
ENDBRANCH   2   3
ENDBRANCH   1   2
BRANCH   1   8
ATOM      8  C   UNL     1      16.596   8.068  10.949  1.00  0.00     0.000 C 
BRANCH   8   9
ATOM      9  C   UNL     1      16.291   7.492   9.557  1.00  0.00    -0.000 C 
BRANCH   9  10
ATOM     10  C   UNL     1      17.096   8.176   8.441  1.00  0.00    -0.000 C 
BRANCH  10  11
ATOM     11  C   UNL     1      17.627   7.142   7.437  1.00  0.00    -0.000 C 
BRANCH  11  12
ATOM     12  C   UNL     1      16.970   5.762   7.608  1.00  0.00    -0.003 C 
ATOM     13  C   UNL     1      17.988   4.622   7.634  1.00  0.00     0.004 C 
ENDBRANCH  11  12
ENDBRANCH  10  11
ENDBRANCH   9  10
ENDBRANCH   8   9
ENDBRANCH   1   8
TORSDOF 9
ENDMDL
MODEL 3
REMARK VINA RESULT:    -3.677      3.121      4.623
REMARK INTER + INTRA:          -6.520
REMARK INTER:                  -6.050
REMARK INTRA:                  -0.470
REMARK UNBOUND:                -0.909
REMARK SMILES CCCCCCCCCCC(=O)[O-]
REMARK SMILES IDX 7 1 8 2 9 3 10 4 11 5 12 6 13 7 6 8 5 9 4 10 3 11 2 12 1 13
REMARK H PARENT
REMARK Flexibility Score: inf
ROOT
ATOM      1  C   UNL     1      23.391   6.770  16.667  1.00  0.00     0.000 C 
ENDROOT
BRANCH   1   2
ATOM      2  C   UNL     1      24.494   6.027  15.896  1.00  0.00     0.000 C 
BRANCH   2   3
ATOM      3  C   UNL     1      25.533   6.980  15.280  1.00  0.00     0.006 C 
BRANCH   3   4
ATOM      4  C   UNL     1      26.815   6.247  14.862  1.00  0.00     0.053 C 
BRANCH   4   5
ATOM      5  C   UNL     1      27.069   6.368  13.391  1.00  0.00     0.041 C 
ATOM      6  O   UNL     1      27.739   7.334  12.941  1.00  0.00    -0.550 OA
ATOM      7  O   UNL     1      26.599   5.392  12.521  1.00  0.00    -0.550 OA
ENDBRANCH   4   5
ENDBRANCH   3   4
ENDBRANCH   2   3
ENDBRANCH   1   2
BRANCH   1   8
ATOM      8  C   UNL     1      23.023   6.072  17.989  1.00  0.00     0.000 C 
BRANCH   8   9
ATOM      9  C   UNL     1      23.234   4.551  17.931  1.00  0.00    -0.000 C 
BRANCH   9  10
ATOM     10  C   UNL     1      23.872   3.989  19.211  1.00  0.00    -0.000 C 
BRANCH  10  11
ATOM     11  C   UNL     1      25.220   3.321  18.902  1.00  0.00    -0.000 C 
BRANCH  11  12
ATOM     12  C   UNL     1      25.249   1.837  19.301  1.00  0.00    -0.003 C 
ATOM     13  C   UNL     1      24.336   1.525  20.486  1.00  0.00     0.004 C 
ENDBRANCH  11  12
ENDBRANCH  10  11
ENDBRANCH   9  10
ENDBRANCH   8   9
ENDBRANCH   1   8
TORSDOF 9
ENDMDL
MODEL 4
REMARK VINA RESULT:    -3.668      3.887      5.411
REMARK INTER + INTRA:          -6.506
REMARK INTER:                  -6.122
REMARK INTRA:                  -0.384
REMARK UNBOUND:                -0.909
REMARK SMILES CCCCCCCCCCC(=O)[O-]
REMARK SMILES IDX 7 1 8 2 9 3 10 4 11 5 12 6 13 7 6 8 5 9 4 10 3 11 2 12 1 13
REMARK H PARENT
REMARK Flexibility Score: inf
ROOT
ATOM      1  C   UNL     1      22.777   6.412  17.042  1.00  0.00     0.000 C 
ENDROOT
BRANCH   1   2
ATOM      2  C   UNL     1      23.785   5.809  16.049  1.00  0.00     0.000 C 
BRANCH   2   3
ATOM      3  C   UNL     1      24.897   6.797  15.658  1.00  0.00     0.006 C 
BRANCH   3   4
ATOM      4  C   UNL     1      26.012   6.122  14.847  1.00  0.00     0.053 C 
BRANCH   4   5
ATOM      5  C   UNL     1      26.175   6.751  13.497  1.00  0.00     0.041 C 
ATOM      6  O   UNL     1      27.281   7.250  13.161  1.00  0.00    -0.550 OA
ATOM      7  O   UNL     1      25.117   6.752  12.597  1.00  0.00    -0.550 OA
ENDBRANCH   4   5
ENDBRANCH   3   4
ENDBRANCH   2   3
ENDBRANCH   1   2
BRANCH   1   8
ATOM      8  C   UNL     1      23.111   6.068  18.504  1.00  0.00     0.000 C 
BRANCH   8   9
ATOM      9  C   UNL     1      23.666   4.643  18.662  1.00  0.00    -0.000 C 
BRANCH   9  10
ATOM     10  C   UNL     1      22.661   3.684  19.321  1.00  0.00    -0.000 C 
BRANCH  10  11
ATOM     11  C   UNL     1      23.311   2.933  20.493  1.00  0.00    -0.000 C 
BRANCH  11  12
ATOM     12  C   UNL     1      22.615   3.218  21.834  1.00  0.00    -0.003 C 
ATOM     13  C   UNL     1      23.375   2.640  23.028  1.00  0.00     0.004 C 
ENDBRANCH  11  12
ENDBRANCH  10  11
ENDBRANCH   9  10
ENDBRANCH   8   9
ENDBRANCH   1   8
TORSDOF 9
ENDMDL
MODEL 5
REMARK VINA RESULT:    -3.665      9.026     10.875
REMARK INTER + INTRA:          -6.503
REMARK INTER:                  -5.567
REMARK INTRA:                  -0.935
REMARK UNBOUND:                -0.909
REMARK SMILES CCCCCCCCCCC(=O)[O-]
REMARK SMILES IDX 7 1 8 2 9 3 10 4 11 5 12 6 13 7 6 8 5 9 4 10 3 11 2 12 1 13
REMARK H PARENT
REMARK Flexibility Score: inf
ROOT
ATOM      1  C   UNL     1      20.497   5.646  10.444  1.00  0.00     0.000 C 
ENDROOT
BRANCH   1   2
ATOM      2  C   UNL     1      19.961   5.105   9.108  1.00  0.00     0.000 C 
BRANCH   2   3
ATOM      3  C   UNL     1      18.428   5.192   9.004  1.00  0.00     0.006 C 
BRANCH   3   4
ATOM      4  C   UNL     1      17.972   5.799   7.671  1.00  0.00     0.053 C 
BRANCH   4   5
ATOM      5  C   UNL     1      17.590   7.240   7.819  1.00  0.00     0.041 C 
ATOM      6  O   UNL     1      17.134   7.879   6.834  1.00  0.00    -0.550 OA
ATOM      7  O   UNL     1      17.702   7.868   9.053  1.00  0.00    -0.550 OA
ENDBRANCH   4   5
ENDBRANCH   3   4
ENDBRANCH   2   3
ENDBRANCH   1   2
BRANCH   1   8
ATOM      8  C   UNL     1      21.031   7.084  10.327  1.00  0.00     0.000 C 
BRANCH   8   9
ATOM      9  C   UNL     1      22.512   7.197  10.723  1.00  0.00    -0.000 C 
BRANCH   9  10
ATOM     10  C   UNL     1      23.439   7.386   9.511  1.00  0.00    -0.000 C 
BRANCH  10  11
ATOM     11  C   UNL     1      24.400   6.196   9.369  1.00  0.00    -0.000 C 
BRANCH  11  12
ATOM     12  C   UNL     1      23.824   5.072   8.493  1.00  0.00    -0.003 C 
ATOM     13  C   UNL     1      23.525   3.800   9.285  1.00  0.00     0.004 C 
ENDBRANCH  11  12
ENDBRANCH  10  11
ENDBRANCH   9  10
ENDBRANCH   8   9
ENDBRANCH   1   8
TORSDOF 9
ENDMDL
MODEL 6
REMARK VINA RESULT:    -3.662      1.233      2.025
REMARK INTER + INTRA:          -6.498
REMARK INTER:                  -5.417
REMARK INTRA:                  -1.081
REMARK UNBOUND:                -0.909
REMARK SMILES CCCCCCCCCCC(=O)[O-]
REMARK SMILES IDX 7 1 8 2 9 3 10 4 11 5 12 6 13 7 6 8 5 9 4 10 3 11 2 12 1 13
REMARK H PARENT
REMARK Flexibility Score: inf
ROOT
ATOM      1  C   UNL     1      29.854   4.344  16.472  1.00  0.00     0.000 C 
ENDROOT
BRANCH   1   2
ATOM      2  C   UNL     1      29.010   4.900  15.313  1.00  0.00     0.000 C 
BRANCH   2   3
ATOM      3  C   UNL     1      28.219   6.160  15.705  1.00  0.00     0.006 C 
BRANCH   3   4
ATOM      4  C   UNL     1      26.891   6.269  14.944  1.00  0.00     0.053 C 
BRANCH   4   5
ATOM      5  C   UNL     1      27.103   6.338  13.463  1.00  0.00     0.041 C 
ATOM      6  O   UNL     1      27.769   7.281  12.961  1.00  0.00    -0.550 OA
ATOM      7  O   UNL     1      26.597   5.339  12.640  1.00  0.00    -0.550 OA
ENDBRANCH   4   5
ENDBRANCH   3   4
ENDBRANCH   2   3
ENDBRANCH   1   2
BRANCH   1   8
ATOM      8  C   UNL     1      29.335   4.796  17.849  1.00  0.00     0.000 C 
BRANCH   8   9
ATOM      9  C   UNL     1      29.375   3.669  18.893  1.00  0.00    -0.000 C 
BRANCH   9  10
ATOM     10  C   UNL     1      28.174   2.716  18.786  1.00  0.00    -0.000 C 
BRANCH  10  11
ATOM     11  C   UNL     1      26.861   3.503  18.665  1.00  0.00    -0.000 C 
BRANCH  11  12
ATOM     12  C   UNL     1      26.140   3.249  17.331  1.00  0.00    -0.003 C 
ATOM     13  C   UNL     1      24.888   4.109  17.163  1.00  0.00     0.004 C 
ENDBRANCH  11  12
ENDBRANCH  10  11
ENDBRANCH   9  10
ENDBRANCH   8   9
ENDBRANCH   1   8
TORSDOF 9
ENDMDL
MODEL 7
REMARK VINA RESULT:    -3.623      8.106     10.706
REMARK INTER + INTRA:          -6.438
REMARK INTER:                  -5.677
REMARK INTRA:                  -0.761
REMARK UNBOUND:                -0.909
REMARK SMILES CCCCCCCCCCC(=O)[O-]
REMARK SMILES IDX 7 1 8 2 9 3 10 4 11 5 12 6 13 7 6 8 5 9 4 10 3 11 2 12 1 13
REMARK H PARENT
REMARK Flexibility Score: inf
ROOT
ATOM      1  C   UNL     1      23.289   3.907   9.775  1.00  0.00     0.000 C 
ENDROOT
BRANCH   1   2
ATOM      2  C   UNL     1      23.701   5.080   8.870  1.00  0.00     0.000 C 
BRANCH   2   3
ATOM      3  C   UNL     1      24.222   6.290   9.665  1.00  0.00     0.006 C 
BRANCH   3   4
ATOM      4  C   UNL     1      23.133   7.348   9.888  1.00  0.00     0.053 C 
BRANCH   4   5
ATOM      5  C   UNL     1      22.690   7.397  11.319  1.00  0.00     0.041 C 
ATOM      6  O   UNL     1      23.377   6.837  12.214  1.00  0.00    -0.550 OA
ATOM      7  O   UNL     1      21.539   8.092  11.668  1.00  0.00    -0.550 OA
ENDBRANCH   4   5
ENDBRANCH   3   4
ENDBRANCH   2   3
ENDBRANCH   1   2
BRANCH   1   8
ATOM      8  C   UNL     1      21.763   3.801   9.944  1.00  0.00     0.000 C 
BRANCH   8   9
ATOM      9  C   UNL     1      20.994   4.454   8.785  1.00  0.00    -0.000 C 
BRANCH   9  10
ATOM     10  C   UNL     1      19.919   5.442   9.266  1.00  0.00    -0.000 C 
BRANCH  10  11
ATOM     11  C   UNL     1      18.677   5.380   8.364  1.00  0.00    -0.000 C 
BRANCH  11  12
ATOM     12  C   UNL     1      18.185   6.773   7.939  1.00  0.00    -0.003 C 
ATOM     13  C   UNL     1      16.814   6.735   7.265  1.00  0.00     0.004 C 
ENDBRANCH  11  12
ENDBRANCH  10  11
ENDBRANCH   9  10
ENDBRANCH   8   9
ENDBRANCH   1   8
TORSDOF 9
ENDMDL
MODEL 8
REMARK VINA RESULT:    -3.620      2.699      4.473
REMARK INTER + INTRA:          -6.434
REMARK INTER:                  -5.821
REMARK INTRA:                  -0.613
REMARK UNBOUND:                -0.909
REMARK SMILES CCCCCCCCCCC(=O)[O-]
REMARK SMILES IDX 7 1 8 2 9 3 10 4 11 5 12 6 13 7 6 8 5 9 4 10 3 11 2 12 1 13
REMARK H PARENT
REMARK Flexibility Score: inf
ROOT
ATOM      1  C   UNL     1      23.218   4.999  17.377  1.00  0.00     0.000 C 
ENDROOT
BRANCH   1   2
ATOM      2  C   UNL     1      22.998   6.515  17.239  1.00  0.00     0.000 C 
BRANCH   2   3
ATOM      3  C   UNL     1      23.828   7.135  16.102  1.00  0.00     0.006 C 
BRANCH   3   4
ATOM      4  C   UNL     1      24.761   6.111  15.442  1.00  0.00     0.053 C 
BRANCH   4   5
ATOM      5  C   UNL     1      25.984   6.760  14.870  1.00  0.00     0.041 C 
ATOM      6  O   UNL     1      27.053   6.791  15.533  1.00  0.00    -0.550 OA
ATOM      7  O   UNL     1      25.953   7.299  13.589  1.00  0.00    -0.550 OA
ENDBRANCH   4   5
ENDBRANCH   3   4
ENDBRANCH   2   3
ENDBRANCH   1   2
BRANCH   1   8
ATOM      8  C   UNL     1      23.326   4.549  18.844  1.00  0.00     0.000 C 
BRANCH   8   9
ATOM      9  C   UNL     1      24.504   3.591  19.082  1.00  0.00    -0.000 C 
BRANCH   9  10
ATOM     10  C   UNL     1      25.346   3.358  17.818  1.00  0.00    -0.000 C 
BRANCH  10  11
ATOM     11  C   UNL     1      26.706   2.740  18.173  1.00  0.00    -0.000 C 
BRANCH  11  12
ATOM     12  C   UNL     1      27.728   3.789  18.641  1.00  0.00    -0.003 C 
ATOM     13  C   UNL     1      29.124   3.203  18.848  1.00  0.00     0.004 C 
ENDBRANCH  11  12
ENDBRANCH  10  11
ENDBRANCH   9  10
ENDBRANCH   8   9
ENDBRANCH   1   8
TORSDOF 9
ENDMDL
MODEL 9
REMARK VINA RESULT:    -3.603      8.473     12.146
REMARK INTER + INTRA:          -6.408
REMARK INTER:                  -5.404
REMARK INTRA:                  -1.004
REMARK UNBOUND:                -0.909
REMARK SMILES CCCCCCCCCCC(=O)[O-]
REMARK SMILES IDX 7 1 8 2 9 3 10 4 11 5 12 6 13 7 6 8 5 9 4 10 3 11 2 12 1 13
REMARK H PARENT
REMARK Flexibility Score: inf
ROOT
ATOM      1  C   UNL     1      18.881   4.471   9.264  1.00  0.00     0.000 C 
ENDROOT
BRANCH   1   2
ATOM      2  C   UNL     1      20.353   4.904   9.152  1.00  0.00     0.000 C 
BRANCH   2   3
ATOM      3  C   UNL     1      20.883   5.544  10.447  1.00  0.00     0.006 C 
BRANCH   3   4
ATOM      4  C   UNL     1      21.755   6.776  10.168  1.00  0.00     0.053 C 
BRANCH   4   5
ATOM      5  C   UNL     1      22.165   7.464  11.434  1.00  0.00     0.041 C 
ATOM      6  O   UNL     1      23.382   7.538  11.748  1.00  0.00    -0.550 OA
ATOM      7  O   UNL     1      21.207   8.056  12.247  1.00  0.00    -0.550 OA
ENDBRANCH   4   5
ENDBRANCH   3   4
ENDBRANCH   2   3
ENDBRANCH   1   2
BRANCH   1   8
ATOM      8  C   UNL     1      18.054   4.870   8.029  1.00  0.00     0.000 C 
BRANCH   8   9
ATOM      9  C   UNL     1      18.403   6.276   7.515  1.00  0.00    -0.000 C 
BRANCH   9  10
ATOM     10  C   UNL     1      17.175   7.195   7.418  1.00  0.00    -0.000 C 
BRANCH  10  11
ATOM     11  C   UNL     1      17.264   8.336   8.444  1.00  0.00    -0.000 C 
BRANCH  11  12
ATOM     12  C   UNL     1      16.898   7.881   9.866  1.00  0.00    -0.003 C 
ATOM     13  C   UNL     1      18.054   8.039  10.853  1.00  0.00     0.004 C 
ENDBRANCH  11  12
ENDBRANCH  10  11
ENDBRANCH   9  10
ENDBRANCH   8   9
ENDBRANCH   1   8
TORSDOF 9
ENDMDL
