MODEL 1
REMARK VINA RESULT:    -4.739      0.000      0.000
REMARK INTER + INTRA:          -4.877
REMARK INTER:                  -4.877
REMARK INTRA:                   0.000
REMARK UNBOUND:                 0.000
REMARK SMILES Nc1ncnc2nc[nH]c12
REMARK SMILES IDX 8 1 7 2 6 3 5 4 4 5 3 6 2 7 10 8 9 9 1 11
REMARK H PARENT 9 10 1 12 1 13
REMARK Flexibility Score: inf
ROOT
ATOM      1  C   UNL     1     -22.841 -14.626 -15.838  1.00  0.00     0.199 A 
ATOM      2  N   UNL     1     -23.761 -14.144 -14.958  1.00  0.00    -0.217 NA
ATOM      3  C   UNL     1     -23.107 -14.232 -13.787  1.00  0.00     0.182 A 
ATOM      4  N   UNL     1     -23.581 -13.876 -12.570  1.00  0.00    -0.215 NA
ATOM      5  C   UNL     1     -22.764 -14.040 -11.486  1.00  0.00     0.226 A 
ATOM      6  N   UNL     1     -21.500 -14.552 -11.637  1.00  0.00    -0.217 NA
ATOM      7  C   UNL     1     -21.020 -14.911 -12.866  1.00  0.00     0.152 A 
ATOM      8  C   UNL     1     -21.865 -14.738 -13.959  1.00  0.00     0.127 A 
ATOM      9  N   UNL     1     -21.672 -14.998 -15.258  1.00  0.00    -0.340 N 
ATOM     10  H   UNL     1     -20.826 -15.392 -15.727  1.00  0.00     0.168 HD
ENDROOT
BRANCH   7  11
ATOM     11  N   UNL     1     -19.702 -15.443 -13.001  1.00  0.00    -0.382 N 
ATOM     12  H   UNL     1     -19.557 -16.476 -13.037  1.00  0.00     0.158 HD
ATOM     13  H   UNL     1     -18.867 -14.819 -13.062  1.00  0.00     0.158 HD
ENDBRANCH   7  11
TORSDOF 1
ENDMDL
MODEL 2
REMARK VINA RESULT:    -4.551      1.111      3.006
REMARK INTER + INTRA:          -4.684
REMARK INTER:                  -4.684
REMARK INTRA:                   0.000
REMARK UNBOUND:                 0.000
REMARK SMILES Nc1ncnc2nc[nH]c12
REMARK SMILES IDX 8 1 7 2 6 3 5 4 4 5 3 6 2 7 10 8 9 9 1 11
REMARK H PARENT 9 10 1 12 1 13
REMARK Flexibility Score: inf
ROOT
ATOM      1  C   UNL     1     -22.514 -14.533 -10.512  1.00  0.00     0.199 A 
ATOM      2  N   UNL     1     -23.449 -13.875 -11.250  1.00  0.00    -0.217 NA
ATOM      3  C   UNL     1     -23.141 -14.253 -12.502  1.00  0.00     0.182 A 
ATOM      4  N   UNL     1     -23.774 -13.875 -13.638  1.00  0.00    -0.215 NA
ATOM      5  C   UNL     1     -23.312 -14.367 -14.827  1.00  0.00     0.226 A 
ATOM      6  N   UNL     1     -22.237 -15.218 -14.859  1.00  0.00    -0.217 NA
ATOM      7  C   UNL     1     -21.597 -15.600 -13.713  1.00  0.00     0.152 A 
ATOM      8  C   UNL     1     -22.079 -15.091 -12.510  1.00  0.00     0.127 A 
ATOM      9  N   UNL     1     -21.662 -15.285 -11.254  1.00  0.00    -0.340 N 
ATOM     10  H   UNL     1     -20.870 -15.873 -10.912  1.00  0.00     0.168 HD
ENDROOT
BRANCH   7  11
ATOM     11  N   UNL     1     -20.479 -16.487 -13.770  1.00  0.00    -0.382 N 
ATOM     12  H   UNL     1     -19.580 -16.167 -14.193  1.00  0.00     0.158 HD
ATOM     13  H   UNL     1     -20.537 -17.460 -13.397  1.00  0.00     0.158 HD
ENDBRANCH   7  11
TORSDOF 1
ENDMDL
MODEL 3
REMARK VINA RESULT:    -4.423      1.911      3.417
REMARK INTER + INTRA:          -4.552
REMARK INTER:                  -4.552
REMARK INTRA:                   0.000
REMARK UNBOUND:                 0.000
REMARK SMILES Nc1ncnc2nc[nH]c12
REMARK SMILES IDX 8 1 7 2 6 3 5 4 4 5 3 6 2 7 10 8 9 9 1 11
REMARK H PARENT 9 10 1 12 1 13
REMARK Flexibility Score: inf
ROOT
ATOM      1  C   UNL     1     -20.535 -15.912 -12.986  1.00  0.00     0.199 A 
ATOM      2  N   UNL     1     -20.920 -14.643 -13.296  1.00  0.00    -0.217 NA
ATOM      3  C   UNL     1     -22.081 -14.848 -13.940  1.00  0.00     0.182 A 
ATOM      4  N   UNL     1     -22.890 -13.899 -14.468  1.00  0.00    -0.215 NA
ATOM      5  C   UNL     1     -24.038 -14.303 -15.090  1.00  0.00     0.226 A 
ATOM      6  N   UNL     1     -24.354 -15.635 -15.173  1.00  0.00    -0.217 NA
ATOM      7  C   UNL     1     -23.539 -16.594 -14.640  1.00  0.00     0.152 A 
ATOM      8  C   UNL     1     -22.373 -16.167 -14.010  1.00  0.00     0.127 A 
ATOM      9  N   UNL     1     -21.403 -16.865 -13.409  1.00  0.00    -0.340 N 
ATOM     10  H   UNL     1     -21.321 -17.899 -13.287  1.00  0.00     0.168 HD
ENDROOT
BRANCH   7  11
ATOM     11  N   UNL     1     -23.887 -17.976 -14.739  1.00  0.00    -0.382 N 
ATOM     12  H   UNL     1     -24.827 -18.253 -15.099  1.00  0.00     0.158 HD
ATOM     13  H   UNL     1     -23.220 -18.727 -14.456  1.00  0.00     0.158 HD
ENDBRANCH   7  11
TORSDOF 1
ENDMDL
MODEL 4
REMARK VINA RESULT:    -4.317      1.759      3.619
REMARK INTER + INTRA:          -4.443
REMARK INTER:                  -4.443
REMARK INTRA:                   0.000
REMARK UNBOUND:                 0.000
REMARK SMILES Nc1ncnc2nc[nH]c12
REMARK SMILES IDX 8 1 7 2 6 3 5 4 4 5 3 6 2 7 10 8 9 9 1 11
REMARK H PARENT 9 10 1 12 1 13
REMARK Flexibility Score: inf
ROOT
ATOM      1  C   UNL     1     -20.513 -14.635 -13.286  1.00  0.00     0.199 A 
ATOM      2  N   UNL     1     -20.865 -15.904 -12.940  1.00  0.00    -0.217 NA
ATOM      3  C   UNL     1     -21.967 -16.105 -13.682  1.00  0.00     0.182 A 
ATOM      4  N   UNL     1     -22.724 -17.228 -13.714  1.00  0.00    -0.215 NA
ATOM      5  C   UNL     1     -23.817 -17.245 -14.536  1.00  0.00     0.226 A 
ATOM      6  N   UNL     1     -24.130 -16.152 -15.303  1.00  0.00    -0.217 NA
ATOM      7  C   UNL     1     -23.366 -15.018 -15.272  1.00  0.00     0.152 A 
ATOM      8  C   UNL     1     -22.258 -15.016 -14.429  1.00  0.00     0.127 A 
ATOM      9  N   UNL     1     -21.345 -14.066 -14.194  1.00  0.00    -0.340 N 
ATOM     10  H   UNL     1     -21.277 -13.109 -14.607  1.00  0.00     0.168 HD
ENDROOT
BRANCH   7  11
ATOM     11  N   UNL     1     -23.711 -13.891 -16.078  1.00  0.00    -0.382 N 
ATOM     12  H   UNL     1     -23.301 -13.787 -17.033  1.00  0.00     0.158 HD
ATOM     13  H   UNL     1     -24.369 -13.157 -15.735  1.00  0.00     0.158 HD
ENDBRANCH   7  11
TORSDOF 1
ENDMDL
MODEL 5
REMARK VINA RESULT:    -4.125      2.129      2.707
REMARK INTER + INTRA:          -4.245
REMARK INTER:                  -4.245
REMARK INTRA:                   0.000
REMARK UNBOUND:                 0.000
REMARK SMILES Nc1ncnc2nc[nH]c12
REMARK SMILES IDX 8 1 7 2 6 3 5 4 4 5 3 6 2 7 10 8 9 9 1 11
REMARK H PARENT 9 10 1 12 1 13
REMARK Flexibility Score: inf
ROOT
ATOM      1  C   UNL     1     -24.197 -17.869 -14.517  1.00  0.00     0.199 A 
ATOM      2  N   UNL     1     -24.567 -16.809 -15.287  1.00  0.00    -0.217 NA
ATOM      3  C   UNL     1     -23.613 -15.905 -15.005  1.00  0.00     0.182 A 
ATOM      4  N   UNL     1     -23.510 -14.655 -15.513  1.00  0.00    -0.215 NA
ATOM      5  C   UNL     1     -22.463 -13.876 -15.103  1.00  0.00     0.226 A 
ATOM      6  N   UNL     1     -21.549 -14.356 -14.201  1.00  0.00    -0.217 NA
ATOM      7  C   UNL     1     -21.652 -15.619 -13.687  1.00  0.00     0.152 A 
ATOM      8  C   UNL     1     -22.723 -16.399 -14.114  1.00  0.00     0.127 A 
ATOM      9  N   UNL     1     -23.074 -17.649 -13.788  1.00  0.00    -0.340 N 
ATOM     10  H   UNL     1     -22.602 -18.310 -13.131  1.00  0.00     0.168 HD
ENDROOT
BRANCH   7  11
ATOM     11  N   UNL     1     -20.688 -16.099 -12.748  1.00  0.00    -0.382 N 
ATOM     12  H   UNL     1     -19.670 -16.034 -12.966  1.00  0.00     0.158 HD
ATOM     13  H   UNL     1     -20.978 -16.519 -11.838  1.00  0.00     0.158 HD
ENDBRANCH   7  11
TORSDOF 1
ENDMDL
MODEL 6
REMARK VINA RESULT:    -3.845      2.124      3.233
REMARK INTER + INTRA:          -3.958
REMARK INTER:                  -3.958
REMARK INTRA:                   0.000
REMARK UNBOUND:                 0.000
REMARK SMILES Nc1ncnc2nc[nH]c12
REMARK SMILES IDX 8 1 7 2 6 3 5 4 4 5 3 6 2 7 10 8 9 9 1 11
REMARK H PARENT 9 10 1 12 1 13
REMARK Flexibility Score: inf
ROOT
ATOM      1  C   UNL     1     -23.895 -17.785 -14.497  1.00  0.00     0.199 A 
ATOM      2  N   UNL     1     -22.938 -17.648 -13.538  1.00  0.00    -0.217 NA
ATOM      3  C   UNL     1     -22.493 -16.399 -13.758  1.00  0.00     0.182 A 
ATOM      4  N   UNL     1     -21.522 -15.756 -13.068  1.00  0.00    -0.215 NA
ATOM      5  C   UNL     1     -21.204 -14.479 -13.441  1.00  0.00     0.226 A 
ATOM      6  N   UNL     1     -21.856 -13.875 -14.485  1.00  0.00    -0.217 NA
ATOM      7  C   UNL     1     -22.838 -14.524 -15.182  1.00  0.00     0.152 A 
ATOM      8  C   UNL     1     -23.149 -15.823 -14.791  1.00  0.00     0.127 A 
ATOM      9  N   UNL     1     -24.048 -16.687 -15.278  1.00  0.00    -0.340 N 
ATOM     10  H   UNL     1     -24.715 -16.558 -16.071  1.00  0.00     0.168 HD
ENDROOT
BRANCH   7  11
ATOM     11  N   UNL     1     -23.503 -13.876 -16.267  1.00  0.00    -0.382 N 
ATOM     12  H   UNL     1     -23.882 -14.440 -17.059  1.00  0.00     0.158 HD
ATOM     13  H   UNL     1     -23.622 -12.839 -16.291  1.00  0.00     0.158 HD
ENDBRANCH   7  11
TORSDOF 1
ENDMDL
MODEL 7
REMARK VINA RESULT:    -3.837      2.112      2.149
REMARK INTER + INTRA:          -3.949
REMARK INTER:                  -3.949
REMARK INTRA:                   0.000
REMARK UNBOUND:                 0.000
REMARK SMILES Nc1ncnc2nc[nH]c12
REMARK SMILES IDX 8 1 7 2 6 3 5 4 4 5 3 6 2 7 10 8 9 9 1 11
REMARK H PARENT 9 10 1 12 1 13
REMARK Flexibility Score: inf
ROOT
ATOM      1  C   UNL     1     -22.007 -17.224 -13.825  1.00  0.00     0.199 A 
ATOM      2  N   UNL     1     -22.873 -16.642 -12.950  1.00  0.00    -0.217 NA
ATOM      3  C   UNL     1     -22.115 -15.680 -12.397  1.00  0.00     0.182 A 
ATOM      4  N   UNL     1     -22.500 -14.796 -11.446  1.00  0.00    -0.215 NA
ATOM      5  C   UNL     1     -21.581 -13.885 -11.002  1.00  0.00     0.226 A 
ATOM      6  N   UNL     1     -20.308 -13.875 -11.512  1.00  0.00    -0.217 NA
ATOM      7  C   UNL     1     -19.918 -14.767 -12.472  1.00  0.00     0.152 A 
ATOM      8  C   UNL     1     -20.865 -15.688 -12.913  1.00  0.00     0.127 A 
ATOM      9  N   UNL     1     -20.771 -16.663 -13.825  1.00  0.00    -0.340 N 
ATOM     10  H   UNL     1     -19.949 -16.937 -14.407  1.00  0.00     0.168 HD
ENDROOT
BRANCH   7  11
ATOM     11  N   UNL     1     -18.587 -14.739 -12.988  1.00  0.00    -0.382 N 
ATOM     12  H   UNL     1     -18.420 -14.868 -14.011  1.00  0.00     0.158 HD
ATOM     13  H   UNL     1     -17.764 -14.592 -12.363  1.00  0.00     0.158 HD
ENDBRANCH   7  11
TORSDOF 1
ENDMDL
MODEL 8
REMARK VINA RESULT:    -3.786      1.782      3.149
REMARK INTER + INTRA:          -3.897
REMARK INTER:                  -3.897
REMARK INTRA:                   0.000
REMARK UNBOUND:                 0.000
REMARK SMILES Nc1ncnc2nc[nH]c12
REMARK SMILES IDX 8 1 7 2 6 3 5 4 4 5 3 6 2 7 10 8 9 9 1 11
REMARK H PARENT 9 10 1 12 1 13
REMARK Flexibility Score: inf
ROOT
ATOM      1  C   UNL     1     -19.141 -13.878 -12.907  1.00  0.00     0.199 A 
ATOM      2  N   UNL     1     -20.091 -13.877 -13.883  1.00  0.00    -0.217 NA
ATOM      3  C   UNL     1     -21.230 -13.876 -13.171  1.00  0.00     0.182 A 
ATOM      4  N   UNL     1     -22.491 -13.876 -13.665  1.00  0.00    -0.215 NA
ATOM      5  C   UNL     1     -23.532 -13.875 -12.778  1.00  0.00     0.226 A 
ATOM      6  N   UNL     1     -23.296 -13.875 -11.427  1.00  0.00    -0.217 NA
ATOM      7  C   UNL     1     -22.023 -13.876 -10.927  1.00  0.00     0.152 A 
ATOM      8  C   UNL     1     -20.975 -13.877 -11.843  1.00  0.00     0.127 A 
ATOM      9  N   UNL     1     -19.650 -13.878 -11.650  1.00  0.00    -0.340 N 
ATOM     10  H   UNL     1     -19.121 -13.878 -10.749  1.00  0.00     0.168 HD
ENDROOT
BRANCH   7  11
ATOM     11  N   UNL     1     -21.801 -13.877  -9.516  1.00  0.00    -0.382 N 
ATOM     12  H   UNL     1     -20.994 -13.350  -9.114  1.00  0.00     0.158 HD
ATOM     13  H   UNL     1     -22.430 -14.397  -8.867  1.00  0.00     0.158 HD
ENDBRANCH   7  11
TORSDOF 1
ENDMDL
