MODEL 1
REMARK VINA RESULT:    -5.115      0.000      0.000
REMARK INTER + INTRA:         -10.952
REMARK INTER:                  -9.002
REMARK INTRA:                  -1.950
REMARK UNBOUND:                -1.950
REMARK SMILES CCCCCCCCCCCCCCC(=O)[O-]
REMARK SMILES IDX 9 1 10 2 11 3 12 4 13 5 14 6 15 7 16 8 17 9 8 10 7 11 6 12
REMARK SMILES IDX 5 13 4 14 3 15 2 16 1 17
REMARK H PARENT
REMARK Flexibility Score: inf
ROOT
ATOM      1  C   UNL     1     -27.062  -1.264  21.980  1.00  0.00     0.000 C 
ENDROOT
BRANCH   1   2
ATOM      2  C   UNL     1     -27.303   0.180  22.455  1.00  0.00     0.000 C 
BRANCH   2   3
ATOM      3  C   UNL     1     -27.091   0.355  23.967  1.00  0.00     0.000 C 
BRANCH   3   4
ATOM      4  C   UNL     1     -27.276  -0.955  24.755  1.00  0.00     0.000 C 
BRANCH   4   5
ATOM      5  C   UNL     1     -28.388  -0.930  25.819  1.00  0.00     0.006 C 
BRANCH   5   6
ATOM      6  C   UNL     1     -28.630   0.469  26.400  1.00  0.00     0.053 C 
BRANCH   6   7
ATOM      7  C   UNL     1     -29.981   0.542  27.039  1.00  0.00     0.041 C 
ATOM      8  O   UNL     1     -30.230   1.433  27.894  1.00  0.00    -0.550 OA
ATOM      9  O   UNL     1     -30.981  -0.343  26.655  1.00  0.00    -0.550 OA
ENDBRANCH   6   7
ENDBRANCH   5   6
ENDBRANCH   4   5
ENDBRANCH   3   4
ENDBRANCH   2   3
ENDBRANCH   1   2
BRANCH   1  10
ATOM     10  C   UNL     1     -27.028  -1.461  20.450  1.00  0.00     0.000 C 
BRANCH  10  11
ATOM     11  C   UNL     1     -28.289  -0.999  19.697  1.00  0.00    -0.000 C 
BRANCH  11  12
ATOM     12  C   UNL     1     -29.477  -1.960  19.874  1.00  0.00    -0.000 C 
BRANCH  12  13
ATOM     13  C   UNL     1     -30.517  -1.448  20.887  1.00  0.00    -0.000 C 
BRANCH  13  14
ATOM     14  C   UNL     1     -30.428  -2.069  22.294  1.00  0.00    -0.000 C 
BRANCH  14  15
ATOM     15  C   UNL     1     -31.071  -1.191  23.380  1.00  0.00    -0.000 C 
BRANCH  15  16
ATOM     16  C   UNL     1     -31.472   0.197  22.852  1.00  0.00    -0.003 C 
ATOM     17  C   UNL     1     -30.511   1.299  23.298  1.00  0.00     0.004 C 
ENDBRANCH  15  16
ENDBRANCH  14  15
ENDBRANCH  13  14
ENDBRANCH  12  13
ENDBRANCH  11  12
ENDBRANCH  10  11
ENDBRANCH   1  10
TORSDOF 13
ENDMDL
MODEL 2
REMARK VINA RESULT:    -5.045      4.631      7.241
REMARK INTER + INTRA:         -10.829
REMARK INTER:                  -9.084
REMARK INTRA:                  -1.746
REMARK UNBOUND:                -1.950
REMARK SMILES CCCCCCCCCCCCCCC(=O)[O-]
REMARK SMILES IDX 9 1 10 2 11 3 12 4 13 5 14 6 15 7 16 8 17 9 8 10 7 11 6 12
REMARK SMILES IDX 5 13 4 14 3 15 2 16 1 17
REMARK H PARENT
REMARK Flexibility Score: inf
ROOT
ATOM      1  C   UNL     1     -30.437  -1.811  21.577  1.00  0.00     0.000 C 
ENDROOT
BRANCH   1   2
ATOM      2  C   UNL     1     -29.033  -2.025  20.982  1.00  0.00     0.000 C 
BRANCH   2   3
ATOM      3  C   UNL     1     -28.654  -0.957  19.944  1.00  0.00     0.000 C 
BRANCH   3   4
ATOM      4  C   UNL     1     -27.920  -1.541  18.723  1.00  0.00     0.000 C 
BRANCH   4   5
ATOM      5  C   UNL     1     -28.743  -2.527  17.873  1.00  0.00     0.006 C 
BRANCH   5   6
ATOM      6  C   UNL     1     -28.339  -2.525  16.393  1.00  0.00     0.053 C 
BRANCH   6   7
ATOM      7  C   UNL     1     -29.228  -3.438  15.608  1.00  0.00     0.041 C 
ATOM      8  O   UNL     1     -29.084  -4.686  15.688  1.00  0.00    -0.550 OA
ATOM      9  O   UNL     1     -30.249  -2.910  14.826  1.00  0.00    -0.550 OA
ENDBRANCH   6   7
ENDBRANCH   5   6
ENDBRANCH   4   5
ENDBRANCH   3   4
ENDBRANCH   2   3
ENDBRANCH   1   2
BRANCH   1  10
ATOM     10  C   UNL     1     -30.546  -2.008  23.103  1.00  0.00     0.000 C 
BRANCH  10  11
ATOM     11  C   UNL     1     -30.804  -0.727  23.918  1.00  0.00    -0.000 C 
BRANCH  11  12
ATOM     12  C   UNL     1     -30.908   0.530  23.038  1.00  0.00    -0.000 C 
BRANCH  12  13
ATOM     13  C   UNL     1     -29.630   1.387  23.062  1.00  0.00    -0.000 C 
BRANCH  13  14
ATOM     14  C   UNL     1     -28.459   0.803  23.875  1.00  0.00    -0.000 C 
BRANCH  14  15
ATOM     15  C   UNL     1     -27.190   0.592  23.032  1.00  0.00    -0.000 C 
BRANCH  15  16
ATOM     16  C   UNL     1     -26.508  -0.755  23.324  1.00  0.00    -0.003 C 
ATOM     17  C   UNL     1     -27.136  -1.493  24.506  1.00  0.00     0.004 C 
ENDBRANCH  15  16
ENDBRANCH  14  15
ENDBRANCH  13  14
ENDBRANCH  12  13
ENDBRANCH  11  12
ENDBRANCH  10  11
ENDBRANCH   1  10
TORSDOF 13
ENDMDL
MODEL 3
REMARK VINA RESULT:    -4.989      4.632      6.759
REMARK INTER + INTRA:         -10.731
REMARK INTER:                  -9.166
REMARK INTRA:                  -1.566
REMARK UNBOUND:                -1.950
REMARK SMILES CCCCCCCCCCCCCCC(=O)[O-]
REMARK SMILES IDX 9 1 10 2 11 3 12 4 13 5 14 6 15 7 16 8 17 9 8 10 7 11 6 12
REMARK SMILES IDX 5 13 4 14 3 15 2 16 1 17
REMARK H PARENT
REMARK Flexibility Score: inf
ROOT
ATOM      1  C   UNL     1     -27.713   0.183  21.862  1.00  0.00     0.000 C 
ENDROOT
BRANCH   1   2
ATOM      2  C   UNL     1     -27.456  -1.092  21.038  1.00  0.00     0.000 C 
BRANCH   2   3
ATOM      3  C   UNL     1     -28.232  -1.113  19.712  1.00  0.00     0.000 C 
BRANCH   3   4
ATOM      4  C   UNL     1     -29.053  -2.402  19.517  1.00  0.00     0.000 C 
BRANCH   4   5
ATOM      5  C   UNL     1     -28.971  -3.025  18.112  1.00  0.00     0.006 C 
BRANCH   5   6
ATOM      6  C   UNL     1     -28.214  -2.146  17.109  1.00  0.00     0.053 C 
BRANCH   6   7
ATOM      7  C   UNL     1     -28.198  -2.790  15.758  1.00  0.00     0.041 C 
ATOM      8  O   UNL     1     -29.144  -2.593  14.952  1.00  0.00    -0.550 OA
ATOM      9  O   UNL     1     -27.112  -3.567  15.372  1.00  0.00    -0.550 OA
ENDBRANCH   6   7
ENDBRANCH   5   6
ENDBRANCH   4   5
ENDBRANCH   3   4
ENDBRANCH   2   3
ENDBRANCH   1   2
BRANCH   1  10
ATOM     10  C   UNL     1     -27.064   0.208  23.262  1.00  0.00     0.000 C 
BRANCH  10  11
ATOM     11  C   UNL     1     -26.724  -1.171  23.857  1.00  0.00    -0.000 C 
BRANCH  11  12
ATOM     12  C   UNL     1     -27.872  -1.758  24.696  1.00  0.00    -0.000 C 
BRANCH  12  13
ATOM     13  C   UNL     1     -28.801  -2.676  23.881  1.00  0.00    -0.000 C 
BRANCH  13  14
ATOM     14  C   UNL     1     -30.294  -2.294  23.906  1.00  0.00    -0.000 C 
BRANCH  14  15
ATOM     15  C   UNL     1     -30.570  -1.006  24.699  1.00  0.00    -0.000 C 
BRANCH  15  16
ATOM     16  C   UNL     1     -30.873   0.193  23.785  1.00  0.00    -0.003 C 
ATOM     17  C   UNL     1     -31.430  -0.225  22.425  1.00  0.00     0.004 C 
ENDBRANCH  15  16
ENDBRANCH  14  15
ENDBRANCH  13  14
ENDBRANCH  12  13
ENDBRANCH  11  12
ENDBRANCH  10  11
ENDBRANCH   1  10
TORSDOF 13
ENDMDL
MODEL 4
REMARK VINA RESULT:    -4.967      4.329      6.971
REMARK INTER + INTRA:         -10.691
REMARK INTER:                  -8.873
REMARK INTRA:                  -1.818
REMARK UNBOUND:                -1.950
REMARK SMILES CCCCCCCCCCCCCCC(=O)[O-]
REMARK SMILES IDX 9 1 10 2 11 3 12 4 13 5 14 6 15 7 16 8 17 9 8 10 7 11 6 12
REMARK SMILES IDX 5 13 4 14 3 15 2 16 1 17
REMARK H PARENT
REMARK Flexibility Score: inf
ROOT
ATOM      1  C   UNL     1     -30.440  -1.858  22.681  1.00  0.00     0.000 C 
ENDROOT
BRANCH   1   2
ATOM      2  C   UNL     1     -29.370  -2.235  21.640  1.00  0.00     0.000 C 
BRANCH   2   3
ATOM      3  C   UNL     1     -29.130  -1.128  20.601  1.00  0.00     0.000 C 
BRANCH   3   4
ATOM      4  C   UNL     1     -27.873  -1.371  19.745  1.00  0.00     0.000 C 
BRANCH   4   5
ATOM      5  C   UNL     1     -28.123  -1.479  18.230  1.00  0.00     0.006 C 
BRANCH   5   6
ATOM      6  C   UNL     1     -28.804  -2.792  17.826  1.00  0.00     0.053 C 
BRANCH   6   7
ATOM      7  C   UNL     1     -28.633  -3.040  16.360  1.00  0.00     0.041 C 
ATOM      8  O   UNL     1     -28.117  -2.158  15.625  1.00  0.00    -0.550 OA
ATOM      9  O   UNL     1     -28.998  -4.265  15.816  1.00  0.00    -0.550 OA
ENDBRANCH   6   7
ENDBRANCH   5   6
ENDBRANCH   4   5
ENDBRANCH   3   4
ENDBRANCH   2   3
ENDBRANCH   1   2
BRANCH   1  10
ATOM     10  C   UNL     1     -30.904  -0.387  22.649  1.00  0.00     0.000 C 
BRANCH  10  11
ATOM     11  C   UNL     1     -30.809   0.366  23.989  1.00  0.00    -0.000 C 
BRANCH  11  12
ATOM     12  C   UNL     1     -30.228  -0.501  25.120  1.00  0.00    -0.000 C 
BRANCH  12  13
ATOM     13  C   UNL     1     -29.305   0.288  26.066  1.00  0.00    -0.000 C 
BRANCH  13  14
ATOM     14  C   UNL     1     -27.830   0.372  25.630  1.00  0.00    -0.000 C 
BRANCH  14  15
ATOM     15  C   UNL     1     -27.359  -0.873  24.861  1.00  0.00    -0.000 C 
BRANCH  15  16
ATOM     16  C   UNL     1     -26.762  -0.526  23.488  1.00  0.00    -0.003 C 
ATOM     17  C   UNL     1     -27.078   0.904  23.049  1.00  0.00     0.004 C 
ENDBRANCH  15  16
ENDBRANCH  14  15
ENDBRANCH  13  14
ENDBRANCH  12  13
ENDBRANCH  11  12
ENDBRANCH  10  11
ENDBRANCH   1  10
TORSDOF 13
ENDMDL
MODEL 5
REMARK VINA RESULT:    -4.953      4.226      6.737
REMARK INTER + INTRA:         -10.667
REMARK INTER:                  -9.075
REMARK INTRA:                  -1.591
REMARK UNBOUND:                -1.950
REMARK SMILES CCCCCCCCCCCCCCC(=O)[O-]
REMARK SMILES IDX 9 1 10 2 11 3 12 4 13 5 14 6 15 7 16 8 17 9 8 10 7 11 6 12
REMARK SMILES IDX 5 13 4 14 3 15 2 16 1 17
REMARK H PARENT
REMARK Flexibility Score: inf
ROOT
ATOM      1  C   UNL     1     -30.229   0.399  22.510  1.00  0.00     0.000 C 
ENDROOT
BRANCH   1   2
ATOM      2  C   UNL     1     -30.041  -1.114  22.293  1.00  0.00     0.000 C 
BRANCH   2   3
ATOM      3  C   UNL     1     -30.172  -1.527  20.818  1.00  0.00     0.000 C 
BRANCH   3   4
ATOM      4  C   UNL     1     -28.903  -2.206  20.270  1.00  0.00     0.000 C 
BRANCH   4   5
ATOM      5  C   UNL     1     -29.031  -2.783  18.848  1.00  0.00     0.006 C 
BRANCH   5   6
ATOM      6  C   UNL     1     -28.307  -1.940  17.792  1.00  0.00     0.053 C 
BRANCH   6   7
ATOM      7  C   UNL     1     -28.348  -2.623  16.461  1.00  0.00     0.041 C 
ATOM      8  O   UNL     1     -29.431  -3.090  16.021  1.00  0.00    -0.550 OA
ATOM      9  O   UNL     1     -27.198  -2.699  15.684  1.00  0.00    -0.550 OA
ENDBRANCH   6   7
ENDBRANCH   5   6
ENDBRANCH   4   5
ENDBRANCH   3   4
ENDBRANCH   2   3
ENDBRANCH   1   2
BRANCH   1  10
ATOM     10  C   UNL     1     -28.937   1.192  22.797  1.00  0.00     0.000 C 
BRANCH  10  11
ATOM     11  C   UNL     1     -27.623   0.449  22.491  1.00  0.00    -0.000 C 
BRANCH  11  12
ATOM     12  C   UNL     1     -26.751   0.238  23.740  1.00  0.00    -0.000 C 
BRANCH  12  13
ATOM     13  C   UNL     1     -27.024  -1.104  24.443  1.00  0.00    -0.000 C 
BRANCH  13  14
ATOM     14  C   UNL     1     -28.081  -1.059  25.563  1.00  0.00    -0.000 C 
BRANCH  14  15
ATOM     15  C   UNL     1     -28.134   0.298  26.284  1.00  0.00    -0.000 C 
BRANCH  15  16
ATOM     16  C   UNL     1     -29.573   0.799  26.489  1.00  0.00    -0.003 C 
ATOM     17  C   UNL     1     -30.623  -0.245  26.110  1.00  0.00     0.004 C 
ENDBRANCH  15  16
ENDBRANCH  14  15
ENDBRANCH  13  14
ENDBRANCH  12  13
ENDBRANCH  11  12
ENDBRANCH  10  11
ENDBRANCH   1  10
TORSDOF 13
ENDMDL
MODEL 6
REMARK VINA RESULT:    -4.941      5.029      7.432
REMARK INTER + INTRA:         -10.647
REMARK INTER:                  -9.146
REMARK INTRA:                  -1.501
REMARK UNBOUND:                -1.950
REMARK SMILES CCCCCCCCCCCCCCC(=O)[O-]
REMARK SMILES IDX 9 1 10 2 11 3 12 4 13 5 14 6 15 7 16 8 17 9 8 10 7 11 6 12
REMARK SMILES IDX 5 13 4 14 3 15 2 16 1 17
REMARK H PARENT
REMARK Flexibility Score: inf
ROOT
ATOM      1  C   UNL     1     -27.574  -1.498  20.609  1.00  0.00     0.000 C 
ENDROOT
BRANCH   1   2
ATOM      2  C   UNL     1     -28.754  -2.455  20.362  1.00  0.00     0.000 C 
BRANCH   2   3
ATOM      3  C   UNL     1     -29.007  -2.719  18.869  1.00  0.00     0.000 C 
BRANCH   3   4
ATOM      4  C   UNL     1     -28.213  -1.772  17.949  1.00  0.00     0.000 C 
BRANCH   4   5
ATOM      5  C   UNL     1     -28.081  -2.237  16.487  1.00  0.00     0.006 C 
BRANCH   5   6
ATOM      6  C   UNL     1     -28.680  -3.627  16.244  1.00  0.00     0.053 C 
BRANCH   6   7
ATOM      7  C   UNL     1     -28.787  -3.900  14.776  1.00  0.00     0.041 C 
ATOM      8  O   UNL     1     -28.640  -2.965  13.946  1.00  0.00    -0.550 OA
ATOM      9  O   UNL     1     -29.000  -5.196  14.324  1.00  0.00    -0.550 OA
ENDBRANCH   6   7
ENDBRANCH   5   6
ENDBRANCH   4   5
ENDBRANCH   3   4
ENDBRANCH   2   3
ENDBRANCH   1   2
BRANCH   1  10
ATOM     10  C   UNL     1     -27.917  -0.212  21.389  1.00  0.00     0.000 C 
BRANCH  10  11
ATOM     11  C   UNL     1     -27.177  -0.033  22.727  1.00  0.00    -0.000 C 
BRANCH  11  12
ATOM     12  C   UNL     1     -27.109  -1.330  23.551  1.00  0.00    -0.000 C 
BRANCH  12  13
ATOM     13  C   UNL     1     -28.314  -1.507  24.492  1.00  0.00    -0.000 C 
BRANCH  13  14
ATOM     14  C   UNL     1     -29.390  -2.498  24.009  1.00  0.00    -0.000 C 
BRANCH  14  15
ATOM     15  C   UNL     1     -30.811  -1.912  24.054  1.00  0.00    -0.000 C 
BRANCH  15  16
ATOM     16  C   UNL     1     -31.112  -1.005  22.850  1.00  0.00    -0.003 C 
ATOM     17  C   UNL     1     -31.240   0.468  23.237  1.00  0.00     0.004 C 
ENDBRANCH  15  16
ENDBRANCH  14  15
ENDBRANCH  13  14
ENDBRANCH  12  13
ENDBRANCH  11  12
ENDBRANCH  10  11
ENDBRANCH   1  10
TORSDOF 13
ENDMDL
MODEL 7
REMARK VINA RESULT:    -4.862      4.906      7.641
REMARK INTER + INTRA:         -10.507
REMARK INTER:                  -9.155
REMARK INTRA:                  -1.352
REMARK UNBOUND:                -1.950
REMARK SMILES CCCCCCCCCCCCCCC(=O)[O-]
REMARK SMILES IDX 9 1 10 2 11 3 12 4 13 5 14 6 15 7 16 8 17 9 8 10 7 11 6 12
REMARK SMILES IDX 5 13 4 14 3 15 2 16 1 17
REMARK H PARENT
REMARK Flexibility Score: inf
ROOT
ATOM      1  C   UNL     1     -28.941  -0.796  20.540  1.00  0.00     0.000 C 
ENDROOT
BRANCH   1   2
ATOM      2  C   UNL     1     -28.647  -2.257  20.154  1.00  0.00     0.000 C 
BRANCH   2   3
ATOM      3  C   UNL     1     -28.997  -2.571  18.690  1.00  0.00     0.000 C 
BRANCH   3   4
ATOM      4  C   UNL     1     -28.056  -1.878  17.687  1.00  0.00     0.000 C 
BRANCH   4   5
ATOM      5  C   UNL     1     -28.265  -2.273  16.213  1.00  0.00     0.006 C 
BRANCH   5   6
ATOM      6  C   UNL     1     -28.390  -3.788  16.010  1.00  0.00     0.053 C 
BRANCH   6   7
ATOM      7  C   UNL     1     -29.461  -4.094  15.011  1.00  0.00     0.041 C 
ATOM      8  O   UNL     1     -30.427  -3.302  14.855  1.00  0.00    -0.550 OA
ATOM      9  O   UNL     1     -29.366  -5.230  14.217  1.00  0.00    -0.550 OA
ENDBRANCH   6   7
ENDBRANCH   5   6
ENDBRANCH   4   5
ENDBRANCH   3   4
ENDBRANCH   2   3
ENDBRANCH   1   2
BRANCH   1  10
ATOM     10  C   UNL     1     -30.025  -0.603  21.622  1.00  0.00     0.000 C 
BRANCH  10  11
ATOM     11  C   UNL     1     -30.388  -1.865  22.426  1.00  0.00    -0.000 C 
BRANCH  11  12
ATOM     12  C   UNL     1     -30.849  -1.548  23.859  1.00  0.00    -0.000 C 
BRANCH  12  13
ATOM     13  C   UNL     1     -29.680  -1.219  24.805  1.00  0.00    -0.000 C 
BRANCH  13  14
ATOM     14  C   UNL     1     -28.384  -2.012  24.554  1.00  0.00    -0.000 C 
BRANCH  14  15
ATOM     15  C   UNL     1     -27.115  -1.163  24.735  1.00  0.00    -0.000 C 
BRANCH  15  16
ATOM     16  C   UNL     1     -26.612  -0.567  23.410  1.00  0.00    -0.003 C 
ATOM     17  C   UNL     1     -26.947   0.917  23.263  1.00  0.00     0.004 C 
ENDBRANCH  15  16
ENDBRANCH  14  15
ENDBRANCH  13  14
ENDBRANCH  12  13
ENDBRANCH  11  12
ENDBRANCH  10  11
ENDBRANCH   1  10
TORSDOF 13
ENDMDL
MODEL 8
REMARK VINA RESULT:    -4.807      4.932      7.367
REMARK INTER + INTRA:         -10.412
REMARK INTER:                  -8.948
REMARK INTRA:                  -1.464
REMARK UNBOUND:                -1.950
REMARK SMILES CCCCCCCCCCCCCCC(=O)[O-]
REMARK SMILES IDX 9 1 10 2 11 3 12 4 13 5 14 6 15 7 16 8 17 9 8 10 7 11 6 12
REMARK SMILES IDX 5 13 4 14 3 15 2 16 1 17
REMARK H PARENT
REMARK Flexibility Score: inf
ROOT
ATOM      1  C   UNL     1     -27.202  -1.089  20.715  1.00  0.00     0.000 C 
ENDROOT
BRANCH   1   2
ATOM      2  C   UNL     1     -28.341  -1.076  19.679  1.00  0.00     0.000 C 
BRANCH   2   3
ATOM      3  C   UNL     1     -29.046  -2.435  19.548  1.00  0.00     0.000 C 
BRANCH   3   4
ATOM      4  C   UNL     1     -29.026  -2.985  18.110  1.00  0.00     0.000 C 
BRANCH   4   5
ATOM      5  C   UNL     1     -28.228  -2.144  17.097  1.00  0.00     0.006 C 
BRANCH   5   6
ATOM      6  C   UNL     1     -28.404  -2.620  15.650  1.00  0.00     0.053 C 
BRANCH   6   7
ATOM      7  C   UNL     1     -27.115  -2.499  14.899  1.00  0.00     0.041 C 
ATOM      8  O   UNL     1     -26.873  -1.469  14.218  1.00  0.00    -0.550 OA
ATOM      9  O   UNL     1     -26.160  -3.503  14.994  1.00  0.00    -0.550 OA
ENDBRANCH   6   7
ENDBRANCH   5   6
ENDBRANCH   4   5
ENDBRANCH   3   4
ENDBRANCH   2   3
ENDBRANCH   1   2
BRANCH   1  10
ATOM     10  C   UNL     1     -27.524  -1.808  22.042  1.00  0.00     0.000 C 
BRANCH  10  11
ATOM     11  C   UNL     1     -27.052  -1.085  23.317  1.00  0.00    -0.000 C 
BRANCH  11  12
ATOM     12  C   UNL     1     -27.278   0.436  23.259  1.00  0.00    -0.000 C 
BRANCH  12  13
ATOM     13  C   UNL     1     -28.639   0.863  23.837  1.00  0.00    -0.000 C 
BRANCH  13  14
ATOM     14  C   UNL     1     -29.695   1.282  22.796  1.00  0.00    -0.000 C 
BRANCH  14  15
ATOM     15  C   UNL     1     -31.021   0.519  22.945  1.00  0.00    -0.000 C 
BRANCH  15  16
ATOM     16  C   UNL     1     -30.862  -0.990  22.699  1.00  0.00    -0.003 C 
ATOM     17  C   UNL     1     -31.157  -1.827  23.945  1.00  0.00     0.004 C 
ENDBRANCH  15  16
ENDBRANCH  14  15
ENDBRANCH  13  14
ENDBRANCH  12  13
ENDBRANCH  11  12
ENDBRANCH  10  11
ENDBRANCH   1  10
TORSDOF 13
ENDMDL
MODEL 9
REMARK VINA RESULT:    -4.770      2.954      4.781
REMARK INTER + INTRA:         -10.345
REMARK INTER:                  -8.956
REMARK INTRA:                  -1.389
REMARK UNBOUND:                -1.950
REMARK SMILES CCCCCCCCCCCCCCC(=O)[O-]
REMARK SMILES IDX 9 1 10 2 11 3 12 4 13 5 14 6 15 7 16 8 17 9 8 10 7 11 6 12
REMARK SMILES IDX 5 13 4 14 3 15 2 16 1 17
REMARK H PARENT
REMARK Flexibility Score: inf
ROOT
ATOM      1  C   UNL     1     -28.613  -0.611  26.692  1.00  0.00     0.000 C 
ENDROOT
BRANCH   1   2
ATOM      2  C   UNL     1     -29.343   0.736  26.528  1.00  0.00     0.000 C 
BRANCH   2   3
ATOM      3  C   UNL     1     -30.093   1.168  27.798  1.00  0.00     0.000 C 
BRANCH   3   4
ATOM      4  C   UNL     1     -29.330   0.824  29.091  1.00  0.00     0.000 C 
BRANCH   4   5
ATOM      5  C   UNL     1     -29.785   1.594  30.345  1.00  0.00     0.006 C 
BRANCH   5   6
ATOM      6  C   UNL     1     -29.004   1.203  31.605  1.00  0.00     0.053 C 
BRANCH   6   7
ATOM      7  C   UNL     1     -29.550   1.918  32.801  1.00  0.00     0.041 C 
ATOM      8  O   UNL     1     -30.332   2.893  32.653  1.00  0.00    -0.550 OA
ATOM      9  O   UNL     1     -29.233   1.476  34.079  1.00  0.00    -0.550 OA
ENDBRANCH   6   7
ENDBRANCH   5   6
ENDBRANCH   4   5
ENDBRANCH   3   4
ENDBRANCH   2   3
ENDBRANCH   1   2
BRANCH   1  10
ATOM     10  C   UNL     1     -28.283  -1.349  25.378  1.00  0.00     0.000 C 
BRANCH  10  11
ATOM     11  C   UNL     1     -27.049  -0.827  24.619  1.00  0.00    -0.000 C 
BRANCH  11  12
ATOM     12  C   UNL     1     -27.346  -0.512  23.143  1.00  0.00    -0.000 C 
BRANCH  12  13
ATOM     13  C   UNL     1     -27.692   0.969  22.903  1.00  0.00    -0.000 C 
BRANCH  13  14
ATOM     14  C   UNL     1     -29.195   1.285  22.796  1.00  0.00    -0.000 C 
BRANCH  14  15
ATOM     15  C   UNL     1     -30.033   0.078  22.342  1.00  0.00    -0.000 C 
BRANCH  15  16
ATOM     16  C   UNL     1     -31.210  -0.210  23.288  1.00  0.00    -0.003 C 
ATOM     17  C   UNL     1     -31.332  -1.691  23.645  1.00  0.00     0.004 C 
ENDBRANCH  15  16
ENDBRANCH  14  15
ENDBRANCH  13  14
ENDBRANCH  12  13
ENDBRANCH  11  12
ENDBRANCH  10  11
ENDBRANCH   1  10
TORSDOF 13
ENDMDL
