MODEL 1
REMARK VINA RESULT:    -3.092      0.000      0.000
REMARK INTER + INTRA:          -3.880
REMARK INTER:                  -4.719
REMARK INTRA:                   0.839
REMARK UNBOUND:                 0.839
REMARK SMILES CC1=CCC[C@H](C)C(=O)C[C@@H](C(C)C)C(=O)C1
REMARK SMILES IDX 8 1 9 2 6 3 7 4 5 5 4 6 3 7 2 8 1 9 10 11 11 12 15 13 16 14
REMARK SMILES IDX 17 15 12 17 13 18 14 19
REMARK H PARENT
REMARK Flexibility Score: 70.00
ROOT
ATOM      1  C   UNL     1      65.787 -14.703  11.452  1.00  0.00     0.136 C 
ATOM      2  O   UNL     1      65.593 -13.576  11.885  1.00  0.00    -0.299 OA
ENDROOT
BRANCH   1   3
ATOM      3  C   UNL     1      64.819 -15.813  11.794  1.00  0.00     0.053 C 
ATOM      4  C   UNL     1      65.198 -17.120  11.086  1.00  0.00     0.016 C 
BRANCH   3   5
ATOM      5  C   UNL     1      64.774 -15.991  13.332  1.00  0.00     0.015 C 
BRANCH   5   6
ATOM      6  C   UNL     1      65.738 -17.044  13.915  1.00  0.00     0.028 C 
BRANCH   6   7
ATOM      7  C   UNL     1      66.746 -16.562  14.936  1.00  0.00    -0.028 C 
ATOM      8  C   UNL     1      68.088 -16.472  14.774  1.00  0.00    -0.070 CG0
ATOM      9  C   UNL     1      68.910 -16.059  15.972  1.00  0.00     0.039 C 
ATOM     10  G   UNL     1      68.805 -16.687  13.454  1.00  0.00     0.000 G0
ENDBRANCH   6   7
ENDBRANCH   5   6
ENDBRANCH   3   5
ENDBRANCH   1   3
BRANCH   1  11
ATOM     11  C   UNL     1      66.944 -14.947  10.514  1.00  0.00     0.087 C 
BRANCH  11  12
ATOM     12  C   UNL     1      67.898 -16.068  11.034  1.00  0.00     0.066 C 
BRANCH  12  13
ATOM     13  C   UNL     1      68.437 -15.674  12.404  1.00  0.00     0.140 C 
ATOM     14  O   UNL     1      68.632 -14.489  12.643  1.00  0.00    -0.299 OA
BRANCH  13  15
ATOM     15  C   UNL     1      68.813 -16.703  13.451  1.00  0.00     0.106 CG0
ATOM     16  G   UNL     1      68.077 -16.446  14.754  1.00  0.00     0.000 G0
ENDBRANCH  13  15
ENDBRANCH  12  13
BRANCH  12  17
ATOM     17  C   UNL     1      69.067 -16.358  10.034  1.00  0.00    -0.006 C 
ATOM     18  C   UNL     1      69.982 -15.128   9.857  1.00  0.00     0.008 C 
ATOM     19  C   UNL     1      68.548 -16.774   8.643  1.00  0.00     0.008 C 
ENDBRANCH  12  17
ENDBRANCH  11  12
ENDBRANCH   1  11
TORSDOF 1
ENDMDL
MODEL 2
REMARK VINA RESULT:    -2.102     22.805     24.543
REMARK INTER + INTRA:          -2.369
REMARK INTER:                  -2.707
REMARK INTRA:                   0.338
REMARK UNBOUND:                 0.839
REMARK SMILES CC1=CCC[C@H](C)C(=O)C[C@@H](C(C)C)C(=O)C1
REMARK SMILES IDX 8 1 9 2 6 3 7 4 5 5 4 6 3 7 2 8 1 9 10 11 11 12 15 13 16 14
REMARK SMILES IDX 17 15 12 17 13 18 14 19
REMARK H PARENT
REMARK Flexibility Score: 70.00
ROOT
ATOM      1  C   UNL     1      51.225   2.347  22.593  1.00  0.00     0.136 C 
ATOM      2  O   UNL     1      50.028   2.331  22.339  1.00  0.00    -0.299 OA
ENDROOT
BRANCH   1   3
ATOM      3  C   UNL     1      51.708   2.960  23.887  1.00  0.00     0.053 C 
ATOM      4  C   UNL     1      50.560   3.119  24.891  1.00  0.00     0.016 C 
BRANCH   3   5
ATOM      5  C   UNL     1      52.852   2.091  24.464  1.00  0.00     0.015 C 
BRANCH   5   6
ATOM      6  C   UNL     1      54.284   2.567  24.147  1.00  0.00     0.028 C 
BRANCH   6   7
ATOM      7  C   UNL     1      55.365   1.509  24.098  1.00  0.00    -0.028 C 
ATOM      8  C   UNL     1      55.551   0.580  23.130  1.00  0.00    -0.070 CG0
ATOM      9  C   UNL     1      56.639  -0.445  23.344  1.00  0.00     0.039 C 
ATOM     10  G   UNL     1      54.788   0.549  21.819  1.00  0.00     0.000 G0
ENDBRANCH   6   7
ENDBRANCH   5   6
ENDBRANCH   3   5
ENDBRANCH   1   3
BRANCH   1  11
ATOM     11  C   UNL     1      52.191   1.678  21.644  1.00  0.00     0.087 C 
BRANCH  11  12
ATOM     12  C   UNL     1      52.171   0.124  21.783  1.00  0.00     0.066 C 
BRANCH  12  13
ATOM     13  C   UNL     1      53.602  -0.390  21.889  1.00  0.00     0.140 C 
ATOM     14  O   UNL     1      53.787  -1.578  22.113  1.00  0.00    -0.299 OA
BRANCH  13  15
ATOM     15  C   UNL     1      54.801   0.535  21.804  1.00  0.00     0.106 CG0
ATOM     16  G   UNL     1      55.553   0.572  23.122  1.00  0.00     0.000 G0
ENDBRANCH  13  15
ENDBRANCH  12  13
BRANCH  12  17
ATOM     17  C   UNL     1      51.416  -0.563  20.597  1.00  0.00    -0.006 C 
ATOM     18  C   UNL     1      50.741   0.474  19.675  1.00  0.00     0.008 C 
ATOM     19  C   UNL     1      50.333  -1.544  21.091  1.00  0.00     0.008 C 
ENDBRANCH  12  17
ENDBRANCH  11  12
ENDBRANCH   1  11
TORSDOF 1
ENDMDL
MODEL 3
REMARK VINA RESULT:    -1.987     21.663     23.381
REMARK INTER + INTRA:          -2.193
REMARK INTER:                  -2.263
REMARK INTRA:                   0.070
REMARK UNBOUND:                 0.839
REMARK SMILES CC1=CCC[C@H](C)C(=O)C[C@@H](C(C)C)C(=O)C1
REMARK SMILES IDX 8 1 9 2 6 3 7 4 5 5 4 6 3 7 2 8 1 9 10 11 11 12 15 13 16 14
REMARK SMILES IDX 17 15 12 17 13 18 14 19
REMARK H PARENT
REMARK Flexibility Score: 70.00
ROOT
ATOM      1  C   UNL     1      55.929   2.700  22.973  1.00  0.00     0.136 C 
ATOM      2  O   UNL     1      56.965   2.700  22.323  1.00  0.00    -0.299 OA
ENDROOT
BRANCH   1   3
ATOM      3  C   UNL     1      55.971   3.016  24.451  1.00  0.00     0.053 C 
ATOM      4  C   UNL     1      54.607   2.782  25.110  1.00  0.00     0.016 C 
BRANCH   3   5
ATOM      5  C   UNL     1      57.080   2.166  25.119  1.00  0.00     0.015 C 
BRANCH   5   6
ATOM      6  C   UNL     1      56.870   0.639  25.083  1.00  0.00     0.028 C 
BRANCH   6   7
ATOM      7  C   UNL     1      57.634  -0.135  24.032  1.00  0.00    -0.028 C 
ATOM      8  C   UNL     1      57.114  -0.951  23.084  1.00  0.00    -0.070 CG0
ATOM      9  C   UNL     1      58.081  -1.704  22.202  1.00  0.00     0.039 C 
ATOM     10  G   UNL     1      55.629  -1.099  22.806  1.00  0.00     0.000 G0
ENDBRANCH   6   7
ENDBRANCH   5   6
ENDBRANCH   3   5
ENDBRANCH   1   3
BRANCH   1  11
ATOM     11  C   UNL     1      54.613   2.466  22.270  1.00  0.00     0.087 C 
BRANCH  11  12
ATOM     12  C   UNL     1      54.079   1.016  22.487  1.00  0.00     0.066 C 
BRANCH  12  13
ATOM     13  C   UNL     1      55.099   0.018  21.952  1.00  0.00     0.140 C 
ATOM     14  O   UNL     1      55.457   0.109  20.786  1.00  0.00    -0.299 OA
BRANCH  13  15
ATOM     15  C   UNL     1      55.627  -1.128  22.793  1.00  0.00     0.106 CG0
ATOM     16  G   UNL     1      57.111  -0.961  23.068  1.00  0.00     0.000 G0
ENDBRANCH  13  15
ENDBRANCH  12  13
BRANCH  12  17
ATOM     17  C   UNL     1      52.680   0.798  21.821  1.00  0.00    -0.006 C 
ATOM     18  C   UNL     1      52.254   2.018  20.978  1.00  0.00     0.008 C 
ATOM     19  C   UNL     1      51.577   0.528  22.865  1.00  0.00     0.008 C 
ENDBRANCH  12  17
ENDBRANCH  11  12
ENDBRANCH   1  11
TORSDOF 1
ENDMDL
MODEL 4
REMARK VINA RESULT:    -1.740      1.602      3.540
REMARK INTER + INTRA:          -1.816
REMARK INTER:                  -3.581
REMARK INTRA:                   1.764
REMARK UNBOUND:                 0.839
REMARK SMILES CC1=CCC[C@H](C)C(=O)C[C@@H](C(C)C)C(=O)C1
REMARK SMILES IDX 8 1 9 2 6 3 7 4 5 5 4 6 3 7 2 8 1 9 10 11 11 12 15 13 16 14
REMARK SMILES IDX 17 15 12 17 13 18 14 19
REMARK H PARENT
REMARK Flexibility Score: 70.00
ROOT
ATOM      1  C   UNL     1      68.339 -16.282  14.381  1.00  0.00     0.136 C 
ATOM      2  O   UNL     1      69.137 -15.425  14.735  1.00  0.00    -0.299 OA
ENDROOT
BRANCH   1   3
ATOM      3  C   UNL     1      67.369 -16.862  15.383  1.00  0.00     0.053 C 
ATOM      4  C   UNL     1      67.874 -16.676  16.819  1.00  0.00     0.016 C 
BRANCH   3   5
ATOM      5  C   UNL     1      65.979 -16.209  15.181  1.00  0.00     0.015 C 
BRANCH   5   6
ATOM      6  C   UNL     1      64.886 -17.123  14.594  1.00  0.00     0.028 C 
BRANCH   6   7
ATOM      7  C   UNL     1      64.709 -17.107  13.091  1.00  0.00    -0.028 C 
ATOM      8  C   UNL     1      65.122 -16.142  12.234  1.00  0.00    -0.070 CG0
ATOM      9  C   UNL     1      64.743 -16.290  10.780  1.00  0.00     0.039 C 
ATOM     10  G   UNL     1      65.998 -14.967  12.629  1.00  0.00     0.000 G0
ENDBRANCH   6   7
ENDBRANCH   5   6
ENDBRANCH   3   5
ENDBRANCH   1   3
BRANCH   1  11
ATOM     11  C   UNL     1      68.283 -16.685  12.926  1.00  0.00     0.087 C 
BRANCH  11  12
ATOM     12  C   UNL     1      68.526 -15.475  11.970  1.00  0.00     0.066 C 
BRANCH  12  13
ATOM     13  C   UNL     1      67.200 -14.774  11.700  1.00  0.00     0.140 C 
ATOM     14  O   UNL     1      67.120 -14.010  10.747  1.00  0.00    -0.299 OA
BRANCH  13  15
ATOM     15  C   UNL     1      66.001 -14.932  12.614  1.00  0.00     0.106 CG0
ATOM     16  G   UNL     1      65.164 -16.133  12.211  1.00  0.00     0.000 G0
ENDBRANCH  13  15
ENDBRANCH  12  13
BRANCH  12  17
ATOM     17  C   UNL     1      69.212 -15.910  10.633  1.00  0.00    -0.006 C 
ATOM     18  C   UNL     1      69.513 -14.698   9.727  1.00  0.00     0.008 C 
ATOM     19  C   UNL     1      68.343 -16.903   9.833  1.00  0.00     0.008 C 
ENDBRANCH  12  17
ENDBRANCH  11  12
ENDBRANCH   1  11
TORSDOF 1
ENDMDL
MODEL 5
REMARK VINA RESULT:    -1.719     22.188     23.967
REMARK INTER + INTRA:          -1.784
REMARK INTER:                  -3.042
REMARK INTRA:                   1.258
REMARK UNBOUND:                 0.839
REMARK SMILES CC1=CCC[C@H](C)C(=O)C[C@@H](C(C)C)C(=O)C1
REMARK SMILES IDX 8 1 9 2 6 3 7 4 5 5 4 6 3 7 2 8 1 9 10 11 11 12 15 13 16 14
REMARK SMILES IDX 17 15 12 17 13 18 14 19
REMARK H PARENT
REMARK Flexibility Score: 70.00
ROOT
ATOM      1  C   UNL     1      55.625  -0.395  22.035  1.00  0.00     0.136 C 
ATOM      2  O   UNL     1      56.051  -0.298  20.893  1.00  0.00    -0.299 OA
ENDROOT
BRANCH   1   3
ATOM      3  C   UNL     1      56.592  -0.426  23.196  1.00  0.00     0.053 C 
ATOM      4  C   UNL     1      57.874  -1.185  22.833  1.00  0.00     0.016 C 
BRANCH   3   5
ATOM      5  C   UNL     1      56.897   1.026  23.640  1.00  0.00     0.015 C 
BRANCH   5   6
ATOM      6  C   UNL     1      56.357   1.433  25.025  1.00  0.00     0.028 C 
BRANCH   6   7
ATOM      7  C   UNL     1      54.892   1.805  25.109  1.00  0.00    -0.028 C 
ATOM      8  C   UNL     1      54.127   2.327  24.120  1.00  0.00    -0.070 CG0
ATOM      9  C   UNL     1      52.710   2.718  24.464  1.00  0.00     0.039 C 
ATOM     10  G   UNL     1      54.580   2.476  22.679  1.00  0.00     0.000 G0
ENDBRANCH   6   7
ENDBRANCH   5   6
ENDBRANCH   3   5
ENDBRANCH   1   3
BRANCH   1  11
ATOM     11  C   UNL     1      54.133  -0.399  22.271  1.00  0.00     0.087 C 
BRANCH  11  12
ATOM     12  C   UNL     1      53.376   0.519  21.261  1.00  0.00     0.066 C 
BRANCH  12  13
ATOM     13  C   UNL     1      53.466   1.965  21.730  1.00  0.00     0.140 C 
ATOM     14  O   UNL     1      52.669   2.781  21.287  1.00  0.00    -0.299 OA
BRANCH  13  15
ATOM     15  C   UNL     1      54.557   2.444  22.668  1.00  0.00     0.106 CG0
ATOM     16  G   UNL     1      54.103   2.365  24.115  1.00  0.00     0.000 G0
ENDBRANCH  13  15
ENDBRANCH  12  13
BRANCH  12  17
ATOM     17  C   UNL     1      51.884   0.083  21.075  1.00  0.00    -0.006 C 
ATOM     18  C   UNL     1      51.588  -1.254  21.785  1.00  0.00     0.008 C 
ATOM     19  C   UNL     1      51.507  -0.072  19.587  1.00  0.00     0.008 C 
ENDBRANCH  12  17
ENDBRANCH  11  12
ENDBRANCH   1  11
TORSDOF 1
ENDMDL
MODEL 6
REMARK VINA RESULT:    -1.671     23.697     25.537
REMARK INTER + INTRA:          -1.711
REMARK INTER:                  -1.756
REMARK INTRA:                   0.045
REMARK UNBOUND:                 0.839
REMARK SMILES CC1=CCC[C@H](C)C(=O)C[C@@H](C(C)C)C(=O)C1
REMARK SMILES IDX 8 1 9 2 6 3 7 4 5 5 4 6 3 7 2 8 1 9 10 11 11 12 15 13 16 14
REMARK SMILES IDX 17 15 12 17 13 18 14 19
REMARK H PARENT
REMARK Flexibility Score: 70.00
ROOT
ATOM      1  C   UNL     1      51.255   0.116  23.492  1.00  0.00     0.136 C 
ATOM      2  O   UNL     1      50.350  -0.517  22.968  1.00  0.00    -0.299 OA
ENDROOT
BRANCH   1   3
ATOM      3  C   UNL     1      50.942   1.091  24.604  1.00  0.00     0.053 C 
ATOM      4  C   UNL     1      52.215   1.771  25.123  1.00  0.00     0.016 C 
BRANCH   3   5
ATOM      5  C   UNL     1      49.911   2.127  24.094  1.00  0.00     0.015 C 
BRANCH   5   6
ATOM      6  C   UNL     1      50.413   3.097  23.006  1.00  0.00     0.028 C 
BRANCH   6   7
ATOM      7  C   UNL     1      49.980   2.818  21.583  1.00  0.00    -0.028 C 
ATOM      8  C   UNL     1      50.781   2.692  20.498  1.00  0.00    -0.070 CG0
ATOM      9  C   UNL     1      50.117   2.516  19.154  1.00  0.00     0.039 C 
ATOM     10  G   UNL     1      52.298   2.644  20.558  1.00  0.00     0.000 G0
ENDBRANCH   6   7
ENDBRANCH   5   6
ENDBRANCH   3   5
ENDBRANCH   1   3
BRANCH   1  11
ATOM     11  C   UNL     1      52.682  -0.151  23.076  1.00  0.00     0.087 C 
BRANCH  11  12
ATOM     12  C   UNL     1      53.357   1.107  22.445  1.00  0.00     0.066 C 
BRANCH  12  13
ATOM     13  C   UNL     1      52.822   1.310  21.033  1.00  0.00     0.140 C 
ATOM     14  O   UNL     1      52.861   0.372  20.247  1.00  0.00    -0.299 OA
BRANCH  13  15
ATOM     15  C   UNL     1      52.316   2.653  20.545  1.00  0.00     0.106 CG0
ATOM     16  G   UNL     1      50.798   2.678  20.503  1.00  0.00     0.000 G0
ENDBRANCH  13  15
ENDBRANCH  12  13
BRANCH  12  17
ATOM     17  C   UNL     1      54.918   0.999  22.443  1.00  0.00    -0.006 C 
ATOM     18  C   UNL     1      55.388  -0.458  22.639  1.00  0.00     0.008 C 
ATOM     19  C   UNL     1      55.560   1.862  23.548  1.00  0.00     0.008 C 
ENDBRANCH  12  17
ENDBRANCH  11  12
ENDBRANCH   1  11
TORSDOF 1
ENDMDL
MODEL 7
REMARK VINA RESULT:    -1.642     23.521     25.179
REMARK INTER + INTRA:          -1.667
REMARK INTER:                  -2.519
REMARK INTRA:                   0.852
REMARK UNBOUND:                 0.839
REMARK SMILES CC1=CCC[C@H](C)C(=O)C[C@@H](C(C)C)C(=O)C1
REMARK SMILES IDX 8 1 9 2 6 3 7 4 5 5 4 6 3 7 2 8 1 9 10 11 11 12 15 13 16 14
REMARK SMILES IDX 17 15 12 17 13 18 14 19
REMARK H PARENT
REMARK Flexibility Score: 70.00
ROOT
ATOM      1  C   UNL     1      51.986   1.232  20.503  1.00  0.00     0.136 C 
ATOM      2  O   UNL     1      52.606   0.434  19.814  1.00  0.00    -0.299 OA
ENDROOT
BRANCH   1   3
ATOM      3  C   UNL     1      50.483   1.322  20.374  1.00  0.00     0.053 C 
ATOM      4  C   UNL     1      50.077   1.993  19.056  1.00  0.00     0.016 C 
BRANCH   3   5
ATOM      5  C   UNL     1      49.876  -0.097  20.500  1.00  0.00     0.015 C 
BRANCH   5   6
ATOM      6  C   UNL     1      50.733  -1.129  21.258  1.00  0.00     0.028 C 
BRANCH   6   7
ATOM      7  C   UNL     1      50.360  -1.409  22.698  1.00  0.00    -0.028 C 
ATOM      8  C   UNL     1      50.309  -0.515  23.714  1.00  0.00    -0.070 CG0
ATOM      9  C   UNL     1      50.009  -1.043  25.096  1.00  0.00     0.039 C 
ATOM     10  G   UNL     1      50.461   0.985  23.539  1.00  0.00     0.000 G0
ENDBRANCH   6   7
ENDBRANCH   5   6
ENDBRANCH   3   5
ENDBRANCH   1   3
BRANCH   1  11
ATOM     11  C   UNL     1      52.725   2.053  21.532  1.00  0.00     0.087 C 
BRANCH  11  12
ATOM     12  C   UNL     1      53.041   1.235  22.823  1.00  0.00     0.066 C 
BRANCH  12  13
ATOM     13  C   UNL     1      51.918   1.435  23.832  1.00  0.00     0.140 C 
ATOM     14  O   UNL     1      52.188   1.900  24.932  1.00  0.00    -0.299 OA
BRANCH  13  15
ATOM     15  C   UNL     1      50.491   1.008  23.549  1.00  0.00     0.106 CG0
ATOM     16  G   UNL     1      50.321  -0.487  23.748  1.00  0.00     0.000 G0
ENDBRANCH  13  15
ENDBRANCH  12  13
BRANCH  12  17
ATOM     17  C   UNL     1      54.425   1.622  23.441  1.00  0.00    -0.006 C 
ATOM     18  C   UNL     1      55.016   2.880  22.771  1.00  0.00     0.008 C 
ATOM     19  C   UNL     1      55.456   0.482  23.314  1.00  0.00     0.008 C 
ENDBRANCH  12  17
ENDBRANCH  11  12
ENDBRANCH   1  11
TORSDOF 1
ENDMDL
MODEL 8
REMARK VINA RESULT:    -1.170     22.388     24.188
REMARK INTER + INTRA:          -0.947
REMARK INTER:                  -2.559
REMARK INTRA:                   1.612
REMARK UNBOUND:                 0.839
REMARK SMILES CC1=CCC[C@H](C)C(=O)C[C@@H](C(C)C)C(=O)C1
REMARK SMILES IDX 8 1 9 2 6 3 7 4 5 5 4 6 3 7 2 8 1 9 10 11 11 12 15 13 16 14
REMARK SMILES IDX 17 15 12 17 13 18 14 19
REMARK H PARENT
REMARK Flexibility Score: 70.00
ROOT
ATOM      1  C   UNL     1      53.244   2.259  23.932  1.00  0.00     0.136 C 
ATOM      2  O   UNL     1      52.837   1.719  24.952  1.00  0.00    -0.299 OA
ENDROOT
BRANCH   1   3
ATOM      3  C   UNL     1      54.494   3.107  23.981  1.00  0.00     0.053 C 
ATOM      4  C   UNL     1      55.468   2.603  25.053  1.00  0.00     0.016 C 
BRANCH   3   5
ATOM      5  C   UNL     1      55.151   3.124  22.579  1.00  0.00     0.015 C 
BRANCH   5   6
ATOM      6  C   UNL     1      56.561   2.510  22.490  1.00  0.00     0.028 C 
BRANCH   6   7
ATOM      7  C   UNL     1      56.679   1.021  22.733  1.00  0.00    -0.028 C 
ATOM      8  C   UNL     1      55.799   0.063  22.355  1.00  0.00    -0.070 CG0
ATOM      9  C   UNL     1      56.074  -1.354  22.799  1.00  0.00     0.039 C 
ATOM     10  G   UNL     1      54.600   0.311  21.458  1.00  0.00     0.000 G0
ENDBRANCH   6   7
ENDBRANCH   5   6
ENDBRANCH   3   5
ENDBRANCH   1   3
BRANCH   1  11
ATOM     11  C   UNL     1      52.537   1.998  22.624  1.00  0.00     0.087 C 
BRANCH  11  12
ATOM     12  C   UNL     1      52.110   0.504  22.473  1.00  0.00     0.066 C 
BRANCH  12  13
ATOM     13  C   UNL     1      53.307  -0.316  22.007  1.00  0.00     0.140 C 
ATOM     14  O   UNL     1      53.281  -1.531  22.147  1.00  0.00    -0.299 OA
BRANCH  13  15
ATOM     15  C   UNL     1      54.560   0.330  21.448  1.00  0.00     0.106 CG0
ATOM     16  G   UNL     1      55.760   0.045  22.334  1.00  0.00     0.000 G0
ENDBRANCH  13  15
ENDBRANCH  12  13
BRANCH  12  17
ATOM     17  C   UNL     1      50.900   0.333  21.495  1.00  0.00    -0.006 C 
ATOM     18  C   UNL     1      51.348  -0.222  20.127  1.00  0.00     0.008 C 
ATOM     19  C   UNL     1      50.159   1.664  21.254  1.00  0.00     0.008 C 
ENDBRANCH  12  17
ENDBRANCH  11  12
ENDBRANCH   1  11
TORSDOF 1
ENDMDL
MODEL 9
REMARK VINA RESULT:    -1.106     22.902     24.707
REMARK INTER + INTRA:          -0.848
REMARK INTER:                  -2.254
REMARK INTRA:                   1.406
REMARK UNBOUND:                 0.839
REMARK SMILES CC1=CCC[C@H](C)C(=O)C[C@@H](C(C)C)C(=O)C1
REMARK SMILES IDX 8 1 9 2 6 3 7 4 5 5 4 6 3 7 2 8 1 9 10 11 11 12 15 13 16 14
REMARK SMILES IDX 17 15 12 17 13 18 14 19
REMARK H PARENT
REMARK Flexibility Score: 70.00
ROOT
ATOM      1  C   UNL     1      52.728   1.987  23.933  1.00  0.00     0.136 C 
ATOM      2  O   UNL     1      52.685   3.002  23.251  1.00  0.00    -0.299 OA
ENDROOT
BRANCH   1   3
ATOM      3  C   UNL     1      51.618   1.700  24.918  1.00  0.00     0.053 C 
ATOM      4  C   UNL     1      50.335   2.452  24.547  1.00  0.00     0.016 C 
BRANCH   3   5
ATOM      5  C   UNL     1      51.382   0.170  24.985  1.00  0.00     0.015 C 
BRANCH   5   6
ATOM      6  C   UNL     1      50.070  -0.335  24.354  1.00  0.00     0.028 C 
BRANCH   6   7
ATOM      7  C   UNL     1      49.887  -0.103  22.870  1.00  0.00    -0.028 C 
ATOM      8  C   UNL     1      50.831  -0.220  21.905  1.00  0.00    -0.070 CG0
ATOM      9  C   UNL     1      50.444   0.163  20.497  1.00  0.00     0.039 C 
ATOM     10  G   UNL     1      52.224  -0.779  22.137  1.00  0.00     0.000 G0
ENDBRANCH   6   7
ENDBRANCH   5   6
ENDBRANCH   3   5
ENDBRANCH   1   3
BRANCH   1  11
ATOM     11  C   UNL     1      53.846   0.996  23.716  1.00  0.00     0.087 C 
BRANCH  11  12
ATOM     12  C   UNL     1      54.289   0.925  22.221  1.00  0.00     0.066 C 
BRANCH  12  13
ATOM     13  C   UNL     1      53.268   0.114  21.432  1.00  0.00     0.140 C 
ATOM     14  O   UNL     1      53.246   0.218  20.213  1.00  0.00    -0.299 OA
BRANCH  13  15
ATOM     15  C   UNL     1      52.230  -0.757  22.111  1.00  0.00     0.106 CG0
ATOM     16  G   UNL     1      50.832  -0.206  21.896  1.00  0.00     0.000 G0
ENDBRANCH  13  15
ENDBRANCH  12  13
BRANCH  12  17
ATOM     17  C   UNL     1      55.726   0.326  22.060  1.00  0.00    -0.006 C 
ATOM     18  C   UNL     1      55.962  -0.854  23.026  1.00  0.00     0.008 C 
ATOM     19  C   UNL     1      56.824   1.379  22.312  1.00  0.00     0.008 C 
ENDBRANCH  12  17
ENDBRANCH  11  12
ENDBRANCH   1  11
TORSDOF 1
ENDMDL
