MODEL 1
REMARK VINA RESULT:    -3.901      0.000      0.000
REMARK INTER + INTRA:          -4.152
REMARK INTER:                  -4.129
REMARK INTRA:                  -0.023
REMARK UNBOUND:                -0.023
REMARK SMILES C=C(C)[C@@H]1CC=C(C)C(=O)C1
REMARK SMILES IDX 8 1 7 2 6 3 5 4 4 5 11 6 9 7 10 8 2 9 1 10 3 11
REMARK H PARENT
REMARK Flexibility Score: inf
ROOT
ATOM      1  C   UNL     1      19.726  34.540  85.001  1.00  0.00     0.048 C 
ATOM      2  C   UNL     1      21.125  34.543  85.552  1.00  0.00    -0.012 C 
ATOM      3  C   UNL     1      22.148  34.930  84.771  1.00  0.00    -0.019 C 
ATOM      4  C   UNL     1      23.572  34.960  85.266  1.00  0.00     0.036 C 
ATOM      5  C   UNL     1      23.677  35.201  86.788  1.00  0.00     0.025 C 
ATOM      6  C   UNL     1      22.750  34.231  87.546  1.00  0.00     0.089 C 
ATOM      7  C   UNL     1      21.355  34.255  86.986  1.00  0.00     0.158 C 
ATOM      8  O   UNL     1      20.384  33.984  87.743  1.00  0.00    -0.295 OA
ENDROOT
BRANCH   5   9
ATOM      9  C   UNL     1      23.442  36.650  87.220  1.00  0.00    -0.077 C 
ATOM     10  C   UNL     1      23.619  36.978  88.512  1.00  0.00     0.008 C 
ATOM     11  C   UNL     1      22.953  37.706  86.254  1.00  0.00     0.039 C 
ENDBRANCH   5   9
TORSDOF 1
ENDMDL
MODEL 2
REMARK VINA RESULT:    -3.758      2.359      4.115
REMARK INTER + INTRA:          -4.000
REMARK INTER:                  -3.834
REMARK INTRA:                  -0.166
REMARK UNBOUND:                -0.023
REMARK SMILES C=C(C)[C@@H]1CC=C(C)C(=O)C1
REMARK SMILES IDX 8 1 7 2 6 3 5 4 4 5 11 6 9 7 10 8 2 9 1 10 3 11
REMARK H PARENT
REMARK Flexibility Score: inf
ROOT
ATOM      1  C   UNL     1      20.604  38.649  88.862  1.00  0.00     0.048 C 
ATOM      2  C   UNL     1      21.850  37.806  88.835  1.00  0.00    -0.012 C 
ATOM      3  C   UNL     1      21.970  36.766  89.676  1.00  0.00    -0.019 C 
ATOM      4  C   UNL     1      23.190  35.881  89.695  1.00  0.00     0.036 C 
ATOM      5  C   UNL     1      23.900  35.803  88.325  1.00  0.00     0.025 C 
ATOM      6  C   UNL     1      24.137  37.220  87.767  1.00  0.00     0.089 C 
ATOM      7  C   UNL     1      22.876  38.038  87.792  1.00  0.00     0.158 C 
ATOM      8  O   UNL     1      22.721  38.955  86.941  1.00  0.00    -0.295 OA
ENDROOT
BRANCH   5   9
ATOM      9  C   UNL     1      23.204  34.908  87.297  1.00  0.00    -0.077 C 
ATOM     10  C   UNL     1      22.420  33.908  87.734  1.00  0.00     0.008 C 
ATOM     11  C   UNL     1      23.423  35.073  85.810  1.00  0.00     0.039 C 
ENDBRANCH   5   9
TORSDOF 1
ENDMDL
MODEL 3
REMARK VINA RESULT:    -3.728      0.673      1.177
REMARK INTER + INTRA:          -3.970
REMARK INTER:                  -3.798
REMARK INTRA:                  -0.171
REMARK UNBOUND:                -0.023
REMARK SMILES C=C(C)[C@@H]1CC=C(C)C(=O)C1
REMARK SMILES IDX 8 1 7 2 6 3 5 4 4 5 11 6 9 7 10 8 2 9 1 10 3 11
REMARK H PARENT
REMARK Flexibility Score: inf
ROOT
ATOM      1  C   UNL     1      19.965  34.735  85.039  1.00  0.00     0.048 C 
ATOM      2  C   UNL     1      21.285  34.620  85.751  1.00  0.00    -0.012 C 
ATOM      3  C   UNL     1      22.395  35.120  85.184  1.00  0.00    -0.019 C 
ATOM      4  C   UNL     1      23.746  35.040  85.847  1.00  0.00     0.036 C 
ATOM      5  C   UNL     1      23.660  35.009  87.390  1.00  0.00     0.025 C 
ATOM      6  C   UNL     1      22.651  33.937  87.844  1.00  0.00     0.089 C 
ATOM      7  C   UNL     1      21.336  34.080  87.130  1.00  0.00     0.158 C 
ATOM      8  O   UNL     1      20.280  33.697  87.701  1.00  0.00    -0.295 OA
ENDROOT
BRANCH   5   9
ATOM      9  C   UNL     1      23.364  36.363  88.038  1.00  0.00    -0.077 C 
ATOM     10  C   UNL     1      23.752  37.484  87.405  1.00  0.00     0.008 C 
ATOM     11  C   UNL     1      22.711  36.477  89.398  1.00  0.00     0.039 C 
ENDBRANCH   5   9
TORSDOF 1
ENDMDL
MODEL 4
REMARK VINA RESULT:    -3.714      1.767      2.896
REMARK INTER + INTRA:          -3.954
REMARK INTER:                  -3.803
REMARK INTRA:                  -0.151
REMARK UNBOUND:                -0.023
REMARK SMILES C=C(C)[C@@H]1CC=C(C)C(=O)C1
REMARK SMILES IDX 8 1 7 2 6 3 5 4 4 5 11 6 9 7 10 8 2 9 1 10 3 11
REMARK H PARENT
REMARK Flexibility Score: inf
ROOT
ATOM      1  C   UNL     1      20.736  37.334  84.746  1.00  0.00     0.048 C 
ATOM      2  C   UNL     1      21.936  36.831  85.501  1.00  0.00    -0.012 C 
ATOM      3  C   UNL     1      22.425  37.544  86.529  1.00  0.00    -0.019 C 
ATOM      4  C   UNL     1      23.621  37.092  87.327  1.00  0.00     0.036 C 
ATOM      5  C   UNL     1      23.780  35.555  87.357  1.00  0.00     0.025 C 
ATOM      6  C   UNL     1      23.702  34.984  85.929  1.00  0.00     0.089 C 
ATOM      7  C   UNL     1      22.489  35.490  85.199  1.00  0.00     0.158 C 
ATOM      8  O   UNL     1      21.972  34.778  84.297  1.00  0.00    -0.295 OA
ENDROOT
BRANCH   5   9
ATOM      9  C   UNL     1      22.814  34.835  88.300  1.00  0.00    -0.077 C 
ATOM     10  C   UNL     1      22.605  33.518  88.131  1.00  0.00     0.008 C 
ATOM     11  C   UNL     1      22.038  35.571  89.370  1.00  0.00     0.039 C 
ENDBRANCH   5   9
TORSDOF 1
ENDMDL
MODEL 5
REMARK VINA RESULT:    -3.675      2.322      3.818
REMARK INTER + INTRA:          -3.914
REMARK INTER:                  -3.837
REMARK INTRA:                  -0.076
REMARK UNBOUND:                -0.023
REMARK SMILES C=C(C)[C@@H]1CC=C(C)C(=O)C1
REMARK SMILES IDX 8 1 7 2 6 3 5 4 4 5 11 6 9 7 10 8 2 9 1 10 3 11
REMARK H PARENT
REMARK Flexibility Score: inf
ROOT
ATOM      1  C   UNL     1      20.626  36.970  90.085  1.00  0.00     0.048 C 
ATOM      2  C   UNL     1      21.929  36.669  89.395  1.00  0.00    -0.012 C 
ATOM      3  C   UNL     1      22.331  35.395  89.256  1.00  0.00    -0.019 C 
ATOM      4  C   UNL     1      23.622  35.028  88.571  1.00  0.00     0.036 C 
ATOM      5  C   UNL     1      24.050  36.055  87.498  1.00  0.00     0.025 C 
ATOM      6  C   UNL     1      24.008  37.481  88.080  1.00  0.00     0.089 C 
ATOM      7  C   UNL     1      22.693  37.763  88.753  1.00  0.00     0.158 C 
ATOM      8  O   UNL     1      22.269  38.948  88.801  1.00  0.00    -0.295 OA
ENDROOT
BRANCH   5   9
ATOM      9  C   UNL     1      23.268  35.966  86.186  1.00  0.00    -0.077 C 
ATOM     10  C   UNL     1      23.177  34.777  85.565  1.00  0.00     0.008 C 
ATOM     11  C   UNL     1      22.654  37.184  85.533  1.00  0.00     0.039 C 
ENDBRANCH   5   9
TORSDOF 1
ENDMDL
MODEL 6
REMARK VINA RESULT:    -3.663      1.703      3.581
REMARK INTER + INTRA:          -3.901
REMARK INTER:                  -3.792
REMARK INTRA:                  -0.109
REMARK UNBOUND:                -0.023
REMARK SMILES C=C(C)[C@@H]1CC=C(C)C(=O)C1
REMARK SMILES IDX 8 1 7 2 6 3 5 4 4 5 11 6 9 7 10 8 2 9 1 10 3 11
REMARK H PARENT
REMARK Flexibility Score: inf
ROOT
ATOM      1  C   UNL     1      21.993  39.034  87.028  1.00  0.00     0.048 C 
ATOM      2  C   UNL     1      22.624  37.691  86.781  1.00  0.00    -0.012 C 
ATOM      3  C   UNL     1      23.440  37.158  87.705  1.00  0.00    -0.019 C 
ATOM      4  C   UNL     1      24.100  35.815  87.518  1.00  0.00     0.036 C 
ATOM      5  C   UNL     1      23.281  34.860  86.621  1.00  0.00     0.025 C 
ATOM      6  C   UNL     1      22.880  35.571  85.314  1.00  0.00     0.089 C 
ATOM      7  C   UNL     1      22.240  36.903  85.587  1.00  0.00     0.158 C 
ATOM      8  O   UNL     1      21.401  37.363  84.766  1.00  0.00    -0.295 OA
ENDROOT
BRANCH   5   9
ATOM      9  C   UNL     1      22.068  34.226  87.307  1.00  0.00    -0.077 C 
ATOM     10  C   UNL     1      22.227  33.665  88.517  1.00  0.00     0.008 C 
ATOM     11  C   UNL     1      20.715  34.153  86.635  1.00  0.00     0.039 C 
ENDBRANCH   5   9
TORSDOF 1
ENDMDL
MODEL 7
REMARK VINA RESULT:    -3.663      1.868      3.170
REMARK INTER + INTRA:          -3.900
REMARK INTER:                  -3.750
REMARK INTRA:                  -0.150
REMARK UNBOUND:                -0.023
REMARK SMILES C=C(C)[C@@H]1CC=C(C)C(=O)C1
REMARK SMILES IDX 8 1 7 2 6 3 5 4 4 5 11 6 9 7 10 8 2 9 1 10 3 11
REMARK H PARENT
REMARK Flexibility Score: inf
ROOT
ATOM      1  C   UNL     1      23.379  34.959  85.584  1.00  0.00     0.048 C 
ATOM      2  C   UNL     1      23.567  35.554  86.953  1.00  0.00    -0.012 C 
ATOM      3  C   UNL     1      23.796  36.872  87.081  1.00  0.00    -0.019 C 
ATOM      4  C   UNL     1      23.989  37.529  88.424  1.00  0.00     0.036 C 
ATOM      5  C   UNL     1      23.247  36.797  89.566  1.00  0.00     0.025 C 
ATOM      6  C   UNL     1      23.570  35.291  89.530  1.00  0.00     0.089 C 
ATOM      7  C   UNL     1      23.363  34.716  88.157  1.00  0.00     0.158 C 
ATOM      8  O   UNL     1      23.053  33.500  88.039  1.00  0.00    -0.295 OA
ENDROOT
BRANCH   5   9
ATOM      9  C   UNL     1      21.738  37.043  89.604  1.00  0.00    -0.077 C 
ATOM     10  C   UNL     1      20.962  36.209  90.318  1.00  0.00     0.008 C 
ATOM     11  C   UNL     1      21.085  38.153  88.810  1.00  0.00     0.039 C 
ENDBRANCH   5   9
TORSDOF 1
ENDMDL
MODEL 8
REMARK VINA RESULT:    -3.636      1.950      3.042
REMARK INTER + INTRA:          -3.872
REMARK INTER:                  -3.701
REMARK INTRA:                  -0.171
REMARK UNBOUND:                -0.023
REMARK SMILES C=C(C)[C@@H]1CC=C(C)C(=O)C1
REMARK SMILES IDX 8 1 7 2 6 3 5 4 4 5 11 6 9 7 10 8 2 9 1 10 3 11
REMARK H PARENT
REMARK Flexibility Score: inf
ROOT
ATOM      1  C   UNL     1      22.728  33.137  88.476  1.00  0.00     0.048 C 
ATOM      2  C   UNL     1      23.054  34.426  87.772  1.00  0.00    -0.012 C 
ATOM      3  C   UNL     1      22.734  34.577  86.477  1.00  0.00    -0.019 C 
ATOM      4  C   UNL     1      23.029  35.845  85.717  1.00  0.00     0.036 C 
ATOM      5  C   UNL     1      23.052  37.099  86.620  1.00  0.00     0.025 C 
ATOM      6  C   UNL     1      23.952  36.855  87.846  1.00  0.00     0.089 C 
ATOM      7  C   UNL     1      23.599  35.569  88.540  1.00  0.00     0.158 C 
ATOM      8  O   UNL     1      23.812  35.459  89.778  1.00  0.00    -0.295 OA
ENDROOT
BRANCH   5   9
ATOM      9  C   UNL     1      21.670  37.609  87.034  1.00  0.00    -0.077 C 
ATOM     10  C   UNL     1      20.648  37.490  86.169  1.00  0.00     0.008 C 
ATOM     11  C   UNL     1      21.434  38.302  88.358  1.00  0.00     0.039 C 
ENDBRANCH   5   9
TORSDOF 1
ENDMDL
MODEL 9
REMARK VINA RESULT:    -3.539     16.911     18.182
REMARK INTER + INTRA:          -3.769
REMARK INTER:                  -3.597
REMARK INTRA:                  -0.172
REMARK UNBOUND:                -0.023
REMARK SMILES C=C(C)[C@@H]1CC=C(C)C(=O)C1
REMARK SMILES IDX 8 1 7 2 6 3 5 4 4 5 11 6 9 7 10 8 2 9 1 10 3 11
REMARK H PARENT
REMARK Flexibility Score: inf
ROOT
ATOM      1  C   UNL     1      33.924  42.852  72.512  1.00  0.00     0.048 C 
ATOM      2  C   UNL     1      33.121  41.708  73.070  1.00  0.00    -0.012 C 
ATOM      3  C   UNL     1      31.788  41.687  72.907  1.00  0.00    -0.019 C 
ATOM      4  C   UNL     1      30.929  40.568  73.439  1.00  0.00     0.036 C 
ATOM      5  C   UNL     1      31.680  39.220  73.528  1.00  0.00     0.025 C 
ATOM      6  C   UNL     1      33.024  39.408  74.258  1.00  0.00     0.089 C 
ATOM      7  C   UNL     1      33.813  40.546  73.675  1.00  0.00     0.158 C 
ATOM      8  O   UNL     1      35.071  40.522  73.743  1.00  0.00    -0.295 OA
ENDROOT
BRANCH   5   9
ATOM      9  C   UNL     1      31.869  38.508  72.187  1.00  0.00    -0.077 C 
ATOM     10  C   UNL     1      30.924  38.645  71.241  1.00  0.00     0.008 C 
ATOM     11  C   UNL     1      33.050  37.602  71.918  1.00  0.00     0.039 C 
ENDBRANCH   5   9
TORSDOF 1
ENDMDL
