MODEL 1
REMARK VINA RESULT:    -4.407      0.000      0.000
REMARK INTER + INTRA:          -7.261
REMARK INTER:                  -6.726
REMARK INTRA:                  -0.535
REMARK UNBOUND:                -0.535
REMARK SMILES O=C([O-])CCCCCCCCC(=O)[O-]
REMARK SMILES IDX 7 1 6 2 5 3 4 4 2 5 1 6 3 7 8 8 9 9 10 10 11 11 12 12 13 13
REMARK SMILES IDX 14 14
REMARK H PARENT
REMARK Flexibility Score: inf
ROOT
ATOM      1  C   UNL     1      17.870  22.195  48.335  1.00  0.00     0.000 C 
ENDROOT
BRANCH   1   2
ATOM      2  C   UNL     1      19.360  22.164  48.710  1.00  0.00     0.000 C 
BRANCH   2   3
ATOM      3  C   UNL     1      20.006  23.560  48.685  1.00  0.00     0.006 C 
BRANCH   3   4
ATOM      4  C   UNL     1      21.408  23.538  48.059  1.00  0.00     0.053 C 
BRANCH   4   5
ATOM      5  C   UNL     1      21.351  23.394  46.570  1.00  0.00     0.041 C 
ATOM      6  O   UNL     1      22.170  22.644  45.975  1.00  0.00    -0.550 OA
ATOM      7  O   UNL     1      20.378  24.065  45.841  1.00  0.00    -0.550 OA
ENDBRANCH   4   5
ENDBRANCH   3   4
ENDBRANCH   2   3
ENDBRANCH   1   2
BRANCH   1   8
ATOM      8  C   UNL     1      17.445  23.532  47.709  1.00  0.00     0.000 C 
BRANCH   8   9
ATOM      9  C   UNL     1      16.689  23.306  46.394  1.00  0.00     0.000 C 
BRANCH   9  10
ATOM     10  C   UNL     1      15.355  22.584  46.642  1.00  0.00     0.006 C 
BRANCH  10  11
ATOM     11  C   UNL     1      14.499  23.294  47.699  1.00  0.00     0.053 C 
BRANCH  11  12
ATOM     12  C   UNL     1      13.036  23.160  47.410  1.00  0.00     0.041 C 
ATOM     13  O   UNL     1      12.529  22.023  47.220  1.00  0.00    -0.550 OA
ATOM     14  O   UNL     1      12.226  24.288  47.382  1.00  0.00    -0.550 OA
ENDBRANCH  11  12
ENDBRANCH  10  11
ENDBRANCH   9  10
ENDBRANCH   8   9
ENDBRANCH   1   8
TORSDOF 9
ENDMDL
MODEL 2
REMARK VINA RESULT:    -4.294     11.987     12.941
REMARK INTER + INTRA:          -7.088
REMARK INTER:                  -6.623
REMARK INTRA:                  -0.465
REMARK UNBOUND:                -0.535
REMARK SMILES O=C([O-])CCCCCCCCC(=O)[O-]
REMARK SMILES IDX 7 1 6 2 5 3 4 4 2 5 1 6 3 7 8 8 9 9 10 10 11 11 12 12 13 13
REMARK SMILES IDX 14 14
REMARK H PARENT
REMARK Flexibility Score: inf
ROOT
ATOM      1  C   UNL     1      21.173  22.030  34.841  1.00  0.00     0.000 C 
ENDROOT
BRANCH   1   2
ATOM      2  C   UNL     1      22.651  21.876  35.236  1.00  0.00     0.000 C 
BRANCH   2   3
ATOM      3  C   UNL     1      22.998  22.625  36.534  1.00  0.00     0.006 C 
BRANCH   3   4
ATOM      4  C   UNL     1      24.501  22.582  36.843  1.00  0.00     0.053 C 
BRANCH   4   5
ATOM      5  C   UNL     1      24.831  21.543  37.870  1.00  0.00     0.041 C 
ATOM      6  O   UNL     1      25.186  20.389  37.512  1.00  0.00    -0.550 OA
ATOM      7  O   UNL     1      24.774  21.857  39.222  1.00  0.00    -0.550 OA
ENDBRANCH   4   5
ENDBRANCH   3   4
ENDBRANCH   2   3
ENDBRANCH   1   2
BRANCH   1   8
ATOM      8  C   UNL     1      20.463  20.679  34.668  1.00  0.00     0.000 C 
BRANCH   8   9
ATOM      9  C   UNL     1      19.899  20.536  33.248  1.00  0.00     0.000 C 
BRANCH   9  10
ATOM     10  C   UNL     1      19.510  21.906  32.669  1.00  0.00     0.006 C 
BRANCH  10  11
ATOM     11  C   UNL     1      17.994  22.048  32.483  1.00  0.00     0.053 C 
BRANCH  11  12
ATOM     12  C   UNL     1      17.284  22.172  33.796  1.00  0.00     0.041 C 
ATOM     13  O   UNL     1      16.229  21.518  34.011  1.00  0.00    -0.550 OA
ATOM     14  O   UNL     1      17.805  22.985  34.794  1.00  0.00    -0.550 OA
ENDBRANCH  11  12
ENDBRANCH  10  11
ENDBRANCH   9  10
ENDBRANCH   8   9
ENDBRANCH   1   8
TORSDOF 9
ENDMDL
MODEL 3
REMARK VINA RESULT:    -4.257      0.991      6.781
REMARK INTER + INTRA:          -7.032
REMARK INTER:                  -6.497
REMARK INTRA:                  -0.536
REMARK UNBOUND:                -0.535
REMARK SMILES O=C([O-])CCCCCCCCC(=O)[O-]
REMARK SMILES IDX 7 1 6 2 5 3 4 4 2 5 1 6 3 7 8 8 9 9 10 10 11 11 12 12 13 13
REMARK SMILES IDX 14 14
REMARK H PARENT
REMARK Flexibility Score: inf
ROOT
ATOM      1  C   UNL     1      17.142  22.619  46.568  1.00  0.00     0.000 C 
ENDROOT
BRANCH   1   2
ATOM      2  C   UNL     1      15.612  22.570  46.422  1.00  0.00     0.000 C 
BRANCH   2   3
ATOM      3  C   UNL     1      14.883  23.218  47.613  1.00  0.00     0.006 C 
BRANCH   3   4
ATOM      4  C   UNL     1      13.358  23.089  47.497  1.00  0.00     0.053 C 
BRANCH   4   5
ATOM      5  C   UNL     1      12.846  23.659  46.211  1.00  0.00     0.041 C 
ATOM      6  O   UNL     1      13.006  24.881  45.952  1.00  0.00    -0.550 OA
ATOM      7  O   UNL     1      12.216  22.836  45.285  1.00  0.00    -0.550 OA
ENDBRANCH   4   5
ENDBRANCH   3   4
ENDBRANCH   2   3
ENDBRANCH   1   2
BRANCH   1   8
ATOM      8  C   UNL     1      17.591  22.894  48.012  1.00  0.00     0.000 C 
BRANCH   8   9
ATOM      9  C   UNL     1      18.794  22.020  48.387  1.00  0.00     0.000 C 
BRANCH   9  10
ATOM     10  C   UNL     1      19.994  22.884  48.806  1.00  0.00     0.006 C 
BRANCH  10  11
ATOM     11  C   UNL     1      20.186  24.096  47.883  1.00  0.00     0.053 C 
BRANCH  11  12
ATOM     12  C   UNL     1      20.833  23.710  46.589  1.00  0.00     0.041 C 
ATOM     13  O   UNL     1      20.327  24.074  45.494  1.00  0.00    -0.550 OA
ATOM     14  O   UNL     1      22.011  22.975  46.592  1.00  0.00    -0.550 OA
ENDBRANCH  11  12
ENDBRANCH  10  11
ENDBRANCH   9  10
ENDBRANCH   8   9
ENDBRANCH   1   8
TORSDOF 9
ENDMDL
MODEL 4
REMARK VINA RESULT:    -4.241      2.198      3.105
REMARK INTER + INTRA:          -7.007
REMARK INTER:                  -6.649
REMARK INTRA:                  -0.357
REMARK UNBOUND:                -0.535
REMARK SMILES O=C([O-])CCCCCCCCC(=O)[O-]
REMARK SMILES IDX 7 1 6 2 5 3 4 4 2 5 1 6 3 7 8 8 9 9 10 10 11 11 12 12 13 13
REMARK SMILES IDX 14 14
REMARK H PARENT
REMARK Flexibility Score: inf
ROOT
ATOM      1  C   UNL     1      16.312  23.305  46.718  1.00  0.00     0.000 C 
ENDROOT
BRANCH   1   2
ATOM      2  C   UNL     1      17.161  22.961  47.953  1.00  0.00     0.000 C 
BRANCH   2   3
ATOM      3  C   UNL     1      18.458  22.217  47.591  1.00  0.00     0.006 C 
BRANCH   3   4
ATOM      4  C   UNL     1      19.475  22.236  48.741  1.00  0.00     0.053 C 
BRANCH   4   5
ATOM      5  C   UNL     1      20.293  23.490  48.741  1.00  0.00     0.041 C 
ATOM      6  O   UNL     1      19.977  24.452  49.491  1.00  0.00    -0.550 OA
ATOM      7  O   UNL     1      21.421  23.588  47.936  1.00  0.00    -0.550 OA
ENDBRANCH   4   5
ENDBRANCH   3   4
ENDBRANCH   2   3
ENDBRANCH   1   2
BRANCH   1   8
ATOM      8  C   UNL     1      14.998  22.513  46.664  1.00  0.00     0.000 C 
BRANCH   8   9
ATOM      9  C   UNL     1      13.911  23.196  47.503  1.00  0.00     0.000 C 
BRANCH   9  10
ATOM     10  C   UNL     1      12.634  23.418  46.677  1.00  0.00     0.006 C 
BRANCH  10  11
ATOM     11  C   UNL     1      12.433  22.327  45.617  1.00  0.00     0.053 C 
BRANCH  11  12
ATOM     12  C   UNL     1      12.287  22.908  44.244  1.00  0.00     0.041 C 
ATOM     13  O   UNL     1      13.206  23.618  43.755  1.00  0.00    -0.550 OA
ATOM     14  O   UNL     1      11.151  22.638  43.491  1.00  0.00    -0.550 OA
ENDBRANCH  11  12
ENDBRANCH  10  11
ENDBRANCH   9  10
ENDBRANCH   8   9
ENDBRANCH   1   8
TORSDOF 9
ENDMDL
MODEL 5
REMARK VINA RESULT:    -4.234      2.065      6.961
REMARK INTER + INTRA:          -6.997
REMARK INTER:                  -6.550
REMARK INTRA:                  -0.447
REMARK UNBOUND:                -0.535
REMARK SMILES O=C([O-])CCCCCCCCC(=O)[O-]
REMARK SMILES IDX 7 1 6 2 5 3 4 4 2 5 1 6 3 7 8 8 9 9 10 10 11 11 12 12 13 13
REMARK SMILES IDX 14 14
REMARK H PARENT
REMARK Flexibility Score: inf
ROOT
ATOM      1  C   UNL     1      15.293  22.776  46.999  1.00  0.00     0.000 C 
ENDROOT
BRANCH   1   2
ATOM      2  C   UNL     1      13.997  23.289  47.647  1.00  0.00     0.000 C 
BRANCH   2   3
ATOM      3  C   UNL     1      12.735  22.701  46.994  1.00  0.00     0.006 C 
BRANCH   3   4
ATOM      4  C   UNL     1      13.032  22.068  45.627  1.00  0.00     0.053 C 
BRANCH   4   5
ATOM      5  C   UNL     1      12.494  22.895  44.500  1.00  0.00     0.041 C 
ATOM      6  O   UNL     1      11.472  22.517  43.870  1.00  0.00    -0.550 OA
ATOM      7  O   UNL     1      13.104  24.097  44.164  1.00  0.00    -0.550 OA
ENDBRANCH   4   5
ENDBRANCH   3   4
ENDBRANCH   2   3
ENDBRANCH   1   2
BRANCH   1   8
ATOM      8  C   UNL     1      16.544  23.123  47.820  1.00  0.00     0.000 C 
BRANCH   8   9
ATOM      9  C   UNL     1      17.806  23.058  46.950  1.00  0.00     0.000 C 
BRANCH   9  10
ATOM     10  C   UNL     1      18.730  21.917  47.404  1.00  0.00     0.006 C 
BRANCH  10  11
ATOM     11  C   UNL     1      19.376  22.201  48.767  1.00  0.00     0.053 C 
BRANCH  11  12
ATOM     12  C   UNL     1      20.254  23.413  48.723  1.00  0.00     0.041 C 
ATOM     13  O   UNL     1      19.980  24.420  49.428  1.00  0.00    -0.550 OA
ATOM     14  O   UNL     1      21.391  23.420  47.926  1.00  0.00    -0.550 OA
ENDBRANCH  11  12
ENDBRANCH  10  11
ENDBRANCH   9  10
ENDBRANCH   8   9
ENDBRANCH   1   8
TORSDOF 9
ENDMDL
MODEL 6
REMARK VINA RESULT:    -4.232      1.416      1.991
REMARK INTER + INTRA:          -6.994
REMARK INTER:                  -6.588
REMARK INTRA:                  -0.407
REMARK UNBOUND:                -0.535
REMARK SMILES O=C([O-])CCCCCCCCC(=O)[O-]
REMARK SMILES IDX 7 1 6 2 5 3 4 4 2 5 1 6 3 7 8 8 9 9 10 10 11 11 12 12 13 13
REMARK SMILES IDX 14 14
REMARK H PARENT
REMARK Flexibility Score: inf
ROOT
ATOM      1  C   UNL     1      17.214  22.993  47.186  1.00  0.00     0.000 C 
ENDROOT
BRANCH   1   2
ATOM      2  C   UNL     1      18.069  22.466  48.350  1.00  0.00     0.000 C 
BRANCH   2   3
ATOM      3  C   UNL     1      19.457  21.982  47.895  1.00  0.00     0.006 C 
BRANCH   3   4
ATOM      4  C   UNL     1      20.493  23.115  47.895  1.00  0.00     0.053 C 
BRANCH   4   5
ATOM      5  C   UNL     1      21.007  23.401  46.517  1.00  0.00     0.041 C 
ATOM      6  O   UNL     1      22.061  22.847  46.107  1.00  0.00    -0.550 OA
ATOM      7  O   UNL     1      20.308  24.257  45.677  1.00  0.00    -0.550 OA
ENDBRANCH   4   5
ENDBRANCH   3   4
ENDBRANCH   2   3
ENDBRANCH   1   2
BRANCH   1   8
ATOM      8  C   UNL     1      15.765  23.286  47.601  1.00  0.00     0.000 C 
BRANCH   8   9
ATOM      9  C   UNL     1      14.774  22.584  46.663  1.00  0.00     0.000 C 
BRANCH   9  10
ATOM     10  C   UNL     1      13.342  22.663  47.216  1.00  0.00     0.006 C 
BRANCH  10  11
ATOM     11  C   UNL     1      12.677  24.011  46.913  1.00  0.00     0.053 C 
BRANCH  11  12
ATOM     12  C   UNL     1      12.738  24.344  45.454  1.00  0.00     0.041 C 
ATOM     13  O   UNL     1      13.395  25.343  45.058  1.00  0.00    -0.550 OA
ATOM     14  O   UNL     1      12.095  23.533  44.527  1.00  0.00    -0.550 OA
ENDBRANCH  11  12
ENDBRANCH  10  11
ENDBRANCH   9  10
ENDBRANCH   8   9
ENDBRANCH   1   8
TORSDOF 9
ENDMDL
MODEL 7
REMARK VINA RESULT:    -4.219     12.382     14.757
REMARK INTER + INTRA:          -6.973
REMARK INTER:                  -6.481
REMARK INTRA:                  -0.492
REMARK UNBOUND:                -0.535
REMARK SMILES O=C([O-])CCCCCCCCC(=O)[O-]
REMARK SMILES IDX 7 1 6 2 5 3 4 4 2 5 1 6 3 7 8 8 9 9 10 10 11 11 12 12 13 13
REMARK SMILES IDX 14 14
REMARK H PARENT
REMARK Flexibility Score: inf
ROOT
ATOM      1  C   UNL     1      16.676  21.497  34.718  1.00  0.00     0.000 C 
ENDROOT
BRANCH   1   2
ATOM      2  C   UNL     1      15.275  21.994  35.111  1.00  0.00     0.000 C 
BRANCH   2   3
ATOM      3  C   UNL     1      14.337  20.849  35.531  1.00  0.00     0.006 C 
BRANCH   3   4
ATOM      4  C   UNL     1      13.110  20.742  34.616  1.00  0.00     0.053 C 
BRANCH   4   5
ATOM      5  C   UNL     1      12.180  21.902  34.791  1.00  0.00     0.041 C 
ATOM      6  O   UNL     1      11.966  22.692  33.833  1.00  0.00    -0.550 OA
ATOM      7  O   UNL     1      11.527  22.097  36.002  1.00  0.00    -0.550 OA
ENDBRANCH   4   5
ENDBRANCH   3   4
ENDBRANCH   2   3
ENDBRANCH   1   2
BRANCH   1   8
ATOM      8  C   UNL     1      17.089  21.949  33.309  1.00  0.00     0.000 C 
BRANCH   8   9
ATOM      9  C   UNL     1      18.495  22.563  33.321  1.00  0.00     0.000 C 
BRANCH   9  10
ATOM     10  C   UNL     1      19.469  21.728  32.476  1.00  0.00     0.006 C 
BRANCH  10  11
ATOM     11  C   UNL     1      19.990  20.500  33.235  1.00  0.00     0.053 C 
BRANCH  11  12
ATOM     12  C   UNL     1      20.630  20.882  34.534  1.00  0.00     0.041 C 
ATOM     13  O   UNL     1      21.730  21.494  34.544  1.00  0.00    -0.550 OA
ATOM     14  O   UNL     1      19.995  20.590  35.735  1.00  0.00    -0.550 OA
ENDBRANCH  11  12
ENDBRANCH  10  11
ENDBRANCH   9  10
ENDBRANCH   8   9
ENDBRANCH   1   8
TORSDOF 9
ENDMDL
MODEL 8
REMARK VINA RESULT:    -4.175     10.880     13.534
REMARK INTER + INTRA:          -6.906
REMARK INTER:                  -6.430
REMARK INTRA:                  -0.476
REMARK UNBOUND:                -0.535
REMARK SMILES O=C([O-])CCCCCCCCC(=O)[O-]
REMARK SMILES IDX 7 1 6 2 5 3 4 4 2 5 1 6 3 7 8 8 9 9 10 10 11 11 12 12 13 13
REMARK SMILES IDX 14 14
REMARK H PARENT
REMARK Flexibility Score: inf
ROOT
ATOM      1  C   UNL     1      22.845  21.748  36.029  1.00  0.00     0.000 C 
ENDROOT
BRANCH   1   2
ATOM      2  C   UNL     1      22.127  21.887  34.677  1.00  0.00     0.000 C 
BRANCH   2   3
ATOM      3  C   UNL     1      20.644  21.484  34.751  1.00  0.00     0.006 C 
BRANCH   3   4
ATOM      4  C   UNL     1      20.104  21.014  33.393  1.00  0.00     0.053 C 
BRANCH   4   5
ATOM      5  C   UNL     1      19.289  22.075  32.719  1.00  0.00     0.041 C 
ATOM      6  O   UNL     1      18.035  21.967  32.658  1.00  0.00    -0.550 OA
ATOM      7  O   UNL     1      19.910  23.196  32.183  1.00  0.00    -0.550 OA
ENDBRANCH   4   5
ENDBRANCH   3   4
ENDBRANCH   2   3
ENDBRANCH   1   2
BRANCH   1   8
ATOM      8  C   UNL     1      24.310  22.209  35.971  1.00  0.00     0.000 C 
BRANCH   8   9
ATOM      9  C   UNL     1      25.143  21.524  37.062  1.00  0.00     0.000 C 
BRANCH   9  10
ATOM     10  C   UNL     1      24.268  21.147  38.268  1.00  0.00     0.006 C 
BRANCH  10  11
ATOM     11  C   UNL     1      24.574  22.010  39.499  1.00  0.00     0.053 C 
BRANCH  11  12
ATOM     12  C   UNL     1      23.500  23.023  39.748  1.00  0.00     0.041 C 
ATOM     13  O   UNL     1      23.287  23.940  38.911  1.00  0.00    -0.550 OA
ATOM     14  O   UNL     1      22.713  22.936  40.889  1.00  0.00    -0.550 OA
ENDBRANCH  11  12
ENDBRANCH  10  11
ENDBRANCH   9  10
ENDBRANCH   8   9
ENDBRANCH   1   8
TORSDOF 9
ENDMDL
MODEL 9
REMARK VINA RESULT:    -4.172     11.821     14.387
REMARK INTER + INTRA:          -6.902
REMARK INTER:                  -6.346
REMARK INTRA:                  -0.556
REMARK UNBOUND:                -0.535
REMARK SMILES O=C([O-])CCCCCCCCC(=O)[O-]
REMARK SMILES IDX 7 1 6 2 5 3 4 4 2 5 1 6 3 7 8 8 9 9 10 10 11 11 12 12 13 13
REMARK SMILES IDX 14 14
REMARK H PARENT
REMARK Flexibility Score: inf
ROOT
ATOM      1  C   UNL     1      20.200  20.758  33.752  1.00  0.00     0.000 C 
ENDROOT
BRANCH   1   2
ATOM      2  C   UNL     1      19.531  21.483  32.573  1.00  0.00     0.000 C 
BRANCH   2   3
ATOM      3  C   UNL     1      18.169  22.093  32.948  1.00  0.00     0.006 C 
BRANCH   3   4
ATOM      4  C   UNL     1      17.601  21.488  34.240  1.00  0.00     0.053 C 
BRANCH   4   5
ATOM      5  C   UNL     1      17.038  22.538  35.147  1.00  0.00     0.041 C 
ATOM      6  O   UNL     1      15.839  22.471  35.526  1.00  0.00    -0.550 OA
ATOM      7  O   UNL     1      17.844  23.576  35.597  1.00  0.00    -0.550 OA
ENDBRANCH   4   5
ENDBRANCH   3   4
ENDBRANCH   2   3
ENDBRANCH   1   2
BRANCH   1   8
ATOM      8  C   UNL     1      21.420  21.516  34.297  1.00  0.00     0.000 C 
BRANCH   8   9
ATOM      9  C   UNL     1      21.111  22.140  35.663  1.00  0.00     0.000 C 
BRANCH   9  10
ATOM     10  C   UNL     1      22.388  22.276  36.508  1.00  0.00     0.006 C 
BRANCH  10  11
ATOM     11  C   UNL     1      23.655  21.972  35.698  1.00  0.00     0.053 C 
BRANCH  11  12
ATOM     12  C   UNL     1      24.884  22.013  36.554  1.00  0.00     0.041 C 
ATOM     13  O   UNL     1      25.592  23.053  36.596  1.00  0.00    -0.550 OA
ATOM     14  O   UNL     1      25.228  20.914  37.329  1.00  0.00    -0.550 OA
ENDBRANCH  11  12
ENDBRANCH  10  11
ENDBRANCH   9  10
ENDBRANCH   8   9
ENDBRANCH   1   8
TORSDOF 9
ENDMDL
