MODEL 1
REMARK VINA RESULT:    -3.680      0.000      0.000
REMARK INTER + INTRA:          -5.385
REMARK INTER:                  -5.186
REMARK INTRA:                  -0.200
REMARK UNBOUND:                -0.200
REMARK SMILES CC1=CCC(=C(C)C)C(=O)CC(C)=CCC1
REMARK SMILES IDX 12 1 14 2 13 3 15 4 16 5 2 6 1 7 3 8 11 10 9 11 10 12 5 13
REMARK SMILES IDX 6 14 7 15 8 16 4 17
REMARK H PARENT
REMARK Flexibility Score: 60.00
ROOT
ATOM      1  C   UNL     1      17.491  28.122  43.368  1.00  0.00    -0.070 C 
ATOM      2  C   UNL     1      18.538  28.796  43.898  1.00  0.00    -0.027 C 
ATOM      3  C   UNL     1      16.160  28.836  43.336  1.00  0.00     0.039 C 
ENDROOT
BRANCH   2   4
ATOM      4  C   UNL     1      19.941  28.273  44.075  1.00  0.00     0.032 C 
BRANCH   4   5
ATOM      5  C   UNL     1      20.693  27.945  42.762  1.00  0.00     0.034 C 
BRANCH   5   6
ATOM      6  C   UNL     1      21.115  26.492  42.593  1.00  0.00    -0.077 C 
ATOM      7  C   UNL     1      22.010  25.898  43.653  1.00  0.00     0.039 C 
ATOM      8  C   UNL     1      20.702  25.666  41.593  1.00  0.00    -0.023 CG0
ATOM      9  G   UNL     1      19.932  25.983  40.320  1.00  0.00     0.000 G0
ENDBRANCH   5   6
ENDBRANCH   4   5
ENDBRANCH   2   4
BRANCH   1  10
ATOM     10  C   UNL     1      17.542  26.689  42.852  1.00  0.00     0.111 C 
BRANCH  10  11
ATOM     11  C   UNL     1      17.576  26.511  41.351  1.00  0.00     0.163 C 
ATOM     12  O   UNL     1      16.571  25.956  40.830  1.00  0.00    -0.294 OA
BRANCH  11  13
ATOM     13  C   UNL     1      18.730  26.943  40.480  1.00  0.00    -0.002 C 
ATOM     14  C   UNL     1      18.718  28.128  39.792  1.00  0.00    -0.069 C 
ATOM     15  C   UNL     1      17.626  29.157  39.976  1.00  0.00     0.039 C 
ATOM     16  C   UNL     1      19.828  28.489  38.828  1.00  0.00     0.039 C 
BRANCH  13  17
ATOM     17  C   UNL     1      19.907  25.992  40.326  1.00  0.00     0.066 CG0
ATOM     18  G   UNL     1      20.702  25.675  41.584  1.00  0.00     0.000 G0
ENDBRANCH  13  17
ENDBRANCH  11  13
ENDBRANCH  10  11
ENDBRANCH   1  10
TORSDOF 0
ENDMDL
MODEL 2
REMARK VINA RESULT:    -3.535      2.511      4.440
REMARK INTER + INTRA:          -5.181
REMARK INTER:                  -4.773
REMARK INTRA:                  -0.408
REMARK UNBOUND:                -0.200
REMARK SMILES CC1=CCC(=C(C)C)C(=O)CC(C)=CCC1
REMARK SMILES IDX 12 1 14 2 13 3 15 4 16 5 2 6 1 7 3 8 11 10 9 11 10 12 5 13
REMARK SMILES IDX 6 14 7 15 8 16 4 17
REMARK H PARENT
REMARK Flexibility Score: 60.00
ROOT
ATOM      1  C   UNL     1      21.878  28.792  41.907  1.00  0.00    -0.070 C 
ATOM      2  C   UNL     1      20.546  28.967  42.074  1.00  0.00    -0.027 C 
ATOM      3  C   UNL     1      22.493  29.363  40.652  1.00  0.00     0.039 C 
ENDROOT
BRANCH   2   4
ATOM      4  C   UNL     1      19.712  28.449  43.219  1.00  0.00     0.032 C 
BRANCH   4   5
ATOM      5  C   UNL     1      18.954  27.129  42.939  1.00  0.00     0.034 C 
BRANCH   5   6
ATOM      6  C   UNL     1      18.928  26.683  41.484  1.00  0.00    -0.077 C 
ATOM      7  C   UNL     1      17.817  27.214  40.612  1.00  0.00     0.039 C 
ATOM      8  C   UNL     1      19.860  25.889  40.889  1.00  0.00    -0.023 CG0
ATOM      9  G   UNL     1      21.000  25.091  41.506  1.00  0.00     0.000 G0
ENDBRANCH   5   6
ENDBRANCH   4   5
ENDBRANCH   2   4
BRANCH   1  10
ATOM     10  C   UNL     1      22.787  28.024  42.860  1.00  0.00     0.111 C 
BRANCH  10  11
ATOM     11  C   UNL     1      22.687  26.516  42.821  1.00  0.00     0.163 C 
ATOM     12  O   UNL     1      22.913  25.912  43.905  1.00  0.00    -0.294 OA
BRANCH  11  13
ATOM     13  C   UNL     1      22.353  25.728  41.579  1.00  0.00    -0.002 C 
ATOM     14  C   UNL     1      23.217  25.642  40.518  1.00  0.00    -0.069 C 
ATOM     15  C   UNL     1      24.622  26.196  40.575  1.00  0.00     0.039 C 
ATOM     16  C   UNL     1      22.816  24.951  39.232  1.00  0.00     0.039 C 
BRANCH  13  17
ATOM     17  C   UNL     1      20.987  25.066  41.496  1.00  0.00     0.066 CG0
ATOM     18  G   UNL     1      19.860  25.891  40.891  1.00  0.00     0.000 G0
ENDBRANCH  13  17
ENDBRANCH  11  13
ENDBRANCH  10  11
ENDBRANCH   1  10
TORSDOF 0
ENDMDL
MODEL 3
REMARK VINA RESULT:    -3.516      2.323      4.136
REMARK INTER + INTRA:          -5.155
REMARK INTER:                  -4.757
REMARK INTRA:                  -0.398
REMARK UNBOUND:                -0.200
REMARK SMILES CC1=CCC(=C(C)C)C(=O)CC(C)=CCC1
REMARK SMILES IDX 12 1 14 2 13 3 15 4 16 5 2 6 1 7 3 8 11 10 9 11 10 12 5 13
REMARK SMILES IDX 6 14 7 15 8 16 4 17
REMARK H PARENT
REMARK Flexibility Score: 60.00
ROOT
ATOM      1  C   UNL     1      21.425  27.068  43.320  1.00  0.00    -0.070 C 
ATOM      2  C   UNL     1      20.118  27.138  43.662  1.00  0.00    -0.027 C 
ATOM      3  C   UNL     1      22.129  25.754  43.563  1.00  0.00     0.039 C 
ENDROOT
BRANCH   2   4
ATOM      4  C   UNL     1      19.228  28.350  43.553  1.00  0.00     0.032 C 
BRANCH   4   5
ATOM      5  C   UNL     1      18.412  28.455  42.242  1.00  0.00     0.034 C 
BRANCH   5   6
ATOM      6  C   UNL     1      18.340  27.181  41.411  1.00  0.00    -0.077 C 
ATOM      7  C   UNL     1      17.346  26.127  41.836  1.00  0.00     0.039 C 
ATOM      8  C   UNL     1      19.058  26.939  40.280  1.00  0.00    -0.023 CG0
ATOM      9  G   UNL     1      20.219  27.715  39.676  1.00  0.00     0.000 G0
ENDBRANCH   5   6
ENDBRANCH   4   5
ENDBRANCH   2   4
BRANCH   1  10
ATOM     10  C   UNL     1      22.247  28.223  42.761  1.00  0.00     0.111 C 
BRANCH  10  11
ATOM     11  C   UNL     1      22.077  28.524  41.289  1.00  0.00     0.163 C 
ATOM     12  O   UNL     1      22.347  29.701  40.924  1.00  0.00    -0.294 OA
BRANCH  11  13
ATOM     13  C   UNL     1      21.602  27.514  40.275  1.00  0.00    -0.002 C 
ATOM     14  C   UNL     1      22.389  26.470  39.863  1.00  0.00    -0.069 C 
ATOM     15  C   UNL     1      23.723  26.163  40.506  1.00  0.00     0.039 C 
ATOM     16  C   UNL     1      21.945  25.538  38.756  1.00  0.00     0.039 C 
BRANCH  13  17
ATOM     17  C   UNL     1      20.227  27.712  39.656  1.00  0.00     0.066 CG0
ATOM     18  G   UNL     1      19.073  26.949  40.289  1.00  0.00     0.000 G0
ENDBRANCH  13  17
ENDBRANCH  11  13
ENDBRANCH  10  11
ENDBRANCH   1  10
TORSDOF 0
ENDMDL
MODEL 4
REMARK VINA RESULT:    -3.462      2.671      4.818
REMARK INTER + INTRA:          -5.079
REMARK INTER:                  -4.885
REMARK INTRA:                  -0.194
REMARK UNBOUND:                -0.200
REMARK SMILES CC1=CCC(=C(C)C)C(=O)CC(C)=CCC1
REMARK SMILES IDX 12 1 14 2 13 3 15 4 16 5 2 6 1 7 3 8 11 10 9 11 10 12 5 13
REMARK SMILES IDX 6 14 7 15 8 16 4 17
REMARK H PARENT
REMARK Flexibility Score: 60.00
ROOT
ATOM      1  C   UNL     1      22.933  25.183  39.639  1.00  0.00    -0.070 C 
ATOM      2  C   UNL     1      24.120  25.771  39.915  1.00  0.00    -0.027 C 
ATOM      3  C   UNL     1      22.973  23.870  38.894  1.00  0.00     0.039 C 
ENDROOT
BRANCH   2   4
ATOM      4  C   UNL     1      24.324  27.096  40.605  1.00  0.00     0.032 C 
BRANCH   4   5
ATOM      5  C   UNL     1      24.039  27.099  42.126  1.00  0.00     0.034 C 
BRANCH   5   6
ATOM      6  C   UNL     1      23.165  28.240  42.628  1.00  0.00    -0.077 C 
ATOM      7  C   UNL     1      23.749  29.632  42.594  1.00  0.00     0.039 C 
ATOM      8  C   UNL     1      21.877  28.116  43.051  1.00  0.00    -0.023 CG0
ATOM      9  G   UNL     1      21.060  26.865  43.337  1.00  0.00     0.000 G0
ENDBRANCH   5   6
ENDBRANCH   4   5
ENDBRANCH   2   4
BRANCH   1  10
ATOM     10  C   UNL     1      21.566  25.769  39.976  1.00  0.00     0.111 C 
BRANCH  10  11
ATOM     11  C   UNL     1      20.946  25.330  41.282  1.00  0.00     0.163 C 
ATOM     12  O   UNL     1      21.030  24.102  41.558  1.00  0.00    -0.294 OA
BRANCH  11  13
ATOM     13  C   UNL     1      20.241  26.265  42.234  1.00  0.00    -0.002 C 
ATOM     14  C   UNL     1      18.924  26.611  42.071  1.00  0.00    -0.069 C 
ATOM     15  C   UNL     1      18.043  25.963  41.027  1.00  0.00     0.039 C 
ATOM     16  C   UNL     1      18.267  27.644  42.961  1.00  0.00     0.039 C 
BRANCH  13  17
ATOM     17  C   UNL     1      21.049  26.880  43.365  1.00  0.00     0.066 CG0
ATOM     18  G   UNL     1      21.858  28.125  43.032  1.00  0.00     0.000 G0
ENDBRANCH  13  17
ENDBRANCH  11  13
ENDBRANCH  10  11
ENDBRANCH   1  10
TORSDOF 0
ENDMDL
MODEL 5
REMARK VINA RESULT:    -3.388      1.810      3.670
REMARK INTER + INTRA:          -4.974
REMARK INTER:                  -4.688
REMARK INTRA:                  -0.286
REMARK UNBOUND:                -0.200
REMARK SMILES CC1=CCC(=C(C)C)C(=O)CC(C)=CCC1
REMARK SMILES IDX 12 1 14 2 13 3 15 4 16 5 2 6 1 7 3 8 11 10 9 11 10 12 5 13
REMARK SMILES IDX 6 14 7 15 8 16 4 17
REMARK H PARENT
REMARK Flexibility Score: 60.00
ROOT
ATOM      1  C   UNL     1      20.944  27.852  43.251  1.00  0.00    -0.070 C 
ATOM      2  C   UNL     1      19.724  28.405  43.444  1.00  0.00    -0.027 C 
ATOM      3  C   UNL     1      22.103  28.799  43.049  1.00  0.00     0.039 C 
ENDROOT
BRANCH   2   4
ATOM      4  C   UNL     1      18.423  27.664  43.622  1.00  0.00     0.032 C 
BRANCH   4   5
ATOM      5  C   UNL     1      17.483  27.676  42.392  1.00  0.00     0.034 C 
BRANCH   5   6
ATOM      6  C   UNL     1      17.502  26.415  41.539  1.00  0.00    -0.077 C 
ATOM      7  C   UNL     1      16.447  25.371  41.815  1.00  0.00     0.039 C 
ATOM      8  C   UNL     1      18.358  26.177  40.508  1.00  0.00    -0.023 CG0
ATOM      9  G   UNL     1      19.599  26.942  40.073  1.00  0.00     0.000 G0
ENDBRANCH   5   6
ENDBRANCH   4   5
ENDBRANCH   2   4
BRANCH   1  10
ATOM     10  C   UNL     1      21.224  26.356  43.171  1.00  0.00     0.111 C 
BRANCH  10  11
ATOM     11  C   UNL     1      21.023  25.701  41.823  1.00  0.00     0.163 C 
ATOM     12  O   UNL     1      20.922  24.444  41.822  1.00  0.00    -0.294 OA
BRANCH  11  13
ATOM     13  C   UNL     1      20.953  26.461  40.522  1.00  0.00    -0.002 C 
ATOM     14  C   UNL     1      22.074  26.752  39.789  1.00  0.00    -0.069 C 
ATOM     15  C   UNL     1      23.436  26.201  40.145  1.00  0.00     0.039 C 
ATOM     16  C   UNL     1      22.000  27.620  38.550  1.00  0.00     0.039 C 
BRANCH  13  17
ATOM     17  C   UNL     1      19.595  26.964  40.057  1.00  0.00     0.066 CG0
ATOM     18  G   UNL     1      18.378  26.177  40.520  1.00  0.00     0.000 G0
ENDBRANCH  13  17
ENDBRANCH  11  13
ENDBRANCH  10  11
ENDBRANCH   1  10
TORSDOF 0
ENDMDL
MODEL 6
REMARK VINA RESULT:    -3.370      1.420      2.243
REMARK INTER + INTRA:          -4.949
REMARK INTER:                  -4.457
REMARK INTRA:                  -0.492
REMARK UNBOUND:                -0.200
REMARK SMILES CC1=CCC(=C(C)C)C(=O)CC(C)=CCC1
REMARK SMILES IDX 12 1 14 2 13 3 15 4 16 5 2 6 1 7 3 8 11 10 9 11 10 12 5 13
REMARK SMILES IDX 6 14 7 15 8 16 4 17
REMARK H PARENT
REMARK Flexibility Score: 60.00
ROOT
ATOM      1  C   UNL     1      19.019  28.813  42.714  1.00  0.00    -0.070 C 
ATOM      2  C   UNL     1      20.247  28.629  43.254  1.00  0.00    -0.027 C 
ATOM      3  C   UNL     1      17.830  28.519  43.598  1.00  0.00     0.039 C 
ENDROOT
BRANCH   2   4
ATOM      4  C   UNL     1      21.569  28.816  42.553  1.00  0.00     0.032 C 
BRANCH   4   5
ATOM      5  C   UNL     1      22.132  27.552  41.860  1.00  0.00     0.034 C 
BRANCH   5   6
ATOM      6  C   UNL     1      21.569  26.226  42.354  1.00  0.00    -0.077 C 
ATOM      7  C   UNL     1      22.158  25.646  43.618  1.00  0.00     0.039 C 
ATOM      8  C   UNL     1      20.537  25.549  41.782  1.00  0.00    -0.023 CG0
ATOM      9  G   UNL     1      19.834  25.782  40.452  1.00  0.00     0.000 G0
ENDBRANCH   5   6
ENDBRANCH   4   5
ENDBRANCH   2   4
BRANCH   1  10
ATOM     10  C   UNL     1      18.750  29.242  41.277  1.00  0.00     0.111 C 
BRANCH  10  11
ATOM     11  C   UNL     1      18.960  28.195  40.207  1.00  0.00     0.163 C 
ATOM     12  O   UNL     1      19.402  28.607  39.100  1.00  0.00    -0.294 OA
BRANCH  11  13
ATOM     13  C   UNL     1      18.661  26.729  40.397  1.00  0.00    -0.002 C 
ATOM     14  C   UNL     1      17.385  26.265  40.587  1.00  0.00    -0.069 C 
ATOM     15  C   UNL     1      16.174  27.162  40.465  1.00  0.00     0.039 C 
ATOM     16  C   UNL     1      17.116  24.808  40.898  1.00  0.00     0.039 C 
BRANCH  13  17
ATOM     17  C   UNL     1      19.831  25.758  40.436  1.00  0.00     0.066 CG0
ATOM     18  G   UNL     1      20.518  25.566  41.780  1.00  0.00     0.000 G0
ENDBRANCH  13  17
ENDBRANCH  11  13
ENDBRANCH  10  11
ENDBRANCH   1  10
TORSDOF 0
ENDMDL
MODEL 7
REMARK VINA RESULT:    -3.230      2.322      4.339
REMARK INTER + INTRA:          -4.752
REMARK INTER:                  -4.583
REMARK INTRA:                  -0.169
REMARK UNBOUND:                -0.200
REMARK SMILES CC1=CCC(=C(C)C)C(=O)CC(C)=CCC1
REMARK SMILES IDX 12 1 14 2 13 3 15 4 16 5 2 6 1 7 3 8 11 10 9 11 10 12 5 13
REMARK SMILES IDX 6 14 7 15 8 16 4 17
REMARK H PARENT
REMARK Flexibility Score: 60.00
ROOT
ATOM      1  C   UNL     1      23.179  28.393  42.155  1.00  0.00    -0.070 C 
ATOM      2  C   UNL     1      22.907  29.015  40.985  1.00  0.00    -0.027 C 
ATOM      3  C   UNL     1      24.577  27.852  42.336  1.00  0.00     0.039 C 
ENDROOT
BRANCH   2   4
ATOM      4  C   UNL     1      21.578  29.592  40.566  1.00  0.00     0.032 C 
BRANCH   4   5
ATOM      5  C   UNL     1      20.672  28.637  39.751  1.00  0.00     0.034 C 
BRANCH   5   6
ATOM      6  C   UNL     1      21.289  27.291  39.396  1.00  0.00    -0.077 C 
ATOM      7  C   UNL     1      22.237  27.247  38.222  1.00  0.00     0.039 C 
ATOM      8  C   UNL     1      21.100  26.134  40.087  1.00  0.00    -0.023 CG0
ATOM      9  G   UNL     1      20.119  25.813  41.205  1.00  0.00     0.000 G0
ENDBRANCH   5   6
ENDBRANCH   4   5
ENDBRANCH   2   4
BRANCH   1  10
ATOM     10  C   UNL     1      22.172  28.154  43.275  1.00  0.00     0.111 C 
BRANCH  10  11
ATOM     11  C   UNL     1      21.375  26.873  43.206  1.00  0.00     0.163 C 
ATOM     12  O   UNL     1      21.837  25.890  43.848  1.00  0.00    -0.294 OA
BRANCH  11  13
ATOM     13  C   UNL     1      20.098  26.719  42.417  1.00  0.00    -0.002 C 
ATOM     14  C   UNL     1      18.933  27.336  42.792  1.00  0.00    -0.069 C 
ATOM     15  C   UNL     1      18.877  28.335  43.926  1.00  0.00     0.039 C 
ATOM     16  C   UNL     1      17.633  27.074  42.060  1.00  0.00     0.039 C 
BRANCH  13  17
ATOM     17  C   UNL     1      20.110  25.799  41.206  1.00  0.00     0.066 CG0
ATOM     18  G   UNL     1      21.101  26.132  40.101  1.00  0.00     0.000 G0
ENDBRANCH  13  17
ENDBRANCH  11  13
ENDBRANCH  10  11
ENDBRANCH   1  10
TORSDOF 0
ENDMDL
MODEL 8
REMARK VINA RESULT:    -3.223      1.716      2.147
REMARK INTER + INTRA:          -4.741
REMARK INTER:                  -4.982
REMARK INTRA:                   0.241
REMARK UNBOUND:                -0.200
REMARK SMILES CC1=CCC(=C(C)C)C(=O)CC(C)=CCC1
REMARK SMILES IDX 12 1 14 2 13 3 15 4 16 5 2 6 1 7 3 8 11 10 9 11 10 12 5 13
REMARK SMILES IDX 6 14 7 15 8 16 4 17
REMARK H PARENT
REMARK Flexibility Score: 60.00
ROOT
ATOM      1  C   UNL     1      17.904  28.548  43.541  1.00  0.00    -0.070 C 
ATOM      2  C   UNL     1      19.209  28.495  43.896  1.00  0.00    -0.027 C 
ATOM      3  C   UNL     1      17.119  29.757  43.993  1.00  0.00     0.039 C 
ENDROOT
BRANCH   2   4
ATOM      4  C   UNL     1      20.172  27.373  43.599  1.00  0.00     0.032 C 
BRANCH   4   5
ATOM      5  C   UNL     1      20.769  27.378  42.171  1.00  0.00     0.034 C 
BRANCH   5   6
ATOM      6  C   UNL     1      20.454  26.153  41.323  1.00  0.00    -0.077 C 
ATOM      7  C   UNL     1      21.253  24.899  41.586  1.00  0.00     0.039 C 
ATOM      8  C   UNL     1      19.470  26.079  40.386  1.00  0.00    -0.023 CG0
ATOM      9  G   UNL     1      18.601  27.178  39.793  1.00  0.00     0.000 G0
ENDBRANCH   5   6
ENDBRANCH   4   5
ENDBRANCH   2   4
BRANCH   1  10
ATOM     10  C   UNL     1      17.162  27.464  42.768  1.00  0.00     0.111 C 
BRANCH  10  11
ATOM     11  C   UNL     1      16.667  27.835  41.389  1.00  0.00     0.163 C 
ATOM     12  O   UNL     1      15.811  28.760  41.331  1.00  0.00    -0.294 OA
BRANCH  11  13
ATOM     13  C   UNL     1      17.127  27.159  40.121  1.00  0.00    -0.002 C 
ATOM     14  C   UNL     1      16.261  26.481  39.303  1.00  0.00    -0.069 C 
ATOM     15  C   UNL     1      14.765  26.492  39.525  1.00  0.00     0.039 C 
ATOM     16  C   UNL     1      16.758  25.704  38.102  1.00  0.00     0.039 C 
BRANCH  13  17
ATOM     17  C   UNL     1      18.611  27.190  39.790  1.00  0.00     0.066 CG0
ATOM     18  G   UNL     1      19.469  26.082  40.383  1.00  0.00     0.000 G0
ENDBRANCH  13  17
ENDBRANCH  11  13
ENDBRANCH  10  11
ENDBRANCH   1  10
TORSDOF 0
ENDMDL
MODEL 9
REMARK VINA RESULT:    -3.217      2.475      4.763
REMARK INTER + INTRA:          -4.733
REMARK INTER:                  -4.476
REMARK INTRA:                  -0.256
REMARK UNBOUND:                -0.200
REMARK SMILES CC1=CCC(=C(C)C)C(=O)CC(C)=CCC1
REMARK SMILES IDX 12 1 14 2 13 3 15 4 16 5 2 6 1 7 3 8 11 10 9 11 10 12 5 13
REMARK SMILES IDX 6 14 7 15 8 16 4 17
REMARK H PARENT
REMARK Flexibility Score: 60.00
ROOT
ATOM      1  C   UNL     1      20.550  26.391  39.867  1.00  0.00    -0.070 C 
ATOM      2  C   UNL     1      19.530  25.841  40.567  1.00  0.00    -0.027 C 
ATOM      3  C   UNL     1      21.638  25.458  39.392  1.00  0.00     0.039 C 
ENDROOT
BRANCH   2   4
ATOM      4  C   UNL     1      18.363  26.577  41.175  1.00  0.00     0.032 C 
BRANCH   4   5
ATOM      5  C   UNL     1      18.413  26.736  42.714  1.00  0.00     0.034 C 
BRANCH   5   6
ATOM      6  C   UNL     1      18.874  28.096  43.219  1.00  0.00    -0.077 C 
ATOM      7  C   UNL     1      17.809  29.105  43.575  1.00  0.00     0.039 C 
ATOM      8  C   UNL     1      20.169  28.458  43.431  1.00  0.00    -0.023 CG0
ATOM      9  G   UNL     1      21.457  27.744  43.048  1.00  0.00     0.000 G0
ENDBRANCH   5   6
ENDBRANCH   4   5
ENDBRANCH   2   4
BRANCH   1  10
ATOM     10  C   UNL     1      20.706  27.878  39.570  1.00  0.00     0.111 C 
BRANCH  10  11
ATOM     11  C   UNL     1      21.304  28.728  40.666  1.00  0.00     0.163 C 
ATOM     12  O   UNL     1      21.068  29.966  40.607  1.00  0.00    -0.294 OA
BRANCH  11  13
ATOM     13  C   UNL     1      22.155  28.180  41.785  1.00  0.00    -0.002 C 
ATOM     14  C   UNL     1      23.509  28.015  41.656  1.00  0.00    -0.069 C 
ATOM     15  C   UNL     1      24.271  28.514  40.449  1.00  0.00     0.039 C 
ATOM     16  C   UNL     1      24.328  27.350  42.742  1.00  0.00     0.039 C 
BRANCH  13  17
ATOM     17  C   UNL     1      21.460  27.744  43.066  1.00  0.00     0.066 CG0
ATOM     18  G   UNL     1      20.158  28.450  43.414  1.00  0.00     0.000 G0
ENDBRANCH  13  17
ENDBRANCH  11  13
ENDBRANCH  10  11
ENDBRANCH   1  10
TORSDOF 0
ENDMDL
