MODEL 1
REMARK VINA RESULT:    -4.721      0.000      0.000
REMARK INTER + INTRA:         -10.456
REMARK INTER:                  -8.584
REMARK INTRA:                  -1.872
REMARK UNBOUND:                -1.872
REMARK SMILES CCCCCCCCCCCCCCCC(=O)[O-]
REMARK SMILES IDX 9 1 10 2 11 3 12 4 13 5 14 6 15 7 16 8 17 9 18 10 8 11 7 12
REMARK SMILES IDX 6 13 5 14 4 15 3 16 2 17 1 18
REMARK H PARENT
REMARK Flexibility Score: inf
ROOT
ATOM      1  C   UNL     1     -26.905 -30.980 -10.758  1.00  0.00     0.000 C 
ENDROOT
BRANCH   1   2
ATOM      2  C   UNL     1     -25.477 -31.416 -10.378  1.00  0.00     0.000 C 
BRANCH   2   3
ATOM      3  C   UNL     1     -24.520 -31.525 -11.584  1.00  0.00     0.000 C 
BRANCH   3   4
ATOM      4  C   UNL     1     -23.106 -31.007 -11.263  1.00  0.00     0.000 C 
BRANCH   4   5
ATOM      5  C   UNL     1     -22.013 -32.046 -11.564  1.00  0.00     0.000 C 
BRANCH   5   6
ATOM      6  C   UNL     1     -22.559 -33.278 -12.305  1.00  0.00     0.006 C 
BRANCH   6   7
ATOM      7  C   UNL     1     -21.585 -33.788 -13.376  1.00  0.00     0.053 C 
BRANCH   7   8
ATOM      8  C   UNL     1     -20.982 -35.106 -12.998  1.00  0.00     0.041 C 
ATOM      9  O   UNL     1     -21.523 -35.822 -12.115  1.00  0.00    -0.550 OA
ATOM     10  O   UNL     1     -19.838 -35.558 -13.643  1.00  0.00    -0.550 OA
ENDBRANCH   7   8
ENDBRANCH   6   7
ENDBRANCH   5   6
ENDBRANCH   4   5
ENDBRANCH   3   4
ENDBRANCH   2   3
ENDBRANCH   1   2
BRANCH   1  11
ATOM     11  C   UNL     1     -27.047 -30.381 -12.169  1.00  0.00     0.000 C 
BRANCH  11  12
ATOM     12  C   UNL     1     -28.197 -30.966 -13.015  1.00  0.00    -0.000 C 
BRANCH  12  13
ATOM     13  C   UNL     1     -28.493 -32.457 -12.774  1.00  0.00    -0.000 C 
BRANCH  13  14
ATOM     14  C   UNL     1     -27.704 -33.384 -13.712  1.00  0.00    -0.000 C 
BRANCH  14  15
ATOM     15  C   UNL     1     -27.604 -34.799 -13.130  1.00  0.00    -0.000 C 
BRANCH  15  16
ATOM     16  C   UNL     1     -27.054 -34.766 -11.697  1.00  0.00    -0.000 C 
BRANCH  16  17
ATOM     17  C   UNL     1     -25.540 -35.024 -11.640  1.00  0.00    -0.003 C 
ATOM     18  C   UNL     1     -25.037 -35.856 -12.818  1.00  0.00     0.004 C 
ENDBRANCH  16  17
ENDBRANCH  15  16
ENDBRANCH  14  15
ENDBRANCH  13  14
ENDBRANCH  12  13
ENDBRANCH  11  12
ENDBRANCH   1  11
TORSDOF 14
ENDMDL
MODEL 2
REMARK VINA RESULT:    -4.671      1.323      3.531
REMARK INTER + INTRA:         -10.366
REMARK INTER:                  -8.636
REMARK INTRA:                  -1.730
REMARK UNBOUND:                -1.872
REMARK SMILES CCCCCCCCCCCCCCCC(=O)[O-]
REMARK SMILES IDX 9 1 10 2 11 3 12 4 13 5 14 6 15 7 16 8 17 9 18 10 8 11 7 12
REMARK SMILES IDX 6 13 5 14 4 15 3 16 2 17 1 18
REMARK H PARENT
REMARK Flexibility Score: inf
ROOT
ATOM      1  C   UNL     1     -26.910 -34.799 -13.274  1.00  0.00     0.000 C 
ENDROOT
BRANCH   1   2
ATOM      2  C   UNL     1     -26.573 -34.764 -11.771  1.00  0.00     0.000 C 
BRANCH   2   3
ATOM      3  C   UNL     1     -25.202 -35.385 -11.428  1.00  0.00     0.000 C 
BRANCH   3   4
ATOM      4  C   UNL     1     -24.344 -35.645 -12.679  1.00  0.00     0.000 C 
BRANCH   4   5
ATOM      5  C   UNL     1     -23.120 -34.718 -12.760  1.00  0.00     0.000 C 
BRANCH   5   6
ATOM      6  C   UNL     1     -21.812 -35.434 -12.381  1.00  0.00     0.006 C 
BRANCH   6   7
ATOM      7  C   UNL     1     -20.761 -35.346 -13.496  1.00  0.00     0.053 C 
BRANCH   7   8
ATOM      8  C   UNL     1     -20.546 -33.935 -13.949  1.00  0.00     0.041 C 
ATOM      9  O   UNL     1     -20.836 -33.593 -15.126  1.00  0.00    -0.550 OA
ATOM     10  O   UNL     1     -20.053 -32.987 -13.060  1.00  0.00    -0.550 OA
ENDBRANCH   7   8
ENDBRANCH   6   7
ENDBRANCH   5   6
ENDBRANCH   4   5
ENDBRANCH   3   4
ENDBRANCH   2   3
ENDBRANCH   1   2
BRANCH   1  11
ATOM     11  C   UNL     1     -27.765 -33.621 -13.776  1.00  0.00     0.000 C 
BRANCH  11  12
ATOM     12  C   UNL     1     -28.397 -32.754 -12.667  1.00  0.00    -0.000 C 
BRANCH  12  13
ATOM     13  C   UNL     1     -28.337 -31.235 -12.912  1.00  0.00    -0.000 C 
BRANCH  13  14
ATOM     14  C   UNL     1     -27.965 -30.439 -11.653  1.00  0.00    -0.000 C 
BRANCH  14  15
ATOM     15  C   UNL     1     -27.038 -31.254 -10.742  1.00  0.00    -0.000 C 
BRANCH  15  16
ATOM     16  C   UNL     1     -25.610 -30.691 -10.766  1.00  0.00    -0.000 C 
BRANCH  16  17
ATOM     17  C   UNL     1     -24.582 -31.710 -11.281  1.00  0.00    -0.003 C 
ATOM     18  C   UNL     1     -23.595 -31.103 -12.276  1.00  0.00     0.004 C 
ENDBRANCH  16  17
ENDBRANCH  15  16
ENDBRANCH  14  15
ENDBRANCH  13  14
ENDBRANCH  12  13
ENDBRANCH  11  12
ENDBRANCH   1  11
TORSDOF 14
ENDMDL
MODEL 3
REMARK VINA RESULT:    -4.671      2.273      5.500
REMARK INTER + INTRA:         -10.365
REMARK INTER:                  -8.831
REMARK INTRA:                  -1.535
REMARK UNBOUND:                -1.872
REMARK SMILES CCCCCCCCCCCCCCCC(=O)[O-]
REMARK SMILES IDX 9 1 10 2 11 3 12 4 13 5 14 6 15 7 16 8 17 9 18 10 8 11 7 12
REMARK SMILES IDX 6 13 5 14 4 15 3 16 2 17 1 18
REMARK H PARENT
REMARK Flexibility Score: inf
ROOT
ATOM      1  C   UNL     1     -25.002 -31.669 -11.469  1.00  0.00     0.000 C 
ENDROOT
BRANCH   1   2
ATOM      2  C   UNL     1     -25.899 -31.085 -10.360  1.00  0.00     0.000 C 
BRANCH   2   3
ATOM      3  C   UNL     1     -27.280 -30.613 -10.863  1.00  0.00     0.000 C 
BRANCH   3   4
ATOM      4  C   UNL     1     -27.355 -30.543 -12.399  1.00  0.00     0.000 C 
BRANCH   4   5
ATOM      5  C   UNL     1     -28.552 -31.320 -12.969  1.00  0.00     0.000 C 
BRANCH   5   6
ATOM      6  C   UNL     1     -28.181 -32.755 -13.382  1.00  0.00     0.006 C 
BRANCH   6   7
ATOM      7  C   UNL     1     -28.321 -33.746 -12.219  1.00  0.00     0.053 C 
BRANCH   7   8
ATOM      8  C   UNL     1     -27.142 -34.665 -12.126  1.00  0.00     0.041 C 
ATOM      9  O   UNL     1     -26.714 -35.256 -13.152  1.00  0.00    -0.550 OA
ATOM     10  O   UNL     1     -26.495 -34.845 -10.909  1.00  0.00    -0.550 OA
ENDBRANCH   7   8
ENDBRANCH   6   7
ENDBRANCH   5   6
ENDBRANCH   4   5
ENDBRANCH   3   4
ENDBRANCH   2   3
ENDBRANCH   1   2
BRANCH   1  11
ATOM     11  C   UNL     1     -23.518 -31.821 -11.092  1.00  0.00     0.000 C 
BRANCH  11  12
ATOM     12  C   UNL     1     -22.715 -32.797 -11.976  1.00  0.00    -0.000 C 
BRANCH  12  13
ATOM     13  C   UNL     1     -23.534 -33.946 -12.593  1.00  0.00    -0.000 C 
BRANCH  13  14
ATOM     14  C   UNL     1     -22.785 -35.287 -12.585  1.00  0.00    -0.000 C 
BRANCH  14  15
ATOM     15  C   UNL     1     -21.289 -35.079 -12.320  1.00  0.00    -0.000 C 
BRANCH  15  16
ATOM     16  C   UNL     1     -20.478 -35.208 -13.617  1.00  0.00    -0.000 C 
BRANCH  16  17
ATOM     17  C   UNL     1     -19.806 -33.889 -14.028  1.00  0.00    -0.003 C 
ATOM     18  C   UNL     1     -20.560 -33.163 -15.141  1.00  0.00     0.004 C 
ENDBRANCH  16  17
ENDBRANCH  15  16
ENDBRANCH  14  15
ENDBRANCH  13  14
ENDBRANCH  12  13
ENDBRANCH  11  12
ENDBRANCH   1  11
TORSDOF 14
ENDMDL
MODEL 4
REMARK VINA RESULT:    -4.651     15.524     17.769
REMARK INTER + INTRA:         -10.328
REMARK INTER:                  -8.695
REMARK INTRA:                  -1.634
REMARK UNBOUND:                -1.872
REMARK SMILES CCCCCCCCCCCCCCCC(=O)[O-]
REMARK SMILES IDX 9 1 10 2 11 3 12 4 13 5 14 6 15 7 16 8 17 9 18 10 8 11 7 12
REMARK SMILES IDX 6 13 5 14 4 15 3 16 2 17 1 18
REMARK H PARENT
REMARK Flexibility Score: inf
ROOT
ATOM      1  C   UNL     1     -30.120 -49.184  -8.144  1.00  0.00     0.000 C 
ENDROOT
BRANCH   1   2
ATOM      2  C   UNL     1     -29.418 -49.144  -6.774  1.00  0.00     0.000 C 
BRANCH   2   3
ATOM      3  C   UNL     1     -29.560 -47.791  -6.044  1.00  0.00     0.000 C 
BRANCH   3   4
ATOM      4  C   UNL     1     -30.974 -47.197  -6.173  1.00  0.00     0.000 C 
BRANCH   4   5
ATOM      5  C   UNL     1     -31.983 -47.858  -5.220  1.00  0.00     0.000 C 
BRANCH   5   6
ATOM      6  C   UNL     1     -33.417 -47.842  -5.776  1.00  0.00     0.006 C 
BRANCH   6   7
ATOM      7  C   UNL     1     -34.428 -47.308  -4.752  1.00  0.00     0.053 C 
BRANCH   7   8
ATOM      8  C   UNL     1     -34.625 -45.829  -4.884  1.00  0.00     0.041 C 
ATOM      9  O   UNL     1     -35.256 -45.191  -3.999  1.00  0.00    -0.550 OA
ATOM     10  O   UNL     1     -34.087 -45.149  -5.969  1.00  0.00    -0.550 OA
ENDBRANCH   7   8
ENDBRANCH   6   7
ENDBRANCH   5   6
ENDBRANCH   4   5
ENDBRANCH   3   4
ENDBRANCH   2   3
ENDBRANCH   1   2
BRANCH   1  11
ATOM     11  C   UNL     1     -31.336 -50.125  -8.223  1.00  0.00     0.000 C 
BRANCH  11  12
ATOM     12  C   UNL     1     -32.489 -49.630  -9.121  1.00  0.00    -0.000 C 
BRANCH  12  13
ATOM     13  C   UNL     1     -32.213 -48.316  -9.874  1.00  0.00    -0.000 C 
BRANCH  13  14
ATOM     14  C   UNL     1     -33.232 -47.213  -9.550  1.00  0.00    -0.000 C 
BRANCH  14  15
ATOM     15  C   UNL     1     -34.507 -47.382 -10.385  1.00  0.00    -0.000 C 
BRANCH  15  16
ATOM     16  C   UNL     1     -35.168 -46.024 -10.660  1.00  0.00    -0.000 C 
BRANCH  16  17
ATOM     17  C   UNL     1     -34.247 -44.840 -10.322  1.00  0.00    -0.003 C 
ATOM     18  C   UNL     1     -34.804 -43.959  -9.205  1.00  0.00     0.004 C 
ENDBRANCH  16  17
ENDBRANCH  15  16
ENDBRANCH  14  15
ENDBRANCH  13  14
ENDBRANCH  12  13
ENDBRANCH  11  12
ENDBRANCH   1  11
TORSDOF 14
ENDMDL
MODEL 5
REMARK VINA RESULT:    -4.545      1.722      5.016
REMARK INTER + INTRA:         -10.137
REMARK INTER:                  -8.957
REMARK INTRA:                  -1.181
REMARK UNBOUND:                -1.872
REMARK SMILES CCCCCCCCCCCCCCCC(=O)[O-]
REMARK SMILES IDX 9 1 10 2 11 3 12 4 13 5 14 6 15 7 16 8 17 9 18 10 8 11 7 12
REMARK SMILES IDX 6 13 5 14 4 15 3 16 2 17 1 18
REMARK H PARENT
REMARK Flexibility Score: inf
ROOT
ATOM      1  C   UNL     1     -25.952 -31.311 -10.434  1.00  0.00     0.000 C 
ENDROOT
BRANCH   1   2
ATOM      2  C   UNL     1     -27.219 -30.641 -11.000  1.00  0.00     0.000 C 
BRANCH   2   3
ATOM      3  C   UNL     1     -27.324 -30.713 -12.539  1.00  0.00     0.000 C 
BRANCH   3   4
ATOM      4  C   UNL     1     -28.605 -31.425 -13.008  1.00  0.00     0.000 C 
BRANCH   4   5
ATOM      5  C   UNL     1     -28.475 -32.956 -12.981  1.00  0.00     0.000 C 
BRANCH   5   6
ATOM      6  C   UNL     1     -27.086 -33.438 -13.435  1.00  0.00     0.006 C 
BRANCH   6   7
ATOM      7  C   UNL     1     -26.990 -34.969 -13.475  1.00  0.00     0.053 C 
BRANCH   7   8
ATOM      8  C   UNL     1     -25.854 -35.477 -12.641  1.00  0.00     0.041 C 
ATOM      9  O   UNL     1     -25.020 -36.285 -13.129  1.00  0.00    -0.550 OA
ATOM     10  O   UNL     1     -25.699 -35.035 -11.334  1.00  0.00    -0.550 OA
ENDBRANCH   7   8
ENDBRANCH   6   7
ENDBRANCH   5   6
ENDBRANCH   4   5
ENDBRANCH   3   4
ENDBRANCH   2   3
ENDBRANCH   1   2
BRANCH   1  11
ATOM     11  C   UNL     1     -24.688 -30.433 -10.457  1.00  0.00     0.000 C 
BRANCH  11  12
ATOM     12  C   UNL     1     -23.371 -31.189 -10.726  1.00  0.00    -0.000 C 
BRANCH  12  13
ATOM     13  C   UNL     1     -23.484 -32.371 -11.707  1.00  0.00    -0.000 C 
BRANCH  13  14
ATOM     14  C   UNL     1     -22.122 -32.975 -12.079  1.00  0.00    -0.000 C 
BRANCH  14  15
ATOM     15  C   UNL     1     -22.292 -34.187 -13.001  1.00  0.00    -0.000 C 
BRANCH  15  16
ATOM     16  C   UNL     1     -21.332 -35.318 -12.605  1.00  0.00    -0.000 C 
BRANCH  16  17
ATOM     17  C   UNL     1     -19.974 -35.216 -13.317  1.00  0.00    -0.003 C 
ATOM     18  C   UNL     1     -18.997 -36.309 -12.887  1.00  0.00     0.004 C 
ENDBRANCH  16  17
ENDBRANCH  15  16
ENDBRANCH  14  15
ENDBRANCH  13  14
ENDBRANCH  12  13
ENDBRANCH  11  12
ENDBRANCH   1  11
TORSDOF 14
ENDMDL
MODEL 6
REMARK VINA RESULT:    -4.527      1.040      1.924
REMARK INTER + INTRA:         -10.104
REMARK INTER:                  -8.468
REMARK INTRA:                  -1.636
REMARK UNBOUND:                -1.872
REMARK SMILES CCCCCCCCCCCCCCCC(=O)[O-]
REMARK SMILES IDX 9 1 10 2 11 3 12 4 13 5 14 6 15 7 16 8 17 9 18 10 8 11 7 12
REMARK SMILES IDX 6 13 5 14 4 15 3 16 2 17 1 18
REMARK H PARENT
REMARK Flexibility Score: inf
ROOT
ATOM      1  C   UNL     1     -25.246 -31.318 -10.686  1.00  0.00     0.000 C 
ENDROOT
BRANCH   1   2
ATOM      2  C   UNL     1     -24.270 -31.433 -11.873  1.00  0.00     0.000 C 
BRANCH   2   3
ATOM      3  C   UNL     1     -22.951 -32.156 -11.523  1.00  0.00     0.000 C 
BRANCH   3   4
ATOM      4  C   UNL     1     -22.670 -33.350 -12.453  1.00  0.00     0.000 C 
BRANCH   4   5
ATOM      5  C   UNL     1     -21.499 -33.089 -13.414  1.00  0.00     0.000 C 
BRANCH   5   6
ATOM      6  C   UNL     1     -20.765 -34.381 -13.813  1.00  0.00     0.006 C 
BRANCH   6   7
ATOM      7  C   UNL     1     -21.041 -35.530 -12.834  1.00  0.00     0.053 C 
BRANCH   7   8
ATOM      8  C   UNL     1     -19.881 -35.771 -11.917  1.00  0.00     0.041 C 
ATOM      9  O   UNL     1     -19.025 -36.652 -12.194  1.00  0.00    -0.550 OA
ATOM     10  O   UNL     1     -19.729 -35.001 -10.771  1.00  0.00    -0.550 OA
ENDBRANCH   7   8
ENDBRANCH   6   7
ENDBRANCH   5   6
ENDBRANCH   4   5
ENDBRANCH   3   4
ENDBRANCH   2   3
ENDBRANCH   1   2
BRANCH   1  11
ATOM     11  C   UNL     1     -26.710 -31.046 -11.074  1.00  0.00     0.000 C 
BRANCH  11  12
ATOM     12  C   UNL     1     -26.990 -31.017 -12.591  1.00  0.00    -0.000 C 
BRANCH  12  13
ATOM     13  C   UNL     1     -28.385 -31.518 -13.008  1.00  0.00    -0.000 C 
BRANCH  13  14
ATOM     14  C   UNL     1     -28.536 -33.041 -12.884  1.00  0.00    -0.000 C 
BRANCH  14  15
ATOM     15  C   UNL     1     -27.763 -33.762 -13.995  1.00  0.00    -0.000 C 
BRANCH  15  16
ATOM     16  C   UNL     1     -27.189 -35.094 -13.491  1.00  0.00    -0.000 C 
BRANCH  16  17
ATOM     17  C   UNL     1     -25.821 -34.929 -12.811  1.00  0.00    -0.003 C 
ATOM     18  C   UNL     1     -25.924 -34.838 -11.290  1.00  0.00     0.004 C 
ENDBRANCH  16  17
ENDBRANCH  15  16
ENDBRANCH  14  15
ENDBRANCH  13  14
ENDBRANCH  12  13
ENDBRANCH  11  12
ENDBRANCH   1  11
TORSDOF 14
ENDMDL
MODEL 7
REMARK VINA RESULT:    -4.489      2.170      5.702
REMARK INTER + INTRA:         -10.035
REMARK INTER:                  -8.501
REMARK INTRA:                  -1.534
REMARK UNBOUND:                -1.872
REMARK SMILES CCCCCCCCCCCCCCCC(=O)[O-]
REMARK SMILES IDX 9 1 10 2 11 3 12 4 13 5 14 6 15 7 16 8 17 9 18 10 8 11 7 12
REMARK SMILES IDX 6 13 5 14 4 15 3 16 2 17 1 18
REMARK H PARENT
REMARK Flexibility Score: inf
ROOT
ATOM      1  C   UNL     1     -27.009 -34.970 -11.846  1.00  0.00     0.000 C 
ENDROOT
BRANCH   1   2
ATOM      2  C   UNL     1     -27.367 -35.002 -13.344  1.00  0.00     0.000 C 
BRANCH   2   3
ATOM      3  C   UNL     1     -27.782 -33.627 -13.912  1.00  0.00     0.000 C 
BRANCH   3   4
ATOM      4  C   UNL     1     -28.539 -32.769 -12.882  1.00  0.00     0.000 C 
BRANCH   4   5
ATOM      5  C   UNL     1     -27.905 -31.383 -12.687  1.00  0.00     0.000 C 
BRANCH   5   6
ATOM      6  C   UNL     1     -26.762 -31.397 -11.658  1.00  0.00     0.006 C 
BRANCH   6   7
ATOM      7  C   UNL     1     -25.381 -31.353 -12.326  1.00  0.00     0.053 C 
BRANCH   7   8
ATOM      8  C   UNL     1     -24.298 -31.024 -11.346  1.00  0.00     0.041 C 
ATOM      9  O   UNL     1     -23.142 -30.730 -11.751  1.00  0.00    -0.550 OA
ATOM     10  O   UNL     1     -24.573 -31.013  -9.984  1.00  0.00    -0.550 OA
ENDBRANCH   7   8
ENDBRANCH   6   7
ENDBRANCH   5   6
ENDBRANCH   4   5
ENDBRANCH   3   4
ENDBRANCH   2   3
ENDBRANCH   1   2
BRANCH   1  11
ATOM     11  C   UNL     1     -25.502 -35.022 -11.537  1.00  0.00     0.000 C 
BRANCH  11  12
ATOM     12  C   UNL     1     -24.630 -35.661 -12.638  1.00  0.00    -0.000 C 
BRANCH  12  13
ATOM     13  C   UNL     1     -23.113 -35.464 -12.467  1.00  0.00    -0.000 C 
BRANCH  13  14
ATOM     14  C   UNL     1     -22.653 -34.036 -12.794  1.00  0.00    -0.000 C 
BRANCH  14  15
ATOM     15  C   UNL     1     -21.128 -33.969 -12.938  1.00  0.00    -0.000 C 
BRANCH  15  16
ATOM     16  C   UNL     1     -20.603 -35.144 -13.776  1.00  0.00    -0.000 C 
BRANCH  16  17
ATOM     17  C   UNL     1     -19.182 -35.567 -13.375  1.00  0.00    -0.003 C 
ATOM     18  C   UNL     1     -19.144 -36.338 -12.056  1.00  0.00     0.004 C 
ENDBRANCH  16  17
ENDBRANCH  15  16
ENDBRANCH  14  15
ENDBRANCH  13  14
ENDBRANCH  12  13
ENDBRANCH  11  12
ENDBRANCH   1  11
TORSDOF 14
ENDMDL
MODEL 8
REMARK VINA RESULT:    -4.435      2.176      5.449
REMARK INTER + INTRA:          -9.937
REMARK INTER:                  -8.012
REMARK INTRA:                  -1.925
REMARK UNBOUND:                -1.872
REMARK SMILES CCCCCCCCCCCCCCCC(=O)[O-]
REMARK SMILES IDX 9 1 10 2 11 3 12 4 13 5 14 6 15 7 16 8 17 9 18 10 8 11 7 12
REMARK SMILES IDX 6 13 5 14 4 15 3 16 2 17 1 18
REMARK H PARENT
REMARK Flexibility Score: inf
ROOT
ATOM      1  C   UNL     1     -24.367 -31.747 -12.463  1.00  0.00     0.000 C 
ENDROOT
BRANCH   1   2
ATOM      2  C   UNL     1     -25.348 -30.565 -12.340  1.00  0.00     0.000 C 
BRANCH   2   3
ATOM      3  C   UNL     1     -26.131 -30.544 -11.010  1.00  0.00     0.000 C 
BRANCH   3   4
ATOM      4  C   UNL     1     -27.593 -30.994 -11.180  1.00  0.00     0.000 C 
BRANCH   4   5
ATOM      5  C   UNL     1     -27.964 -31.255 -12.649  1.00  0.00     0.000 C 
BRANCH   5   6
ATOM      6  C   UNL     1     -28.478 -32.687 -12.881  1.00  0.00     0.006 C 
BRANCH   6   7
ATOM      7  C   UNL     1     -27.471 -33.544 -13.659  1.00  0.00     0.053 C 
BRANCH   7   8
ATOM      8  C   UNL     1     -26.846 -34.593 -12.791  1.00  0.00     0.041 C 
ATOM      9  O   UNL     1     -26.207 -35.547 -13.309  1.00  0.00    -0.550 OA
ATOM     10  O   UNL     1     -26.944 -34.501 -11.409  1.00  0.00    -0.550 OA
ENDBRANCH   7   8
ENDBRANCH   6   7
ENDBRANCH   5   6
ENDBRANCH   4   5
ENDBRANCH   3   4
ENDBRANCH   2   3
ENDBRANCH   1   2
BRANCH   1  11
ATOM     11  C   UNL     1     -23.522 -32.023 -11.206  1.00  0.00     0.000 C 
BRANCH  11  12
ATOM     12  C   UNL     1     -21.998 -31.874 -11.397  1.00  0.00    -0.000 C 
BRANCH  12  13
ATOM     13  C   UNL     1     -21.554 -31.458 -12.811  1.00  0.00    -0.000 C 
BRANCH  13  14
ATOM     14  C   UNL     1     -20.485 -32.389 -13.401  1.00  0.00    -0.000 C 
BRANCH  14  15
ATOM     15  C   UNL     1     -21.130 -33.552 -14.165  1.00  0.00    -0.000 C 
BRANCH  15  16
ATOM     16  C   UNL     1     -20.602 -34.902 -13.660  1.00  0.00    -0.000 C 
BRANCH  16  17
ATOM     17  C   UNL     1     -21.363 -35.410 -12.426  1.00  0.00    -0.003 C 
ATOM     18  C   UNL     1     -22.880 -35.357 -12.603  1.00  0.00     0.004 C 
ENDBRANCH  16  17
ENDBRANCH  15  16
ENDBRANCH  14  15
ENDBRANCH  13  14
ENDBRANCH  12  13
ENDBRANCH  11  12
ENDBRANCH   1  11
TORSDOF 14
ENDMDL
MODEL 9
REMARK VINA RESULT:    -4.429      1.708      2.274
REMARK INTER + INTRA:          -9.925
REMARK INTER:                  -7.954
REMARK INTRA:                  -1.971
REMARK UNBOUND:                -1.872
REMARK SMILES CCCCCCCCCCCCCCCC(=O)[O-]
REMARK SMILES IDX 9 1 10 2 11 3 12 4 13 5 14 6 15 7 16 8 17 9 18 10 8 11 7 12
REMARK SMILES IDX 6 13 5 14 4 15 3 16 2 17 1 18
REMARK H PARENT
REMARK Flexibility Score: inf
ROOT
ATOM      1  C   UNL     1     -27.892 -30.669 -11.406  1.00  0.00     0.000 C 
ENDROOT
BRANCH   1   2
ATOM      2  C   UNL     1     -26.434 -30.282 -11.095  1.00  0.00     0.000 C 
BRANCH   2   3
ATOM      3  C   UNL     1     -25.661 -31.358 -10.303  1.00  0.00     0.000 C 
BRANCH   3   4
ATOM      4  C   UNL     1     -24.178 -31.437 -10.709  1.00  0.00     0.000 C 
BRANCH   4   5
ATOM      5  C   UNL     1     -23.989 -31.817 -12.186  1.00  0.00     0.000 C 
BRANCH   5   6
ATOM      6  C   UNL     1     -22.681 -31.260 -12.775  1.00  0.00     0.006 C 
BRANCH   6   7
ATOM      7  C   UNL     1     -21.692 -32.375 -13.142  1.00  0.00     0.053 C 
BRANCH   7   8
ATOM      8  C   UNL     1     -20.612 -31.881 -14.056  1.00  0.00     0.041 C 
ATOM      9  O   UNL     1     -20.354 -30.651 -14.128  1.00  0.00    -0.550 OA
ATOM     10  O   UNL     1     -19.871 -32.784 -14.807  1.00  0.00    -0.550 OA
ENDBRANCH   7   8
ENDBRANCH   6   7
ENDBRANCH   5   6
ENDBRANCH   4   5
ENDBRANCH   3   4
ENDBRANCH   2   3
ENDBRANCH   1   2
BRANCH   1  11
ATOM     11  C   UNL     1     -28.149 -31.121 -12.854  1.00  0.00     0.000 C 
BRANCH  11  12
ATOM     12  C   UNL     1     -27.356 -32.367 -13.301  1.00  0.00    -0.000 C 
BRANCH  12  13
ATOM     13  C   UNL     1     -28.191 -33.650 -13.464  1.00  0.00    -0.000 C 
BRANCH  13  14
ATOM     14  C   UNL     1     -27.543 -34.875 -12.802  1.00  0.00    -0.000 C 
BRANCH  14  15
ATOM     15  C   UNL     1     -26.921 -34.504 -11.451  1.00  0.00    -0.000 C 
BRANCH  15  16
ATOM     16  C   UNL     1     -25.536 -35.147 -11.288  1.00  0.00    -0.000 C 
BRANCH  16  17
ATOM     17  C   UNL     1     -24.874 -35.473 -12.636  1.00  0.00    -0.003 C 
ATOM     18  C   UNL     1     -23.351 -35.541 -12.546  1.00  0.00     0.004 C 
ENDBRANCH  16  17
ENDBRANCH  15  16
ENDBRANCH  14  15
ENDBRANCH  13  14
ENDBRANCH  12  13
ENDBRANCH  11  12
ENDBRANCH   1  11
TORSDOF 14
ENDMDL
