MODEL 1
REMARK VINA RESULT:    -4.052      0.000      0.000
REMARK INTER + INTRA:          -6.748
REMARK INTER:                  -5.473
REMARK INTRA:                  -1.275
REMARK UNBOUND:                -1.275
REMARK SMILES CC(=O)CCC=C(C)CCC=C(C)C
REMARK SMILES IDX 7 1 6 2 8 3 9 4 10 5 11 6 13 7 12 8 14 9 5 10 4 11 2 12 3 13
REMARK SMILES IDX 1 14
REMARK H PARENT
REMARK Flexibility Score: inf
ROOT
ATOM      1  C   UNL     1      20.484  27.834  43.417  1.00  0.00    -0.077 C 
ATOM      2  C   UNL     1      20.661  26.511  43.630  1.00  0.00    -0.028 C 
ATOM      3  C   UNL     1      21.381  28.623  42.492  1.00  0.00     0.039 C 
ENDROOT
BRANCH   1   4
ATOM      4  C   UNL     1      19.340  28.542  44.109  1.00  0.00     0.034 C 
BRANCH   4   5
ATOM      5  C   UNL     1      18.173  28.769  43.141  1.00  0.00     0.032 C 
BRANCH   5   6
ATOM      6  C   UNL     1      17.202  27.618  43.194  1.00  0.00    -0.028 C 
ATOM      7  C   UNL     1      17.959  26.668  41.005  1.00  0.00     0.039 C 
ATOM      8  C   UNL     1      17.076  26.680  42.231  1.00  0.00    -0.080 C 
ATOM      9  C   UNL     1      16.030  25.608  42.402  1.00  0.00     0.039 C 
ENDBRANCH   5   6
ENDBRANCH   4   5
ENDBRANCH   1   4
BRANCH   2  10
ATOM     10  C   UNL     1      21.785  25.691  43.044  1.00  0.00     0.035 C 
BRANCH  10  11
ATOM     11  C   UNL     1      21.333  24.914  41.800  1.00  0.00     0.079 C 
BRANCH  11  12
ATOM     12  C   UNL     1      22.043  25.391  40.559  1.00  0.00     0.130 C 
ATOM     13  O   UNL     1      23.217  25.098  40.386  1.00  0.00    -0.300 OA
ATOM     14  C   UNL     1      21.337  26.219  39.527  1.00  0.00     0.087 C 
ENDBRANCH  11  12
ENDBRANCH  10  11
ENDBRANCH   2  10
TORSDOF 6
ENDMDL
MODEL 2
REMARK VINA RESULT:    -4.003      1.553      3.105
REMARK INTER + INTRA:          -6.682
REMARK INTER:                  -5.465
REMARK INTRA:                  -1.217
REMARK UNBOUND:                -1.275
REMARK SMILES CC(=O)CCC=C(C)CCC=C(C)C
REMARK SMILES IDX 7 1 6 2 8 3 9 4 10 5 11 6 13 7 12 8 14 9 5 10 4 11 2 12 3 13
REMARK SMILES IDX 1 14
REMARK H PARENT
REMARK Flexibility Score: inf
ROOT
ATOM      1  C   UNL     1      19.833  26.552  41.097  1.00  0.00    -0.077 C 
ATOM      2  C   UNL     1      20.539  25.636  41.797  1.00  0.00    -0.028 C 
ATOM      3  C   UNL     1      20.507  27.662  40.324  1.00  0.00     0.039 C 
ENDROOT
BRANCH   1   4
ATOM      4  C   UNL     1      18.324  26.449  41.068  1.00  0.00     0.034 C 
BRANCH   4   5
ATOM      5  C   UNL     1      17.752  26.410  42.490  1.00  0.00     0.032 C 
BRANCH   5   6
ATOM      6  C   UNL     1      17.206  27.758  42.885  1.00  0.00    -0.028 C 
ATOM      7  C   UNL     1      19.313  28.448  44.051  1.00  0.00     0.039 C 
ATOM      8  C   UNL     1      17.886  28.674  43.608  1.00  0.00    -0.080 C 
ATOM      9  C   UNL     1      17.195  29.967  43.964  1.00  0.00     0.039 C 
ENDBRANCH   5   6
ENDBRANCH   4   5
ENDBRANCH   1   4
BRANCH   2  10
ATOM     10  C   UNL     1      22.042  25.645  41.950  1.00  0.00     0.035 C 
BRANCH  10  11
ATOM     11  C   UNL     1      22.478  26.373  43.228  1.00  0.00     0.079 C 
BRANCH  11  12
ATOM     12  C   UNL     1      23.351  27.563  42.919  1.00  0.00     0.130 C 
ATOM     13  O   UNL     1      24.510  27.386  42.575  1.00  0.00    -0.300 OA
ATOM     14  C   UNL     1      22.824  28.964  43.022  1.00  0.00     0.087 C 
ENDBRANCH  11  12
ENDBRANCH  10  11
ENDBRANCH   2  10
TORSDOF 6
ENDMDL
MODEL 3
REMARK VINA RESULT:    -3.924      1.711      2.153
REMARK INTER + INTRA:          -6.575
REMARK INTER:                  -5.435
REMARK INTRA:                  -1.139
REMARK UNBOUND:                -1.275
REMARK SMILES CC(=O)CCC=C(C)CCC=C(C)C
REMARK SMILES IDX 7 1 6 2 8 3 9 4 10 5 11 6 13 7 12 8 14 9 5 10 4 11 2 12 3 13
REMARK SMILES IDX 1 14
REMARK H PARENT
REMARK Flexibility Score: inf
ROOT
ATOM      1  C   UNL     1      19.357  28.105  42.733  1.00  0.00    -0.077 C 
ATOM      2  C   UNL     1      19.181  26.782  42.513  1.00  0.00    -0.028 C 
ATOM      3  C   UNL     1      20.098  28.987  41.756  1.00  0.00     0.039 C 
ENDROOT
BRANCH   1   4
ATOM      4  C   UNL     1      18.776  28.724  43.985  1.00  0.00     0.034 C 
BRANCH   4   5
ATOM      5  C   UNL     1      17.606  29.654  43.643  1.00  0.00     0.032 C 
BRANCH   5   6
ATOM      6  C   UNL     1      16.292  28.925  43.756  1.00  0.00    -0.028 C 
ATOM      7  C   UNL     1      16.074  28.601  41.282  1.00  0.00     0.039 C 
ATOM      8  C   UNL     1      15.578  28.468  42.704  1.00  0.00    -0.080 C 
ATOM      9  C   UNL     1      14.257  27.792  42.969  1.00  0.00     0.039 C 
ENDBRANCH   5   6
ENDBRANCH   4   5
ENDBRANCH   1   4
BRANCH   2  10
ATOM     10  C   UNL     1      19.744  26.027  41.333  1.00  0.00     0.035 C 
BRANCH  10  11
ATOM     11  C   UNL     1      20.861  25.064  41.755  1.00  0.00     0.079 C 
BRANCH  11  12
ATOM     12  C   UNL     1      22.103  25.807  42.180  1.00  0.00     0.130 C 
ATOM     13  O   UNL     1      22.765  26.401  41.342  1.00  0.00    -0.300 OA
ATOM     14  C   UNL     1      22.543  25.834  43.614  1.00  0.00     0.087 C 
ENDBRANCH  11  12
ENDBRANCH  10  11
ENDBRANCH   2  10
TORSDOF 6
ENDMDL
MODEL 4
REMARK VINA RESULT:    -3.900      2.446      4.859
REMARK INTER + INTRA:          -6.542
REMARK INTER:                  -5.343
REMARK INTRA:                  -1.199
REMARK UNBOUND:                -1.275
REMARK SMILES CC(=O)CCC=C(C)CCC=C(C)C
REMARK SMILES IDX 7 1 6 2 8 3 9 4 10 5 11 6 13 7 12 8 14 9 5 10 4 11 2 12 3 13
REMARK SMILES IDX 1 14
REMARK H PARENT
REMARK Flexibility Score: inf
ROOT
ATOM      1  C   UNL     1      21.372  27.134  43.202  1.00  0.00    -0.077 C 
ATOM      2  C   UNL     1      20.118  27.180  43.707  1.00  0.00    -0.028 C 
ATOM      3  C   UNL     1      22.178  28.386  42.947  1.00  0.00     0.039 C 
ENDROOT
BRANCH   1   4
ATOM      4  C   UNL     1      21.994  25.787  42.905  1.00  0.00     0.034 C 
BRANCH   4   5
ATOM      5  C   UNL     1      21.197  25.044  41.827  1.00  0.00     0.032 C 
BRANCH   5   6
ATOM      6  C   UNL     1      21.587  25.518  40.450  1.00  0.00    -0.028 C 
ATOM      7  C   UNL     1      19.371  26.601  40.018  1.00  0.00     0.039 C 
ATOM      8  C   UNL     1      20.770  26.196  39.615  1.00  0.00    -0.080 C 
ATOM      9  C   UNL     1      21.286  26.570  38.249  1.00  0.00     0.039 C 
ENDBRANCH   5   6
ENDBRANCH   4   5
ENDBRANCH   1   4
BRANCH   2  10
ATOM     10  C   UNL     1      19.361  28.452  44.006  1.00  0.00     0.035 C 
BRANCH  10  11
ATOM     11  C   UNL     1      18.384  28.809  42.878  1.00  0.00     0.079 C 
BRANCH  11  12
ATOM     12  C   UNL     1      17.016  28.225  43.123  1.00  0.00     0.130 C 
ATOM     13  O   UNL     1      16.201  28.854  43.782  1.00  0.00    -0.300 OA
ATOM     14  C   UNL     1      16.631  26.884  42.572  1.00  0.00     0.087 C 
ENDBRANCH  11  12
ENDBRANCH  10  11
ENDBRANCH   2  10
TORSDOF 6
ENDMDL
MODEL 5
REMARK VINA RESULT:    -3.837      2.379      4.576
REMARK INTER + INTRA:          -6.457
REMARK INTER:                  -5.433
REMARK INTRA:                  -1.025
REMARK UNBOUND:                -1.275
REMARK SMILES CC(=O)CCC=C(C)CCC=C(C)C
REMARK SMILES IDX 7 1 6 2 8 3 9 4 10 5 11 6 13 7 12 8 14 9 5 10 4 11 2 12 3 13
REMARK SMILES IDX 1 14
REMARK H PARENT
REMARK Flexibility Score: inf
ROOT
ATOM      1  C   UNL     1      17.366  28.071  43.353  1.00  0.00    -0.077 C 
ATOM      2  C   UNL     1      17.434  26.806  42.881  1.00  0.00    -0.028 C 
ATOM      3  C   UNL     1      16.047  28.785  43.539  1.00  0.00     0.039 C 
ENDROOT
BRANCH   1   4
ATOM      4  C   UNL     1      18.646  28.786  43.726  1.00  0.00     0.034 C 
BRANCH   4   5
ATOM      5  C   UNL     1      19.757  28.479  42.715  1.00  0.00     0.032 C 
BRANCH   5   6
ATOM      6  C   UNL     1      20.852  27.663  43.353  1.00  0.00    -0.028 C 
ATOM      7  C   UNL     1      20.646  25.796  41.695  1.00  0.00     0.039 C 
ATOM      8  C   UNL     1      21.246  26.445  42.922  1.00  0.00    -0.080 C 
ATOM      9  C   UNL     1      22.329  25.727  43.686  1.00  0.00     0.039 C 
ENDBRANCH   5   6
ENDBRANCH   4   5
ENDBRANCH   1   4
BRANCH   2  10
ATOM     10  C   UNL     1      16.244  25.994  42.429  1.00  0.00     0.035 C 
BRANCH  10  11
ATOM     11  C   UNL     1      16.460  25.401  41.030  1.00  0.00     0.079 C 
BRANCH  11  12
ATOM     12  C   UNL     1      16.671  26.479  39.997  1.00  0.00     0.130 C 
ATOM     13  O   UNL     1      15.773  27.276  39.766  1.00  0.00    -0.300 OA
ATOM     14  C   UNL     1      17.964  26.597  39.246  1.00  0.00     0.087 C 
ENDBRANCH  11  12
ENDBRANCH  10  11
ENDBRANCH   2  10
TORSDOF 6
ENDMDL
MODEL 6
REMARK VINA RESULT:    -3.822      2.434      5.080
REMARK INTER + INTRA:          -6.437
REMARK INTER:                  -5.405
REMARK INTRA:                  -1.032
REMARK UNBOUND:                -1.275
REMARK SMILES CC(=O)CCC=C(C)CCC=C(C)C
REMARK SMILES IDX 7 1 6 2 8 3 9 4 10 5 11 6 13 7 12 8 14 9 5 10 4 11 2 12 3 13
REMARK SMILES IDX 1 14
REMARK H PARENT
REMARK Flexibility Score: inf
ROOT
ATOM      1  C   UNL     1      21.100  28.486  42.778  1.00  0.00    -0.077 C 
ATOM      2  C   UNL     1      20.182  28.192  43.727  1.00  0.00    -0.028 C 
ATOM      3  C   UNL     1      20.725  29.182  41.491  1.00  0.00     0.039 C 
ENDROOT
BRANCH   1   4
ATOM      4  C   UNL     1      22.549  28.127  43.023  1.00  0.00     0.034 C 
BRANCH   4   5
ATOM      5  C   UNL     1      22.732  26.606  43.084  1.00  0.00     0.032 C 
BRANCH   5   6
ATOM      6  C   UNL     1      23.015  26.045  41.714  1.00  0.00    -0.028 C 
ATOM      7  C   UNL     1      20.707  25.114  41.440  1.00  0.00     0.039 C 
ATOM      8  C   UNL     1      22.125  25.350  40.974  1.00  0.00    -0.080 C 
ATOM      9  C   UNL     1      22.564  24.814  39.635  1.00  0.00     0.039 C 
ENDBRANCH   5   6
ENDBRANCH   4   5
ENDBRANCH   1   4
BRANCH   2  10
ATOM     10  C   UNL     1      18.700  28.450  43.595  1.00  0.00     0.035 C 
BRANCH  10  11
ATOM     11  C   UNL     1      17.963  27.243  42.999  1.00  0.00     0.079 C 
BRANCH  11  12
ATOM     12  C   UNL     1      16.482  27.500  42.882  1.00  0.00     0.130 C 
ATOM     13  O   UNL     1      15.768  26.667  42.343  1.00  0.00    -0.300 OA
ATOM     14  C   UNL     1      15.864  28.758  43.416  1.00  0.00     0.087 C 
ENDBRANCH  11  12
ENDBRANCH  10  11
ENDBRANCH   2  10
TORSDOF 6
ENDMDL
MODEL 7
REMARK VINA RESULT:    -3.818      2.990      5.849
REMARK INTER + INTRA:          -6.432
REMARK INTER:                  -5.348
REMARK INTRA:                  -1.084
REMARK UNBOUND:                -1.275
REMARK SMILES CC(=O)CCC=C(C)CCC=C(C)C
REMARK SMILES IDX 7 1 6 2 8 3 9 4 10 5 11 6 13 7 12 8 14 9 5 10 4 11 2 12 3 13
REMARK SMILES IDX 1 14
REMARK H PARENT
REMARK Flexibility Score: inf
ROOT
ATOM      1  C   UNL     1      19.243  27.627  43.020  1.00  0.00    -0.077 C 
ATOM      2  C   UNL     1      18.671  28.599  43.766  1.00  0.00    -0.028 C 
ATOM      3  C   UNL     1      18.826  27.365  41.591  1.00  0.00     0.039 C 
ENDROOT
BRANCH   1   4
ATOM      4  C   UNL     1      20.347  26.791  43.627  1.00  0.00     0.034 C 
BRANCH   4   5
ATOM      5  C   UNL     1      21.592  26.797  42.732  1.00  0.00     0.032 C 
BRANCH   5   6
ATOM      6  C   UNL     1      22.563  27.862  43.173  1.00  0.00    -0.028 C 
ATOM      7  C   UNL     1      21.943  29.423  41.315  1.00  0.00     0.039 C 
ATOM      8  C   UNL     1      22.751  29.036  42.533  1.00  0.00    -0.080 C 
ATOM      9  C   UNL     1      23.789  29.990  43.068  1.00  0.00     0.039 C 
ENDBRANCH   5   6
ENDBRANCH   4   5
ENDBRANCH   1   4
BRANCH   2  10
ATOM     10  C   UNL     1      17.530  29.475  43.304  1.00  0.00     0.035 C 
BRANCH  10  11
ATOM     11  C   UNL     1      16.174  28.943  43.786  1.00  0.00     0.079 C 
BRANCH  11  12
ATOM     12  C   UNL     1      15.399  28.301  42.663  1.00  0.00     0.130 C 
ATOM     13  O   UNL     1      14.873  29.006  41.815  1.00  0.00    -0.300 OA
ATOM     14  C   UNL     1      15.261  26.811  42.564  1.00  0.00     0.087 C 
ENDBRANCH  11  12
ENDBRANCH  10  11
ENDBRANCH   2  10
TORSDOF 6
ENDMDL
MODEL 8
REMARK VINA RESULT:    -3.782      1.740      3.318
REMARK INTER + INTRA:          -6.383
REMARK INTER:                  -5.515
REMARK INTRA:                  -0.868
REMARK UNBOUND:                -1.275
REMARK SMILES CC(=O)CCC=C(C)CCC=C(C)C
REMARK SMILES IDX 7 1 6 2 8 3 9 4 10 5 11 6 13 7 12 8 14 9 5 10 4 11 2 12 3 13
REMARK SMILES IDX 1 14
REMARK H PARENT
REMARK Flexibility Score: inf
ROOT
ATOM      1  C   UNL     1      17.559  28.175  43.280  1.00  0.00    -0.077 C 
ATOM      2  C   UNL     1      18.745  27.534  43.394  1.00  0.00    -0.028 C 
ATOM      3  C   UNL     1      17.404  29.636  43.630  1.00  0.00     0.039 C 
ENDROOT
BRANCH   1   4
ATOM      4  C   UNL     1      16.359  27.411  42.766  1.00  0.00     0.034 C 
BRANCH   4   5
ATOM      5  C   UNL     1      16.782  26.060  42.178  1.00  0.00     0.032 C 
BRANCH   5   6
ATOM      6  C   UNL     1      16.613  26.053  40.680  1.00  0.00    -0.028 C 
ATOM      7  C   UNL     1      19.071  26.244  40.240  1.00  0.00     0.039 C 
ATOM      8  C   UNL     1      17.629  26.160  39.796  1.00  0.00    -0.080 C 
ATOM      9  C   UNL     1      17.304  26.178  38.324  1.00  0.00     0.039 C 
ENDBRANCH   5   6
ENDBRANCH   4   5
ENDBRANCH   1   4
BRANCH   2  10
ATOM     10  C   UNL     1      20.009  28.159  43.935  1.00  0.00     0.035 C 
BRANCH  10  11
ATOM     11  C   UNL     1      21.096  28.266  42.857  1.00  0.00     0.079 C 
BRANCH  11  12
ATOM     12  C   UNL     1      22.257  27.349  43.147  1.00  0.00     0.130 C 
ATOM     13  O   UNL     1      23.399  27.771  43.040  1.00  0.00    -0.300 OA
ATOM     14  C   UNL     1      22.040  25.925  43.567  1.00  0.00     0.087 C 
ENDBRANCH  11  12
ENDBRANCH  10  11
ENDBRANCH   2  10
TORSDOF 6
ENDMDL
MODEL 9
REMARK VINA RESULT:    -3.743      2.122      3.090
REMARK INTER + INTRA:          -6.330
REMARK INTER:                  -5.177
REMARK INTRA:                  -1.153
REMARK UNBOUND:                -1.275
REMARK SMILES CC(=O)CCC=C(C)CCC=C(C)C
REMARK SMILES IDX 7 1 6 2 8 3 9 4 10 5 11 6 13 7 12 8 14 9 5 10 4 11 2 12 3 13
REMARK SMILES IDX 1 14
REMARK H PARENT
REMARK Flexibility Score: inf
ROOT
ATOM      1  C   UNL     1      20.441  28.020  43.174  1.00  0.00    -0.077 C 
ATOM      2  C   UNL     1      20.846  28.860  42.194  1.00  0.00    -0.028 C 
ATOM      3  C   UNL     1      21.061  26.656  43.366  1.00  0.00     0.039 C 
ENDROOT
BRANCH   1   4
ATOM      4  C   UNL     1      19.350  28.470  44.120  1.00  0.00     0.034 C 
BRANCH   4   5
ATOM      5  C   UNL     1      18.045  28.738  43.361  1.00  0.00     0.032 C 
BRANCH   5   6
ATOM      6  C   UNL     1      17.211  27.486  43.270  1.00  0.00    -0.028 C 
ATOM      7  C   UNL     1      17.823  27.059  40.879  1.00  0.00     0.039 C 
ATOM      8  C   UNL     1      17.080  26.734  42.155  1.00  0.00    -0.080 C 
ATOM      9  C   UNL     1      16.177  25.528  42.202  1.00  0.00     0.039 C 
ENDBRANCH   5   6
ENDBRANCH   4   5
ENDBRANCH   1   4
BRANCH   2  10
ATOM     10  C   UNL     1      21.889  28.524  41.155  1.00  0.00     0.035 C 
BRANCH  10  11
ATOM     11  C   UNL     1      23.073  29.498  41.203  1.00  0.00     0.079 C 
BRANCH  11  12
ATOM     12  C   UNL     1      23.820  29.400  42.510  1.00  0.00     0.130 C 
ATOM     13  O   UNL     1      23.818  30.351  43.277  1.00  0.00    -0.300 OA
ATOM     14  C   UNL     1      24.565  28.155  42.890  1.00  0.00     0.087 C 
ENDBRANCH  11  12
ENDBRANCH  10  11
ENDBRANCH   2  10
TORSDOF 6
ENDMDL
