MODEL 1
REMARK VINA RESULT:    -8.164      0.000      0.000
REMARK INTER + INTRA:         -12.082
REMARK INTER:                 -10.789
REMARK INTRA:                  -1.294
REMARK UNBOUND:                -1.294
REMARK SMILES CC[C@H](C=C[C@H](C)[C@@H]1CC[C@H]2[C@@H]3CC=C4C[C@@H](O)CC[C@@]4(C)[C@@H]3CC[C@]21C)C(C)C
REMARK SMILES IDX 6 1 7 2 5 3 4 4 3 5 2 6 1 7 28 8 29 9 30 10 8 11 9 12 26 13
REMARK SMILES IDX 10 14 11 15 25 16 27 17 12 18 24 19 23 20 13 21 21 22 14 23
REMARK SMILES IDX 15 24 20 25 22 26 16 27 19 28 17 29 18 30
REMARK H PARENT 18 31
REMARK Flexibility Score: inf
ROOT
ATOM      1  C   UNL     1      15.964  17.371  14.642  1.00  0.00     0.012 C 
ATOM      2  C   UNL     1      14.818  17.469  13.619  1.00  0.00     0.012 C 
ENDROOT
BRANCH   1   3
ATOM      3  C   UNL     1      15.406  17.574  16.040  1.00  0.00    -0.028 C 
ATOM      4  C   UNL     1      16.025  18.231  17.043  1.00  0.00    -0.027 C 
BRANCH   4   5
ATOM      5  C   UNL     1      17.369  18.947  16.965  1.00  0.00     0.014 C 
BRANCH   5   6
ATOM      6  C   UNL     1      17.137  20.461  16.733  1.00  0.00     0.004 C 
ATOM      7  C   UNL     1      16.923  20.804  15.258  1.00  0.00     0.004 C 
ENDBRANCH   5   6
BRANCH   5   8
ATOM      8  C   UNL     1      18.243  18.709  18.234  1.00  0.00    -0.011 C 
ATOM      9  C   UNL     1      17.763  17.490  19.034  1.00  0.00     0.008 C 
ATOM     10  C   UNL     1      18.348  19.938  19.154  1.00  0.00     0.008 C 
ENDBRANCH   5   8
ENDBRANCH   4   5
ENDBRANCH   1   3
BRANCH   1  11
ATOM     11  C   UNL     1      16.751  16.030  14.426  1.00  0.00     0.002 C 
ATOM     12  C   UNL     1      17.472  15.480  15.652  1.00  0.00     0.005 C 
ATOM     13  C   UNL     1      17.785  15.917  13.264  1.00  0.00    -0.026 C 
ATOM     14  C   UNL     1      18.352  14.357  15.120  1.00  0.00     0.005 C 
ATOM     15  C   UNL     1      18.621  14.640  13.620  1.00  0.00    -0.001 C 
ATOM     16  C   UNL     1      17.080  15.823  11.883  1.00  0.00     0.007 C 
ATOM     17  C   UNL     1      18.762  17.121  13.220  1.00  0.00     0.012 C 
ATOM     18  C   UNL     1      18.332  13.380  12.749  1.00  0.00     0.000 C 
ATOM     19  C   UNL     1      16.363  14.490  11.573  1.00  0.00     0.005 C 
ATOM     20  C   UNL     1      16.837  13.250  12.388  1.00  0.00     0.003 C 
ATOM     21  C   UNL     1      19.189  13.311  11.472  1.00  0.00     0.031 C 
ATOM     22  C   UNL     1      16.540  11.862  11.685  1.00  0.00    -0.008 C 
ATOM     23  C   UNL     1      18.854  12.090  10.661  1.00  0.00    -0.027 C 
ATOM     24  C   UNL     1      17.657  11.456  10.712  1.00  0.00    -0.065 C 
ATOM     25  C   UNL     1      16.444  10.737  12.769  1.00  0.00     0.014 C 
ATOM     26  C   UNL     1      15.177  11.924  10.937  1.00  0.00     0.016 C 
ATOM     27  C   UNL     1      17.540  10.091  10.071  1.00  0.00     0.063 C 
ATOM     28  C   UNL     1      16.376   9.305  12.188  1.00  0.00     0.033 C 
ATOM     29  C   UNL     1      17.499   9.017  11.173  1.00  0.00     0.118 C 
BRANCH  29  30
ATOM     30  O   UNL     1      18.731   8.961  11.846  1.00  0.00    -0.393 OA
ATOM     31  H   UNL     1      18.917   9.876  12.182  1.00  0.00     0.210 HD
ENDBRANCH  29  30
ENDBRANCH   1  11
TORSDOF 6
ENDMDL
MODEL 2
REMARK VINA RESULT:    -7.815      4.026      5.524
REMARK INTER + INTRA:         -11.621
REMARK INTER:                 -10.116
REMARK INTRA:                  -1.505
REMARK UNBOUND:                -1.294
REMARK SMILES CC[C@H](C=C[C@H](C)[C@@H]1CC[C@H]2[C@@H]3CC=C4C[C@@H](O)CC[C@@]4(C)[C@@H]3CC[C@]21C)C(C)C
REMARK SMILES IDX 6 1 7 2 5 3 4 4 3 5 2 6 1 7 28 8 29 9 30 10 8 11 9 12 26 13
REMARK SMILES IDX 10 14 11 15 25 16 27 17 12 18 24 19 23 20 13 21 21 22 14 23
REMARK SMILES IDX 15 24 20 25 22 26 16 27 19 28 17 29 18 30
REMARK H PARENT 18 31
REMARK Flexibility Score: inf
ROOT
ATOM      1  C   UNL     1      18.082  19.755   9.704  1.00  0.00     0.012 C 
ATOM      2  C   UNL     1      17.269  19.448   8.434  1.00  0.00     0.012 C 
ENDROOT
BRANCH   1   3
ATOM      3  C   UNL     1      17.511  20.991  10.377  1.00  0.00    -0.028 C 
ATOM      4  C   UNL     1      17.936  22.257  10.180  1.00  0.00    -0.027 C 
BRANCH   4   5
ATOM      5  C   UNL     1      19.025  22.709   9.212  1.00  0.00     0.014 C 
BRANCH   5   6
ATOM      6  C   UNL     1      18.853  24.217   8.906  1.00  0.00     0.004 C 
ATOM      7  C   UNL     1      17.387  24.651   8.888  1.00  0.00     0.004 C 
ENDBRANCH   5   6
BRANCH   5   8
ATOM      8  C   UNL     1      20.458  22.412   9.750  1.00  0.00    -0.011 C 
ATOM      9  C   UNL     1      21.208  23.703  10.109  1.00  0.00     0.008 C 
ATOM     10  C   UNL     1      21.310  21.551   8.801  1.00  0.00     0.008 C 
ENDBRANCH   5   8
ENDBRANCH   4   5
ENDBRANCH   1   3
BRANCH   1  11
ATOM     11  C   UNL     1      18.149  18.474  10.610  1.00  0.00     0.002 C 
ATOM     12  C   UNL     1      17.821  18.687  12.084  1.00  0.00     0.005 C 
ATOM     13  C   UNL     1      19.434  17.589  10.605  1.00  0.00    -0.026 C 
ATOM     14  C   UNL     1      18.214  17.384  12.766  1.00  0.00     0.005 C 
ATOM     15  C   UNL     1      19.284  16.694  11.883  1.00  0.00    -0.001 C 
ATOM     16  C   UNL     1      19.554  16.769   9.292  1.00  0.00     0.007 C 
ATOM     17  C   UNL     1      20.730  18.424  10.766  1.00  0.00     0.012 C 
ATOM     18  C   UNL     1      18.920  15.201  11.621  1.00  0.00     0.000 C 
ATOM     19  C   UNL     1      18.563  15.594   9.130  1.00  0.00     0.005 C 
ATOM     20  C   UNL     1      17.937  15.037  10.443  1.00  0.00     0.003 C 
ATOM     21  C   UNL     1      20.151  14.300  11.409  1.00  0.00     0.031 C 
ATOM     22  C   UNL     1      17.425  13.542  10.333  1.00  0.00    -0.008 C 
ATOM     23  C   UNL     1      19.741  12.879  11.139  1.00  0.00    -0.027 C 
ATOM     24  C   UNL     1      18.541  12.526  10.617  1.00  0.00    -0.065 C 
ATOM     25  C   UNL     1      16.299  13.296  11.391  1.00  0.00     0.014 C 
ATOM     26  C   UNL     1      16.819  13.289   8.921  1.00  0.00     0.016 C 
ATOM     27  C   UNL     1      18.142  11.068  10.657  1.00  0.00     0.063 C 
ATOM     28  C   UNL     1      15.876  11.814  11.529  1.00  0.00     0.033 C 
ATOM     29  C   UNL     1      17.072  10.867  11.744  1.00  0.00     0.118 C 
BRANCH  29  30
ATOM     30  O   UNL     1      17.620  11.094  13.017  1.00  0.00    -0.393 OA
ATOM     31  H   UNL     1      18.094  11.965  12.975  1.00  0.00     0.210 HD
ENDBRANCH  29  30
ENDBRANCH   1  11
TORSDOF 6
ENDMDL
MODEL 3
REMARK VINA RESULT:    -7.749      3.104      5.198
REMARK INTER + INTRA:         -11.534
REMARK INTER:                  -9.946
REMARK INTRA:                  -1.588
REMARK UNBOUND:                -1.294
REMARK SMILES CC[C@H](C=C[C@H](C)[C@@H]1CC[C@H]2[C@@H]3CC=C4C[C@@H](O)CC[C@@]4(C)[C@@H]3CC[C@]21C)C(C)C
REMARK SMILES IDX 6 1 7 2 5 3 4 4 3 5 2 6 1 7 28 8 29 9 30 10 8 11 9 12 26 13
REMARK SMILES IDX 10 14 11 15 25 16 27 17 12 18 24 19 23 20 13 21 21 22 14 23
REMARK SMILES IDX 15 24 20 25 22 26 16 27 19 28 17 29 18 30
REMARK H PARENT 18 31
REMARK Flexibility Score: inf
ROOT
ATOM      1  C   UNL     1      19.443  18.040  10.334  1.00  0.00     0.012 C 
ATOM      2  C   UNL     1      20.859  17.435  10.368  1.00  0.00     0.012 C 
ENDROOT
BRANCH   1   3
ATOM      3  C   UNL     1      19.246  18.775   9.019  1.00  0.00    -0.028 C 
ATOM      4  C   UNL     1      18.767  20.030   8.887  1.00  0.00    -0.027 C 
BRANCH   4   5
ATOM      5  C   UNL     1      18.385  20.979  10.019  1.00  0.00     0.014 C 
BRANCH   5   6
ATOM      6  C   UNL     1      19.052  22.357   9.786  1.00  0.00     0.004 C 
ATOM      7  C   UNL     1      18.031  23.480   9.596  1.00  0.00     0.004 C 
ENDBRANCH   5   6
BRANCH   5   8
ATOM      8  C   UNL     1      16.840  21.129  10.171  1.00  0.00    -0.011 C 
ATOM      9  C   UNL     1      16.345  20.576  11.515  1.00  0.00     0.008 C 
ATOM     10  C   UNL     1      16.040  20.504   9.015  1.00  0.00     0.008 C 
ENDBRANCH   5   8
ENDBRANCH   4   5
ENDBRANCH   1   3
BRANCH   1  11
ATOM     11  C   UNL     1      18.384  16.922  10.638  1.00  0.00     0.002 C 
ATOM     12  C   UNL     1      16.979  17.177  10.105  1.00  0.00     0.005 C 
ATOM     13  C   UNL     1      18.177  16.430  12.104  1.00  0.00    -0.026 C 
ATOM     14  C   UNL     1      16.111  16.106  10.752  1.00  0.00     0.005 C 
ATOM     15  C   UNL     1      16.815  15.657  12.058  1.00  0.00    -0.001 C 
ATOM     16  C   UNL     1      19.366  15.552  12.582  1.00  0.00     0.007 C 
ATOM     17  C   UNL     1      18.018  17.603  13.106  1.00  0.00     0.012 C 
ATOM     18  C   UNL     1      16.919  14.103  12.135  1.00  0.00     0.000 C 
ATOM     19  C   UNL     1      19.460  14.139  11.963  1.00  0.00     0.005 C 
ATOM     20  C   UNL     1      18.142  13.561  11.367  1.00  0.00     0.003 C 
ATOM     21  C   UNL     1      16.920  13.562  13.576  1.00  0.00     0.031 C 
ATOM     22  C   UNL     1      18.108  11.979  11.287  1.00  0.00    -0.008 C 
ATOM     23  C   UNL     1      17.044  12.064  13.592  1.00  0.00    -0.027 C 
ATOM     24  C   UNL     1      17.613  11.344  12.594  1.00  0.00    -0.065 C 
ATOM     25  C   UNL     1      17.120  11.535  10.157  1.00  0.00     0.014 C 
ATOM     26  C   UNL     1      19.521  11.432  10.929  1.00  0.00     0.016 C 
ATOM     27  C   UNL     1      17.425   9.843  12.595  1.00  0.00     0.063 C 
ATOM     28  C   UNL     1      16.835  10.015  10.130  1.00  0.00     0.033 C 
ATOM     29  C   UNL     1      16.410   9.461  11.503  1.00  0.00     0.118 C 
BRANCH  29  30
ATOM     30  O   UNL     1      15.135   9.953  11.828  1.00  0.00    -0.393 OA
ATOM     31  H   UNL     1      14.982  10.752  11.259  1.00  0.00     0.210 HD
ENDBRANCH  29  30
ENDBRANCH   1  11
TORSDOF 6
ENDMDL
MODEL 4
REMARK VINA RESULT:    -7.621      2.663      8.476
REMARK INTER + INTRA:         -11.365
REMARK INTER:                  -9.996
REMARK INTRA:                  -1.370
REMARK UNBOUND:                -1.294
REMARK SMILES CC[C@H](C=C[C@H](C)[C@@H]1CC[C@H]2[C@@H]3CC=C4C[C@@H](O)CC[C@@]4(C)[C@@H]3CC[C@]21C)C(C)C
REMARK SMILES IDX 6 1 7 2 5 3 4 4 3 5 2 6 1 7 28 8 29 9 30 10 8 11 9 12 26 13
REMARK SMILES IDX 10 14 11 15 25 16 27 17 12 18 24 19 23 20 13 21 21 22 14 23
REMARK SMILES IDX 15 24 20 25 22 26 16 27 19 28 17 29 18 30
REMARK H PARENT 18 31
REMARK Flexibility Score: inf
ROOT
ATOM      1  C   UNL     1      16.295  13.340  10.875  1.00  0.00     0.012 C 
ATOM      2  C   UNL     1      15.226  14.021  10.001  1.00  0.00     0.012 C 
ENDROOT
BRANCH   1   3
ATOM      3  C   UNL     1      17.196  12.493   9.993  1.00  0.00    -0.028 C 
ATOM      4  C   UNL     1      17.236  11.144   9.981  1.00  0.00    -0.027 C 
BRANCH   4   5
ATOM      5  C   UNL     1      16.356  10.203  10.797  1.00  0.00     0.014 C 
BRANCH   5   6
ATOM      6  C   UNL     1      16.184   8.864  10.036  1.00  0.00     0.004 C 
ATOM      7  C   UNL     1      14.738   8.368  10.037  1.00  0.00     0.004 C 
ENDBRANCH   5   6
BRANCH   5   8
ATOM      8  C   UNL     1      16.919   9.957  12.230  1.00  0.00    -0.011 C 
ATOM      9  C   UNL     1      18.022   8.890  12.232  1.00  0.00     0.008 C 
ATOM     10  C   UNL     1      15.839   9.604  13.267  1.00  0.00     0.008 C 
ENDBRANCH   5   8
ENDBRANCH   4   5
ENDBRANCH   1   3
BRANCH   1  11
ATOM     11  C   UNL     1      17.035  14.421  11.741  1.00  0.00     0.002 C 
ATOM     12  C   UNL     1      18.375  14.904  11.195  1.00  0.00     0.005 C 
ATOM     13  C   UNL     1      17.286  14.159  13.258  1.00  0.00    -0.026 C 
ATOM     14  C   UNL     1      18.989  15.718  12.326  1.00  0.00     0.005 C 
ATOM     15  C   UNL     1      18.364  15.225  13.655  1.00  0.00    -0.001 C 
ATOM     16  C   UNL     1      15.974  14.277  14.080  1.00  0.00     0.007 C 
ATOM     17  C   UNL     1      17.892  12.756  13.524  1.00  0.00     0.012 C 
ATOM     18  C   UNL     1      17.847  16.420  14.512  1.00  0.00     0.000 C 
ATOM     19  C   UNL     1      15.414  15.705  14.267  1.00  0.00     0.005 C 
ATOM     20  C   UNL     1      16.433  16.871  14.091  1.00  0.00     0.003 C 
ATOM     21  C   UNL     1      17.883  16.147  16.026  1.00  0.00     0.031 C 
ATOM     22  C   UNL     1      16.018  18.209  14.831  1.00  0.00    -0.008 C 
ATOM     23  C   UNL     1      17.354  17.322  16.801  1.00  0.00    -0.027 C 
ATOM     24  C   UNL     1      16.484  18.229  16.294  1.00  0.00    -0.065 C 
ATOM     25  C   UNL     1      16.690  19.429  14.118  1.00  0.00     0.014 C 
ATOM     26  C   UNL     1      14.475  18.403  14.759  1.00  0.00     0.016 C 
ATOM     27  C   UNL     1      16.249  19.508  17.067  1.00  0.00     0.063 C 
ATOM     28  C   UNL     1      16.539  20.767  14.879  1.00  0.00     0.033 C 
ATOM     29  C   UNL     1      16.969  20.667  16.356  1.00  0.00     0.118 C 
BRANCH  29  30
ATOM     30  O   UNL     1      18.361  20.493  16.423  1.00  0.00    -0.393 OA
ATOM     31  H   UNL     1      18.597  19.802  15.750  1.00  0.00     0.210 HD
ENDBRANCH  29  30
ENDBRANCH   1  11
TORSDOF 6
ENDMDL
MODEL 5
REMARK VINA RESULT:    -7.568      3.793      6.930
REMARK INTER + INTRA:         -11.295
REMARK INTER:                  -9.456
REMARK INTRA:                  -1.839
REMARK UNBOUND:                -1.294
REMARK SMILES CC[C@H](C=C[C@H](C)[C@@H]1CC[C@H]2[C@@H]3CC=C4C[C@@H](O)CC[C@@]4(C)[C@@H]3CC[C@]21C)C(C)C
REMARK SMILES IDX 6 1 7 2 5 3 4 4 3 5 2 6 1 7 28 8 29 9 30 10 8 11 9 12 26 13
REMARK SMILES IDX 10 14 11 15 25 16 27 17 12 18 24 19 23 20 13 21 21 22 14 23
REMARK SMILES IDX 15 24 20 25 22 26 16 27 19 28 17 29 18 30
REMARK H PARENT 18 31
REMARK Flexibility Score: inf
ROOT
ATOM      1  C   UNL     1      18.748  14.336  13.060  1.00  0.00     0.012 C 
ATOM      2  C   UNL     1      19.822  15.244  13.688  1.00  0.00     0.012 C 
ENDROOT
BRANCH   1   3
ATOM      3  C   UNL     1      17.881  13.751  14.161  1.00  0.00    -0.028 C 
ATOM      4  C   UNL     1      16.883  14.399  14.799  1.00  0.00    -0.027 C 
BRANCH   4   5
ATOM      5  C   UNL     1      16.389  15.814  14.509  1.00  0.00     0.014 C 
BRANCH   5   6
ATOM      6  C   UNL     1      14.868  15.781  14.217  1.00  0.00     0.004 C 
ATOM      7  C   UNL     1      14.503  16.500  12.918  1.00  0.00     0.004 C 
ENDBRANCH   5   6
BRANCH   5   8
ATOM      8  C   UNL     1      16.709  16.803  15.671  1.00  0.00    -0.011 C 
ATOM      9  C   UNL     1      15.480  17.058  16.556  1.00  0.00     0.008 C 
ATOM     10  C   UNL     1      17.307  18.140  15.199  1.00  0.00     0.008 C 
ENDBRANCH   5   8
ENDBRANCH   4   5
ENDBRANCH   1   3
BRANCH   1  11
ATOM     11  C   UNL     1      17.972  15.128  11.949  1.00  0.00     0.002 C 
ATOM     12  C   UNL     1      16.947  14.324  11.155  1.00  0.00     0.005 C 
ATOM     13  C   UNL     1      18.765  15.940  10.879  1.00  0.00    -0.026 C 
ATOM     14  C   UNL     1      16.547  15.230   9.999  1.00  0.00     0.005 C 
ATOM     15  C   UNL     1      17.708  16.227   9.758  1.00  0.00    -0.001 C 
ATOM     16  C   UNL     1      19.380  17.230  11.487  1.00  0.00     0.007 C 
ATOM     17  C   UNL     1      19.914  15.117  10.242  1.00  0.00     0.012 C 
ATOM     18  C   UNL     1      17.185  17.694   9.684  1.00  0.00     0.000 C 
ATOM     19  C   UNL     1      18.387  18.364  11.828  1.00  0.00     0.005 C 
ATOM     20  C   UNL     1      17.019  18.326  11.081  1.00  0.00     0.003 C 
ATOM     21  C   UNL     1      18.047  18.605   8.792  1.00  0.00     0.031 C 
ATOM     22  C   UNL     1      16.295  19.732  10.988  1.00  0.00    -0.008 C 
ATOM     23  C   UNL     1      17.510  20.010   8.775  1.00  0.00    -0.027 C 
ATOM     24  C   UNL     1      16.761  20.543   9.771  1.00  0.00    -0.065 C 
ATOM     25  C   UNL     1      14.753  19.515  10.832  1.00  0.00     0.014 C 
ATOM     26  C   UNL     1      16.534  20.544  12.295  1.00  0.00     0.016 C 
ATOM     27  C   UNL     1      16.051  21.853   9.511  1.00  0.00     0.063 C 
ATOM     28  C   UNL     1      13.963  20.805  10.511  1.00  0.00     0.033 C 
ATOM     29  C   UNL     1      14.549  21.583   9.316  1.00  0.00     0.118 C 
BRANCH  29  30
ATOM     30  O   UNL     1      14.333  20.852   8.136  1.00  0.00    -0.393 OA
ATOM     31  H   UNL     1      15.095  20.222   8.045  1.00  0.00     0.210 HD
ENDBRANCH  29  30
ENDBRANCH   1  11
TORSDOF 6
ENDMDL
MODEL 6
REMARK VINA RESULT:    -7.478      3.367      5.582
REMARK INTER + INTRA:         -11.176
REMARK INTER:                 -10.503
REMARK INTRA:                  -0.673
REMARK UNBOUND:                -1.294
REMARK SMILES CC[C@H](C=C[C@H](C)[C@@H]1CC[C@H]2[C@@H]3CC=C4C[C@@H](O)CC[C@@]4(C)[C@@H]3CC[C@]21C)C(C)C
REMARK SMILES IDX 6 1 7 2 5 3 4 4 3 5 2 6 1 7 28 8 29 9 30 10 8 11 9 12 26 13
REMARK SMILES IDX 10 14 11 15 25 16 27 17 12 18 24 19 23 20 13 21 21 22 14 23
REMARK SMILES IDX 15 24 20 25 22 26 16 27 19 28 17 29 18 30
REMARK H PARENT 18 31
REMARK Flexibility Score: inf
ROOT
ATOM      1  C   UNL     1      16.362  16.515  15.602  1.00  0.00     0.012 C 
ATOM      2  C   UNL     1      17.814  16.345  16.084  1.00  0.00     0.012 C 
ENDROOT
BRANCH   1   3
ATOM      3  C   UNL     1      15.629  17.454  16.545  1.00  0.00    -0.028 C 
ATOM      4  C   UNL     1      16.175  18.515  17.175  1.00  0.00    -0.027 C 
BRANCH   4   5
ATOM      5  C   UNL     1      17.608  19.018  17.029  1.00  0.00     0.014 C 
BRANCH   5   6
ATOM      6  C   UNL     1      17.604  20.389  16.308  1.00  0.00     0.004 C 
ATOM      7  C   UNL     1      16.385  20.575  15.403  1.00  0.00     0.004 C 
ENDBRANCH   5   6
BRANCH   5   8
ATOM      8  C   UNL     1      18.346  19.115  18.399  1.00  0.00    -0.011 C 
ATOM      9  C   UNL     1      18.060  17.895  19.286  1.00  0.00     0.008 C 
ATOM     10  C   UNL     1      18.050  20.412  19.172  1.00  0.00     0.008 C 
ENDBRANCH   5   8
ENDBRANCH   4   5
ENDBRANCH   1   3
BRANCH   1  11
ATOM     11  C   UNL     1      16.355  16.948  14.092  1.00  0.00     0.002 C 
ATOM     12  C   UNL     1      15.116  17.704  13.625  1.00  0.00     0.005 C 
ATOM     13  C   UNL     1      16.624  15.886  12.982  1.00  0.00    -0.026 C 
ATOM     14  C   UNL     1      15.239  17.763  12.108  1.00  0.00     0.005 C 
ATOM     15  C   UNL     1      16.140  16.583  11.664  1.00  0.00    -0.001 C 
ATOM     16  C   UNL     1      18.120  15.471  12.943  1.00  0.00     0.007 C 
ATOM     17  C   UNL     1      15.777  14.601  13.172  1.00  0.00     0.012 C 
ATOM     18  C   UNL     1      17.269  17.067  10.704  1.00  0.00     0.000 C 
ATOM     19  C   UNL     1      19.104  16.523  12.384  1.00  0.00     0.005 C 
ATOM     20  C   UNL     1      18.488  17.623  11.469  1.00  0.00     0.003 C 
ATOM     21  C   UNL     1      17.722  15.989   9.702  1.00  0.00     0.031 C 
ATOM     22  C   UNL     1      19.524  18.294  10.477  1.00  0.00    -0.008 C 
ATOM     23  C   UNL     1      18.825  16.502   8.817  1.00  0.00    -0.027 C 
ATOM     24  C   UNL     1      19.668  17.504   9.168  1.00  0.00    -0.065 C 
ATOM     25  C   UNL     1      19.028  19.729  10.096  1.00  0.00     0.014 C 
ATOM     26  C   UNL     1      20.911  18.436  11.170  1.00  0.00     0.016 C 
ATOM     27  C   UNL     1      20.542  18.115   8.095  1.00  0.00     0.063 C 
ATOM     28  C   UNL     1      19.842  20.398   8.963  1.00  0.00     0.033 C 
ATOM     29  C   UNL     1      19.986  19.500   7.719  1.00  0.00     0.118 C 
BRANCH  29  30
ATOM     30  O   UNL     1      18.736  19.371   7.092  1.00  0.00    -0.393 OA
ATOM     31  H   UNL     1      18.790  19.873   6.237  1.00  0.00     0.210 HD
ENDBRANCH  29  30
ENDBRANCH   1  11
TORSDOF 6
ENDMDL
MODEL 7
REMARK VINA RESULT:    -7.474      4.569      6.792
REMARK INTER + INTRA:         -11.170
REMARK INTER:                  -9.657
REMARK INTRA:                  -1.513
REMARK UNBOUND:                -1.294
REMARK SMILES CC[C@H](C=C[C@H](C)[C@@H]1CC[C@H]2[C@@H]3CC=C4C[C@@H](O)CC[C@@]4(C)[C@@H]3CC[C@]21C)C(C)C
REMARK SMILES IDX 6 1 7 2 5 3 4 4 3 5 2 6 1 7 28 8 29 9 30 10 8 11 9 12 26 13
REMARK SMILES IDX 10 14 11 15 25 16 27 17 12 18 24 19 23 20 13 21 21 22 14 23
REMARK SMILES IDX 15 24 20 25 22 26 16 27 19 28 17 29 18 30
REMARK H PARENT 18 31
REMARK Flexibility Score: inf
ROOT
ATOM      1  C   UNL     1      20.055  19.969   9.673  1.00  0.00     0.012 C 
ATOM      2  C   UNL     1      21.300  19.713  10.542  1.00  0.00     0.012 C 
ENDROOT
BRANCH   1   3
ATOM      3  C   UNL     1      20.492  20.481   8.311  1.00  0.00    -0.028 C 
ATOM      4  C   UNL     1      20.661  21.779   7.980  1.00  0.00    -0.027 C 
BRANCH   4   5
ATOM      5  C   UNL     1      20.506  22.980   8.908  1.00  0.00     0.014 C 
BRANCH   5   6
ATOM      6  C   UNL     1      21.263  24.194   8.314  1.00  0.00     0.004 C 
ATOM      7  C   UNL     1      21.757  23.940   6.890  1.00  0.00     0.004 C 
ENDBRANCH   5   6
BRANCH   5   8
ATOM      8  C   UNL     1      19.011  23.335   9.173  1.00  0.00    -0.011 C 
ATOM      9  C   UNL     1      18.639  24.703   8.584  1.00  0.00     0.008 C 
ATOM     10  C   UNL     1      18.614  23.273  10.658  1.00  0.00     0.008 C 
ENDBRANCH   5   8
ENDBRANCH   4   5
ENDBRANCH   1   3
BRANCH   1  11
ATOM     11  C   UNL     1      19.158  18.681   9.644  1.00  0.00     0.002 C 
ATOM     12  C   UNL     1      18.809  18.147   8.258  1.00  0.00     0.005 C 
ATOM     13  C   UNL     1      17.816  18.654  10.438  1.00  0.00    -0.026 C 
ATOM     14  C   UNL     1      17.741  17.089   8.502  1.00  0.00     0.005 C 
ATOM     15  C   UNL     1      17.049  17.420   9.848  1.00  0.00    -0.001 C 
ATOM     16  C   UNL     1      18.063  18.549  11.968  1.00  0.00     0.007 C 
ATOM     17  C   UNL     1      16.949  19.913  10.179  1.00  0.00     0.012 C 
ATOM     18  C   UNL     1      16.983  16.165  10.770  1.00  0.00     0.000 C 
ATOM     19  C   UNL     1      18.568  17.183  12.484  1.00  0.00     0.005 C 
ATOM     20  C   UNL     1      18.287  15.955  11.567  1.00  0.00     0.003 C 
ATOM     21  C   UNL     1      15.776  16.173  11.727  1.00  0.00     0.031 C 
ATOM     22  C   UNL     1      18.270  14.568  12.332  1.00  0.00    -0.008 C 
ATOM     23  C   UNL     1      15.774  14.952  12.605  1.00  0.00    -0.027 C 
ATOM     24  C   UNL     1      16.888  14.249  12.921  1.00  0.00    -0.065 C 
ATOM     25  C   UNL     1      18.620  13.416  11.331  1.00  0.00     0.014 C 
ATOM     26  C   UNL     1      19.345  14.566  13.458  1.00  0.00     0.016 C 
ATOM     27  C   UNL     1      16.721  12.893  13.571  1.00  0.00     0.063 C 
ATOM     28  C   UNL     1      18.420  11.995  11.909  1.00  0.00     0.033 C 
ATOM     29  C   UNL     1      17.027  11.796  12.537  1.00  0.00     0.118 C 
BRANCH  29  30
ATOM     30  O   UNL     1      16.056  11.797  11.522  1.00  0.00    -0.393 OA
ATOM     31  H   UNL     1      16.541  11.720  10.659  1.00  0.00     0.210 HD
ENDBRANCH  29  30
ENDBRANCH   1  11
TORSDOF 6
ENDMDL
MODEL 8
REMARK VINA RESULT:    -7.436     11.956     15.452
REMARK INTER + INTRA:         -11.120
REMARK INTER:                  -9.269
REMARK INTRA:                  -1.851
REMARK UNBOUND:                -1.294
REMARK SMILES CC[C@H](C=C[C@H](C)[C@@H]1CC[C@H]2[C@@H]3CC=C4C[C@@H](O)CC[C@@]4(C)[C@@H]3CC[C@]21C)C(C)C
REMARK SMILES IDX 6 1 7 2 5 3 4 4 3 5 2 6 1 7 28 8 29 9 30 10 8 11 9 12 26 13
REMARK SMILES IDX 10 14 11 15 25 16 27 17 12 18 24 19 23 20 13 21 21 22 14 23
REMARK SMILES IDX 15 24 20 25 22 26 16 27 19 28 17 29 18 30
REMARK H PARENT 18 31
REMARK Flexibility Score: inf
ROOT
ATOM      1  C   UNL     1       3.546  12.738  21.482  1.00  0.00     0.012 C 
ATOM      2  C   UNL     1       2.831  13.513  22.605  1.00  0.00     0.012 C 
ENDROOT
BRANCH   1   3
ATOM      3  C   UNL     1       2.509  12.173  20.527  1.00  0.00    -0.028 C 
ATOM      4  C   UNL     1       2.626  11.019  19.837  1.00  0.00    -0.027 C 
BRANCH   4   5
ATOM      5  C   UNL     1       3.783  10.027  19.916  1.00  0.00     0.014 C 
BRANCH   5   6
ATOM      6  C   UNL     1       3.375   8.825  20.804  1.00  0.00     0.004 C 
ATOM      7  C   UNL     1       3.633   9.076  22.289  1.00  0.00     0.004 C 
ENDBRANCH   5   6
BRANCH   5   8
ATOM      8  C   UNL     1       4.249   9.544  18.508  1.00  0.00    -0.011 C 
ATOM      9  C   UNL     1       4.501  10.723  17.558  1.00  0.00     0.008 C 
ATOM     10  C   UNL     1       3.293   8.531  17.854  1.00  0.00     0.008 C 
ENDBRANCH   5   8
ENDBRANCH   4   5
ENDBRANCH   1   3
BRANCH   1  11
ATOM     11  C   UNL     1       4.634  13.654  20.819  1.00  0.00     0.002 C 
ATOM     12  C   UNL     1       4.515  13.839  19.310  1.00  0.00     0.005 C 
ATOM     13  C   UNL     1       6.147  13.368  21.073  1.00  0.00    -0.026 C 
ATOM     14  C   UNL     1       5.810  14.525  18.894  1.00  0.00     0.005 C 
ATOM     15  C   UNL     1       6.882  14.193  19.961  1.00  0.00    -0.001 C 
ATOM     16  C   UNL     1       6.566  13.769  22.514  1.00  0.00     0.007 C 
ATOM     17  C   UNL     1       6.510  11.875  20.869  1.00  0.00     0.012 C 
ATOM     18  C   UNL     1       7.610  15.482  20.449  1.00  0.00     0.000 C 
ATOM     19  C   UNL     1       6.651  15.285  22.801  1.00  0.00     0.005 C 
ATOM     20  C   UNL     1       6.825  16.211  21.560  1.00  0.00     0.003 C 
ATOM     21  C   UNL     1       9.058  15.230  20.906  1.00  0.00     0.031 C 
ATOM     22  C   UNL     1       7.477  17.617  21.888  1.00  0.00    -0.008 C 
ATOM     23  C   UNL     1       9.704  16.501  21.385  1.00  0.00    -0.027 C 
ATOM     24  C   UNL     1       9.011  17.562  21.868  1.00  0.00    -0.065 C 
ATOM     25  C   UNL     1       7.041  18.660  20.806  1.00  0.00     0.014 C 
ATOM     26  C   UNL     1       6.978  18.127  23.272  1.00  0.00     0.016 C 
ATOM     27  C   UNL     1       9.744  18.873  22.051  1.00  0.00     0.063 C 
ATOM     28  C   UNL     1       7.788  20.012  20.895  1.00  0.00     0.033 C 
ATOM     29  C   UNL     1       9.320  19.847  20.937  1.00  0.00     0.118 C 
BRANCH  29  30
ATOM     30  O   UNL     1       9.772  19.387  19.689  1.00  0.00    -0.393 OA
ATOM     31  H   UNL     1      10.665  19.794  19.539  1.00  0.00     0.210 HD
ENDBRANCH  29  30
ENDBRANCH   1  11
TORSDOF 6
ENDMDL
MODEL 9
REMARK VINA RESULT:    -7.352      3.485      7.217
REMARK INTER + INTRA:         -11.009
REMARK INTER:                  -9.717
REMARK INTRA:                  -1.292
REMARK UNBOUND:                -1.294
REMARK SMILES CC[C@H](C=C[C@H](C)[C@@H]1CC[C@H]2[C@@H]3CC=C4C[C@@H](O)CC[C@@]4(C)[C@@H]3CC[C@]21C)C(C)C
REMARK SMILES IDX 6 1 7 2 5 3 4 4 3 5 2 6 1 7 28 8 29 9 30 10 8 11 9 12 26 13
REMARK SMILES IDX 10 14 11 15 25 16 27 17 12 18 24 19 23 20 13 21 21 22 14 23
REMARK SMILES IDX 15 24 20 25 22 26 16 27 19 28 17 29 18 30
REMARK H PARENT 18 31
REMARK Flexibility Score: inf
ROOT
ATOM      1  C   UNL     1      19.216  16.344   9.270  1.00  0.00     0.012 C 
ATOM      2  C   UNL     1      19.506  14.979   8.620  1.00  0.00     0.012 C 
ENDROOT
BRANCH   1   3
ATOM      3  C   UNL     1      18.101  17.036   8.504  1.00  0.00    -0.028 C 
ATOM      4  C   UNL     1      17.785  18.345   8.594  1.00  0.00    -0.027 C 
BRANCH   4   5
ATOM      5  C   UNL     1      18.508  19.399   9.428  1.00  0.00     0.014 C 
BRANCH   5   6
ATOM      6  C   UNL     1      19.374  20.289   8.501  1.00  0.00     0.004 C 
ATOM      7  C   UNL     1      20.704  19.633   8.129  1.00  0.00     0.004 C 
ENDBRANCH   5   6
BRANCH   5   8
ATOM      8  C   UNL     1      17.524  20.267  10.270  1.00  0.00    -0.011 C 
ATOM      9  C   UNL     1      16.078  20.131   9.773  1.00  0.00     0.008 C 
ATOM     10  C   UNL     1      17.920  21.752  10.347  1.00  0.00     0.008 C 
ENDBRANCH   5   8
ENDBRANCH   4   5
ENDBRANCH   1   3
BRANCH   1  11
ATOM     11  C   UNL     1      18.949  16.152  10.806  1.00  0.00     0.002 C 
ATOM     12  C   UNL     1      20.134  15.654  11.627  1.00  0.00     0.005 C 
ATOM     13  C   UNL     1      17.738  15.290  11.279  1.00  0.00    -0.026 C 
ATOM     14  C   UNL     1      19.549  15.303  12.988  1.00  0.00     0.005 C 
ATOM     15  C   UNL     1      18.042  15.004  12.790  1.00  0.00    -0.001 C 
ATOM     16  C   UNL     1      16.391  16.029  11.053  1.00  0.00     0.007 C 
ATOM     17  C   UNL     1      17.662  13.924  10.549  1.00  0.00     0.012 C 
ATOM     18  C   UNL     1      17.172  15.796  13.813  1.00  0.00     0.000 C 
ATOM     19  C   UNL     1      16.103  17.221  11.993  1.00  0.00     0.005 C 
ATOM     20  C   UNL     1      16.881  17.236  13.343  1.00  0.00     0.003 C 
ATOM     21  C   UNL     1      15.856  15.084  14.175  1.00  0.00     0.031 C 
ATOM     22  C   UNL     1      16.178  18.077  14.486  1.00  0.00    -0.008 C 
ATOM     23  C   UNL     1      15.048  15.900  15.146  1.00  0.00    -0.027 C 
ATOM     24  C   UNL     1      15.150  17.246  15.266  1.00  0.00    -0.065 C 
ATOM     25  C   UNL     1      17.254  18.562  15.514  1.00  0.00     0.014 C 
ATOM     26  C   UNL     1      15.496  19.338  13.878  1.00  0.00     0.016 C 
ATOM     27  C   UNL     1      14.501  17.911  16.460  1.00  0.00     0.063 C 
ATOM     28  C   UNL     1      16.662  19.205  16.790  1.00  0.00     0.033 C 
ATOM     29  C   UNL     1      15.592  18.324  17.463  1.00  0.00     0.118 C 
BRANCH  29  30
ATOM     30  O   UNL     1      16.206  17.186  18.013  1.00  0.00    -0.393 OA
ATOM     31  H   UNL     1      16.914  16.906  17.376  1.00  0.00     0.210 HD
ENDBRANCH  29  30
ENDBRANCH   1  11
TORSDOF 6
ENDMDL
