MODEL 1
REMARK VINA RESULT:    -3.230      0.000      0.000
REMARK INTER + INTRA:          -4.535
REMARK INTER:                  -4.363
REMARK INTRA:                  -0.171
REMARK UNBOUND:                -0.171
REMARK SMILES CCCCCCCC(=O)[O-]
REMARK SMILES IDX 5 1 6 2 7 3 8 4 9 5 10 6 4 7 3 8 2 9 1 10
REMARK H PARENT
REMARK Flexibility Score: inf
ROOT
ATOM      1  C   UNL     1      64.779  32.823  60.144  1.00  0.00     0.000 C 
ENDROOT
BRANCH   1   2
ATOM      2  C   UNL     1      65.102  31.510  60.877  1.00  0.00     0.006 C 
BRANCH   2   3
ATOM      3  C   UNL     1      64.291  30.328  60.332  1.00  0.00     0.053 C 
BRANCH   3   4
ATOM      4  C   UNL     1      64.721  29.031  60.946  1.00  0.00     0.041 C 
ATOM      5  O   UNL     1      65.945  28.763  61.071  1.00  0.00    -0.550 OA
ATOM      6  O   UNL     1      63.769  28.102  61.348  1.00  0.00    -0.550 OA
ENDBRANCH   3   4
ENDBRANCH   2   3
ENDBRANCH   1   2
BRANCH   1   7
ATOM      7  C   UNL     1      64.981  34.062  61.030  1.00  0.00     0.000 C 
BRANCH   7   8
ATOM      8  C   UNL     1      63.866  35.103  60.854  1.00  0.00    -0.000 C 
BRANCH   8   9
ATOM      9  C   UNL     1      63.871  36.112  62.008  1.00  0.00    -0.003 C 
ATOM     10  C   UNL     1      65.114  35.949  62.878  1.00  0.00     0.004 C 
ENDBRANCH   8   9
ENDBRANCH   7   8
ENDBRANCH   1   7
TORSDOF 6
ENDMDL
MODEL 2
REMARK VINA RESULT:    -3.208      1.062      1.432
REMARK INTER + INTRA:          -4.504
REMARK INTER:                  -4.225
REMARK INTRA:                  -0.279
REMARK UNBOUND:                -0.171
REMARK SMILES CCCCCCCC(=O)[O-]
REMARK SMILES IDX 5 1 6 2 7 3 8 4 9 5 10 6 4 7 3 8 2 9 1 10
REMARK H PARENT
REMARK Flexibility Score: inf
ROOT
ATOM      1  C   UNL     1      64.351  32.059  59.719  1.00  0.00     0.000 C 
ENDROOT
BRANCH   1   2
ATOM      2  C   UNL     1      65.141  31.415  60.872  1.00  0.00     0.006 C 
BRANCH   2   3
ATOM      3  C   UNL     1      64.635  30.006  61.204  1.00  0.00     0.053 C 
BRANCH   3   4
ATOM      4  C   UNL     1      65.677  28.964  60.932  1.00  0.00     0.041 C 
ATOM      5  O   UNL     1      66.884  29.295  60.795  1.00  0.00    -0.550 OA
ATOM      6  O   UNL     1      65.309  27.632  60.794  1.00  0.00    -0.550 OA
ENDBRANCH   3   4
ENDBRANCH   2   3
ENDBRANCH   1   2
BRANCH   1   7
ATOM      7  C   UNL     1      64.199  33.579  59.883  1.00  0.00     0.000 C 
BRANCH   7   8
ATOM      8  C   UNL     1      64.988  34.126  61.082  1.00  0.00    -0.000 C 
BRANCH   8   9
ATOM      9  C   UNL     1      64.384  35.444  61.580  1.00  0.00    -0.003 C 
ATOM     10  C   UNL     1      63.014  35.694  60.954  1.00  0.00     0.004 C 
ENDBRANCH   8   9
ENDBRANCH   7   8
ENDBRANCH   1   7
TORSDOF 6
ENDMDL
MODEL 3
REMARK VINA RESULT:    -3.124      3.448      5.623
REMARK INTER + INTRA:          -4.391
REMARK INTER:                  -4.086
REMARK INTRA:                  -0.305
REMARK UNBOUND:                -0.171
REMARK SMILES CCCCCCCC(=O)[O-]
REMARK SMILES IDX 5 1 6 2 7 3 8 4 9 5 10 6 4 7 3 8 2 9 1 10
REMARK H PARENT
REMARK Flexibility Score: inf
ROOT
ATOM      1  C   UNL     1      64.188  32.117  59.664  1.00  0.00     0.000 C 
ENDROOT
BRANCH   1   2
ATOM      2  C   UNL     1      64.021  33.640  59.803  1.00  0.00     0.006 C 
BRANCH   2   3
ATOM      3  C   UNL     1      65.032  34.246  60.786  1.00  0.00     0.053 C 
BRANCH   3   4
ATOM      4  C   UNL     1      64.393  35.265  61.679  1.00  0.00     0.041 C 
ATOM      5  O   UNL     1      63.261  35.738  61.395  1.00  0.00    -0.550 OA
ATOM      6  O   UNL     1      65.066  35.720  62.806  1.00  0.00    -0.550 OA
ENDBRANCH   3   4
ENDBRANCH   2   3
ENDBRANCH   1   2
BRANCH   1   7
ATOM      7  C   UNL     1      65.199  31.538  60.667  1.00  0.00     0.000 C 
BRANCH   7   8
ATOM      8  C   UNL     1      64.776  30.162  61.204  1.00  0.00    -0.000 C 
BRANCH   8   9
ATOM      9  C   UNL     1      63.453  29.712  60.575  1.00  0.00    -0.003 C 
ATOM     10  C   UNL     1      62.714  28.734  61.485  1.00  0.00     0.004 C 
ENDBRANCH   8   9
ENDBRANCH   7   8
ENDBRANCH   1   7
TORSDOF 6
ENDMDL
MODEL 4
REMARK VINA RESULT:    -3.040      1.363      1.853
REMARK INTER + INTRA:          -4.278
REMARK INTER:                  -3.990
REMARK INTRA:                  -0.288
REMARK UNBOUND:                -0.171
REMARK SMILES CCCCCCCC(=O)[O-]
REMARK SMILES IDX 5 1 6 2 7 3 8 4 9 5 10 6 4 7 3 8 2 9 1 10
REMARK H PARENT
REMARK Flexibility Score: inf
ROOT
ATOM      1  C   UNL     1      65.125  31.910  60.687  1.00  0.00     0.000 C 
ENDROOT
BRANCH   1   2
ATOM      2  C   UNL     1      65.009  30.415  60.345  1.00  0.00     0.006 C 
BRANCH   2   3
ATOM      3  C   UNL     1      64.343  29.614  61.472  1.00  0.00     0.053 C 
BRANCH   3   4
ATOM      4  C   UNL     1      63.003  29.086  61.059  1.00  0.00     0.041 C 
ATOM      5  O   UNL     1      62.225  29.798  60.370  1.00  0.00    -0.550 OA
ATOM      6  O   UNL     1      62.599  27.821  61.465  1.00  0.00    -0.550 OA
ENDBRANCH   3   4
ENDBRANCH   2   3
ENDBRANCH   1   2
BRANCH   1   7
ATOM      7  C   UNL     1      64.325  32.802  59.725  1.00  0.00     0.000 C 
BRANCH   7   8
ATOM      8  C   UNL     1      64.121  34.224  60.269  1.00  0.00    -0.000 C 
BRANCH   8   9
ATOM      9  C   UNL     1      65.052  34.495  61.456  1.00  0.00    -0.003 C 
ATOM     10  C   UNL     1      64.617  35.739  62.226  1.00  0.00     0.004 C 
ENDBRANCH   8   9
ENDBRANCH   7   8
ENDBRANCH   1   7
TORSDOF 6
ENDMDL
MODEL 5
REMARK VINA RESULT:    -3.039     13.912     15.223
REMARK INTER + INTRA:          -4.276
REMARK INTER:                  -3.854
REMARK INTRA:                  -0.422
REMARK UNBOUND:                -0.171
REMARK SMILES CCCCCCCC(=O)[O-]
REMARK SMILES IDX 5 1 6 2 7 3 8 4 9 5 10 6 4 7 3 8 2 9 1 10
REMARK H PARENT
REMARK Flexibility Score: inf
ROOT
ATOM      1  C   UNL     1      56.175  26.272  51.641  1.00  0.00     0.000 C 
ENDROOT
BRANCH   1   2
ATOM      2  C   UNL     1      57.640  26.333  51.175  1.00  0.00     0.006 C 
BRANCH   2   3
ATOM      3  C   UNL     1      57.926  25.349  50.033  1.00  0.00     0.053 C 
BRANCH   3   4
ATOM      4  C   UNL     1      59.383  25.009  49.947  1.00  0.00     0.041 C 
ATOM      5  O   UNL     1      60.207  25.853  49.507  1.00  0.00    -0.550 OA
ATOM      6  O   UNL     1      59.824  23.745  50.318  1.00  0.00    -0.550 OA
ENDBRANCH   3   4
ENDBRANCH   2   3
ENDBRANCH   1   2
BRANCH   1   7
ATOM      7  C   UNL     1      55.384  27.537  51.272  1.00  0.00     0.000 C 
BRANCH   7   8
ATOM      8  C   UNL     1      54.574  27.370  49.977  1.00  0.00    -0.000 C 
BRANCH   8   9
ATOM      9  C   UNL     1      54.127  25.916  49.794  1.00  0.00    -0.003 C 
ATOM     10  C   UNL     1      54.154  25.510  48.323  1.00  0.00     0.004 C 
ENDBRANCH   8   9
ENDBRANCH   7   8
ENDBRANCH   1   7
TORSDOF 6
ENDMDL
MODEL 6
REMARK VINA RESULT:    -3.037     13.597     14.865
REMARK INTER + INTRA:          -4.273
REMARK INTER:                  -4.048
REMARK INTRA:                  -0.225
REMARK UNBOUND:                -0.171
REMARK SMILES CCCCCCCC(=O)[O-]
REMARK SMILES IDX 5 1 6 2 7 3 8 4 9 5 10 6 4 7 3 8 2 9 1 10
REMARK H PARENT
REMARK Flexibility Score: inf
ROOT
ATOM      1  C   UNL     1      57.804  25.890  50.892  1.00  0.00     0.000 C 
ENDROOT
BRANCH   1   2
ATOM      2  C   UNL     1      58.814  25.163  49.988  1.00  0.00     0.006 C 
BRANCH   2   3
ATOM      3  C   UNL     1      60.062  26.012  49.715  1.00  0.00     0.053 C 
BRANCH   3   4
ATOM      4  C   UNL     1      61.307  25.347  50.217  1.00  0.00     0.041 C 
ATOM      5  O   UNL     1      61.229  24.373  51.012  1.00  0.00    -0.550 OA
ATOM      6  O   UNL     1      62.554  25.826  49.836  1.00  0.00    -0.550 OA
ENDBRANCH   3   4
ENDBRANCH   2   3
ENDBRANCH   1   2
BRANCH   1   7
ATOM      7  C   UNL     1      56.346  25.593  50.509  1.00  0.00     0.000 C 
BRANCH   7   8
ATOM      8  C   UNL     1      55.445  26.833  50.607  1.00  0.00    -0.000 C 
BRANCH   8   9
ATOM      9  C   UNL     1      54.362  26.810  49.523  1.00  0.00    -0.003 C 
ATOM     10  C   UNL     1      54.460  25.547  48.671  1.00  0.00     0.004 C 
ENDBRANCH   8   9
ENDBRANCH   7   8
ENDBRANCH   1   7
TORSDOF 6
ENDMDL
MODEL 7
REMARK VINA RESULT:    -3.007     13.904     14.839
REMARK INTER + INTRA:          -4.233
REMARK INTER:                  -3.918
REMARK INTRA:                  -0.315
REMARK UNBOUND:                -0.171
REMARK SMILES CCCCCCCC(=O)[O-]
REMARK SMILES IDX 5 1 6 2 7 3 8 4 9 5 10 6 4 7 3 8 2 9 1 10
REMARK H PARENT
REMARK Flexibility Score: inf
ROOT
ATOM      1  C   UNL     1      57.624  25.691  51.167  1.00  0.00     0.000 C 
ENDROOT
BRANCH   1   2
ATOM      2  C   UNL     1      58.244  25.266  49.824  1.00  0.00     0.006 C 
BRANCH   2   3
ATOM      3  C   UNL     1      59.724  25.657  49.720  1.00  0.00     0.053 C 
BRANCH   3   4
ATOM      4  C   UNL     1      60.621  24.570  50.229  1.00  0.00     0.041 C 
ATOM      5  O   UNL     1      61.663  24.858  50.874  1.00  0.00    -0.550 OA
ATOM      6  O   UNL     1      60.324  23.240  49.958  1.00  0.00    -0.550 OA
ENDBRANCH   3   4
ENDBRANCH   2   3
ENDBRANCH   1   2
BRANCH   1   7
ATOM      7  C   UNL     1      56.090  25.758  51.116  1.00  0.00     0.000 C 
BRANCH   7   8
ATOM      8  C   UNL     1      55.541  25.639  49.686  1.00  0.00    -0.000 C 
BRANCH   8   9
ATOM      9  C   UNL     1      54.395  26.630  49.455  1.00  0.00    -0.003 C 
ATOM     10  C   UNL     1      54.521  27.844  50.373  1.00  0.00     0.004 C 
ENDBRANCH   8   9
ENDBRANCH   7   8
ENDBRANCH   1   7
TORSDOF 6
ENDMDL
MODEL 8
REMARK VINA RESULT:    -2.875     12.454     14.269
REMARK INTER + INTRA:          -4.054
REMARK INTER:                  -3.765
REMARK INTRA:                  -0.290
REMARK UNBOUND:                -0.171
REMARK SMILES CCCCCCCC(=O)[O-]
REMARK SMILES IDX 5 1 6 2 7 3 8 4 9 5 10 6 4 7 3 8 2 9 1 10
REMARK H PARENT
REMARK Flexibility Score: inf
ROOT
ATOM      1  C   UNL     1      59.282  25.298  49.579  1.00  0.00     0.000 C 
ENDROOT
BRANCH   1   2
ATOM      2  C   UNL     1      60.603  25.919  50.065  1.00  0.00     0.006 C 
BRANCH   2   3
ATOM      3  C   UNL     1      60.920  27.238  49.349  1.00  0.00     0.053 C 
BRANCH   3   4
ATOM      4  C   UNL     1      60.731  28.418  50.251  1.00  0.00     0.041 C 
ATOM      5  O   UNL     1      59.917  28.359  51.211  1.00  0.00    -0.550 OA
ATOM      6  O   UNL     1      61.425  29.597  50.010  1.00  0.00    -0.550 OA
ENDBRANCH   3   4
ENDBRANCH   2   3
ENDBRANCH   1   2
BRANCH   1   7
ATOM      7  C   UNL     1      58.329  24.955  50.734  1.00  0.00     0.000 C 
BRANCH   7   8
ATOM      8  C   UNL     1      57.207  25.991  50.901  1.00  0.00    -0.000 C 
BRANCH   8   9
ATOM      9  C   UNL     1      56.023  25.669  49.982  1.00  0.00    -0.003 C 
ATOM     10  C   UNL     1      54.909  26.701  50.135  1.00  0.00     0.004 C 
ENDBRANCH   8   9
ENDBRANCH   7   8
ENDBRANCH   1   7
TORSDOF 6
ENDMDL
MODEL 9
REMARK VINA RESULT:    -2.856      3.342      5.708
REMARK INTER + INTRA:          -4.030
REMARK INTER:                  -3.797
REMARK INTRA:                  -0.233
REMARK UNBOUND:                -0.171
REMARK SMILES CCCCCCCC(=O)[O-]
REMARK SMILES IDX 5 1 6 2 7 3 8 4 9 5 10 6 4 7 3 8 2 9 1 10
REMARK H PARENT
REMARK Flexibility Score: inf
ROOT
ATOM      1  C   UNL     1      64.234  30.932  60.248  1.00  0.00     0.000 C 
ENDROOT
BRANCH   1   2
ATOM      2  C   UNL     1      65.067  32.157  60.664  1.00  0.00     0.006 C 
BRANCH   2   3
ATOM      3  C   UNL     1      64.565  33.449  60.007  1.00  0.00     0.053 C 
BRANCH   3   4
ATOM      4  C   UNL     1      64.462  34.569  60.996  1.00  0.00     0.041 C 
ATOM      5  O   UNL     1      65.407  34.797  61.798  1.00  0.00    -0.550 OA
ATOM      6  O   UNL     1      63.307  35.339  61.058  1.00  0.00    -0.550 OA
ENDBRANCH   3   4
ENDBRANCH   2   3
ENDBRANCH   1   2
BRANCH   1   7
ATOM      7  C   UNL     1      64.400  29.748  61.213  1.00  0.00     0.000 C 
BRANCH   7   8
ATOM      8  C   UNL     1      63.081  29.002  61.464  1.00  0.00    -0.000 C 
BRANCH   8   9
ATOM      9  C   UNL     1      62.010  29.426  60.452  1.00  0.00    -0.003 C 
ATOM     10  C   UNL     1      61.489  28.226  59.666  1.00  0.00     0.004 C 
ENDBRANCH   8   9
ENDBRANCH   7   8
ENDBRANCH   1   7
TORSDOF 6
ENDMDL
