MODEL 1
REMARK VINA RESULT:    -4.417      0.000      0.000
REMARK INTER + INTRA:          -4.417
REMARK INTER:                  -4.417
REMARK INTRA:                   0.000
REMARK UNBOUND:                 0.000
REMARK SMILES O=c1ccc2ccccc2o1
REMARK SMILES IDX 7 1 8 2 9 3 10 4 5 5 6 6 4 7 3 8 2 9 1 10 11 11
REMARK H PARENT
REMARK Flexibility Score: inf
ROOT
ATOM      1  C   UNL     1     -42.558 -34.096 -19.831  1.00  0.00     0.001 A 
ATOM      2  C   UNL     1     -43.422 -35.195 -19.784  1.00  0.00     0.004 A 
ATOM      3  C   UNL     1     -42.927 -36.488 -19.982  1.00  0.00     0.048 A 
ATOM      4  C   UNL     1     -41.564 -36.686 -20.228  1.00  0.00     0.138 A 
ATOM      5  C   UNL     1     -40.691 -35.576 -20.277  1.00  0.00     0.018 A 
ATOM      6  C   UNL     1     -41.194 -34.281 -20.077  1.00  0.00     0.012 A 
ATOM      7  C   UNL     1     -39.334 -35.804 -20.525  1.00  0.00     0.019 A 
ATOM      8  C   UNL     1     -38.886 -37.111 -20.717  1.00  0.00     0.094 A 
ATOM      9  C   UNL     1     -39.807 -38.162 -20.655  1.00  0.00     0.336 A 
ATOM     10  O   UNL     1     -39.420 -39.348 -20.825  1.00  0.00    -0.246 OA
ATOM     11  O   UNL     1     -41.093 -37.917 -20.417  1.00  0.00    -0.423 OA
ENDROOT
TORSDOF 0
ENDMDL
MODEL 2
REMARK VINA RESULT:    -4.263      1.670      3.825
REMARK INTER + INTRA:          -4.263
REMARK INTER:                  -4.263
REMARK INTRA:                   0.000
REMARK UNBOUND:                 0.000
REMARK SMILES O=c1ccc2ccccc2o1
REMARK SMILES IDX 7 1 8 2 9 3 10 4 5 5 6 6 4 7 3 8 2 9 1 10 11 11
REMARK H PARENT
REMARK Flexibility Score: inf
ROOT
ATOM      1  C   UNL     1     -39.105 -38.745 -20.984  1.00  0.00     0.001 A 
ATOM      2  C   UNL     1     -40.358 -39.359 -20.881  1.00  0.00     0.004 A 
ATOM      3  C   UNL     1     -41.493 -38.597 -20.585  1.00  0.00     0.048 A 
ATOM      4  C   UNL     1     -41.378 -37.216 -20.390  1.00  0.00     0.138 A 
ATOM      5  C   UNL     1     -40.112 -36.596 -20.493  1.00  0.00     0.018 A 
ATOM      6  C   UNL     1     -38.978 -37.365 -20.791  1.00  0.00     0.012 A 
ATOM      7  C   UNL     1     -40.028 -35.214 -20.293  1.00  0.00     0.019 A 
ATOM      8  C   UNL     1     -41.186 -34.495 -19.999  1.00  0.00     0.094 A 
ATOM      9  C   UNL     1     -42.406 -35.175 -19.912  1.00  0.00     0.336 A 
ATOM     10  O   UNL     1     -43.461 -34.543 -19.648  1.00  0.00    -0.246 OA
ATOM     11  O   UNL     1     -42.458 -36.491 -20.107  1.00  0.00    -0.423 OA
ENDROOT
TORSDOF 0
ENDMDL
MODEL 3
REMARK VINA RESULT:    -4.257      1.877      3.777
REMARK INTER + INTRA:          -4.257
REMARK INTER:                  -4.257
REMARK INTRA:                   0.000
REMARK UNBOUND:                 0.000
REMARK SMILES O=c1ccc2ccccc2o1
REMARK SMILES IDX 7 1 8 2 9 3 10 4 5 5 6 6 4 7 3 8 2 9 1 10 11 11
REMARK H PARENT
REMARK Flexibility Score: inf
ROOT
ATOM      1  C   UNL     1     -40.805 -40.494 -20.742  1.00  0.00     0.001 A 
ATOM      2  C   UNL     1     -42.113 -40.017 -20.596  1.00  0.00     0.004 A 
ATOM      3  C   UNL     1     -42.350 -38.646 -20.460  1.00  0.00     0.048 A 
ATOM      4  C   UNL     1     -41.279 -37.745 -20.471  1.00  0.00     0.138 A 
ATOM      5  C   UNL     1     -39.959 -38.226 -20.618  1.00  0.00     0.018 A 
ATOM      6  C   UNL     1     -39.727 -39.603 -20.754  1.00  0.00     0.012 A 
ATOM      7  C   UNL     1     -38.909 -37.303 -20.626  1.00  0.00     0.019 A 
ATOM      8  C   UNL     1     -39.193 -35.944 -20.487  1.00  0.00     0.094 A 
ATOM      9  C   UNL     1     -40.525 -35.539 -20.346  1.00  0.00     0.336 A 
ATOM     10  O   UNL     1     -40.801 -34.318 -20.220  1.00  0.00    -0.246 OA
ATOM     11  O   UNL     1     -41.506 -36.439 -20.342  1.00  0.00    -0.423 OA
ENDROOT
TORSDOF 0
ENDMDL
MODEL 4
REMARK VINA RESULT:    -4.158      1.769      4.355
REMARK INTER + INTRA:          -4.158
REMARK INTER:                  -4.158
REMARK INTRA:                   0.000
REMARK UNBOUND:                 0.000
REMARK SMILES O=c1ccc2ccccc2o1
REMARK SMILES IDX 7 1 8 2 9 3 10 4 5 5 6 6 4 7 3 8 2 9 1 10 11 11
REMARK H PARENT
REMARK Flexibility Score: inf
ROOT
ATOM      1  C   UNL     1     -39.530 -39.108 -20.950  1.00  0.00     0.001 A 
ATOM      2  C   UNL     1     -38.628 -38.039 -20.995  1.00  0.00     0.004 A 
ATOM      3  C   UNL     1     -39.071 -36.734 -20.759  1.00  0.00     0.048 A 
ATOM      4  C   UNL     1     -40.420 -36.493 -20.475  1.00  0.00     0.138 A 
ATOM      5  C   UNL     1     -41.331 -37.572 -20.430  1.00  0.00     0.018 A 
ATOM      6  C   UNL     1     -40.880 -38.879 -20.668  1.00  0.00     0.012 A 
ATOM      7  C   UNL     1     -42.673 -37.301 -20.145  1.00  0.00     0.019 A 
ATOM      8  C   UNL     1     -43.070 -35.983 -19.916  1.00  0.00     0.094 A 
ATOM      9  C   UNL     1     -42.113 -34.965 -19.977  1.00  0.00     0.336 A 
ATOM     10  O   UNL     1     -42.452 -33.770 -19.773  1.00  0.00    -0.246 OA
ATOM     11  O   UNL     1     -40.842 -35.251 -20.250  1.00  0.00    -0.423 OA
ENDROOT
TORSDOF 0
ENDMDL
MODEL 5
REMARK VINA RESULT:    -4.084      1.013      2.081
REMARK INTER + INTRA:          -4.084
REMARK INTER:                  -4.084
REMARK INTRA:                   0.000
REMARK UNBOUND:                 0.000
REMARK SMILES O=c1ccc2ccccc2o1
REMARK SMILES IDX 7 1 8 2 9 3 10 4 5 5 6 6 4 7 3 8 2 9 1 10 11 11
REMARK H PARENT
REMARK Flexibility Score: inf
ROOT
ATOM      1  C   UNL     1     -43.366 -34.801 -19.706  1.00  0.00     0.001 A 
ATOM      2  C   UNL     1     -42.249 -33.971 -19.851  1.00  0.00     0.004 A 
ATOM      3  C   UNL     1     -41.001 -34.518 -20.166  1.00  0.00     0.048 A 
ATOM      4  C   UNL     1     -40.867 -35.901 -20.338  1.00  0.00     0.138 A 
ATOM      5  C   UNL     1     -41.994 -36.739 -20.192  1.00  0.00     0.018 A 
ATOM      6  C   UNL     1     -43.243 -36.184 -19.876  1.00  0.00     0.012 A 
ATOM      7  C   UNL     1     -41.829 -38.116 -20.370  1.00  0.00     0.019 A 
ATOM      8  C   UNL     1     -40.566 -38.618 -20.683  1.00  0.00     0.094 A 
ATOM      9  C   UNL     1     -39.494 -37.728 -20.813  1.00  0.00     0.336 A 
ATOM     10  O   UNL     1     -38.347 -38.163 -21.095  1.00  0.00    -0.246 OA
ATOM     11  O   UNL     1     -39.679 -36.422 -20.638  1.00  0.00    -0.423 OA
ENDROOT
TORSDOF 0
ENDMDL
MODEL 6
REMARK VINA RESULT:    -4.084      1.703      3.128
REMARK INTER + INTRA:          -4.084
REMARK INTER:                  -4.084
REMARK INTRA:                   0.000
REMARK UNBOUND:                 0.000
REMARK SMILES O=c1ccc2ccccc2o1
REMARK SMILES IDX 7 1 8 2 9 3 10 4 5 5 6 6 4 7 3 8 2 9 1 10 11 11
REMARK H PARENT
REMARK Flexibility Score: inf
ROOT
ATOM      1  C   UNL     1     -39.079 -35.958 -20.620  1.00  0.00     0.001 A 
ATOM      2  C   UNL     1     -40.373 -35.506 -20.340  1.00  0.00     0.004 A 
ATOM      3  C   UNL     1     -41.427 -36.417 -20.221  1.00  0.00     0.048 A 
ATOM      4  C   UNL     1     -41.189 -37.787 -20.381  1.00  0.00     0.138 A 
ATOM      5  C   UNL     1     -39.883 -38.244 -20.665  1.00  0.00     0.018 A 
ATOM      6  C   UNL     1     -38.830 -37.325 -20.783  1.00  0.00     0.012 A 
ATOM      7  C   UNL     1     -39.676 -39.618 -20.820  1.00  0.00     0.019 A 
ATOM      8  C   UNL     1     -40.757 -40.490 -20.692  1.00  0.00     0.094 A 
ATOM      9  C   UNL     1     -42.023 -39.967 -20.411  1.00  0.00     0.336 A 
ATOM     10  O   UNL     1     -43.011 -40.738 -20.292  1.00  0.00    -0.246 OA
ATOM     11  O   UNL     1     -42.193 -38.654 -20.268  1.00  0.00    -0.423 OA
ENDROOT
TORSDOF 0
ENDMDL
MODEL 7
REMARK VINA RESULT:    -4.059      1.985      3.863
REMARK INTER + INTRA:          -4.059
REMARK INTER:                  -4.059
REMARK INTRA:                   0.000
REMARK UNBOUND:                 0.000
REMARK SMILES O=c1ccc2ccccc2o1
REMARK SMILES IDX 7 1 8 2 9 3 10 4 5 5 6 6 4 7 3 8 2 9 1 10 11 11
REMARK H PARENT
REMARK Flexibility Score: inf
ROOT
ATOM      1  C   UNL     1     -42.074 -40.032 -20.887  1.00  0.00     0.001 A 
ATOM      2  C   UNL     1     -40.746 -40.462 -20.982  1.00  0.00     0.004 A 
ATOM      3  C   UNL     1     -39.697 -39.546 -20.850  1.00  0.00     0.048 A 
ATOM      4  C   UNL     1     -39.974 -38.194 -20.622  1.00  0.00     0.138 A 
ATOM      5  C   UNL     1     -41.315 -37.758 -20.527  1.00  0.00     0.018 A 
ATOM      6  C   UNL     1     -42.362 -38.683 -20.660  1.00  0.00     0.012 A 
ATOM      7  C   UNL     1     -41.561 -36.401 -20.298  1.00  0.00     0.019 A 
ATOM      8  C   UNL     1     -40.484 -35.523 -20.173  1.00  0.00     0.094 A 
ATOM      9  C   UNL     1     -39.182 -36.025 -20.279  1.00  0.00     0.336 A 
ATOM     10  O   UNL     1     -38.199 -35.248 -20.169  1.00  0.00    -0.246 OA
ATOM     11  O   UNL     1     -38.976 -37.322 -20.497  1.00  0.00    -0.423 OA
ENDROOT
TORSDOF 0
ENDMDL
MODEL 8
REMARK VINA RESULT:    -3.922      1.495      3.719
REMARK INTER + INTRA:          -3.922
REMARK INTER:                  -3.922
REMARK INTRA:                   0.000
REMARK UNBOUND:                 0.000
REMARK SMILES O=c1ccc2ccccc2o1
REMARK SMILES IDX 7 1 8 2 9 3 10 4 5 5 6 6 4 7 3 8 2 9 1 10 11 11
REMARK H PARENT
REMARK Flexibility Score: inf
ROOT
ATOM      1  C   UNL     1     -38.847 -36.289 -20.424  1.00  0.00     0.001 A 
ATOM      2  C   UNL     1     -39.266 -37.610 -20.618  1.00  0.00     0.004 A 
ATOM      3  C   UNL     1     -40.624 -37.934 -20.552  1.00  0.00     0.048 A 
ATOM      4  C   UNL     1     -41.571 -36.937 -20.293  1.00  0.00     0.138 A 
ATOM      5  C   UNL     1     -41.149 -35.602 -20.097  1.00  0.00     0.018 A 
ATOM      6  C   UNL     1     -39.784 -35.283 -20.164  1.00  0.00     0.012 A 
ATOM      7  C   UNL     1     -42.117 -34.627 -19.840  1.00  0.00     0.019 A 
ATOM      8  C   UNL     1     -43.461 -34.997 -19.783  1.00  0.00     0.094 A 
ATOM      9  C   UNL     1     -43.806 -36.337 -19.987  1.00  0.00     0.336 A 
ATOM     10  O   UNL     1     -45.014 -36.689 -19.939  1.00  0.00    -0.246 OA
ATOM     11  O   UNL     1     -42.864 -37.246 -20.230  1.00  0.00    -0.423 OA
ENDROOT
TORSDOF 0
ENDMDL
MODEL 9
REMARK VINA RESULT:    -3.880      1.355      2.804
REMARK INTER + INTRA:          -3.880
REMARK INTER:                  -3.880
REMARK INTRA:                   0.000
REMARK UNBOUND:                 0.000
REMARK SMILES O=c1ccc2ccccc2o1
REMARK SMILES IDX 7 1 8 2 9 3 10 4 5 5 6 6 4 7 3 8 2 9 1 10 11 11
REMARK H PARENT
REMARK Flexibility Score: inf
ROOT
ATOM      1  C   UNL     1     -40.766 -34.959 -20.139  1.00  0.00     0.001 A 
ATOM      2  C   UNL     1     -39.414 -35.319 -20.126  1.00  0.00     0.004 A 
ATOM      3  C   UNL     1     -39.041 -36.662 -20.246  1.00  0.00     0.048 A 
ATOM      4  C   UNL     1     -40.022 -37.651 -20.381  1.00  0.00     0.138 A 
ATOM      5  C   UNL     1     -41.388 -37.288 -20.395  1.00  0.00     0.018 A 
ATOM      6  C   UNL     1     -41.754 -35.939 -20.274  1.00  0.00     0.012 A 
ATOM      7  C   UNL     1     -42.345 -38.298 -20.531  1.00  0.00     0.019 A 
ATOM      8  C   UNL     1     -41.928 -39.624 -20.648  1.00  0.00     0.094 A 
ATOM      9  C   UNL     1     -40.558 -39.910 -20.626  1.00  0.00     0.336 A 
ATOM     10  O   UNL     1     -40.163 -41.100 -20.731  1.00  0.00    -0.246 OA
ATOM     11  O   UNL     1     -39.668 -38.929 -20.496  1.00  0.00    -0.423 OA
ENDROOT
TORSDOF 0
ENDMDL
