MODEL 1
REMARK VINA RESULT:    -4.995      0.000      0.000
REMARK INTER + INTRA:          -6.149
REMARK INTER:                  -5.871
REMARK INTRA:                  -0.278
REMARK UNBOUND:                -0.278
REMARK SMILES O=C([O-])C=Cc1ccc(O)c(O)c1
REMARK SMILES IDX 6 1 13 2 7 3 11 4 8 5 9 6 5 7 4 8 2 9 1 10 3 11 12 12 10 14
REMARK H PARENT 12 13 10 15
REMARK Flexibility Score: inf
ROOT
ATOM      1  C   UNL     1       4.734  27.434  58.887  1.00  0.00    -0.022 A 
ATOM      2  C   UNL     1       5.704  28.255  58.294  1.00  0.00     0.058 A 
ATOM      3  C   UNL     1       3.375  27.754  58.733  1.00  0.00     0.012 A 
ATOM      4  C   UNL     1       5.322  29.355  57.512  1.00  0.00     0.157 A 
ATOM      5  C   UNL     1       2.993  28.848  57.953  1.00  0.00     0.051 A 
ATOM      6  C   UNL     1       3.964  29.649  57.337  1.00  0.00     0.157 A 
ENDROOT
BRANCH   1   7
ATOM      7  C   UNL     1       5.163  26.314  59.750  1.00  0.00     0.010 C 
ATOM      8  C   UNL     1       5.385  26.389  61.071  1.00  0.00     0.025 C 
BRANCH   8   9
ATOM      9  C   UNL     1       5.073  27.545  61.934  1.00  0.00     0.064 C 
ATOM     10  O   UNL     1       5.953  28.390  62.246  1.00  0.00    -0.545 OA
ATOM     11  O   UNL     1       3.765  27.743  62.354  1.00  0.00    -0.545 OA
ENDBRANCH   8   9
ENDBRANCH   1   7
BRANCH   4  12
ATOM     12  O   UNL     1       6.287  30.158  56.907  1.00  0.00    -0.504 OA
ATOM     13  H   UNL     1       6.035  30.996  56.396  1.00  0.00     0.293 HD
ENDBRANCH   4  12
BRANCH   6  14
ATOM     14  O   UNL     1       3.588  30.741  56.557  1.00  0.00    -0.504 OA
ATOM     15  H   UNL     1       4.263  31.252  56.000  1.00  0.00     0.293 HD
ENDBRANCH   6  14
TORSDOF 4
ENDMDL
MODEL 2
REMARK VINA RESULT:    -4.992      1.240      2.161
REMARK INTER + INTRA:          -6.146
REMARK INTER:                  -5.894
REMARK INTRA:                  -0.252
REMARK UNBOUND:                -0.278
REMARK SMILES O=C([O-])C=Cc1ccc(O)c(O)c1
REMARK SMILES IDX 6 1 13 2 7 3 11 4 8 5 9 6 5 7 4 8 2 9 1 10 3 11 12 12 10 14
REMARK H PARENT 12 13 10 15
REMARK Flexibility Score: inf
ROOT
ATOM      1  C   UNL     1       5.246  27.997  58.497  1.00  0.00    -0.022 A 
ATOM      2  C   UNL     1       3.935  27.662  58.132  1.00  0.00     0.058 A 
ATOM      3  C   UNL     1       5.782  29.229  58.082  1.00  0.00     0.012 A 
ATOM      4  C   UNL     1       3.146  28.565  57.406  1.00  0.00     0.157 A 
ATOM      5  C   UNL     1       4.996  30.130  57.359  1.00  0.00     0.051 A 
ATOM      6  C   UNL     1       3.676  29.804  57.022  1.00  0.00     0.157 A 
ENDROOT
BRANCH   1   7
ATOM      7  C   UNL     1       6.074  27.007  59.216  1.00  0.00     0.010 C 
ATOM      8  C   UNL     1       6.097  26.830  60.546  1.00  0.00     0.025 C 
BRANCH   8   9
ATOM      9  C   UNL     1       5.178  27.458  61.515  1.00  0.00     0.064 C 
ATOM     10  O   UNL     1       4.178  26.840  61.970  1.00  0.00    -0.545 OA
ATOM     11  O   UNL     1       5.460  28.732  61.987  1.00  0.00    -0.545 OA
ENDBRANCH   8   9
ENDBRANCH   1   7
BRANCH   4  12
ATOM     12  O   UNL     1       1.836  28.238  57.061  1.00  0.00    -0.504 OA
ATOM     13  H   UNL     1       1.045  28.577  57.597  1.00  0.00     0.293 HD
ENDBRANCH   4  12
BRANCH   6  14
ATOM     14  O   UNL     1       2.889  30.701  56.303  1.00  0.00    -0.504 OA
ATOM     15  H   UNL     1       3.294  31.496  55.823  1.00  0.00     0.293 HD
ENDBRANCH   6  14
TORSDOF 4
ENDMDL
MODEL 3
REMARK VINA RESULT:    -4.542      1.132      2.268
REMARK INTER + INTRA:          -5.617
REMARK INTER:                  -5.407
REMARK INTRA:                  -0.209
REMARK UNBOUND:                -0.278
REMARK SMILES O=C([O-])C=Cc1ccc(O)c(O)c1
REMARK SMILES IDX 6 1 13 2 7 3 11 4 8 5 9 6 5 7 4 8 2 9 1 10 3 11 12 12 10 14
REMARK H PARENT 12 13 10 15
REMARK Flexibility Score: inf
ROOT
ATOM      1  C   UNL     1       3.712  27.765  59.310  1.00  0.00    -0.022 A 
ATOM      2  C   UNL     1       3.190  28.772  58.487  1.00  0.00     0.058 A 
ATOM      3  C   UNL     1       5.090  27.494  59.276  1.00  0.00     0.012 A 
ATOM      4  C   UNL     1       4.039  29.538  57.675  1.00  0.00     0.157 A 
ATOM      5  C   UNL     1       5.938  28.256  58.469  1.00  0.00     0.051 A 
ATOM      6  C   UNL     1       5.417  29.282  57.670  1.00  0.00     0.157 A 
ENDROOT
BRANCH   1   7
ATOM      7  C   UNL     1       2.790  26.937  60.116  1.00  0.00     0.010 C 
ATOM      8  C   UNL     1       2.744  26.904  61.457  1.00  0.00     0.025 C 
BRANCH   8   9
ATOM      9  C   UNL     1       3.471  27.809  62.368  1.00  0.00     0.064 C 
ATOM     10  O   UNL     1       3.027  28.952  62.654  1.00  0.00    -0.545 OA
ATOM     11  O   UNL     1       4.637  27.363  62.976  1.00  0.00    -0.545 OA
ENDBRANCH   8   9
ENDBRANCH   1   7
BRANCH   4  12
ATOM     12  O   UNL     1       3.522  30.552  56.872  1.00  0.00    -0.504 OA
ATOM     13  H   UNL     1       3.648  30.550  55.867  1.00  0.00     0.293 HD
ENDBRANCH   4  12
BRANCH   6  14
ATOM     14  O   UNL     1       6.259  30.047  56.864  1.00  0.00    -0.504 OA
ATOM     15  H   UNL     1       6.207  30.005  55.853  1.00  0.00     0.293 HD
ENDBRANCH   6  14
TORSDOF 4
ENDMDL
MODEL 4
REMARK VINA RESULT:    -4.517      2.222      2.643
REMARK INTER + INTRA:          -5.587
REMARK INTER:                  -5.396
REMARK INTRA:                  -0.192
REMARK UNBOUND:                -0.278
REMARK SMILES O=C([O-])C=Cc1ccc(O)c(O)c1
REMARK SMILES IDX 6 1 13 2 7 3 11 4 8 5 9 6 5 7 4 8 2 9 1 10 3 11 12 12 10 14
REMARK H PARENT 12 13 10 15
REMARK Flexibility Score: inf
ROOT
ATOM      1  C   UNL     1       5.073  27.149  59.550  1.00  0.00    -0.022 A 
ATOM      2  C   UNL     1       4.859  28.383  60.181  1.00  0.00     0.058 A 
ATOM      3  C   UNL     1       4.754  27.008  58.189  1.00  0.00     0.012 A 
ATOM      4  C   UNL     1       4.379  29.480  59.451  1.00  0.00     0.157 A 
ATOM      5  C   UNL     1       4.278  28.101  57.461  1.00  0.00     0.051 A 
ATOM      6  C   UNL     1       4.092  29.340  58.087  1.00  0.00     0.157 A 
ENDROOT
BRANCH   1   7
ATOM      7  C   UNL     1       5.528  25.995  60.353  1.00  0.00     0.010 C 
ATOM      8  C   UNL     1       6.808  25.674  60.600  1.00  0.00     0.025 C 
BRANCH   8   9
ATOM      9  C   UNL     1       7.984  26.505  60.274  1.00  0.00     0.064 C 
ATOM     10  O   UNL     1       8.331  26.714  59.081  1.00  0.00    -0.545 OA
ATOM     11  O   UNL     1       8.681  27.124  61.301  1.00  0.00    -0.545 OA
ENDBRANCH   8   9
ENDBRANCH   1   7
BRANCH   4  12
ATOM     12  O   UNL     1       4.185  30.711  60.075  1.00  0.00    -0.504 OA
ATOM     13  H   UNL     1       3.308  31.213  59.997  1.00  0.00     0.293 HD
ENDBRANCH   4  12
BRANCH   6  14
ATOM     14  O   UNL     1       3.619  30.433  57.364  1.00  0.00    -0.504 OA
ATOM     15  H   UNL     1       3.464  30.380  56.364  1.00  0.00     0.293 HD
ENDBRANCH   6  14
TORSDOF 4
ENDMDL
MODEL 5
REMARK VINA RESULT:    -4.511      2.370      4.254
REMARK INTER + INTRA:          -5.580
REMARK INTER:                  -5.295
REMARK INTRA:                  -0.284
REMARK UNBOUND:                -0.278
REMARK SMILES O=C([O-])C=Cc1ccc(O)c(O)c1
REMARK SMILES IDX 6 1 13 2 7 3 11 4 8 5 9 6 5 7 4 8 2 9 1 10 3 11 12 12 10 14
REMARK H PARENT 12 13 10 15
REMARK Flexibility Score: inf
ROOT
ATOM      1  C   UNL     1       5.198  27.329  58.702  1.00  0.00    -0.022 A 
ATOM      2  C   UNL     1       6.564  27.630  58.609  1.00  0.00     0.058 A 
ATOM      3  C   UNL     1       4.783  26.256  59.508  1.00  0.00     0.012 A 
ATOM      4  C   UNL     1       7.504  26.901  59.353  1.00  0.00     0.157 A 
ATOM      5  C   UNL     1       5.718  25.530  60.250  1.00  0.00     0.051 A 
ATOM      6  C   UNL     1       7.079  25.852  60.178  1.00  0.00     0.157 A 
ENDROOT
BRANCH   1   7
ATOM      7  C   UNL     1       4.234  28.077  57.868  1.00  0.00     0.010 C 
ATOM      8  C   UNL     1       3.423  29.054  58.302  1.00  0.00     0.025 C 
BRANCH   8   9
ATOM      9  C   UNL     1       3.467  29.683  59.636  1.00  0.00     0.064 C 
ATOM     10  O   UNL     1       2.658  29.358  60.545  1.00  0.00    -0.545 OA
ATOM     11  O   UNL     1       4.467  30.604  59.917  1.00  0.00    -0.545 OA
ENDBRANCH   8   9
ENDBRANCH   1   7
BRANCH   4  12
ATOM     12  O   UNL     1       8.860  27.213  59.275  1.00  0.00    -0.504 OA
ATOM     13  H   UNL     1       9.362  27.600  60.065  1.00  0.00     0.293 HD
ENDBRANCH   4  12
BRANCH   6  14
ATOM     14  O   UNL     1       8.015  25.132  60.918  1.00  0.00    -0.504 OA
ATOM     15  H   UNL     1       8.962  24.993  60.584  1.00  0.00     0.293 HD
ENDBRANCH   6  14
TORSDOF 4
ENDMDL
MODEL 6
REMARK VINA RESULT:    -4.227      1.626      1.953
REMARK INTER + INTRA:          -5.246
REMARK INTER:                  -5.030
REMARK INTRA:                  -0.216
REMARK UNBOUND:                -0.278
REMARK SMILES O=C([O-])C=Cc1ccc(O)c(O)c1
REMARK SMILES IDX 6 1 13 2 7 3 11 4 8 5 9 6 5 7 4 8 2 9 1 10 3 11 12 12 10 14
REMARK H PARENT 12 13 10 15
REMARK Flexibility Score: inf
ROOT
ATOM      1  C   UNL     1       5.267  27.306  59.405  1.00  0.00    -0.022 A 
ATOM      2  C   UNL     1       5.233  28.611  59.914  1.00  0.00     0.058 A 
ATOM      3  C   UNL     1       4.692  27.040  58.151  1.00  0.00     0.012 A 
ATOM      4  C   UNL     1       4.676  29.654  59.158  1.00  0.00     0.157 A 
ATOM      5  C   UNL     1       4.138  28.077  57.396  1.00  0.00     0.051 A 
ATOM      6  C   UNL     1       4.132  29.386  57.895  1.00  0.00     0.157 A 
ENDROOT
BRANCH   1   7
ATOM      7  C   UNL     1       5.811  26.216  60.243  1.00  0.00     0.010 C 
ATOM      8  C   UNL     1       5.205  25.682  61.314  1.00  0.00     0.025 C 
BRANCH   8   9
ATOM      9  C   UNL     1       3.820  25.952  61.746  1.00  0.00     0.064 C 
ATOM     10  O   UNL     1       2.833  25.473  61.128  1.00  0.00    -0.545 OA
ATOM     11  O   UNL     1       3.603  26.694  62.899  1.00  0.00    -0.545 OA
ENDBRANCH   8   9
ENDBRANCH   1   7
BRANCH   4  12
ATOM     12  O   UNL     1       4.659  30.955  59.656  1.00  0.00    -0.504 OA
ATOM     13  H   UNL     1       4.457  31.749  59.060  1.00  0.00     0.293 HD
ENDBRANCH   4  12
BRANCH   6  14
ATOM     14  O   UNL     1       3.582  30.425  57.145  1.00  0.00    -0.504 OA
ATOM     15  H   UNL     1       3.645  31.389  57.449  1.00  0.00     0.293 HD
ENDBRANCH   6  14
TORSDOF 4
ENDMDL
MODEL 7
REMARK VINA RESULT:    -4.170      2.123      4.856
REMARK INTER + INTRA:          -5.179
REMARK INTER:                  -4.913
REMARK INTRA:                  -0.266
REMARK UNBOUND:                -0.278
REMARK SMILES O=C([O-])C=Cc1ccc(O)c(O)c1
REMARK SMILES IDX 6 1 13 2 7 3 11 4 8 5 9 6 5 7 4 8 2 9 1 10 3 11 12 12 10 14
REMARK H PARENT 12 13 10 15
REMARK Flexibility Score: inf
ROOT
ATOM      1  C   UNL     1       5.594  27.007  59.532  1.00  0.00    -0.022 A 
ATOM      2  C   UNL     1       6.864  26.487  59.244  1.00  0.00     0.058 A 
ATOM      3  C   UNL     1       5.267  27.328  60.860  1.00  0.00     0.012 A 
ATOM      4  C   UNL     1       7.817  26.335  60.263  1.00  0.00     0.157 A 
ATOM      5  C   UNL     1       6.215  27.179  61.875  1.00  0.00     0.051 A 
ATOM      6  C   UNL     1       7.493  26.686  61.580  1.00  0.00     0.157 A 
ENDROOT
BRANCH   1   7
ATOM      7  C   UNL     1       4.591  27.107  58.451  1.00  0.00     0.010 C 
ATOM      8  C   UNL     1       4.265  28.231  57.793  1.00  0.00     0.025 C 
BRANCH   8   9
ATOM      9  C   UNL     1       4.967  29.525  57.896  1.00  0.00     0.064 C 
ATOM     10  O   UNL     1       5.742  29.928  56.988  1.00  0.00    -0.545 OA
ATOM     11  O   UNL     1       4.714  30.347  58.986  1.00  0.00    -0.545 OA
ENDBRANCH   8   9
ENDBRANCH   1   7
BRANCH   4  12
ATOM     12  O   UNL     1       9.085  25.835  59.972  1.00  0.00    -0.504 OA
ATOM     13  H   UNL     1       9.825  25.831  60.665  1.00  0.00     0.293 HD
ENDBRANCH   4  12
BRANCH   6  14
ATOM     14  O   UNL     1       8.443  26.537  62.588  1.00  0.00    -0.504 OA
ATOM     15  H   UNL     1       8.487  27.176  63.373  1.00  0.00     0.293 HD
ENDBRANCH   6  14
TORSDOF 4
ENDMDL
MODEL 8
REMARK VINA RESULT:    -4.089      2.047      2.633
REMARK INTER + INTRA:          -5.084
REMARK INTER:                  -4.827
REMARK INTRA:                  -0.257
REMARK UNBOUND:                -0.278
REMARK SMILES O=C([O-])C=Cc1ccc(O)c(O)c1
REMARK SMILES IDX 6 1 13 2 7 3 11 4 8 5 9 6 5 7 4 8 2 9 1 10 3 11 12 12 10 14
REMARK H PARENT 12 13 10 15
REMARK Flexibility Score: inf
ROOT
ATOM      1  C   UNL     1       5.412  27.689  60.311  1.00  0.00    -0.022 A 
ATOM      2  C   UNL     1       4.437  28.686  60.448  1.00  0.00     0.058 A 
ATOM      3  C   UNL     1       5.405  26.873  59.167  1.00  0.00     0.012 A 
ATOM      4  C   UNL     1       3.493  28.902  59.433  1.00  0.00     0.157 A 
ATOM      5  C   UNL     1       4.468  27.088  58.154  1.00  0.00     0.051 A 
ATOM      6  C   UNL     1       3.512  28.104  58.282  1.00  0.00     0.157 A 
ENDROOT
BRANCH   1   7
ATOM      7  C   UNL     1       6.361  27.447  61.417  1.00  0.00     0.010 C 
ATOM      8  C   UNL     1       6.089  26.764  62.540  1.00  0.00     0.025 C 
BRANCH   8   9
ATOM      9  C   UNL     1       4.864  25.982  62.799  1.00  0.00     0.064 C 
ATOM     10  O   UNL     1       3.818  26.525  63.245  1.00  0.00    -0.545 OA
ATOM     11  O   UNL     1       4.844  24.631  62.480  1.00  0.00    -0.545 OA
ENDBRANCH   8   9
ENDBRANCH   1   7
BRANCH   4  12
ATOM     12  O   UNL     1       2.535  29.906  59.562  1.00  0.00    -0.504 OA
ATOM     13  H   UNL     1       2.110  30.341  58.752  1.00  0.00     0.293 HD
ENDBRANCH   4  12
BRANCH   6  14
ATOM     14  O   UNL     1       2.575  28.323  57.273  1.00  0.00    -0.504 OA
ATOM     15  H   UNL     1       2.840  28.731  56.384  1.00  0.00     0.293 HD
ENDBRANCH   6  14
TORSDOF 4
ENDMDL
MODEL 9
REMARK VINA RESULT:    -4.067      2.037      4.865
REMARK INTER + INTRA:          -5.058
REMARK INTER:                  -4.797
REMARK INTRA:                  -0.261
REMARK UNBOUND:                -0.278
REMARK SMILES O=C([O-])C=Cc1ccc(O)c(O)c1
REMARK SMILES IDX 6 1 13 2 7 3 11 4 8 5 9 6 5 7 4 8 2 9 1 10 3 11 12 12 10 14
REMARK H PARENT 12 13 10 15
REMARK Flexibility Score: inf
ROOT
ATOM      1  C   UNL     1       5.336  26.895  59.081  1.00  0.00    -0.022 A 
ATOM      2  C   UNL     1       4.747  26.197  60.144  1.00  0.00     0.058 A 
ATOM      3  C   UNL     1       6.713  27.174  59.120  1.00  0.00     0.012 A 
ATOM      4  C   UNL     1       5.530  25.735  61.212  1.00  0.00     0.157 A 
ATOM      5  C   UNL     1       7.494  26.713  60.182  1.00  0.00     0.051 A 
ATOM      6  C   UNL     1       6.907  25.990  61.229  1.00  0.00     0.157 A 
ENDROOT
BRANCH   1   7
ATOM      7  C   UNL     1       4.481  27.416  57.994  1.00  0.00     0.010 C 
ATOM      8  C   UNL     1       3.746  28.538  58.052  1.00  0.00     0.025 C 
BRANCH   8   9
ATOM      9  C   UNL     1       3.793  29.546  59.130  1.00  0.00     0.064 C 
ATOM     10  O   UNL     1       4.734  30.379  59.211  1.00  0.00    -0.545 OA
ATOM     11  O   UNL     1       2.742  29.619  60.034  1.00  0.00    -0.545 OA
ENDBRANCH   8   9
ENDBRANCH   1   7
BRANCH   4  12
ATOM     12  O   UNL     1       4.946  25.024  62.259  1.00  0.00    -0.504 OA
ATOM     13  H   UNL     1       4.110  24.468  62.122  1.00  0.00     0.293 HD
ENDBRANCH   4  12
BRANCH   6  14
ATOM     14  O   UNL     1       7.683  25.527  62.290  1.00  0.00    -0.504 OA
ATOM     15  H   UNL     1       7.392  24.739  62.855  1.00  0.00     0.293 HD
ENDBRANCH   6  14
TORSDOF 4
ENDMDL
