MODEL 1
REMARK VINA RESULT:    -7.893      0.000      0.000
REMARK INTER + INTRA:          -9.557
REMARK INTER:                  -9.277
REMARK INTRA:                  -0.280
REMARK UNBOUND:                -0.280
REMARK SMILES O=c1cc(-c2ccc(O)c(O)c2)oc2cc(O)cc(O)c12
REMARK SMILES IDX 4 1 3 2 2 3 1 4 21 5 19 6 18 7 16 8 15 9 14 10 13 11 5 12
REMARK SMILES IDX 6 13 7 14 8 15 12 16 10 17 9 18 11 20 20 22 17 24
REMARK H PARENT 9 19 11 21 20 23 17 25
REMARK Flexibility Score: inf
ROOT
ATOM      1  C   UNL     1      13.922  -4.277  16.463  1.00  0.00     0.138 A 
ATOM      2  C   UNL     1      14.257  -2.921  16.345  1.00  0.00     0.100 A 
ATOM      3  C   UNL     1      15.452  -2.558  15.722  1.00  0.00     0.197 A 
ATOM      4  O   UNL     1      15.698  -1.332  15.582  1.00  0.00    -0.289 OA
ATOM      5  C   UNL     1      16.333  -3.559  15.248  1.00  0.00     0.107 A 
ATOM      6  C   UNL     1      17.594  -3.309  14.627  1.00  0.00     0.134 A 
ATOM      7  C   UNL     1      18.332  -4.380  14.109  1.00  0.00     0.093 A 
ATOM      8  C   UNL     1      17.883  -5.696  14.240  1.00  0.00     0.123 A 
ATOM      9  C   UNL     1      16.679  -5.956  14.888  1.00  0.00     0.094 A 
ATOM     10  C   UNL     1      15.902  -4.907  15.385  1.00  0.00     0.146 A 
ATOM     11  O   UNL     1      14.750  -5.198  15.981  1.00  0.00    -0.456 OA
ENDROOT
BRANCH   1  12
ATOM     12  C   UNL     1      12.665  -4.722  17.119  1.00  0.00     0.021 A 
ATOM     13  C   UNL     1      11.401  -4.314  16.649  1.00  0.00     0.016 A 
ATOM     14  C   UNL     1      10.236  -4.756  17.280  1.00  0.00     0.051 A 
ATOM     15  C   UNL     1      10.310  -5.616  18.383  1.00  0.00     0.157 A 
ATOM     16  C   UNL     1      12.731  -5.596  18.218  1.00  0.00     0.062 A 
ATOM     17  C   UNL     1      11.565  -6.040  18.851  1.00  0.00     0.158 A 
BRANCH  15  18
ATOM     18  O   UNL     1       9.145  -6.054  19.010  1.00  0.00    -0.504 OA
ATOM     19  H   UNL     1       8.832  -5.656  19.887  1.00  0.00     0.293 HD
ENDBRANCH  15  18
BRANCH  17  20
ATOM     20  O   UNL     1      11.673  -6.899  19.945  1.00  0.00    -0.504 OA
ATOM     21  H   UNL     1      12.553  -7.326  20.209  1.00  0.00     0.293 HD
ENDBRANCH  17  20
ENDBRANCH   1  12
BRANCH   6  22
ATOM     22  O   UNL     1      18.173  -2.041  14.514  1.00  0.00    -0.507 OA
ATOM     23  H   UNL     1      18.312  -1.543  13.649  1.00  0.00     0.293 HD
ENDBRANCH   6  22
BRANCH   8  24
ATOM     24  O   UNL     1      18.634  -6.756  13.735  1.00  0.00    -0.508 OA
ATOM     25  H   UNL     1      19.583  -6.929  14.046  1.00  0.00     0.293 HD
ENDBRANCH   8  24
TORSDOF 5
ENDMDL
MODEL 2
REMARK VINA RESULT:    -7.367      3.560      5.991
REMARK INTER + INTRA:          -8.939
REMARK INTER:                  -8.643
REMARK INTRA:                  -0.296
REMARK UNBOUND:                -0.280
REMARK SMILES O=c1cc(-c2ccc(O)c(O)c2)oc2cc(O)cc(O)c12
REMARK SMILES IDX 4 1 3 2 2 3 1 4 21 5 19 6 18 7 16 8 15 9 14 10 13 11 5 12
REMARK SMILES IDX 6 13 7 14 8 15 12 16 10 17 9 18 11 20 20 22 17 24
REMARK H PARENT 9 19 11 21 20 23 17 25
REMARK Flexibility Score: inf
ROOT
ATOM      1  C   UNL     1       9.245  -3.997  19.545  1.00  0.00     0.138 A 
ATOM      2  C   UNL     1      10.100  -3.369  20.462  1.00  0.00     0.100 A 
ATOM      3  C   UNL     1      11.410  -3.070  20.089  1.00  0.00     0.197 A 
ATOM      4  O   UNL     1      12.135  -2.457  20.914  1.00  0.00    -0.289 OA
ATOM      5  C   UNL     1      11.879  -3.434  18.804  1.00  0.00     0.107 A 
ATOM      6  C   UNL     1      13.206  -3.211  18.326  1.00  0.00     0.134 A 
ATOM      7  C   UNL     1      13.523  -3.526  16.999  1.00  0.00     0.093 A 
ATOM      8  C   UNL     1      12.579  -4.110  16.151  1.00  0.00     0.123 A 
ATOM      9  C   UNL     1      11.297  -4.379  16.622  1.00  0.00     0.094 A 
ATOM     10  C   UNL     1      10.939  -4.044  17.930  1.00  0.00     0.146 A 
ATOM     11  O   UNL     1       9.698  -4.301  18.334  1.00  0.00    -0.456 OA
ENDROOT
BRANCH   1  12
ATOM     12  C   UNL     1       7.842  -4.342  19.888  1.00  0.00     0.021 A 
ATOM     13  C   UNL     1       7.497  -4.876  21.145  1.00  0.00     0.016 A 
ATOM     14  C   UNL     1       6.167  -5.182  21.444  1.00  0.00     0.051 A 
ATOM     15  C   UNL     1       5.159  -4.954  20.499  1.00  0.00     0.157 A 
ATOM     16  C   UNL     1       6.821  -4.104  18.950  1.00  0.00     0.062 A 
ATOM     17  C   UNL     1       5.489  -4.410  19.247  1.00  0.00     0.158 A 
BRANCH  15  18
ATOM     18  O   UNL     1       3.833  -5.262  20.801  1.00  0.00    -0.504 OA
ATOM     19  H   UNL     1       3.091  -4.581  20.689  1.00  0.00     0.293 HD
ENDBRANCH  15  18
BRANCH  17  20
ATOM     20  O   UNL     1       4.508  -4.167  18.286  1.00  0.00    -0.504 OA
ATOM     21  H   UNL     1       4.699  -4.235  17.293  1.00  0.00     0.293 HD
ENDBRANCH  17  20
ENDBRANCH   1  12
BRANCH   6  22
ATOM     22  O   UNL     1      14.247  -2.707  19.112  1.00  0.00    -0.507 OA
ATOM     23  H   UNL     1      14.169  -1.929  19.748  1.00  0.00     0.293 HD
ENDBRANCH   6  22
BRANCH   8  24
ATOM     24  O   UNL     1      12.910  -4.435  14.837  1.00  0.00    -0.508 OA
ATOM     25  H   UNL     1      12.376  -5.116  14.308  1.00  0.00     0.293 HD
ENDBRANCH   8  24
TORSDOF 5
ENDMDL
MODEL 3
REMARK VINA RESULT:    -6.989      2.182      8.020
REMARK INTER + INTRA:          -8.495
REMARK INTER:                  -8.216
REMARK INTRA:                  -0.279
REMARK UNBOUND:                -0.280
REMARK SMILES O=c1cc(-c2ccc(O)c(O)c2)oc2cc(O)cc(O)c12
REMARK SMILES IDX 4 1 3 2 2 3 1 4 21 5 19 6 18 7 16 8 15 9 14 10 13 11 5 12
REMARK SMILES IDX 6 13 7 14 8 15 12 16 10 17 9 18 11 20 20 22 17 24
REMARK H PARENT 9 19 11 21 20 23 17 25
REMARK Flexibility Score: inf
ROOT
ATOM      1  C   UNL     1      12.380  -4.649  18.261  1.00  0.00     0.138 A 
ATOM      2  C   UNL     1      12.243  -5.968  18.716  1.00  0.00     0.100 A 
ATOM      3  C   UNL     1      11.150  -6.313  19.510  1.00  0.00     0.197 A 
ATOM      4  O   UNL     1      11.025  -7.516  19.856  1.00  0.00    -0.289 OA
ATOM      5  C   UNL     1      10.208  -5.324  19.883  1.00  0.00     0.107 A 
ATOM      6  C   UNL     1       9.073  -5.552  20.718  1.00  0.00     0.134 A 
ATOM      7  C   UNL     1       8.157  -4.515  20.934  1.00  0.00     0.093 A 
ATOM      8  C   UNL     1       8.366  -3.243  20.395  1.00  0.00     0.123 A 
ATOM      9  C   UNL     1       9.496  -2.997  19.621  1.00  0.00     0.094 A 
ATOM     10  C   UNL     1      10.410  -4.019  19.357  1.00  0.00     0.146 A 
ATOM     11  O   UNL     1      11.467  -3.745  18.598  1.00  0.00    -0.456 OA
ENDROOT
BRANCH   1  12
ATOM     12  C   UNL     1      13.525  -4.224  17.416  1.00  0.00     0.021 A 
ATOM     13  C   UNL     1      14.177  -2.991  17.616  1.00  0.00     0.016 A 
ATOM     14  C   UNL     1      15.258  -2.623  16.812  1.00  0.00     0.051 A 
ATOM     15  C   UNL     1      15.712  -3.478  15.801  1.00  0.00     0.157 A 
ATOM     16  C   UNL     1      13.997  -5.083  16.407  1.00  0.00     0.062 A 
ATOM     17  C   UNL     1      15.079  -4.716  15.600  1.00  0.00     0.158 A 
BRANCH  15  18
ATOM     18  O   UNL     1      16.790  -3.106  15.000  1.00  0.00    -0.504 OA
ATOM     19  H   UNL     1      17.548  -2.538  15.359  1.00  0.00     0.293 HD
ENDBRANCH  15  18
BRANCH  17  20
ATOM     20  O   UNL     1      15.510  -5.592  14.604  1.00  0.00    -0.504 OA
ATOM     21  H   UNL     1      16.482  -5.655  14.326  1.00  0.00     0.293 HD
ENDBRANCH  17  20
ENDBRANCH   1  12
BRANCH   6  22
ATOM     22  O   UNL     1       8.811  -6.760  21.371  1.00  0.00    -0.507 OA
ATOM     23  H   UNL     1       7.966  -6.973  21.877  1.00  0.00     0.293 HD
ENDBRANCH   6  22
BRANCH   8  24
ATOM     24  O   UNL     1       7.456  -2.214  20.631  1.00  0.00    -0.508 OA
ATOM     25  H   UNL     1       7.053  -2.062  21.548  1.00  0.00     0.293 HD
ENDBRANCH   8  24
TORSDOF 5
ENDMDL
MODEL 4
REMARK VINA RESULT:    -6.974      3.585      9.040
REMARK INTER + INTRA:          -8.477
REMARK INTER:                  -8.210
REMARK INTRA:                  -0.267
REMARK UNBOUND:                -0.280
REMARK SMILES O=c1cc(-c2ccc(O)c(O)c2)oc2cc(O)cc(O)c12
REMARK SMILES IDX 4 1 3 2 2 3 1 4 21 5 19 6 18 7 16 8 15 9 14 10 13 11 5 12
REMARK SMILES IDX 6 13 7 14 8 15 12 16 10 17 9 18 11 20 20 22 17 24
REMARK H PARENT 9 19 11 21 20 23 17 25
REMARK Flexibility Score: inf
ROOT
ATOM      1  C   UNL     1       9.797  -4.013  18.878  1.00  0.00     0.138 A 
ATOM      2  C   UNL     1       9.933  -3.220  20.026  1.00  0.00     0.100 A 
ATOM      3  C   UNL     1       8.805  -2.899  20.780  1.00  0.00     0.197 A 
ATOM      4  O   UNL     1       8.967  -2.232  21.834  1.00  0.00    -0.289 OA
ATOM      5  C   UNL     1       7.527  -3.344  20.362  1.00  0.00     0.107 A 
ATOM      6  C   UNL     1       6.302  -3.049  21.032  1.00  0.00     0.134 A 
ATOM      7  C   UNL     1       5.111  -3.630  20.578  1.00  0.00     0.093 A 
ATOM      8  C   UNL     1       5.092  -4.447  19.445  1.00  0.00     0.123 A 
ATOM      9  C   UNL     1       6.274  -4.699  18.755  1.00  0.00     0.094 A 
ATOM     10  C   UNL     1       7.484  -4.164  19.202  1.00  0.00     0.146 A 
ATOM     11  O   UNL     1       8.592  -4.446  18.523  1.00  0.00    -0.456 OA
ENDROOT
BRANCH   1  12
ATOM     12  C   UNL     1      10.963  -4.383  18.036  1.00  0.00     0.021 A 
ATOM     13  C   UNL     1      11.279  -5.728  17.757  1.00  0.00     0.016 A 
ATOM     14  C   UNL     1      12.376  -6.046  16.953  1.00  0.00     0.051 A 
ATOM     15  C   UNL     1      13.172  -5.030  16.408  1.00  0.00     0.157 A 
ATOM     16  C   UNL     1      11.760  -3.370  17.473  1.00  0.00     0.062 A 
ATOM     17  C   UNL     1      12.859  -3.686  16.668  1.00  0.00     0.158 A 
BRANCH  15  18
ATOM     18  O   UNL     1      14.267  -5.352  15.607  1.00  0.00    -0.504 OA
ATOM     19  H   UNL     1      14.217  -6.084  14.909  1.00  0.00     0.293 HD
ENDBRANCH  15  18
BRANCH  17  20
ATOM     20  O   UNL     1      13.630  -2.652  16.136  1.00  0.00    -0.504 OA
ATOM     21  H   UNL     1      13.935  -1.865  16.697  1.00  0.00     0.293 HD
ENDBRANCH  17  20
ENDBRANCH   1  12
BRANCH   6  22
ATOM     22  O   UNL     1       6.195  -2.183  22.125  1.00  0.00    -0.507 OA
ATOM     23  H   UNL     1       5.562  -1.401  22.184  1.00  0.00     0.293 HD
ENDBRANCH   6  22
BRANCH   8  24
ATOM     24  O   UNL     1       3.899  -5.006  18.992  1.00  0.00    -0.508 OA
ATOM     25  H   UNL     1       3.025  -4.862  19.486  1.00  0.00     0.293 HD
ENDBRANCH   8  24
TORSDOF 5
ENDMDL
MODEL 5
REMARK VINA RESULT:    -6.856      2.172      7.586
REMARK INTER + INTRA:          -8.339
REMARK INTER:                  -8.044
REMARK INTRA:                  -0.295
REMARK UNBOUND:                -0.280
REMARK SMILES O=c1cc(-c2ccc(O)c(O)c2)oc2cc(O)cc(O)c12
REMARK SMILES IDX 4 1 3 2 2 3 1 4 21 5 19 6 18 7 16 8 15 9 14 10 13 11 5 12
REMARK SMILES IDX 6 13 7 14 8 15 12 16 10 17 9 18 11 20 20 22 17 24
REMARK H PARENT 9 19 11 21 20 23 17 25
REMARK Flexibility Score: inf
ROOT
ATOM      1  C   UNL     1      13.299  -4.320  17.478  1.00  0.00     0.138 A 
ATOM      2  C   UNL     1      12.738  -5.604  17.421  1.00  0.00     0.100 A 
ATOM      3  C   UNL     1      11.669  -5.928  18.255  1.00  0.00     0.197 A 
ATOM      4  O   UNL     1      11.152  -7.069  18.140  1.00  0.00    -0.289 OA
ATOM      5  C   UNL     1      11.181  -4.973  19.179  1.00  0.00     0.107 A 
ATOM      6  C   UNL     1      10.117  -5.201  20.104  1.00  0.00     0.134 A 
ATOM      7  C   UNL     1       9.657  -4.146  20.900  1.00  0.00     0.093 A 
ATOM      8  C   UNL     1      10.260  -2.886  20.848  1.00  0.00     0.123 A 
ATOM      9  C   UNL     1      11.330  -2.667  19.986  1.00  0.00     0.094 A 
ATOM     10  C   UNL     1      11.790  -3.689  19.153  1.00  0.00     0.146 A 
ATOM     11  O   UNL     1      12.804  -3.431  18.332  1.00  0.00    -0.456 OA
ENDROOT
BRANCH   1  12
ATOM     12  C   UNL     1      14.441  -3.922  16.616  1.00  0.00     0.021 A 
ATOM     13  C   UNL     1      14.958  -2.611  16.631  1.00  0.00     0.016 A 
ATOM     14  C   UNL     1      16.039  -2.267  15.816  1.00  0.00     0.051 A 
ATOM     15  C   UNL     1      16.628  -3.224  14.980  1.00  0.00     0.157 A 
ATOM     16  C   UNL     1      15.047  -4.880  15.784  1.00  0.00     0.062 A 
ATOM     17  C   UNL     1      16.130  -4.537  14.967  1.00  0.00     0.158 A 
BRANCH  15  18
ATOM     18  O   UNL     1      17.706  -2.877  14.168  1.00  0.00    -0.504 OA
ATOM     19  H   UNL     1      18.242  -3.576  13.668  1.00  0.00     0.293 HD
ENDBRANCH  15  18
BRANCH  17  20
ATOM     20  O   UNL     1      16.697  -5.515  14.149  1.00  0.00    -0.504 OA
ATOM     21  H   UNL     1      17.549  -6.001  14.403  1.00  0.00     0.293 HD
ENDBRANCH  17  20
ENDBRANCH   1  12
BRANCH   6  22
ATOM     22  O   UNL     1       9.498  -6.441  20.294  1.00  0.00    -0.507 OA
ATOM     23  H   UNL     1       9.394  -7.151  19.587  1.00  0.00     0.293 HD
ENDBRANCH   6  22
BRANCH   8  24
ATOM     24  O   UNL     1       9.804  -1.847  21.657  1.00  0.00    -0.508 OA
ATOM     25  H   UNL     1       9.952  -1.852  22.660  1.00  0.00     0.293 HD
ENDBRANCH   8  24
TORSDOF 5
ENDMDL
MODEL 6
REMARK VINA RESULT:    -6.803      2.104      3.099
REMARK INTER + INTRA:          -8.276
REMARK INTER:                  -7.958
REMARK INTRA:                  -0.318
REMARK UNBOUND:                -0.280
REMARK SMILES O=c1cc(-c2ccc(O)c(O)c2)oc2cc(O)cc(O)c12
REMARK SMILES IDX 4 1 3 2 2 3 1 4 21 5 19 6 18 7 16 8 15 9 14 10 13 11 5 12
REMARK SMILES IDX 6 13 7 14 8 15 12 16 10 17 9 18 11 20 20 22 17 24
REMARK H PARENT 9 19 11 21 20 23 17 25
REMARK Flexibility Score: inf
ROOT
ATOM      1  C   UNL     1      14.475  -4.113  16.518  1.00  0.00     0.138 A 
ATOM      2  C   UNL     1      14.978  -4.960  15.521  1.00  0.00     0.100 A 
ATOM      3  C   UNL     1      16.332  -4.909  15.191  1.00  0.00     0.197 A 
ATOM      4  O   UNL     1      16.763  -5.720  14.332  1.00  0.00    -0.289 OA
ATOM      5  C   UNL     1      17.180  -3.977  15.837  1.00  0.00     0.107 A 
ATOM      6  C   UNL     1      18.571  -3.811  15.558  1.00  0.00     0.134 A 
ATOM      7  C   UNL     1      19.328  -2.924  16.333  1.00  0.00     0.093 A 
ATOM      8  C   UNL     1      18.735  -2.156  17.338  1.00  0.00     0.123 A 
ATOM      9  C   UNL     1      17.370  -2.274  17.584  1.00  0.00     0.094 A 
ATOM     10  C   UNL     1      16.593  -3.175  16.852  1.00  0.00     0.146 A 
ATOM     11  O   UNL     1      15.297  -3.269  17.132  1.00  0.00    -0.456 OA
ENDROOT
BRANCH   1  12
ATOM     12  C   UNL     1      13.041  -4.122  16.908  1.00  0.00     0.021 A 
ATOM     13  C   UNL     1      12.109  -4.974  16.283  1.00  0.00     0.016 A 
ATOM     14  C   UNL     1      10.769  -4.968  16.677  1.00  0.00     0.051 A 
ATOM     15  C   UNL     1      10.338  -4.121  17.705  1.00  0.00     0.157 A 
ATOM     16  C   UNL     1      12.602  -3.285  17.949  1.00  0.00     0.062 A 
ATOM     17  C   UNL     1      11.260  -3.277  18.345  1.00  0.00     0.158 A 
BRANCH  15  18
ATOM     18  O   UNL     1       8.999  -4.118  18.095  1.00  0.00    -0.504 OA
ATOM     19  H   UNL     1       8.349  -3.419  17.757  1.00  0.00     0.293 HD
ENDBRANCH  15  18
BRANCH  17  20
ATOM     20  O   UNL     1      10.863  -2.425  19.375  1.00  0.00    -0.504 OA
ATOM     21  H   UNL     1      11.420  -2.295  20.212  1.00  0.00     0.293 HD
ENDBRANCH  17  20
ENDBRANCH   1  12
BRANCH   6  22
ATOM     22  O   UNL     1      19.247  -4.468  14.525  1.00  0.00    -0.507 OA
ATOM     23  H   UNL     1      19.783  -4.014  13.802  1.00  0.00     0.293 HD
ENDBRANCH   6  22
BRANCH   8  24
ATOM     24  O   UNL     1      19.495  -1.265  18.093  1.00  0.00    -0.508 OA
ATOM     25  H   UNL     1      20.191  -0.666  17.664  1.00  0.00     0.293 HD
ENDBRANCH   8  24
TORSDOF 5
ENDMDL
MODEL 7
REMARK VINA RESULT:    -6.781      2.100      7.503
REMARK INTER + INTRA:          -8.250
REMARK INTER:                  -7.982
REMARK INTRA:                  -0.269
REMARK UNBOUND:                -0.280
REMARK SMILES O=c1cc(-c2ccc(O)c(O)c2)oc2cc(O)cc(O)c12
REMARK SMILES IDX 4 1 3 2 2 3 1 4 21 5 19 6 18 7 16 8 15 9 14 10 13 11 5 12
REMARK SMILES IDX 6 13 7 14 8 15 12 16 10 17 9 18 11 20 20 22 17 24
REMARK H PARENT 9 19 11 21 20 23 17 25
REMARK Flexibility Score: inf
ROOT
ATOM      1  C   UNL     1      14.375  -3.801  16.914  1.00  0.00     0.138 A 
ATOM      2  C   UNL     1      13.715  -4.962  16.490  1.00  0.00     0.100 A 
ATOM      3  C   UNL     1      12.569  -5.388  17.161  1.00  0.00     0.197 A 
ATOM      4  O   UNL     1      11.968  -6.402  16.722  1.00  0.00    -0.289 OA
ATOM      5  C   UNL     1      12.102  -4.668  18.287  1.00  0.00     0.107 A 
ATOM      6  C   UNL     1      10.964  -5.027  19.070  1.00  0.00     0.134 A 
ATOM      7  C   UNL     1      10.542  -4.179  20.101  1.00  0.00     0.093 A 
ATOM      8  C   UNL     1      11.249  -3.015  20.414  1.00  0.00     0.123 A 
ATOM      9  C   UNL     1      12.389  -2.682  19.689  1.00  0.00     0.094 A 
ATOM     10  C   UNL     1      12.817  -3.489  18.631  1.00  0.00     0.146 A 
ATOM     11  O   UNL     1      13.900  -3.124  17.953  1.00  0.00    -0.456 OA
ENDROOT
BRANCH   1  12
ATOM     12  C   UNL     1      15.601  -3.303  16.239  1.00  0.00     0.021 A 
ATOM     13  C   UNL     1      16.849  -3.935  16.408  1.00  0.00     0.016 A 
ATOM     14  C   UNL     1      17.983  -3.450  15.753  1.00  0.00     0.051 A 
ATOM     15  C   UNL     1      17.892  -2.334  14.913  1.00  0.00     0.157 A 
ATOM     16  C   UNL     1      15.516  -2.191  15.382  1.00  0.00     0.062 A 
ATOM     17  C   UNL     1      16.652  -1.703  14.725  1.00  0.00     0.158 A 
BRANCH  15  18
ATOM     18  O   UNL     1      19.027  -1.853  14.261  1.00  0.00    -0.504 OA
ATOM     19  H   UNL     1      19.267  -0.869  14.268  1.00  0.00     0.293 HD
ENDBRANCH  15  18
BRANCH  17  20
ATOM     20  O   UNL     1      16.527  -0.592  13.892  1.00  0.00    -0.504 OA
ATOM     21  H   UNL     1      16.355   0.338  14.256  1.00  0.00     0.293 HD
ENDBRANCH  17  20
ENDBRANCH   1  12
BRANCH   6  22
ATOM     22  O   UNL     1      10.233  -6.206  18.895  1.00  0.00    -0.507 OA
ATOM     23  H   UNL     1      10.578  -7.040  18.446  1.00  0.00     0.293 HD
ENDBRANCH   6  22
BRANCH   8  24
ATOM     24  O   UNL     1      10.829  -2.187  21.453  1.00  0.00    -0.508 OA
ATOM     25  H   UNL     1      11.490  -1.760  22.092  1.00  0.00     0.293 HD
ENDBRANCH   8  24
TORSDOF 5
ENDMDL
MODEL 8
REMARK VINA RESULT:    -6.746      2.420      7.378
REMARK INTER + INTRA:          -8.210
REMARK INTER:                  -7.940
REMARK INTRA:                  -0.270
REMARK UNBOUND:                -0.280
REMARK SMILES O=c1cc(-c2ccc(O)c(O)c2)oc2cc(O)cc(O)c12
REMARK SMILES IDX 4 1 3 2 2 3 1 4 21 5 19 6 18 7 16 8 15 9 14 10 13 11 5 12
REMARK SMILES IDX 6 13 7 14 8 15 12 16 10 17 9 18 11 20 20 22 17 24
REMARK H PARENT 9 19 11 21 20 23 17 25
REMARK Flexibility Score: inf
ROOT
ATOM      1  C   UNL     1      14.522  -2.894  17.537  1.00  0.00     0.138 A 
ATOM      2  C   UNL     1      14.776  -2.584  18.880  1.00  0.00     0.100 A 
ATOM      3  C   UNL     1      13.745  -2.669  19.815  1.00  0.00     0.197 A 
ATOM      4  O   UNL     1      14.017  -2.437  21.021  1.00  0.00    -0.289 OA
ATOM      5  C   UNL     1      12.442  -3.031  19.396  1.00  0.00     0.107 A 
ATOM      6  C   UNL     1      11.304  -3.117  20.254  1.00  0.00     0.134 A 
ATOM      7  C   UNL     1      10.087  -3.583  19.741  1.00  0.00     0.093 A 
ATOM      8  C   UNL     1       9.952  -3.910  18.389  1.00  0.00     0.123 A 
ATOM      9  C   UNL     1      11.042  -3.782  17.534  1.00  0.00     0.094 A 
ATOM     10  C   UNL     1      12.279  -3.353  18.022  1.00  0.00     0.146 A 
ATOM     11  O   UNL     1      13.298  -3.262  17.174  1.00  0.00    -0.456 OA
ENDROOT
BRANCH   1  12
ATOM     12  C   UNL     1      15.581  -2.818  16.499  1.00  0.00     0.021 A 
ATOM     13  C   UNL     1      16.538  -3.840  16.340  1.00  0.00     0.016 A 
ATOM     14  C   UNL     1      17.517  -3.746  15.348  1.00  0.00     0.051 A 
ATOM     15  C   UNL     1      17.554  -2.638  14.494  1.00  0.00     0.157 A 
ATOM     16  C   UNL     1      15.618  -1.715  15.627  1.00  0.00     0.062 A 
ATOM     17  C   UNL     1      16.598  -1.619  14.633  1.00  0.00     0.158 A 
BRANCH  15  18
ATOM     18  O   UNL     1      18.534  -2.548  13.505  1.00  0.00    -0.504 OA
ATOM     19  H   UNL     1      18.625  -1.726  12.921  1.00  0.00     0.293 HD
ENDBRANCH  15  18
BRANCH  17  20
ATOM     20  O   UNL     1      16.606  -0.504  13.795  1.00  0.00    -0.504 OA
ATOM     21  H   UNL     1      17.385  -0.297  13.182  1.00  0.00     0.293 HD
ENDBRANCH  17  20
ENDBRANCH   1  12
BRANCH   6  22
ATOM     22  O   UNL     1      11.308  -2.739  21.601  1.00  0.00    -0.507 OA
ATOM     23  H   UNL     1      10.590  -2.971  22.269  1.00  0.00     0.293 HD
ENDBRANCH   6  22
BRANCH   8  24
ATOM     24  O   UNL     1       8.732  -4.358  17.886  1.00  0.00    -0.508 OA
ATOM     25  H   UNL     1       7.941  -4.536  18.494  1.00  0.00     0.293 HD
ENDBRANCH   8  24
TORSDOF 5
ENDMDL
MODEL 9
REMARK VINA RESULT:    -6.658      4.481     10.035
REMARK INTER + INTRA:          -8.105
REMARK INTER:                  -7.840
REMARK INTRA:                  -0.266
REMARK UNBOUND:                -0.280
REMARK SMILES O=c1cc(-c2ccc(O)c(O)c2)oc2cc(O)cc(O)c12
REMARK SMILES IDX 4 1 3 2 2 3 1 4 21 5 19 6 18 7 16 8 15 9 14 10 13 11 5 12
REMARK SMILES IDX 6 13 7 14 8 15 12 16 10 17 9 18 11 20 20 22 17 24
REMARK H PARENT 9 19 11 21 20 23 17 25
REMARK Flexibility Score: inf
ROOT
ATOM      1  C   UNL     1       8.234  -4.284  19.522  1.00  0.00     0.138 A 
ATOM      2  C   UNL     1       8.196  -3.297  20.517  1.00  0.00     0.100 A 
ATOM      3  C   UNL     1       6.976  -2.944  21.093  1.00  0.00     0.197 A 
ATOM      4  O   UNL     1       6.982  -2.095  22.021  1.00  0.00    -0.289 OA
ATOM      5  C   UNL     1       5.781  -3.556  20.643  1.00  0.00     0.107 A 
ATOM      6  C   UNL     1       4.475  -3.251  21.132  1.00  0.00     0.134 A 
ATOM      7  C   UNL     1       3.378  -3.995  20.679  1.00  0.00     0.093 A 
ATOM      8  C   UNL     1       3.532  -4.993  19.713  1.00  0.00     0.123 A 
ATOM      9  C   UNL     1       4.794  -5.264  19.193  1.00  0.00     0.094 A 
ATOM     10  C   UNL     1       5.914  -4.563  19.650  1.00  0.00     0.146 A 
ATOM     11  O   UNL     1       7.103  -4.867  19.139  1.00  0.00    -0.456 OA
ENDROOT
BRANCH   1  12
ATOM     12  C   UNL     1       9.504  -4.697  18.873  1.00  0.00     0.021 A 
ATOM     13  C   UNL     1       9.741  -4.477  17.501  1.00  0.00     0.016 A 
ATOM     14  C   UNL     1      10.949  -4.867  16.920  1.00  0.00     0.051 A 
ATOM     15  C   UNL     1      11.944  -5.476  17.695  1.00  0.00     0.157 A 
ATOM     16  C   UNL     1      10.514  -5.297  19.646  1.00  0.00     0.062 A 
ATOM     17  C   UNL     1      11.725  -5.689  19.065  1.00  0.00     0.158 A 
BRANCH  15  18
ATOM     18  O   UNL     1      13.148  -5.865  17.110  1.00  0.00    -0.504 OA
ATOM     19  H   UNL     1      13.177  -6.318  16.205  1.00  0.00     0.293 HD
ENDBRANCH  15  18
BRANCH  17  20
ATOM     20  O   UNL     1      12.697  -6.289  19.866  1.00  0.00    -0.504 OA
ATOM     21  H   UNL     1      12.466  -6.992  20.558  1.00  0.00     0.293 HD
ENDBRANCH  17  20
ENDBRANCH   1  12
BRANCH   6  22
ATOM     22  O   UNL     1       4.197  -2.222  22.037  1.00  0.00    -0.507 OA
ATOM     23  H   UNL     1       4.598  -1.297  22.004  1.00  0.00     0.293 HD
ENDBRANCH   6  22
BRANCH   8  24
ATOM     24  O   UNL     1       2.431  -5.716  19.258  1.00  0.00    -0.508 OA
ATOM     25  H   UNL     1       1.576  -5.776  19.799  1.00  0.00     0.293 HD
ENDBRANCH   8  24
TORSDOF 5
ENDMDL
