MODEL 1
REMARK VINA RESULT:    -4.071      0.000      0.000
REMARK INTER + INTRA:          -5.926
REMARK INTER:                  -5.380
REMARK INTRA:                  -0.546
REMARK UNBOUND:                -0.546
REMARK SMILES C=C[C@H](O)CCCCC
REMARK SMILES IDX 6 1 7 2 8 3 9 4 5 5 3 6 2 7 1 8 4 9
REMARK H PARENT 4 10
REMARK Flexibility Score: inf
ROOT
ATOM      1  C   UNL     1      13.859 -15.741  31.246  1.00  0.00     0.003 C 
ENDROOT
BRANCH   1   2
ATOM      2  C   UNL     1      13.986 -15.379  29.756  1.00  0.00    -0.000 C 
BRANCH   2   3
ATOM      3  C   UNL     1      13.154 -14.144  29.377  1.00  0.00    -0.003 C 
ATOM      4  C   UNL     1      11.716 -14.491  28.994  1.00  0.00     0.004 C 
ENDBRANCH   2   3
ENDBRANCH   1   2
BRANCH   1   5
ATOM      5  C   UNL     1      13.361 -17.181  31.467  1.00  0.00     0.036 C 
BRANCH   5   6
ATOM      6  C   UNL     1      11.827 -17.292  31.558  1.00  0.00     0.136 C 
BRANCH   6   7
ATOM      7  C   UNL     1      11.254 -16.128  32.332  1.00  0.00    -0.004 C 
ATOM      8  C   UNL     1      10.022 -15.657  32.108  1.00  0.00     0.007 C 
ENDBRANCH   6   7
BRANCH   6   9
ATOM      9  O   UNL     1      11.467 -18.503  32.172  1.00  0.00    -0.389 OA
ATOM     10  H   UNL     1      10.759 -18.910  31.607  1.00  0.00     0.211 HD
ENDBRANCH   6   9
ENDBRANCH   5   6
ENDBRANCH   1   5
TORSDOF 6
ENDMDL
MODEL 2
REMARK VINA RESULT:    -4.064      1.768      3.659
REMARK INTER + INTRA:          -5.917
REMARK INTER:                  -5.456
REMARK INTRA:                  -0.461
REMARK UNBOUND:                -0.546
REMARK SMILES C=C[C@H](O)CCCCC
REMARK SMILES IDX 6 1 7 2 8 3 9 4 5 5 3 6 2 7 1 8 4 9
REMARK H PARENT 4 10
REMARK Flexibility Score: inf
ROOT
ATOM      1  C   UNL     1      13.408 -15.824  31.240  1.00  0.00     0.003 C 
ENDROOT
BRANCH   1   2
ATOM      2  C   UNL     1      12.913 -17.248  31.547  1.00  0.00    -0.000 C 
BRANCH   2   3
ATOM      3  C   UNL     1      11.382 -17.328  31.650  1.00  0.00    -0.003 C 
ATOM      4  C   UNL     1      10.744 -16.001  32.059  1.00  0.00     0.004 C 
ENDBRANCH   2   3
ENDBRANCH   1   2
BRANCH   1   5
ATOM      5  C   UNL     1      14.192 -15.739  29.917  1.00  0.00     0.036 C 
BRANCH   5   6
ATOM      6  C   UNL     1      13.340 -15.249  28.731  1.00  0.00     0.136 C 
BRANCH   6   7
ATOM      7  C   UNL     1      12.359 -14.192  29.182  1.00  0.00    -0.004 C 
ATOM      8  C   UNL     1      12.312 -12.976  28.627  1.00  0.00     0.007 C 
ENDBRANCH   6   7
BRANCH   6   9
ATOM      9  O   UNL     1      12.653 -16.328  28.151  1.00  0.00    -0.389 OA
ATOM     10  H   UNL     1      11.688 -16.101  28.179  1.00  0.00     0.211 HD
ENDBRANCH   6   9
ENDBRANCH   5   6
ENDBRANCH   1   5
TORSDOF 6
ENDMDL
MODEL 3
REMARK VINA RESULT:    -3.996      3.632      5.778
REMARK INTER + INTRA:          -5.826
REMARK INTER:                  -5.644
REMARK INTRA:                  -0.182
REMARK UNBOUND:                -0.546
REMARK SMILES C=C[C@H](O)CCCCC
REMARK SMILES IDX 6 1 7 2 8 3 9 4 5 5 3 6 2 7 1 8 4 9
REMARK H PARENT 4 10
REMARK Flexibility Score: inf
ROOT
ATOM      1  C   UNL     1      10.258 -19.701  33.464  1.00  0.00     0.003 C 
ENDROOT
BRANCH   1   2
ATOM      2  C   UNL     1       9.422 -20.992  33.452  1.00  0.00    -0.000 C 
BRANCH   2   3
ATOM      3  C   UNL     1       9.974 -22.041  32.474  1.00  0.00    -0.003 C 
ATOM      4  C   UNL     1       9.528 -23.463  32.815  1.00  0.00     0.004 C 
ENDBRANCH   2   3
ENDBRANCH   1   2
BRANCH   1   5
ATOM      5  C   UNL     1      10.583 -19.190  32.048  1.00  0.00     0.036 C 
BRANCH   5   6
ATOM      6  C   UNL     1      11.069 -17.729  32.020  1.00  0.00     0.136 C 
BRANCH   6   7
ATOM      7  C   UNL     1      10.100 -16.832  32.754  1.00  0.00    -0.004 C 
ATOM      8  C   UNL     1       9.877 -15.565  32.384  1.00  0.00     0.007 C 
ENDBRANCH   6   7
BRANCH   6   9
ATOM      9  O   UNL     1      11.217 -17.294  30.693  1.00  0.00    -0.389 OA
ATOM     10  H   UNL     1      10.724 -16.436  30.615  1.00  0.00     0.211 HD
ENDBRANCH   6   9
ENDBRANCH   5   6
ENDBRANCH   1   5
TORSDOF 6
ENDMDL
MODEL 4
REMARK VINA RESULT:    -3.923      3.148      4.534
REMARK INTER + INTRA:          -5.731
REMARK INTER:                  -5.553
REMARK INTRA:                  -0.178
REMARK UNBOUND:                -0.546
REMARK SMILES C=C[C@H](O)CCCCC
REMARK SMILES IDX 6 1 7 2 8 3 9 4 5 5 3 6 2 7 1 8 4 9
REMARK H PARENT 4 10
REMARK Flexibility Score: inf
ROOT
ATOM      1  C   UNL     1      10.830 -17.983  31.909  1.00  0.00     0.003 C 
ENDROOT
BRANCH   1   2
ATOM      2  C   UNL     1       9.938 -17.101  32.800  1.00  0.00    -0.000 C 
BRANCH   2   3
ATOM      3  C   UNL     1       9.918 -15.634  32.343  1.00  0.00    -0.003 C 
ATOM      4  C   UNL     1      10.831 -15.372  31.146  1.00  0.00     0.004 C 
ENDBRANCH   2   3
ENDBRANCH   1   2
BRANCH   1   5
ATOM      5  C   UNL     1      10.652 -19.486  32.192  1.00  0.00     0.036 C 
BRANCH   5   6
ATOM      6  C   UNL     1       9.528 -20.136  31.364  1.00  0.00     0.136 C 
BRANCH   6   7
ATOM      7  C   UNL     1       9.593 -21.642  31.467  1.00  0.00    -0.004 C 
ATOM      8  C   UNL     1       9.847 -22.269  32.622  1.00  0.00     0.007 C 
ENDBRANCH   6   7
BRANCH   6   9
ATOM      9  O   UNL     1       9.628 -19.741  30.020  1.00  0.00    -0.389 OA
ATOM     10  H   UNL     1      10.196 -18.927  30.002  1.00  0.00     0.211 HD
ENDBRANCH   6   9
ENDBRANCH   5   6
ENDBRANCH   1   5
TORSDOF 6
ENDMDL
MODEL 5
REMARK VINA RESULT:    -3.903      2.074      4.105
REMARK INTER + INTRA:          -5.705
REMARK INTER:                  -5.469
REMARK INTRA:                  -0.235
REMARK UNBOUND:                -0.546
REMARK SMILES C=C[C@H](O)CCCCC
REMARK SMILES IDX 6 1 7 2 8 3 9 4 5 5 3 6 2 7 1 8 4 9
REMARK H PARENT 4 10
REMARK Flexibility Score: inf
ROOT
ATOM      1  C   UNL     1      13.731 -15.255  30.737  1.00  0.00     0.003 C 
ENDROOT
BRANCH   1   2
ATOM      2  C   UNL     1      13.274 -16.116  31.928  1.00  0.00    -0.000 C 
BRANCH   2   3
ATOM      3  C   UNL     1      12.892 -17.544  31.509  1.00  0.00    -0.003 C 
ATOM      4  C   UNL     1      11.442 -17.893  31.845  1.00  0.00     0.004 C 
ENDBRANCH   2   3
ENDBRANCH   1   2
BRANCH   1   5
ATOM      5  C   UNL     1      12.559 -14.808  29.843  1.00  0.00     0.036 C 
BRANCH   5   6
ATOM      6  C   UNL     1      12.815 -15.031  28.341  1.00  0.00     0.136 C 
BRANCH   6   7
ATOM      7  C   UNL     1      11.788 -14.297  27.511  1.00  0.00    -0.004 C 
ATOM      8  C   UNL     1      11.872 -12.985  27.265  1.00  0.00     0.007 C 
ENDBRANCH   6   7
BRANCH   6   9
ATOM      9  O   UNL     1      12.783 -16.403  28.044  1.00  0.00    -0.389 OA
ATOM     10  H   UNL     1      11.885 -16.594  27.667  1.00  0.00     0.211 HD
ENDBRANCH   6   9
ENDBRANCH   5   6
ENDBRANCH   1   5
TORSDOF 6
ENDMDL
MODEL 6
REMARK VINA RESULT:    -3.895      1.973      4.399
REMARK INTER + INTRA:          -5.693
REMARK INTER:                  -5.536
REMARK INTRA:                  -0.158
REMARK UNBOUND:                -0.546
REMARK SMILES C=C[C@H](O)CCCCC
REMARK SMILES IDX 6 1 7 2 8 3 9 4 5 5 3 6 2 7 1 8 4 9
REMARK H PARENT 4 10
REMARK Flexibility Score: inf
ROOT
ATOM      1  C   UNL     1      11.368 -16.016  31.917  1.00  0.00     0.003 C 
ENDROOT
BRANCH   1   2
ATOM      2  C   UNL     1      10.121 -16.436  32.713  1.00  0.00    -0.000 C 
BRANCH   2   3
ATOM      3  C   UNL     1      10.020 -17.960  32.887  1.00  0.00    -0.003 C 
ATOM      4  C   UNL     1      10.877 -18.730  31.883  1.00  0.00     0.004 C 
ENDBRANCH   2   3
ENDBRANCH   1   2
BRANCH   1   5
ATOM      5  C   UNL     1      11.020 -15.230  30.639  1.00  0.00     0.036 C 
BRANCH   5   6
ATOM      6  C   UNL     1      12.202 -15.098  29.660  1.00  0.00     0.136 C 
BRANCH   6   7
ATOM      7  C   UNL     1      11.881 -14.105  28.568  1.00  0.00    -0.004 C 
ATOM      8  C   UNL     1      12.469 -12.906  28.496  1.00  0.00     0.007 C 
ENDBRANCH   6   7
BRANCH   6   9
ATOM      9  O   UNL     1      12.506 -16.350  29.100  1.00  0.00    -0.389 OA
ATOM     10  H   UNL     1      12.229 -17.035  29.762  1.00  0.00     0.211 HD
ENDBRANCH   6   9
ENDBRANCH   5   6
ENDBRANCH   1   5
TORSDOF 6
ENDMDL
MODEL 7
REMARK VINA RESULT:    -3.845     10.605     11.720
REMARK INTER + INTRA:          -5.628
REMARK INTER:                  -5.368
REMARK INTRA:                  -0.260
REMARK UNBOUND:                -0.546
REMARK SMILES C=C[C@H](O)CCCCC
REMARK SMILES IDX 6 1 7 2 8 3 9 4 5 5 3 6 2 7 1 8 4 9
REMARK H PARENT 4 10
REMARK Flexibility Score: inf
ROOT
ATOM      1  C   UNL     1       7.063 -20.873  20.775  1.00  0.00     0.003 C 
ENDROOT
BRANCH   1   2
ATOM      2  C   UNL     1       8.208 -21.900  20.796  1.00  0.00    -0.000 C 
BRANCH   2   3
ATOM      3  C   UNL     1       9.594 -21.237  20.807  1.00  0.00    -0.003 C 
ATOM      4  C   UNL     1      10.650 -22.057  20.067  1.00  0.00     0.004 C 
ENDBRANCH   2   3
ENDBRANCH   1   2
BRANCH   1   5
ATOM      5  C   UNL     1       7.560 -19.426  20.949  1.00  0.00     0.036 C 
BRANCH   5   6
ATOM      6  C   UNL     1       7.022 -18.741  22.219  1.00  0.00     0.136 C 
BRANCH   6   7
ATOM      7  C   UNL     1       6.824 -17.262  21.984  1.00  0.00    -0.004 C 
ATOM      8  C   UNL     1       6.308 -16.782  20.847  1.00  0.00     0.007 C 
ENDBRANCH   6   7
BRANCH   6   9
ATOM      9  O   UNL     1       7.909 -18.945  23.289  1.00  0.00    -0.389 OA
ATOM     10  H   UNL     1       8.774 -18.535  23.026  1.00  0.00     0.211 HD
ENDBRANCH   6   9
ENDBRANCH   5   6
ENDBRANCH   1   5
TORSDOF 6
ENDMDL
MODEL 8
REMARK VINA RESULT:    -3.824      2.498      4.855
REMARK INTER + INTRA:          -5.599
REMARK INTER:                  -5.366
REMARK INTRA:                  -0.233
REMARK UNBOUND:                -0.546
REMARK SMILES C=C[C@H](O)CCCCC
REMARK SMILES IDX 6 1 7 2 8 3 9 4 5 5 3 6 2 7 1 8 4 9
REMARK H PARENT 4 10
REMARK Flexibility Score: inf
ROOT
ATOM      1  C   UNL     1       9.822 -17.175  32.806  1.00  0.00     0.003 C 
ENDROOT
BRANCH   1   2
ATOM      2  C   UNL     1      10.622 -18.464  32.552  1.00  0.00    -0.000 C 
BRANCH   2   3
ATOM      3  C   UNL     1      10.256 -19.587  33.534  1.00  0.00    -0.003 C 
ATOM      4  C   UNL     1      10.238 -20.967  32.878  1.00  0.00     0.004 C 
ENDBRANCH   2   3
ENDBRANCH   1   2
BRANCH   1   5
ATOM      5  C   UNL     1      10.632 -15.902  32.498  1.00  0.00     0.036 C 
BRANCH   5   6
ATOM      6  C   UNL     1      11.325 -15.935  31.123  1.00  0.00     0.136 C 
BRANCH   6   7
ATOM      7  C   UNL     1      12.822 -15.807  31.278  1.00  0.00    -0.004 C 
ATOM      8  C   UNL     1      13.635 -16.870  31.277  1.00  0.00     0.007 C 
ENDBRANCH   6   7
BRANCH   6   9
ATOM      9  O   UNL     1      10.835 -14.900  30.310  1.00  0.00    -0.389 OA
ATOM     10  H   UNL     1      10.964 -14.055  30.814  1.00  0.00     0.211 HD
ENDBRANCH   6   9
ENDBRANCH   5   6
ENDBRANCH   1   5
TORSDOF 6
ENDMDL
MODEL 9
REMARK VINA RESULT:    -3.725      2.317      3.481
REMARK INTER + INTRA:          -5.469
REMARK INTER:                  -5.177
REMARK INTRA:                  -0.292
REMARK UNBOUND:                -0.546
REMARK SMILES C=C[C@H](O)CCCCC
REMARK SMILES IDX 6 1 7 2 8 3 9 4 5 5 3 6 2 7 1 8 4 9
REMARK H PARENT 4 10
REMARK Flexibility Score: inf
ROOT
ATOM      1  C   UNL     1      12.630 -13.586  28.768  1.00  0.00     0.003 C 
ENDROOT
BRANCH   1   2
ATOM      2  C   UNL     1      11.717 -12.929  27.718  1.00  0.00    -0.000 C 
BRANCH   2   3
ATOM      3  C   UNL     1      12.040 -13.388  26.288  1.00  0.00    -0.003 C 
ATOM      4  C   UNL     1      11.277 -14.649  25.882  1.00  0.00     0.004 C 
ENDBRANCH   2   3
ENDBRANCH   1   2
BRANCH   1   5
ATOM      5  C   UNL     1      11.875 -14.573  29.678  1.00  0.00     0.036 C 
BRANCH   5   6
ATOM      6  C   UNL     1      12.508 -15.977  29.715  1.00  0.00     0.136 C 
BRANCH   6   7
ATOM      7  C   UNL     1      13.709 -15.996  30.630  1.00  0.00    -0.004 C 
ATOM      8  C   UNL     1      13.594 -15.985  31.963  1.00  0.00     0.007 C 
ENDBRANCH   6   7
BRANCH   6   9
ATOM      9  O   UNL     1      12.882 -16.373  28.420  1.00  0.00    -0.389 OA
ATOM     10  H   UNL     1      13.870 -16.297  28.372  1.00  0.00     0.211 HD
ENDBRANCH   6   9
ENDBRANCH   5   6
ENDBRANCH   1   5
TORSDOF 6
ENDMDL
