MODEL 1
REMARK VINA RESULT:    -3.375      0.000      0.000
REMARK INTER + INTRA:          -7.905
REMARK INTER:                  -6.532
REMARK INTRA:                  -1.374
REMARK UNBOUND:                -1.374
REMARK SMILES CCCCCCCCCCCCCCCCCC(=O)[O-]
REMARK SMILES IDX 10 1 11 2 12 3 13 4 14 5 15 6 16 7 17 8 18 9 19 10 20 11
REMARK SMILES IDX 9 12 8 13 7 14 6 15 5 16 4 17 3 18 2 19 1 20
REMARK H PARENT
REMARK Flexibility Score: inf
ROOT
ATOM      1  C   UNL     1      -9.165   4.305  -5.699  1.00  0.00     0.000 C 
ENDROOT
BRANCH   1   2
ATOM      2  C   UNL     1      -9.887   5.661  -5.619  1.00  0.00     0.000 C 
BRANCH   2   3
ATOM      3  C   UNL     1      -8.916   6.834  -5.415  1.00  0.00     0.000 C 
BRANCH   3   4
ATOM      4  C   UNL     1      -7.977   7.037  -6.616  1.00  0.00     0.000 C 
BRANCH   4   5
ATOM      5  C   UNL     1      -8.734   7.130  -7.949  1.00  0.00     0.000 C 
BRANCH   5   6
ATOM      6  C   UNL     1      -8.020   6.386  -9.088  1.00  0.00     0.000 C 
BRANCH   6   7
ATOM      7  C   UNL     1      -8.636   4.998  -9.309  1.00  0.00     0.006 C 
BRANCH   7   8
ATOM      8  C   UNL     1      -7.661   3.866  -8.959  1.00  0.00     0.053 C 
BRANCH   8   9
ATOM      9  C   UNL     1      -8.352   2.540  -8.878  1.00  0.00     0.041 C 
ATOM     10  O   UNL     1      -9.609   2.481  -8.870  1.00  0.00    -0.550 OA
ATOM     11  O   UNL     1      -7.608   1.371  -8.781  1.00  0.00    -0.550 OA
ENDBRANCH   8   9
ENDBRANCH   7   8
ENDBRANCH   6   7
ENDBRANCH   5   6
ENDBRANCH   4   5
ENDBRANCH   3   4
ENDBRANCH   2   3
ENDBRANCH   1   2
BRANCH   1  12
ATOM     12  C   UNL     1      -9.400   3.436  -4.454  1.00  0.00     0.000 C 
BRANCH  12  13
ATOM     13  C   UNL     1      -9.519   1.942  -4.790  1.00  0.00    -0.000 C 
BRANCH  13  14
ATOM     14  C   UNL     1      -8.252   1.181  -4.371  1.00  0.00    -0.000 C 
BRANCH  14  15
ATOM     15  C   UNL     1      -7.446   1.919  -3.291  1.00  0.00    -0.000 C 
BRANCH  15  16
ATOM     16  C   UNL     1      -5.963   1.509  -3.268  1.00  0.00    -0.000 C 
BRANCH  16  17
ATOM     17  C   UNL     1      -5.296   1.812  -1.909  1.00  0.00    -0.000 C 
BRANCH  17  18
ATOM     18  C   UNL     1      -6.011   2.913  -1.103  1.00  0.00    -0.000 C 
BRANCH  18  19
ATOM     19  C   UNL     1      -5.242   3.399   0.138  1.00  0.00    -0.003 C 
ATOM     20  C   UNL     1      -5.186   2.350   1.247  1.00  0.00     0.004 C 
ENDBRANCH  18  19
ENDBRANCH  17  18
ENDBRANCH  16  17
ENDBRANCH  15  16
ENDBRANCH  14  15
ENDBRANCH  13  14
ENDBRANCH  12  13
ENDBRANCH   1  12
TORSDOF 16
ENDMDL
MODEL 2
REMARK VINA RESULT:    -3.182      2.737      4.072
REMARK INTER + INTRA:          -7.532
REMARK INTER:                  -6.256
REMARK INTRA:                  -1.276
REMARK UNBOUND:                -1.374
REMARK SMILES CCCCCCCCCCCCCCCCCC(=O)[O-]
REMARK SMILES IDX 10 1 11 2 12 3 13 4 14 5 15 6 16 7 17 8 18 9 19 10 20 11
REMARK SMILES IDX 9 12 8 13 7 14 6 15 5 16 4 17 3 18 2 19 1 20
REMARK H PARENT
REMARK Flexibility Score: inf
ROOT
ATOM      1  C   UNL     1      -9.579   1.310  -7.360  1.00  0.00     0.000 C 
ENDROOT
BRANCH   1   2
ATOM      2  C   UNL     1      -8.345   0.961  -8.210  1.00  0.00     0.000 C 
BRANCH   2   3
ATOM      3  C   UNL     1      -7.978   2.075  -9.202  1.00  0.00     0.000 C 
BRANCH   3   4
ATOM      4  C   UNL     1      -8.847   3.332  -9.024  1.00  0.00     0.000 C 
BRANCH   4   5
ATOM      5  C   UNL     1      -8.272   4.306  -7.984  1.00  0.00     0.000 C 
BRANCH   5   6
ATOM      6  C   UNL     1      -9.336   5.251  -7.407  1.00  0.00     0.000 C 
BRANCH   6   7
ATOM      7  C   UNL     1      -8.691   6.526  -6.844  1.00  0.00     0.006 C 
BRANCH   7   8
ATOM      8  C   UNL     1      -8.583   6.497  -5.314  1.00  0.00     0.053 C 
BRANCH   8   9
ATOM      9  C   UNL     1      -9.190   7.716  -4.689  1.00  0.00     0.041 C 
ATOM     10  O   UNL     1      -8.927   8.858  -5.147  1.00  0.00    -0.550 OA
ATOM     11  O   UNL     1     -10.021   7.592  -3.584  1.00  0.00    -0.550 OA
ENDBRANCH   8   9
ENDBRANCH   7   8
ENDBRANCH   6   7
ENDBRANCH   5   6
ENDBRANCH   4   5
ENDBRANCH   3   4
ENDBRANCH   2   3
ENDBRANCH   1   2
BRANCH   1  12
ATOM     12  C   UNL     1      -9.614   0.547  -6.027  1.00  0.00     0.000 C 
BRANCH  12  13
ATOM     13  C   UNL     1      -9.844   1.472  -4.823  1.00  0.00    -0.000 C 
BRANCH  13  14
ATOM     14  C   UNL     1      -8.739   2.535  -4.728  1.00  0.00    -0.000 C 
BRANCH  14  15
ATOM     15  C   UNL     1      -8.000   2.506  -3.381  1.00  0.00    -0.000 C 
BRANCH  15  16
ATOM     16  C   UNL     1      -6.752   1.606  -3.404  1.00  0.00    -0.000 C 
BRANCH  16  17
ATOM     17  C   UNL     1      -5.719   2.015  -2.331  1.00  0.00    -0.000 C 
BRANCH  17  18
ATOM     18  C   UNL     1      -6.313   2.878  -1.202  1.00  0.00    -0.000 C 
BRANCH  18  19
ATOM     19  C   UNL     1      -5.297   3.322  -0.135  1.00  0.00    -0.003 C 
ATOM     20  C   UNL     1      -5.230   2.363   1.053  1.00  0.00     0.004 C 
ENDBRANCH  18  19
ENDBRANCH  17  18
ENDBRANCH  16  17
ENDBRANCH  15  16
ENDBRANCH  14  15
ENDBRANCH  13  14
ENDBRANCH  12  13
ENDBRANCH   1  12
TORSDOF 16
ENDMDL
MODEL 3
REMARK VINA RESULT:    -3.167     15.147     17.788
REMARK INTER + INTRA:          -7.503
REMARK INTER:                  -5.830
REMARK INTRA:                  -1.672
REMARK UNBOUND:                -1.374
REMARK SMILES CCCCCCCCCCCCCCCCCC(=O)[O-]
REMARK SMILES IDX 10 1 11 2 12 3 13 4 14 5 15 6 16 7 17 8 18 9 19 10 20 11
REMARK SMILES IDX 9 12 8 13 7 14 6 15 5 16 4 17 3 18 2 19 1 20
REMARK H PARENT
REMARK Flexibility Score: inf
ROOT
ATOM      1  C   UNL     1       6.206   7.819  -2.605  1.00  0.00     0.000 C 
ENDROOT
BRANCH   1   2
ATOM      2  C   UNL     1       7.443   6.997  -3.005  1.00  0.00     0.000 C 
BRANCH   2   3
ATOM      3  C   UNL     1       8.737   7.826  -2.977  1.00  0.00     0.000 C 
BRANCH   3   4
ATOM      4  C   UNL     1       9.219   8.118  -1.546  1.00  0.00     0.000 C 
BRANCH   4   5
ATOM      5  C   UNL     1       8.818   9.520  -1.062  1.00  0.00     0.000 C 
BRANCH   5   6
ATOM      6  C   UNL     1       9.111   9.736   0.431  1.00  0.00     0.000 C 
BRANCH   6   7
ATOM      7  C   UNL     1       7.882   9.397   1.286  1.00  0.00     0.006 C 
BRANCH   7   8
ATOM      8  C   UNL     1       8.123   9.653   2.779  1.00  0.00     0.053 C 
BRANCH   8   9
ATOM      9  C   UNL     1       7.130   8.930   3.636  1.00  0.00     0.041 C 
ATOM     10  O   UNL     1       5.899   9.017   3.388  1.00  0.00    -0.550 OA
ATOM     11  O   UNL     1       7.561   8.186   4.727  1.00  0.00    -0.550 OA
ENDBRANCH   8   9
ENDBRANCH   7   8
ENDBRANCH   6   7
ENDBRANCH   5   6
ENDBRANCH   4   5
ENDBRANCH   3   4
ENDBRANCH   2   3
ENDBRANCH   1   2
BRANCH   1  12
ATOM     12  C   UNL     1       4.888   7.107  -2.946  1.00  0.00     0.000 C 
BRANCH  12  13
ATOM     13  C   UNL     1       3.924   7.998  -3.743  1.00  0.00    -0.000 C 
BRANCH  13  14
ATOM     14  C   UNL     1       4.679   9.147  -4.429  1.00  0.00    -0.000 C 
BRANCH  14  15
ATOM     15  C   UNL     1       4.684   9.025  -5.960  1.00  0.00    -0.000 C 
BRANCH  15  16
ATOM     16  C   UNL     1       6.105   8.987  -6.551  1.00  0.00    -0.000 C 
BRANCH  16  17
ATOM     17  C   UNL     1       7.103   9.823  -5.720  1.00  0.00    -0.000 C 
BRANCH  17  18
ATOM     18  C   UNL     1       8.564   9.684  -6.190  1.00  0.00    -0.000 C 
BRANCH  18  19
ATOM     19  C   UNL     1       8.960   8.267  -6.637  1.00  0.00    -0.003 C 
ATOM     20  C   UNL     1       9.428   8.214  -8.090  1.00  0.00     0.004 C 
ENDBRANCH  18  19
ENDBRANCH  17  18
ENDBRANCH  16  17
ENDBRANCH  15  16
ENDBRANCH  14  15
ENDBRANCH  13  14
ENDBRANCH  12  13
ENDBRANCH   1  12
TORSDOF 16
ENDMDL
MODEL 4
REMARK VINA RESULT:    -3.096     15.404     19.050
REMARK INTER + INTRA:          -7.365
REMARK INTER:                  -6.098
REMARK INTRA:                  -1.266
REMARK UNBOUND:                -1.374
REMARK SMILES CCCCCCCCCCCCCCCCCC(=O)[O-]
REMARK SMILES IDX 10 1 11 2 12 3 13 4 14 5 15 6 16 7 17 8 18 9 19 10 20 11
REMARK SMILES IDX 9 12 8 13 7 14 6 15 5 16 4 17 3 18 2 19 1 20
REMARK H PARENT
REMARK Flexibility Score: inf
ROOT
ATOM      1  C   UNL     1       7.395   9.232  -0.413  1.00  0.00     0.000 C 
ENDROOT
BRANCH   1   2
ATOM      2  C   UNL     1       8.238   9.427   0.859  1.00  0.00     0.000 C 
BRANCH   2   3
ATOM      3  C   UNL     1       7.375   9.674   2.107  1.00  0.00     0.000 C 
BRANCH   3   4
ATOM      4  C   UNL     1       8.165   9.494   3.414  1.00  0.00     0.000 C 
BRANCH   4   5
ATOM      5  C   UNL     1       7.479   8.527   4.391  1.00  0.00     0.000 C 
BRANCH   5   6
ATOM      6  C   UNL     1       8.226   8.408   5.728  1.00  0.00     0.000 C 
BRANCH   6   7
ATOM      7  C   UNL     1       8.271   6.948   6.203  1.00  0.00     0.006 C 
BRANCH   7   8
ATOM      8  C   UNL     1       8.358   6.836   7.731  1.00  0.00     0.053 C 
BRANCH   8   9
ATOM      9  C   UNL     1       7.969   5.472   8.212  1.00  0.00     0.041 C 
ATOM     10  O   UNL     1       6.860   5.294   8.779  1.00  0.00    -0.550 OA
ATOM     11  O   UNL     1       8.845   4.404   8.062  1.00  0.00    -0.550 OA
ENDBRANCH   8   9
ENDBRANCH   7   8
ENDBRANCH   6   7
ENDBRANCH   5   6
ENDBRANCH   4   5
ENDBRANCH   3   4
ENDBRANCH   2   3
ENDBRANCH   1   2
BRANCH   1  12
ATOM     12  C   UNL     1       8.057   8.278  -1.420  1.00  0.00     0.000 C 
BRANCH  12  13
ATOM     13  C   UNL     1       8.458   8.983  -2.724  1.00  0.00    -0.000 C 
BRANCH  13  14
ATOM     14  C   UNL     1       8.487   7.991  -3.897  1.00  0.00    -0.000 C 
BRANCH  14  15
ATOM     15  C   UNL     1       7.879   8.572  -5.183  1.00  0.00    -0.000 C 
BRANCH  15  16
ATOM     16  C   UNL     1       6.653   9.463  -4.912  1.00  0.00    -0.000 C 
BRANCH  16  17
ATOM     17  C   UNL     1       5.366   8.889  -5.546  1.00  0.00    -0.000 C 
BRANCH  17  18
ATOM     18  C   UNL     1       4.231   8.654  -4.531  1.00  0.00    -0.000 C 
BRANCH  18  19
ATOM     19  C   UNL     1       4.705   8.387  -3.092  1.00  0.00    -0.003 C 
ATOM     20  C   UNL     1       4.928   6.902  -2.809  1.00  0.00     0.004 C 
ENDBRANCH  18  19
ENDBRANCH  17  18
ENDBRANCH  16  17
ENDBRANCH  15  16
ENDBRANCH  14  15
ENDBRANCH  13  14
ENDBRANCH  12  13
ENDBRANCH   1  12
TORSDOF 16
ENDMDL
MODEL 5
REMARK VINA RESULT:    -3.083      3.364      7.677
REMARK INTER + INTRA:          -7.340
REMARK INTER:                  -5.473
REMARK INTRA:                  -1.867
REMARK UNBOUND:                -1.374
REMARK SMILES CCCCCCCCCCCCCCCCCC(=O)[O-]
REMARK SMILES IDX 10 1 11 2 12 3 13 4 14 5 15 6 16 7 17 8 18 9 19 10 20 11
REMARK SMILES IDX 9 12 8 13 7 14 6 15 5 16 4 17 3 18 2 19 1 20
REMARK H PARENT
REMARK Flexibility Score: inf
ROOT
ATOM      1  C   UNL     1      -8.852   4.313  -6.269  1.00  0.00     0.000 C 
ENDROOT
BRANCH   1   2
ATOM      2  C   UNL     1      -9.967   3.806  -5.338  1.00  0.00     0.000 C 
BRANCH   2   3
ATOM      3  C   UNL     1      -9.419   3.062  -4.111  1.00  0.00     0.000 C 
BRANCH   3   4
ATOM      4  C   UNL     1      -8.710   1.749  -4.486  1.00  0.00     0.000 C 
BRANCH   4   5
ATOM      5  C   UNL     1      -7.348   1.595  -3.794  1.00  0.00     0.000 C 
BRANCH   5   6
ATOM      6  C   UNL     1      -7.163   2.576  -2.626  1.00  0.00     0.000 C 
BRANCH   6   7
ATOM      7  C   UNL     1      -5.819   2.343  -1.921  1.00  0.00     0.006 C 
BRANCH   7   8
ATOM      8  C   UNL     1      -5.768   2.999  -0.535  1.00  0.00     0.053 C 
BRANCH   8   9
ATOM      9  C   UNL     1      -5.142   2.097   0.485  1.00  0.00     0.041 C 
ATOM     10  O   UNL     1      -4.749   0.948   0.156  1.00  0.00    -0.550 OA
ATOM     11  O   UNL     1      -5.020   2.515   1.804  1.00  0.00    -0.550 OA
ENDBRANCH   8   9
ENDBRANCH   7   8
ENDBRANCH   6   7
ENDBRANCH   5   6
ENDBRANCH   4   5
ENDBRANCH   3   4
ENDBRANCH   2   3
ENDBRANCH   1   2
BRANCH   1  12
ATOM     12  C   UNL     1      -8.883   5.838  -6.454  1.00  0.00     0.000 C 
BRANCH  12  13
ATOM     13  C   UNL     1      -9.395   6.255  -7.841  1.00  0.00    -0.000 C 
BRANCH  13  14
ATOM     14  C   UNL     1      -8.226   6.610  -8.773  1.00  0.00    -0.000 C 
BRANCH  14  15
ATOM     15  C   UNL     1      -7.991   5.552  -9.862  1.00  0.00    -0.000 C 
BRANCH  15  16
ATOM     16  C   UNL     1      -6.920   4.519  -9.469  1.00  0.00    -0.000 C 
BRANCH  16  17
ATOM     17  C   UNL     1      -7.431   3.069  -9.606  1.00  0.00    -0.000 C 
BRANCH  17  18
ATOM     18  C   UNL     1      -8.954   2.970  -9.819  1.00  0.00    -0.000 C 
BRANCH  18  19
ATOM     19  C   UNL     1      -9.665   1.967  -8.895  1.00  0.00    -0.003 C 
ATOM     20  C   UNL     1      -8.694   1.017  -8.195  1.00  0.00     0.004 C 
ENDBRANCH  18  19
ENDBRANCH  17  18
ENDBRANCH  16  17
ENDBRANCH  15  16
ENDBRANCH  14  15
ENDBRANCH  13  14
ENDBRANCH  12  13
ENDBRANCH   1  12
TORSDOF 16
ENDMDL
MODEL 6
REMARK VINA RESULT:    -3.031      2.375      3.233
REMARK INTER + INTRA:          -7.240
REMARK INTER:                  -5.897
REMARK INTRA:                  -1.343
REMARK UNBOUND:                -1.374
REMARK SMILES CCCCCCCCCCCCCCCCCC(=O)[O-]
REMARK SMILES IDX 10 1 11 2 12 3 13 4 14 5 15 6 16 7 17 8 18 9 19 10 20 11
REMARK SMILES IDX 9 12 8 13 7 14 6 15 5 16 4 17 3 18 2 19 1 20
REMARK H PARENT
REMARK Flexibility Score: inf
ROOT
ATOM      1  C   UNL     1      -8.922   4.840  -5.566  1.00  0.00     0.000 C 
ENDROOT
BRANCH   1   2
ATOM      2  C   UNL     1      -9.331   5.025  -7.038  1.00  0.00     0.000 C 
BRANCH   2   3
ATOM      3  C   UNL     1      -9.364   3.698  -7.812  1.00  0.00     0.000 C 
BRANCH   3   4
ATOM      4  C   UNL     1      -8.045   3.414  -8.551  1.00  0.00     0.000 C 
BRANCH   4   5
ATOM      5  C   UNL     1      -7.851   4.315  -9.781  1.00  0.00     0.000 C 
BRANCH   5   6
ATOM      6  C   UNL     1      -6.407   4.821  -9.922  1.00  0.00     0.000 C 
BRANCH   6   7
ATOM      7  C   UNL     1      -6.376   6.346 -10.101  1.00  0.00     0.006 C 
BRANCH   7   8
ATOM      8  C   UNL     1      -7.747   6.989  -9.854  1.00  0.00     0.053 C 
BRANCH   8   9
ATOM      9  C   UNL     1      -7.643   8.207  -8.988  1.00  0.00     0.041 C 
ATOM     10  O   UNL     1      -7.685   9.354  -9.503  1.00  0.00    -0.550 OA
ATOM     11  O   UNL     1      -7.470   8.074  -7.616  1.00  0.00    -0.550 OA
ENDBRANCH   8   9
ENDBRANCH   7   8
ENDBRANCH   6   7
ENDBRANCH   5   6
ENDBRANCH   4   5
ENDBRANCH   3   4
ENDBRANCH   2   3
ENDBRANCH   1   2
BRANCH   1  12
ATOM     12  C   UNL     1     -10.123   4.555  -4.651  1.00  0.00     0.000 C 
BRANCH  12  13
ATOM     13  C   UNL     1     -10.078   3.147  -4.038  1.00  0.00    -0.000 C 
BRANCH  13  14
ATOM     14  C   UNL     1      -8.707   2.492  -4.269  1.00  0.00    -0.000 C 
BRANCH  14  15
ATOM     15  C   UNL     1      -7.855   2.431  -2.992  1.00  0.00    -0.000 C 
BRANCH  15  16
ATOM     16  C   UNL     1      -6.512   1.710  -3.205  1.00  0.00    -0.000 C 
BRANCH  16  17
ATOM     17  C   UNL     1      -5.529   1.955  -2.040  1.00  0.00    -0.000 C 
BRANCH  17  18
ATOM     18  C   UNL     1      -6.016   3.017  -1.036  1.00  0.00    -0.000 C 
BRANCH  18  19
ATOM     19  C   UNL     1      -5.037   3.303   0.116  1.00  0.00    -0.003 C 
ATOM     20  C   UNL     1      -5.298   2.434   1.345  1.00  0.00     0.004 C 
ENDBRANCH  18  19
ENDBRANCH  17  18
ENDBRANCH  16  17
ENDBRANCH  15  16
ENDBRANCH  14  15
ENDBRANCH  13  14
ENDBRANCH  12  13
ENDBRANCH   1  12
TORSDOF 16
ENDMDL
MODEL 7
REMARK VINA RESULT:    -3.025      2.810      7.515
REMARK INTER + INTRA:          -7.228
REMARK INTER:                  -5.590
REMARK INTRA:                  -1.638
REMARK UNBOUND:                -1.374
REMARK SMILES CCCCCCCCCCCCCCCCCC(=O)[O-]
REMARK SMILES IDX 10 1 11 2 12 3 13 4 14 5 15 6 16 7 17 8 18 9 19 10 20 11
REMARK SMILES IDX 9 12 8 13 7 14 6 15 5 16 4 17 3 18 2 19 1 20
REMARK H PARENT
REMARK Flexibility Score: inf
ROOT
ATOM      1  C   UNL     1      -8.977   5.878  -5.503  1.00  0.00     0.000 C 
ENDROOT
BRANCH   1   2
ATOM      2  C   UNL     1      -8.790   5.035  -6.776  1.00  0.00     0.000 C 
BRANCH   2   3
ATOM      3  C   UNL     1      -9.440   3.647  -6.665  1.00  0.00     0.000 C 
BRANCH   3   4
ATOM      4  C   UNL     1     -10.003   3.371  -5.260  1.00  0.00     0.000 C 
BRANCH   4   5
ATOM      5  C   UNL     1      -9.340   2.160  -4.586  1.00  0.00     0.000 C 
BRANCH   5   6
ATOM      6  C   UNL     1      -8.314   2.567  -3.516  1.00  0.00     0.000 C 
BRANCH   6   7
ATOM      7  C   UNL     1      -7.134   1.586  -3.486  1.00  0.00     0.006 C 
BRANCH   7   8
ATOM      8  C   UNL     1      -5.981   2.089  -2.608  1.00  0.00     0.053 C 
BRANCH   8   9
ATOM      9  C   UNL     1      -4.770   1.216  -2.725  1.00  0.00     0.041 C 
ATOM     10  O   UNL     1      -4.444   0.455  -1.777  1.00  0.00    -0.550 OA
ATOM     11  O   UNL     1      -3.984   1.264  -3.869  1.00  0.00    -0.550 OA
ENDBRANCH   8   9
ENDBRANCH   7   8
ENDBRANCH   6   7
ENDBRANCH   5   6
ENDBRANCH   4   5
ENDBRANCH   3   4
ENDBRANCH   2   3
ENDBRANCH   1   2
BRANCH   1  12
ATOM     12  C   UNL     1      -9.733   7.189  -5.768  1.00  0.00     0.000 C 
BRANCH  12  13
ATOM     13  C   UNL     1      -9.409   8.277  -4.733  1.00  0.00    -0.000 C 
BRANCH  13  14
ATOM     14  C   UNL     1      -9.012   9.591  -5.424  1.00  0.00    -0.000 C 
BRANCH  14  15
ATOM     15  C   UNL     1      -8.852   9.437  -6.945  1.00  0.00    -0.000 C 
BRANCH  15  16
ATOM     16  C   UNL     1      -7.389   9.563  -7.406  1.00  0.00    -0.000 C 
BRANCH  16  17
ATOM     17  C   UNL     1      -7.108   8.738  -8.680  1.00  0.00    -0.000 C 
BRANCH  17  18
ATOM     18  C   UNL     1      -8.383   8.246  -9.391  1.00  0.00    -0.000 C 
BRANCH  18  19
ATOM     19  C   UNL     1      -8.315   6.795  -9.896  1.00  0.00    -0.003 C 
ATOM     20  C   UNL     1      -6.913   6.196  -9.789  1.00  0.00     0.004 C 
ENDBRANCH  18  19
ENDBRANCH  17  18
ENDBRANCH  16  17
ENDBRANCH  15  16
ENDBRANCH  14  15
ENDBRANCH  13  14
ENDBRANCH  12  13
ENDBRANCH   1  12
TORSDOF 16
ENDMDL
MODEL 8
REMARK VINA RESULT:    -3.009      3.536      7.430
REMARK INTER + INTRA:          -7.197
REMARK INTER:                  -5.956
REMARK INTRA:                  -1.241
REMARK UNBOUND:                -1.374
REMARK SMILES CCCCCCCCCCCCCCCCCC(=O)[O-]
REMARK SMILES IDX 10 1 11 2 12 3 13 4 14 5 15 6 16 7 17 8 18 9 19 10 20 11
REMARK SMILES IDX 9 12 8 13 7 14 6 15 5 16 4 17 3 18 2 19 1 20
REMARK H PARENT
REMARK Flexibility Score: inf
ROOT
ATOM      1  C   UNL     1      -8.538   0.249  -6.313  1.00  0.00     0.000 C 
ENDROOT
BRANCH   1   2
ATOM      2  C   UNL     1      -8.988   0.549  -4.873  1.00  0.00     0.000 C 
BRANCH   2   3
ATOM      3  C   UNL     1      -8.980   2.052  -4.554  1.00  0.00     0.000 C 
BRANCH   3   4
ATOM      4  C   UNL     1      -8.004   2.408  -3.420  1.00  0.00     0.000 C 
BRANCH   4   5
ATOM      5  C   UNL     1      -6.732   1.547  -3.442  1.00  0.00     0.000 C 
BRANCH   5   6
ATOM      6  C   UNL     1      -5.685   2.011  -2.418  1.00  0.00     0.000 C 
BRANCH   6   7
ATOM      7  C   UNL     1      -6.338   2.844  -1.306  1.00  0.00     0.006 C 
BRANCH   7   8
ATOM      8  C   UNL     1      -5.326   3.288  -0.242  1.00  0.00     0.053 C 
BRANCH   8   9
ATOM      9  C   UNL     1      -5.118   2.234   0.803  1.00  0.00     0.041 C 
ATOM     10  O   UNL     1      -4.833   1.056   0.465  1.00  0.00    -0.550 OA
ATOM     11  O   UNL     1      -5.269   2.547   2.148  1.00  0.00    -0.550 OA
ENDBRANCH   8   9
ENDBRANCH   7   8
ENDBRANCH   6   7
ENDBRANCH   5   6
ENDBRANCH   4   5
ENDBRANCH   3   4
ENDBRANCH   2   3
ENDBRANCH   1   2
BRANCH   1  12
ATOM     12  C   UNL     1      -9.713   0.204  -7.302  1.00  0.00     0.000 C 
BRANCH  12  13
ATOM     13  C   UNL     1     -10.021   1.579  -7.915  1.00  0.00    -0.000 C 
BRANCH  13  14
ATOM     14  C   UNL     1      -8.948   1.975  -8.941  1.00  0.00    -0.000 C 
BRANCH  14  15
ATOM     15  C   UNL     1      -8.568   3.462  -8.858  1.00  0.00    -0.000 C 
BRANCH  15  16
ATOM     16  C   UNL     1      -8.363   3.945  -7.412  1.00  0.00    -0.000 C 
BRANCH  16  17
ATOM     17  C   UNL     1      -9.502   4.876  -6.942  1.00  0.00    -0.000 C 
BRANCH  17  18
ATOM     18  C   UNL     1      -9.122   5.756  -5.736  1.00  0.00    -0.000 C 
BRANCH  18  19
ATOM     19  C   UNL     1      -8.252   6.976  -6.083  1.00  0.00    -0.003 C 
ATOM     20  C   UNL     1      -8.649   7.628  -7.406  1.00  0.00     0.004 C 
ENDBRANCH  18  19
ENDBRANCH  17  18
ENDBRANCH  16  17
ENDBRANCH  15  16
ENDBRANCH  14  15
ENDBRANCH  13  14
ENDBRANCH  12  13
ENDBRANCH   1  12
TORSDOF 16
ENDMDL
MODEL 9
REMARK VINA RESULT:    -2.997     14.531     16.620
REMARK INTER + INTRA:          -7.175
REMARK INTER:                  -5.328
REMARK INTRA:                  -1.847
REMARK UNBOUND:                -1.374
REMARK SMILES CCCCCCCCCCCCCCCCCC(=O)[O-]
REMARK SMILES IDX 10 1 11 2 12 3 13 4 14 5 15 6 16 7 17 8 18 9 19 10 20 11
REMARK SMILES IDX 9 12 8 13 7 14 6 15 5 16 4 17 3 18 2 19 1 20
REMARK H PARENT
REMARK Flexibility Score: inf
ROOT
ATOM      1  C   UNL     1       7.498   7.013  -3.008  1.00  0.00     0.000 C 
ENDROOT
BRANCH   1   2
ATOM      2  C   UNL     1       8.924   6.791  -2.474  1.00  0.00     0.000 C 
BRANCH   2   3
ATOM      3  C   UNL     1       9.964   7.669  -3.185  1.00  0.00     0.000 C 
BRANCH   3   4
ATOM      4  C   UNL     1       9.799   7.656  -4.715  1.00  0.00     0.000 C 
BRANCH   4   5
ATOM      5  C   UNL     1       9.247   8.981  -5.261  1.00  0.00     0.000 C 
BRANCH   5   6
ATOM      6  C   UNL     1       8.033   8.781  -6.182  1.00  0.00     0.000 C 
BRANCH   6   7
ATOM      7  C   UNL     1       6.873   9.697  -5.767  1.00  0.00     0.006 C 
BRANCH   7   8
ATOM      8  C   UNL     1       5.572   8.918  -5.533  1.00  0.00     0.053 C 
BRANCH   8   9
ATOM      9  C   UNL     1       4.561   9.186  -6.606  1.00  0.00     0.041 C 
ATOM     10  O   UNL     1       3.337   9.003  -6.380  1.00  0.00    -0.550 OA
ATOM     11  O   UNL     1       4.974   9.609  -7.863  1.00  0.00    -0.550 OA
ENDBRANCH   8   9
ENDBRANCH   7   8
ENDBRANCH   6   7
ENDBRANCH   5   6
ENDBRANCH   4   5
ENDBRANCH   3   4
ENDBRANCH   2   3
ENDBRANCH   1   2
BRANCH   1  12
ATOM     12  C   UNL     1       6.635   7.856  -2.057  1.00  0.00     0.000 C 
BRANCH  12  13
ATOM     13  C   UNL     1       7.032   9.340  -2.058  1.00  0.00    -0.000 C 
BRANCH  13  14
ATOM     14  C   UNL     1       7.120   9.885  -0.624  1.00  0.00    -0.000 C 
BRANCH  14  15
ATOM     15  C   UNL     1       8.379   9.408   0.117  1.00  0.00    -0.000 C 
BRANCH  15  16
ATOM     16  C   UNL     1       8.291   9.619   1.639  1.00  0.00    -0.000 C 
BRANCH  16  17
ATOM     17  C   UNL     1       6.863   9.988   2.094  1.00  0.00    -0.000 C 
BRANCH  17  18
ATOM     18  C   UNL     1       6.344   9.123   3.259  1.00  0.00    -0.000 C 
BRANCH  18  19
ATOM     19  C   UNL     1       7.433   8.645   4.235  1.00  0.00    -0.003 C 
ATOM     20  C   UNL     1       7.519   9.509   5.492  1.00  0.00     0.004 C 
ENDBRANCH  18  19
ENDBRANCH  17  18
ENDBRANCH  16  17
ENDBRANCH  15  16
ENDBRANCH  14  15
ENDBRANCH  13  14
ENDBRANCH  12  13
ENDBRANCH   1  12
TORSDOF 16
ENDMDL
