MODEL 1
REMARK VINA RESULT:    -3.846      0.000      0.000
REMARK INTER + INTRA:          -6.741
REMARK INTER:                  -5.869
REMARK INTRA:                  -0.872
REMARK UNBOUND:                -0.872
REMARK SMILES O=C([O-])CCCCCCCCC(=O)[O-]
REMARK SMILES IDX 7 1 6 2 5 3 4 4 2 5 1 6 3 7 8 8 9 9 10 10 11 11 12 12 13 13
REMARK SMILES IDX 14 14
REMARK H PARENT
REMARK Flexibility Score: inf
ROOT
ATOM      1  C   UNL     1     -12.409   2.937  16.684  1.00  0.00     0.000 C 
ENDROOT
BRANCH   1   2
ATOM      2  C   UNL     1     -11.249   3.712  16.042  1.00  0.00     0.000 C 
BRANCH   2   3
ATOM      3  C   UNL     1     -10.038   2.820  15.713  1.00  0.00     0.006 C 
BRANCH   3   4
ATOM      4  C   UNL     1     -10.331   1.312  15.799  1.00  0.00     0.053 C 
BRANCH   4   5
ATOM      5  C   UNL     1     -10.377   0.652  14.454  1.00  0.00     0.041 C 
ATOM      6  O   UNL     1     -11.482   0.361  13.925  1.00  0.00    -0.550 OA
ATOM      7  O   UNL     1      -9.197   0.384  13.770  1.00  0.00    -0.550 OA
ENDBRANCH   4   5
ENDBRANCH   3   4
ENDBRANCH   2   3
ENDBRANCH   1   2
BRANCH   1   8
ATOM      8  C   UNL     1     -12.913   3.649  17.946  1.00  0.00     0.000 C 
BRANCH   8   9
ATOM      9  C   UNL     1     -12.004   3.349  19.147  1.00  0.00     0.000 C 
BRANCH   9  10
ATOM     10  C   UNL     1     -11.583   1.869  19.221  1.00  0.00     0.006 C 
BRANCH  10  11
ATOM     11  C   UNL     1     -10.117   1.647  19.623  1.00  0.00     0.053 C 
BRANCH  11  12
ATOM     12  C   UNL     1      -9.997   0.974  20.956  1.00  0.00     0.041 C 
ATOM     13  O   UNL     1      -9.988  -0.282  21.034  1.00  0.00    -0.550 OA
ATOM     14  O   UNL     1      -9.927   1.737  22.115  1.00  0.00    -0.550 OA
ENDBRANCH  11  12
ENDBRANCH  10  11
ENDBRANCH   9  10
ENDBRANCH   8   9
ENDBRANCH   1   8
TORSDOF 9
ENDMDL
MODEL 2
REMARK VINA RESULT:    -3.709      1.822      2.478
REMARK INTER + INTRA:          -6.532
REMARK INTER:                  -5.745
REMARK INTRA:                  -0.787
REMARK UNBOUND:                -0.872
REMARK SMILES O=C([O-])CCCCCCCCC(=O)[O-]
REMARK SMILES IDX 7 1 6 2 5 3 4 4 2 5 1 6 3 7 8 8 9 9 10 10 11 11 12 12 13 13
REMARK SMILES IDX 14 14
REMARK H PARENT
REMARK Flexibility Score: inf
ROOT
ATOM      1  C   UNL     1     -10.563   3.357  16.395  1.00  0.00     0.000 C 
ENDROOT
BRANCH   1   2
ATOM      2  C   UNL     1      -9.614   2.494  15.552  1.00  0.00     0.000 C 
BRANCH   2   3
ATOM      3  C   UNL     1     -10.003   1.005  15.540  1.00  0.00     0.006 C 
BRANCH   3   4
ATOM      4  C   UNL     1     -10.613   0.530  14.210  1.00  0.00     0.053 C 
BRANCH   4   5
ATOM      5  C   UNL     1     -12.081   0.242  14.315  1.00  0.00     0.041 C 
ATOM      6  O   UNL     1     -12.751   0.703  15.276  1.00  0.00    -0.550 OA
ATOM      7  O   UNL     1     -12.714  -0.511  13.335  1.00  0.00    -0.550 OA
ENDBRANCH   4   5
ENDBRANCH   3   4
ENDBRANCH   2   3
ENDBRANCH   1   2
BRANCH   1   8
ATOM      8  C   UNL     1      -9.784   4.184  17.427  1.00  0.00     0.000 C 
BRANCH   8   9
ATOM      9  C   UNL     1      -8.703   3.332  18.110  1.00  0.00     0.000 C 
BRANCH   9  10
ATOM     10  C   UNL     1      -9.129   2.833  19.503  1.00  0.00     0.006 C 
BRANCH  10  11
ATOM     11  C   UNL     1      -9.807   1.454  19.501  1.00  0.00     0.053 C 
BRANCH  11  12
ATOM     12  C   UNL     1     -11.220   1.523  19.995  1.00  0.00     0.041 C 
ATOM     13  O   UNL     1     -11.994   2.425  19.579  1.00  0.00    -0.550 OA
ATOM     14  O   UNL     1     -11.671   0.610  20.939  1.00  0.00    -0.550 OA
ENDBRANCH  11  12
ENDBRANCH  10  11
ENDBRANCH   9  10
ENDBRANCH   8   9
ENDBRANCH   1   8
TORSDOF 9
ENDMDL
MODEL 3
REMARK VINA RESULT:    -3.683      2.433      6.070
REMARK INTER + INTRA:          -6.493
REMARK INTER:                  -5.952
REMARK INTRA:                  -0.541
REMARK UNBOUND:                -0.872
REMARK SMILES O=C([O-])CCCCCCCCC(=O)[O-]
REMARK SMILES IDX 7 1 6 2 5 3 4 4 2 5 1 6 3 7 8 8 9 9 10 10 11 11 12 12 13 13
REMARK SMILES IDX 14 14
REMARK H PARENT
REMARK Flexibility Score: inf
ROOT
ATOM      1  C   UNL     1     -10.259   2.195  17.898  1.00  0.00     0.000 C 
ENDROOT
BRANCH   1   2
ATOM      2  C   UNL     1     -11.729   2.211  18.340  1.00  0.00     0.000 C 
BRANCH   2   3
ATOM      3  C   UNL     1     -12.383   3.599  18.210  1.00  0.00     0.006 C 
BRANCH   3   4
ATOM      4  C   UNL     1     -12.278   4.459  19.482  1.00  0.00     0.053 C 
BRANCH   4   5
ATOM      5  C   UNL     1     -13.512   4.394  20.330  1.00  0.00     0.041 C 
ATOM      6  O   UNL     1     -14.256   5.403  20.448  1.00  0.00    -0.550 OA
ATOM      7  O   UNL     1     -13.856   3.209  20.968  1.00  0.00    -0.550 OA
ENDBRANCH   4   5
ENDBRANCH   3   4
ENDBRANCH   2   3
ENDBRANCH   1   2
BRANCH   1   8
ATOM      8  C   UNL     1      -9.985   3.293  16.862  1.00  0.00     0.000 C 
BRANCH   8   9
ATOM      9  C   UNL     1      -9.962   2.712  15.440  1.00  0.00     0.000 C 
BRANCH   9  10
ATOM     10  C   UNL     1      -9.971   1.172  15.424  1.00  0.00     0.006 C 
BRANCH  10  11
ATOM     11  C   UNL     1     -10.548   0.555  14.141  1.00  0.00     0.053 C 
BRANCH  11  12
ATOM     12  C   UNL     1     -12.011   0.258  14.271  1.00  0.00     0.041 C 
ATOM     13  O   UNL     1     -12.613  -0.375  13.365  1.00  0.00    -0.550 OA
ATOM     14  O   UNL     1     -12.716   0.709  15.380  1.00  0.00    -0.550 OA
ENDBRANCH  11  12
ENDBRANCH  10  11
ENDBRANCH   9  10
ENDBRANCH   8   9
ENDBRANCH   1   8
TORSDOF 9
ENDMDL
MODEL 4
REMARK VINA RESULT:    -3.660      1.990      3.030
REMARK INTER + INTRA:          -6.458
REMARK INTER:                  -5.602
REMARK INTRA:                  -0.856
REMARK UNBOUND:                -0.872
REMARK SMILES O=C([O-])CCCCCCCCC(=O)[O-]
REMARK SMILES IDX 7 1 6 2 5 3 4 4 2 5 1 6 3 7 8 8 9 9 10 10 11 11 12 12 13 13
REMARK SMILES IDX 14 14
REMARK H PARENT
REMARK Flexibility Score: inf
ROOT
ATOM      1  C   UNL     1      -8.761   2.593  18.608  1.00  0.00     0.000 C 
ENDROOT
BRANCH   1   2
ATOM      2  C   UNL     1      -9.649   1.784  17.653  1.00  0.00     0.000 C 
BRANCH   2   3
ATOM      3  C   UNL     1      -9.678   2.355  16.224  1.00  0.00     0.006 C 
BRANCH   3   4
ATOM      4  C   UNL     1     -10.876   3.280  15.946  1.00  0.00     0.053 C 
BRANCH   4   5
ATOM      5  C   UNL     1     -12.189   2.649  16.298  1.00  0.00     0.041 C 
ATOM      6  O   UNL     1     -12.953   3.198  17.136  1.00  0.00    -0.550 OA
ATOM      7  O   UNL     1     -12.583   1.470  15.679  1.00  0.00    -0.550 OA
ENDBRANCH   4   5
ENDBRANCH   3   4
ENDBRANCH   2   3
ENDBRANCH   1   2
BRANCH   1   8
ATOM      8  C   UNL     1      -9.575   3.138  19.788  1.00  0.00     0.000 C 
BRANCH   8   9
ATOM      9  C   UNL     1     -10.784   2.238  20.083  1.00  0.00     0.000 C 
BRANCH   9  10
ATOM     10  C   UNL     1     -10.597   1.383  21.350  1.00  0.00     0.006 C 
BRANCH  10  11
ATOM     11  C   UNL     1     -10.623  -0.133  21.101  1.00  0.00     0.053 C 
BRANCH  11  12
ATOM     12  C   UNL     1      -9.243  -0.710  21.014  1.00  0.00     0.041 C 
ATOM     13  O   UNL     1      -8.652  -1.100  22.054  1.00  0.00    -0.550 OA
ATOM     14  O   UNL     1      -8.599  -0.787  19.785  1.00  0.00    -0.550 OA
ENDBRANCH  11  12
ENDBRANCH  10  11
ENDBRANCH   9  10
ENDBRANCH   8   9
ENDBRANCH   1   8
TORSDOF 9
ENDMDL
MODEL 5
REMARK VINA RESULT:    -3.653      3.890      6.258
REMARK INTER + INTRA:          -6.447
REMARK INTER:                  -6.159
REMARK INTRA:                  -0.288
REMARK UNBOUND:                -0.872
REMARK SMILES O=C([O-])CCCCCCCCC(=O)[O-]
REMARK SMILES IDX 7 1 6 2 5 3 4 4 2 5 1 6 3 7 8 8 9 9 10 10 11 11 12 12 13 13
REMARK SMILES IDX 14 14
REMARK H PARENT
REMARK Flexibility Score: inf
ROOT
ATOM      1  C   UNL     1      -9.378   2.697  17.928  1.00  0.00     0.000 C 
ENDROOT
BRANCH   1   2
ATOM      2  C   UNL     1      -8.032   2.918  18.633  1.00  0.00     0.000 C 
BRANCH   2   3
ATOM      3  C   UNL     1      -7.532   4.370  18.536  1.00  0.00     0.006 C 
BRANCH   3   4
ATOM      4  C   UNL     1      -6.242   4.640  19.331  1.00  0.00     0.053 C 
BRANCH   4   5
ATOM      5  C   UNL     1      -5.034   4.766  18.452  1.00  0.00     0.041 C 
ATOM      6  O   UNL     1      -4.349   3.750  18.165  1.00  0.00    -0.550 OA
ATOM      7  O   UNL     1      -4.682   6.003  17.927  1.00  0.00    -0.550 OA
ENDBRANCH   4   5
ENDBRANCH   3   4
ENDBRANCH   2   3
ENDBRANCH   1   2
BRANCH   1   8
ATOM      8  C   UNL     1      -9.499   3.587  16.684  1.00  0.00     0.000 C 
BRANCH   8   9
ATOM      9  C   UNL     1     -10.297   2.880  15.578  1.00  0.00     0.000 C 
BRANCH   9  10
ATOM     10  C   UNL     1     -10.017   1.367  15.516  1.00  0.00     0.006 C 
BRANCH  10  11
ATOM     11  C   UNL     1     -10.541   0.678  14.246  1.00  0.00     0.053 C 
BRANCH  11  12
ATOM     12  C   UNL     1     -11.988   0.308  14.365  1.00  0.00     0.041 C 
ATOM     13  O   UNL     1     -12.650   0.655  15.378  1.00  0.00    -0.550 OA
ATOM     14  O   UNL     1     -12.595  -0.448  13.370  1.00  0.00    -0.550 OA
ENDBRANCH  11  12
ENDBRANCH  10  11
ENDBRANCH   9  10
ENDBRANCH   8   9
ENDBRANCH   1   8
TORSDOF 9
ENDMDL
MODEL 6
REMARK VINA RESULT:    -3.639      1.722      5.228
REMARK INTER + INTRA:          -6.425
REMARK INTER:                  -5.633
REMARK INTRA:                  -0.792
REMARK UNBOUND:                -0.872
REMARK SMILES O=C([O-])CCCCCCCCC(=O)[O-]
REMARK SMILES IDX 7 1 6 2 5 3 4 4 2 5 1 6 3 7 8 8 9 9 10 10 11 11 12 12 13 13
REMARK SMILES IDX 14 14
REMARK H PARENT
REMARK Flexibility Score: inf
ROOT
ATOM      1  C   UNL     1     -10.155   3.983  17.126  1.00  0.00     0.000 C 
ENDROOT
BRANCH   1   2
ATOM      2  C   UNL     1      -9.369   4.370  18.386  1.00  0.00     0.000 C 
BRANCH   2   3
ATOM      3  C   UNL     1      -8.569   3.197  18.982  1.00  0.00     0.006 C 
BRANCH   3   4
ATOM      4  C   UNL     1      -9.164   1.813  18.668  1.00  0.00     0.053 C 
BRANCH   4   5
ATOM      5  C   UNL     1     -10.117   1.339  19.724  1.00  0.00     0.041 C 
ATOM      6  O   UNL     1      -9.716   0.589  20.652  1.00  0.00    -0.550 OA
ATOM      7  O   UNL     1     -11.444   1.749  19.697  1.00  0.00    -0.550 OA
ENDBRANCH   4   5
ENDBRANCH   3   4
ENDBRANCH   2   3
ENDBRANCH   1   2
BRANCH   1   8
ATOM      8  C   UNL     1     -11.647   4.303  17.288  1.00  0.00     0.000 C 
BRANCH   8   9
ATOM      9  C   UNL     1     -12.515   3.243  16.592  1.00  0.00     0.000 C 
BRANCH   9  10
ATOM     10  C   UNL     1     -11.688   2.077  16.021  1.00  0.00     0.006 C 
BRANCH  10  11
ATOM     11  C   UNL     1     -12.529   0.930  15.440  1.00  0.00     0.053 C 
BRANCH  11  12
ATOM     12  C   UNL     1     -11.895   0.330  14.222  1.00  0.00     0.041 C 
ATOM     13  O   UNL     1     -12.558  -0.431  13.471  1.00  0.00    -0.550 OA
ATOM     14  O   UNL     1     -10.560   0.588  13.936  1.00  0.00    -0.550 OA
ENDBRANCH  11  12
ENDBRANCH  10  11
ENDBRANCH   9  10
ENDBRANCH   8   9
ENDBRANCH   1   8
TORSDOF 9
ENDMDL
MODEL 7
REMARK VINA RESULT:    -3.599      1.487      1.861
REMARK INTER + INTRA:          -6.365
REMARK INTER:                  -5.496
REMARK INTRA:                  -0.870
REMARK UNBOUND:                -0.872
REMARK SMILES O=C([O-])CCCCCCCCC(=O)[O-]
REMARK SMILES IDX 7 1 6 2 5 3 4 4 2 5 1 6 3 7 8 8 9 9 10 10 11 11 12 12 13 13
REMARK SMILES IDX 14 14
REMARK H PARENT
REMARK Flexibility Score: inf
ROOT
ATOM      1  C   UNL     1     -12.198   2.909  17.038  1.00  0.00     0.000 C 
ENDROOT
BRANCH   1   2
ATOM      2  C   UNL     1     -11.140   3.736  16.295  1.00  0.00     0.000 C 
BRANCH   2   3
ATOM      3  C   UNL     1     -10.176   2.871  15.461  1.00  0.00     0.006 C 
BRANCH   3   4
ATOM      4  C   UNL     1     -10.347   1.358  15.680  1.00  0.00     0.053 C 
BRANCH   4   5
ATOM      5  C   UNL     1     -10.356   0.583  14.397  1.00  0.00     0.041 C 
ATOM      6  O   UNL     1      -9.274   0.306  13.815  1.00  0.00    -0.550 OA
ATOM      7  O   UNL     1     -11.558   0.143  13.858  1.00  0.00    -0.550 OA
ENDBRANCH   4   5
ENDBRANCH   3   4
ENDBRANCH   2   3
ENDBRANCH   1   2
BRANCH   1   8
ATOM      8  C   UNL     1     -12.824   3.718  18.182  1.00  0.00     0.000 C 
BRANCH   8   9
ATOM      9  C   UNL     1     -12.291   3.247  19.544  1.00  0.00     0.000 C 
BRANCH   9  10
ATOM     10  C   UNL     1     -10.967   3.929  19.934  1.00  0.00     0.006 C 
BRANCH  10  11
ATOM     11  C   UNL     1      -9.867   2.959  20.392  1.00  0.00     0.053 C 
BRANCH  11  12
ATOM     12  C   UNL     1      -9.172   2.312  19.233  1.00  0.00     0.041 C 
ATOM     13  O   UNL     1      -9.350   1.090  18.989  1.00  0.00    -0.550 OA
ATOM     14  O   UNL     1      -8.301   3.052  18.443  1.00  0.00    -0.550 OA
ENDBRANCH  11  12
ENDBRANCH  10  11
ENDBRANCH   9  10
ENDBRANCH   8   9
ENDBRANCH   1   8
TORSDOF 9
ENDMDL
MODEL 8
REMARK VINA RESULT:    -3.591      2.736      3.445
REMARK INTER + INTRA:          -6.353
REMARK INTER:                  -5.792
REMARK INTRA:                  -0.561
REMARK UNBOUND:                -0.872
REMARK SMILES O=C([O-])CCCCCCCCC(=O)[O-]
REMARK SMILES IDX 7 1 6 2 5 3 4 4 2 5 1 6 3 7 8 8 9 9 10 10 11 11 12 12 13 13
REMARK SMILES IDX 14 14
REMARK H PARENT
REMARK Flexibility Score: inf
ROOT
ATOM      1  C   UNL     1      -9.511   3.030  17.079  1.00  0.00     0.000 C 
ENDROOT
BRANCH   1   2
ATOM      2  C   UNL     1      -9.918   2.617  15.658  1.00  0.00     0.000 C 
BRANCH   2   3
ATOM      3  C   UNL     1      -9.952   1.091  15.459  1.00  0.00     0.006 C 
BRANCH   3   4
ATOM      4  C   UNL     1     -10.633   0.647  14.152  1.00  0.00     0.053 C 
BRANCH   4   5
ATOM      5  C   UNL     1     -12.060   0.233  14.354  1.00  0.00     0.041 C 
ATOM      6  O   UNL     1     -12.692   0.606  15.377  1.00  0.00    -0.550 OA
ATOM      7  O   UNL     1     -12.701  -0.543  13.396  1.00  0.00    -0.550 OA
ENDBRANCH   4   5
ENDBRANCH   3   4
ENDBRANCH   2   3
ENDBRANCH   1   2
BRANCH   1   8
ATOM      8  C   UNL     1      -9.475   1.814  18.015  1.00  0.00     0.000 C 
BRANCH   8   9
ATOM      9  C   UNL     1     -10.340   2.056  19.262  1.00  0.00     0.000 C 
BRANCH   9  10
ATOM     10  C   UNL     1     -11.774   2.499  18.917  1.00  0.00     0.006 C 
BRANCH  10  11
ATOM     11  C   UNL     1     -12.496   3.246  20.048  1.00  0.00     0.053 C 
BRANCH  11  12
ATOM     12  C   UNL     1     -12.920   4.620  19.631  1.00  0.00     0.041 C 
ATOM     13  O   UNL     1     -13.902   5.178  20.188  1.00  0.00    -0.550 OA
ATOM     14  O   UNL     1     -12.249   5.273  18.604  1.00  0.00    -0.550 OA
ENDBRANCH  11  12
ENDBRANCH  10  11
ENDBRANCH   9  10
ENDBRANCH   8   9
ENDBRANCH   1   8
TORSDOF 9
ENDMDL
MODEL 9
REMARK VINA RESULT:    -3.586      0.716      5.384
REMARK INTER + INTRA:          -6.345
REMARK INTER:                  -5.433
REMARK INTRA:                  -0.912
REMARK UNBOUND:                -0.872
REMARK SMILES O=C([O-])CCCCCCCCC(=O)[O-]
REMARK SMILES IDX 7 1 6 2 5 3 4 4 2 5 1 6 3 7 8 8 9 9 10 10 11 11 12 12 13 13
REMARK SMILES IDX 14 14
REMARK H PARENT
REMARK Flexibility Score: inf
ROOT
ATOM      1  C   UNL     1     -12.350   3.386  18.796  1.00  0.00     0.000 C 
ENDROOT
BRANCH   1   2
ATOM      2  C   UNL     1     -11.053   3.981  19.362  1.00  0.00     0.000 C 
BRANCH   2   3
ATOM      3  C   UNL     1      -9.900   2.962  19.427  1.00  0.00     0.006 C 
BRANCH   3   4
ATOM      4  C   UNL     1     -10.364   1.495  19.440  1.00  0.00     0.053 C 
BRANCH   4   5
ATOM      5  C   UNL     1     -10.291   0.876  20.804  1.00  0.00     0.041 C 
ATOM      6  O   UNL     1     -11.018   1.307  21.737  1.00  0.00    -0.550 OA
ATOM      7  O   UNL     1      -9.440  -0.197  21.036  1.00  0.00    -0.550 OA
ENDBRANCH   4   5
ENDBRANCH   3   4
ENDBRANCH   2   3
ENDBRANCH   1   2
BRANCH   1   8
ATOM      8  C   UNL     1     -12.548   3.792  17.330  1.00  0.00     0.000 C 
BRANCH   8   9
ATOM      9  C   UNL     1     -12.298   2.602  16.392  1.00  0.00     0.000 C 
BRANCH   9  10
ATOM     10  C   UNL     1     -10.946   2.693  15.660  1.00  0.00     0.006 C 
BRANCH  10  11
ATOM     11  C   UNL     1     -10.119   1.398  15.694  1.00  0.00     0.053 C 
BRANCH  11  12
ATOM     12  C   UNL     1     -10.206   0.643  14.403  1.00  0.00     0.041 C 
ATOM     13  O   UNL     1      -9.164   0.396  13.742  1.00  0.00    -0.550 OA
ATOM     14  O   UNL     1     -11.443   0.242  13.915  1.00  0.00    -0.550 OA
ENDBRANCH  11  12
ENDBRANCH  10  11
ENDBRANCH   9  10
ENDBRANCH   8   9
ENDBRANCH   1   8
TORSDOF 9
ENDMDL
