MODEL 1
REMARK VINA RESULT:    -3.998      0.000      0.000
REMARK INTER + INTRA:          -4.444
REMARK INTER:                  -4.349
REMARK INTRA:                  -0.095
REMARK UNBOUND:                -0.095
REMARK SMILES C=C(C)[C@H]1CC=C(C)[C@@H](O)C1
REMARK SMILES IDX 8 1 7 2 6 3 5 4 4 5 11 6 9 7 10 8 2 10 1 11 3 12
REMARK H PARENT 10 9
REMARK Flexibility Score: inf
ROOT
ATOM      1  C   UNL     1     -40.125  26.560   3.324  1.00  0.00     0.042 C 
ATOM      2  C   UNL     1     -39.746  25.580   4.405  1.00  0.00    -0.049 C 
ATOM      3  C   UNL     1     -40.125  25.844   5.675  1.00  0.00    -0.025 C 
ATOM      4  C   UNL     1     -39.804  24.939   6.836  1.00  0.00     0.035 C 
ATOM      5  C   UNL     1     -39.552  23.493   6.382  1.00  0.00     0.021 C 
ATOM      6  C   UNL     1     -38.541  23.486   5.226  1.00  0.00     0.044 C 
ATOM      7  C   UNL     1     -39.098  24.259   4.016  1.00  0.00     0.140 C 
ENDROOT
BRANCH   7   8
ATOM      8  O   UNL     1     -38.060  24.498   3.102  1.00  0.00    -0.389 OA
ATOM      9  H   UNL     1     -37.586  23.635   2.972  1.00  0.00     0.211 HD
ENDBRANCH   7   8
BRANCH   5  10
ATOM     10  C   UNL     1     -39.086  22.620   7.539  1.00  0.00    -0.077 C 
ATOM     11  C   UNL     1     -37.901  22.856   8.125  1.00  0.00     0.008 C 
ATOM     12  C   UNL     1     -39.925  21.475   8.050  1.00  0.00     0.039 C 
ENDBRANCH   5  10
TORSDOF 2
ENDMDL
MODEL 2
REMARK VINA RESULT:    -3.698      1.468      1.982
REMARK INTER + INTRA:          -4.118
REMARK INTER:                  -4.027
REMARK INTRA:                  -0.091
REMARK UNBOUND:                -0.095
REMARK SMILES C=C(C)[C@H]1CC=C(C)[C@@H](O)C1
REMARK SMILES IDX 8 1 7 2 6 3 5 4 4 5 11 6 9 7 10 8 2 10 1 11 3 12
REMARK H PARENT 10 9
REMARK Flexibility Score: inf
ROOT
ATOM      1  C   UNL     1     -40.105  26.205   3.163  1.00  0.00     0.042 C 
ATOM      2  C   UNL     1     -39.904  25.237   4.301  1.00  0.00    -0.049 C 
ATOM      3  C   UNL     1     -40.049  23.916   4.056  1.00  0.00    -0.025 C 
ATOM      4  C   UNL     1     -39.873  22.858   5.114  1.00  0.00     0.035 C 
ATOM      5  C   UNL     1     -38.983  23.345   6.269  1.00  0.00     0.021 C 
ATOM      6  C   UNL     1     -39.484  24.710   6.763  1.00  0.00     0.044 C 
ATOM      7  C   UNL     1     -39.393  25.758   5.637  1.00  0.00     0.140 C 
ENDROOT
BRANCH   7   8
ATOM      8  O   UNL     1     -40.124  26.897   6.007  1.00  0.00    -0.389 OA
ATOM      9  H   UNL     1     -40.278  27.422   5.178  1.00  0.00     0.211 HD
ENDBRANCH   7   8
BRANCH   5  10
ATOM     10  C   UNL     1     -38.932  22.325   7.398  1.00  0.00    -0.077 C 
ATOM     11  C   UNL     1     -37.812  22.179   8.123  1.00  0.00     0.008 C 
ATOM     12  C   UNL     1     -40.119  21.452   7.726  1.00  0.00     0.039 C 
ENDBRANCH   5  10
TORSDOF 2
ENDMDL
MODEL 3
REMARK VINA RESULT:    -3.251      1.870      4.576
REMARK INTER + INTRA:          -3.632
REMARK INTER:                  -3.533
REMARK INTRA:                  -0.099
REMARK UNBOUND:                -0.095
REMARK SMILES C=C(C)[C@H]1CC=C(C)[C@@H](O)C1
REMARK SMILES IDX 8 1 7 2 6 3 5 4 4 5 11 6 9 7 10 8 2 10 1 11 3 12
REMARK H PARENT 10 9
REMARK Flexibility Score: inf
ROOT
ATOM      1  C   UNL     1     -39.092  21.445   8.090  1.00  0.00     0.042 C 
ATOM      2  C   UNL     1     -39.190  22.592   7.117  1.00  0.00    -0.049 C 
ATOM      3  C   UNL     1     -39.952  22.434   6.011  1.00  0.00    -0.025 C 
ATOM      4  C   UNL     1     -40.125  23.509   4.970  1.00  0.00     0.035 C 
ATOM      5  C   UNL     1     -39.863  24.910   5.544  1.00  0.00     0.021 C 
ATOM      6  C   UNL     1     -38.525  24.916   6.297  1.00  0.00     0.044 C 
ATOM      7  C   UNL     1     -38.568  23.932   7.483  1.00  0.00     0.140 C 
ENDROOT
BRANCH   7   8
ATOM      8  O   UNL     1     -37.265  23.728   7.962  1.00  0.00    -0.389 OA
ATOM      9  H   UNL     1     -36.650  23.889   7.199  1.00  0.00     0.211 HD
ENDBRANCH   7   8
BRANCH   5  10
ATOM     10  C   UNL     1     -39.896  25.973   4.454  1.00  0.00    -0.077 C 
ATOM     11  C   UNL     1     -39.718  25.624   3.170  1.00  0.00     0.008 C 
ATOM     12  C   UNL     1     -40.117  27.430   4.779  1.00  0.00     0.039 C 
ENDBRANCH   5  10
TORSDOF 2
ENDMDL
