MODEL 1
REMARK VINA RESULT:    -4.819      0.000      0.000
REMARK INTER + INTRA:          -5.438
REMARK INTER:                  -5.242
REMARK INTRA:                  -0.196
REMARK UNBOUND:                -0.196
REMARK SMILES Cc1ccc(C(C)C)c(O)c1
REMARK SMILES IDX 1 1 2 2 11 3 9 4 5 5 4 6 3 7 10 8 6 10 7 11 8 12
REMARK H PARENT 10 9
REMARK Flexibility Score: inf
ROOT
ATOM      1  C   UNL     1      29.861  22.247  13.399  1.00  0.00     0.044 C 
ATOM      2  C   UNL     1      29.796  23.644  12.859  1.00  0.00    -0.047 A 
ATOM      3  C   UNL     1      28.566  24.201  12.487  1.00  0.00     0.049 A 
ATOM      4  C   UNL     1      28.490  25.521  12.015  1.00  0.00     0.119 A 
ATOM      5  C   UNL     1      29.663  26.306  11.922  1.00  0.00    -0.004 A 
ATOM      6  C   UNL     1      30.889  25.741  12.317  1.00  0.00     0.008 A 
ATOM      7  C   UNL     1      30.954  24.427  12.785  1.00  0.00     0.004 A 
ENDROOT
BRANCH   4   8
ATOM      8  O   UNL     1      27.252  26.042  11.644  1.00  0.00    -0.508 OA
ATOM      9  H   UNL     1      26.382  25.639  11.974  1.00  0.00     0.293 HD
ENDBRANCH   4   8
BRANCH   5  10
ATOM     10  C   UNL     1      29.645  27.743  11.417  1.00  0.00     0.017 C 
ATOM     11  C   UNL     1      30.833  28.038  10.492  1.00  0.00     0.012 C 
ATOM     12  C   UNL     1      29.564  28.752  12.569  1.00  0.00     0.012 C 
ENDBRANCH   5  10
TORSDOF 2
ENDMDL
MODEL 2
REMARK VINA RESULT:    -4.693      1.055      4.088
REMARK INTER + INTRA:          -5.301
REMARK INTER:                  -5.109
REMARK INTRA:                  -0.192
REMARK UNBOUND:                -0.196
REMARK SMILES Cc1ccc(C(C)C)c(O)c1
REMARK SMILES IDX 1 1 2 2 11 3 9 4 5 5 4 6 3 7 10 8 6 10 7 11 8 12
REMARK H PARENT 10 9
REMARK Flexibility Score: inf
ROOT
ATOM      1  C   UNL     1      29.882  29.572  11.868  1.00  0.00     0.044 C 
ATOM      2  C   UNL     1      29.824  28.077  11.974  1.00  0.00    -0.047 A 
ATOM      3  C   UNL     1      28.617  27.400  11.758  1.00  0.00     0.049 A 
ATOM      4  C   UNL     1      28.560  25.999  11.819  1.00  0.00     0.119 A 
ATOM      5  C   UNL     1      29.733  25.255  12.091  1.00  0.00    -0.004 A 
ATOM      6  C   UNL     1      30.943  25.947  12.288  1.00  0.00     0.008 A 
ATOM      7  C   UNL     1      30.988  27.342  12.224  1.00  0.00     0.004 A 
ENDROOT
BRANCH   4   8
ATOM      8  O   UNL     1      27.342  25.356  11.608  1.00  0.00    -0.508 OA
ATOM      9  H   UNL     1      27.241  24.354  11.718  1.00  0.00     0.293 HD
ENDBRANCH   4   8
BRANCH   5  10
ATOM     10  C   UNL     1      29.735  23.735  12.171  1.00  0.00     0.017 C 
ATOM     11  C   UNL     1      29.381  23.237  13.579  1.00  0.00     0.012 C 
ATOM     12  C   UNL     1      31.060  23.138  11.679  1.00  0.00     0.012 C 
ENDBRANCH   5  10
TORSDOF 2
ENDMDL
MODEL 3
REMARK VINA RESULT:    -4.656      1.665      4.519
REMARK INTER + INTRA:          -5.261
REMARK INTER:                  -5.160
REMARK INTRA:                  -0.101
REMARK UNBOUND:                -0.196
REMARK SMILES Cc1ccc(C(C)C)c(O)c1
REMARK SMILES IDX 1 1 2 2 11 3 9 4 5 5 4 6 3 7 10 8 6 10 7 11 8 12
REMARK H PARENT 10 9
REMARK Flexibility Score: inf
ROOT
ATOM      1  C   UNL     1      30.097  29.717  11.514  1.00  0.00     0.044 C 
ATOM      2  C   UNL     1      29.705  28.274  11.624  1.00  0.00    -0.047 A 
ATOM      3  C   UNL     1      30.686  27.275  11.648  1.00  0.00     0.049 A 
ATOM      4  C   UNL     1      30.331  25.925  11.788  1.00  0.00     0.119 A 
ATOM      5  C   UNL     1      28.969  25.562  11.917  1.00  0.00    -0.004 A 
ATOM      6  C   UNL     1      27.995  26.577  11.911  1.00  0.00     0.008 A 
ATOM      7  C   UNL     1      28.359  27.918  11.772  1.00  0.00     0.004 A 
ENDROOT
BRANCH   4   8
ATOM      8  O   UNL     1      31.331  24.955  11.798  1.00  0.00    -0.508 OA
ATOM      9  H   UNL     1      32.307  25.191  11.656  1.00  0.00     0.293 HD
ENDBRANCH   4   8
BRANCH   5  10
ATOM     10  C   UNL     1      28.522  24.114  12.071  1.00  0.00     0.017 C 
ATOM     11  C   UNL     1      27.034  23.939  11.743  1.00  0.00     0.012 C 
ATOM     12  C   UNL     1      28.863  23.556  13.458  1.00  0.00     0.012 C 
ENDBRANCH   5  10
TORSDOF 2
ENDMDL
MODEL 4
REMARK VINA RESULT:    -4.323      1.853      4.410
REMARK INTER + INTRA:          -4.898
REMARK INTER:                  -4.714
REMARK INTRA:                  -0.184
REMARK UNBOUND:                -0.196
REMARK SMILES Cc1ccc(C(C)C)c(O)c1
REMARK SMILES IDX 1 1 2 2 11 3 9 4 5 5 4 6 3 7 10 8 6 10 7 11 8 12
REMARK H PARENT 10 9
REMARK Flexibility Score: inf
ROOT
ATOM      1  C   UNL     1      27.912  28.248  11.524  1.00  0.00     0.044 C 
ATOM      2  C   UNL     1      28.652  26.970  11.787  1.00  0.00    -0.047 A 
ATOM      3  C   UNL     1      30.041  26.981  11.967  1.00  0.00     0.049 A 
ATOM      4  C   UNL     1      30.737  25.796  12.250  1.00  0.00     0.119 A 
ATOM      5  C   UNL     1      30.032  24.574  12.367  1.00  0.00    -0.004 A 
ATOM      6  C   UNL     1      28.635  24.580  12.204  1.00  0.00     0.008 A 
ATOM      7  C   UNL     1      27.952  25.765  11.923  1.00  0.00     0.004 A 
ENDROOT
BRANCH   4   8
ATOM      8  O   UNL     1      32.120  25.840  12.414  1.00  0.00    -0.508 OA
ATOM      9  H   UNL     1      32.585  26.649  12.810  1.00  0.00     0.293 HD
ENDBRANCH   4   8
BRANCH   5  10
ATOM     10  C   UNL     1      30.732  23.256  12.672  1.00  0.00     0.017 C 
ATOM     11  C   UNL     1      31.291  22.600  11.403  1.00  0.00     0.012 C 
ATOM     12  C   UNL     1      29.824  22.294  13.450  1.00  0.00     0.012 C 
ENDBRANCH   5  10
TORSDOF 2
ENDMDL
MODEL 5
REMARK VINA RESULT:    -4.258      2.275      3.445
REMARK INTER + INTRA:          -4.828
REMARK INTER:                  -4.650
REMARK INTRA:                  -0.178
REMARK UNBOUND:                -0.196
REMARK SMILES Cc1ccc(C(C)C)c(O)c1
REMARK SMILES IDX 1 1 2 2 11 3 9 4 5 5 4 6 3 7 10 8 6 10 7 11 8 12
REMARK H PARENT 10 9
REMARK Flexibility Score: inf
ROOT
ATOM      1  C   UNL     1      31.634  20.673  14.909  1.00  0.00     0.044 C 
ATOM      2  C   UNL     1      31.116  21.910  14.237  1.00  0.00    -0.047 A 
ATOM      3  C   UNL     1      31.840  23.107  14.306  1.00  0.00     0.049 A 
ATOM      4  C   UNL     1      31.383  24.260  13.649  1.00  0.00     0.119 A 
ATOM      5  C   UNL     1      30.184  24.217  12.899  1.00  0.00    -0.004 A 
ATOM      6  C   UNL     1      29.477  23.003  12.822  1.00  0.00     0.008 A 
ATOM      7  C   UNL     1      29.941  21.861  13.479  1.00  0.00     0.004 A 
ENDROOT
BRANCH   4   8
ATOM      8  O   UNL     1      32.122  25.437  13.745  1.00  0.00    -0.508 OA
ATOM      9  H   UNL     1      31.766  26.321  13.399  1.00  0.00     0.293 HD
ENDBRANCH   4   8
BRANCH   5  10
ATOM     10  C   UNL     1      29.636  25.434  12.166  1.00  0.00     0.017 C 
ATOM     11  C   UNL     1      28.108  25.386  12.040  1.00  0.00     0.012 C 
ATOM     12  C   UNL     1      30.308  25.628  10.800  1.00  0.00     0.012 C 
ENDBRANCH   5  10
TORSDOF 2
ENDMDL
MODEL 6
REMARK VINA RESULT:    -4.212      2.068      3.210
REMARK INTER + INTRA:          -4.777
REMARK INTER:                  -4.586
REMARK INTRA:                  -0.191
REMARK UNBOUND:                -0.196
REMARK SMILES Cc1ccc(C(C)C)c(O)c1
REMARK SMILES IDX 1 1 2 2 11 3 9 4 5 5 4 6 3 7 10 8 6 10 7 11 8 12
REMARK H PARENT 10 9
REMARK Flexibility Score: inf
ROOT
ATOM      1  C   UNL     1      31.405  20.058  13.575  1.00  0.00     0.044 C 
ATOM      2  C   UNL     1      30.928  21.382  13.056  1.00  0.00    -0.047 A 
ATOM      3  C   UNL     1      31.364  21.851  11.810  1.00  0.00     0.049 A 
ATOM      4  C   UNL     1      30.895  23.071  11.300  1.00  0.00     0.119 A 
ATOM      5  C   UNL     1      29.964  23.837  12.042  1.00  0.00    -0.004 A 
ATOM      6  C   UNL     1      29.521  23.345  13.283  1.00  0.00     0.008 A 
ATOM      7  C   UNL     1      29.993  22.129  13.782  1.00  0.00     0.004 A 
ENDROOT
BRANCH   4   8
ATOM      8  O   UNL     1      31.355  23.514  10.061  1.00  0.00    -0.508 OA
ATOM      9  H   UNL     1      31.229  22.966   9.218  1.00  0.00     0.293 HD
ENDBRANCH   4   8
BRANCH   5  10
ATOM     10  C   UNL     1      29.421  25.168  11.542  1.00  0.00     0.017 C 
ATOM     11  C   UNL     1      30.334  26.339  11.926  1.00  0.00     0.012 C 
ATOM     12  C   UNL     1      27.977  25.405  12.004  1.00  0.00     0.012 C 
ENDBRANCH   5  10
TORSDOF 2
ENDMDL
MODEL 7
REMARK VINA RESULT:    -4.206      1.178      1.262
REMARK INTER + INTRA:          -4.771
REMARK INTER:                  -4.592
REMARK INTRA:                  -0.179
REMARK UNBOUND:                -0.196
REMARK SMILES Cc1ccc(C(C)C)c(O)c1
REMARK SMILES IDX 1 1 2 2 11 3 9 4 5 5 4 6 3 7 10 8 6 10 7 11 8 12
REMARK H PARENT 10 9
REMARK Flexibility Score: inf
ROOT
ATOM      1  C   UNL     1      30.052  21.645  13.750  1.00  0.00     0.044 C 
ATOM      2  C   UNL     1      30.246  23.020  13.184  1.00  0.00    -0.047 A 
ATOM      3  C   UNL     1      29.225  23.631  12.445  1.00  0.00     0.049 A 
ATOM      4  C   UNL     1      29.384  24.932  11.943  1.00  0.00     0.119 A 
ATOM      5  C   UNL     1      30.581  25.644  12.192  1.00  0.00    -0.004 A 
ATOM      6  C   UNL     1      31.591  25.026  12.952  1.00  0.00     0.008 A 
ATOM      7  C   UNL     1      31.423  23.731  13.448  1.00  0.00     0.004 A 
ENDROOT
BRANCH   4   8
ATOM      8  O   UNL     1      28.352  25.507  11.204  1.00  0.00    -0.508 OA
ATOM      9  H   UNL     1      28.157  25.224  10.250  1.00  0.00     0.293 HD
ENDBRANCH   4   8
BRANCH   5  10
ATOM     10  C   UNL     1      30.812  27.057  11.673  1.00  0.00     0.017 C 
ATOM     11  C   UNL     1      31.294  27.059  10.217  1.00  0.00     0.012 C 
ATOM     12  C   UNL     1      31.760  27.851  12.581  1.00  0.00     0.012 C 
ENDBRANCH   5  10
TORSDOF 2
ENDMDL
MODEL 8
REMARK VINA RESULT:    -4.155      1.580      2.399
REMARK INTER + INTRA:          -4.715
REMARK INTER:                  -4.609
REMARK INTRA:                  -0.106
REMARK UNBOUND:                -0.196
REMARK SMILES Cc1ccc(C(C)C)c(O)c1
REMARK SMILES IDX 1 1 2 2 11 3 9 4 5 5 4 6 3 7 10 8 6 10 7 11 8 12
REMARK H PARENT 10 9
REMARK Flexibility Score: inf
ROOT
ATOM      1  C   UNL     1      29.893  21.994  13.315  1.00  0.00     0.044 C 
ATOM      2  C   UNL     1      29.801  23.435  12.913  1.00  0.00    -0.047 A 
ATOM      3  C   UNL     1      30.943  24.247  12.927  1.00  0.00     0.049 A 
ATOM      4  C   UNL     1      30.875  25.587  12.517  1.00  0.00     0.119 A 
ATOM      5  C   UNL     1      29.645  26.128  12.073  1.00  0.00    -0.004 A 
ATOM      6  C   UNL     1      28.510  25.297  12.045  1.00  0.00     0.008 A 
ATOM      7  C   UNL     1      28.589  23.964  12.455  1.00  0.00     0.004 A 
ENDROOT
BRANCH   4   8
ATOM      8  O   UNL     1      32.027  26.370  12.553  1.00  0.00    -0.508 OA
ATOM      9  H   UNL     1      32.680  26.325  13.327  1.00  0.00     0.293 HD
ENDBRANCH   4   8
BRANCH   5  10
ATOM     10  C   UNL     1      29.508  27.575  11.617  1.00  0.00     0.017 C 
ATOM     11  C   UNL     1      28.046  28.042  11.631  1.00  0.00     0.012 C 
ATOM     12  C   UNL     1      30.160  27.807  10.248  1.00  0.00     0.012 C 
ENDBRANCH   5  10
TORSDOF 2
ENDMDL
MODEL 9
REMARK VINA RESULT:    -4.102      1.936      2.783
REMARK INTER + INTRA:          -4.658
REMARK INTER:                  -4.524
REMARK INTRA:                  -0.133
REMARK UNBOUND:                -0.196
REMARK SMILES Cc1ccc(C(C)C)c(O)c1
REMARK SMILES IDX 1 1 2 2 11 3 9 4 5 5 4 6 3 7 10 8 6 10 7 11 8 12
REMARK H PARENT 10 9
REMARK Flexibility Score: inf
ROOT
ATOM      1  C   UNL     1      27.404  23.947  12.499  1.00  0.00     0.044 C 
ATOM      2  C   UNL     1      28.311  25.106  12.211  1.00  0.00    -0.047 A 
ATOM      3  C   UNL     1      29.700  24.927  12.184  1.00  0.00     0.049 A 
ATOM      4  C   UNL     1      30.555  25.997  11.879  1.00  0.00     0.119 A 
ATOM      5  C   UNL     1      30.014  27.272  11.585  1.00  0.00    -0.004 A 
ATOM      6  C   UNL     1      28.617  27.433  11.597  1.00  0.00     0.008 A 
ATOM      7  C   UNL     1      27.775  26.361  11.901  1.00  0.00     0.004 A 
ENDROOT
BRANCH   4   8
ATOM      8  O   UNL     1      31.932  25.788  11.870  1.00  0.00    -0.508 OA
ATOM      9  H   UNL     1      32.422  25.491  11.034  1.00  0.00     0.293 HD
ENDBRANCH   4   8
BRANCH   5  10
ATOM     10  C   UNL     1      30.890  28.471  11.249  1.00  0.00     0.017 C 
ATOM     11  C   UNL     1      30.160  29.798  11.494  1.00  0.00     0.012 C 
ATOM     12  C   UNL     1      31.447  28.390   9.821  1.00  0.00     0.012 C 
ENDBRANCH   5  10
TORSDOF 2
ENDMDL
