MODEL 1
REMARK VINA RESULT:    -5.507      0.000      0.000
REMARK INTER + INTRA:          -7.159
REMARK INTER:                  -6.634
REMARK INTRA:                  -0.525
REMARK UNBOUND:                -0.525
REMARK SMILES CCCCc1oc(O)c2ccccc12
REMARK SMILES IDX 4 1 5 2 7 3 6 4 9 5 14 6 10 7 13 8 11 9 12 10 8 11 3 13 2 14
REMARK SMILES IDX 1 15
REMARK H PARENT 8 12
REMARK Flexibility Score: inf
ROOT
ATOM      1  C   UNL     1       9.071 -16.061  -4.605  1.00  0.00     0.076 C 
ENDROOT
BRANCH   1   2
ATOM      2  C   UNL     1       7.947 -15.568  -5.462  1.00  0.00     0.116 A 
ATOM      3  C   UNL     1       6.843 -15.035  -7.221  1.00  0.00     0.290 A 
ATOM      4  O   UNL     1       8.005 -15.477  -6.780  1.00  0.00    -0.430 OA
ATOM      5  C   UNL     1       5.990 -14.830  -6.162  1.00  0.00     0.066 A 
ATOM      6  C   UNL     1       6.691 -15.172  -5.037  1.00  0.00     0.027 A 
ATOM      7  C   UNL     1       4.671 -14.383  -6.105  1.00  0.00     0.016 A 
ATOM      8  C   UNL     1       6.120 -15.095  -3.766  1.00  0.00     0.012 A 
ATOM      9  C   UNL     1       4.068 -14.292  -4.836  1.00  0.00     0.001 A 
ATOM     10  C   UNL     1       4.789 -14.646  -3.673  1.00  0.00     0.001 A 
BRANCH   3  11
ATOM     11  O   UNL     1       6.543 -14.817  -8.561  1.00  0.00    -0.480 OA
ATOM     12  H   UNL     1       5.784 -15.319  -9.005  1.00  0.00     0.297 HD
ENDBRANCH   3  11
ENDBRANCH   1   2
BRANCH   1  13
ATOM     13  C   UNL     1      10.262 -15.101  -4.677  1.00  0.00     0.008 C 
BRANCH  13  14
ATOM     14  C   UNL     1       9.917 -13.750  -4.040  1.00  0.00    -0.003 C 
ATOM     15  C   UNL     1       9.533 -13.915  -2.572  1.00  0.00     0.004 C 
ENDBRANCH  13  14
ENDBRANCH   1  13
TORSDOF 4
ENDMDL
MODEL 2
REMARK VINA RESULT:    -5.170      2.062      4.692
REMARK INTER + INTRA:          -6.753
REMARK INTER:                  -6.228
REMARK INTRA:                  -0.526
REMARK UNBOUND:                -0.525
REMARK SMILES CCCCc1oc(O)c2ccccc12
REMARK SMILES IDX 4 1 5 2 7 3 6 4 9 5 14 6 10 7 13 8 11 9 12 10 8 11 3 13 2 14
REMARK SMILES IDX 1 15
REMARK H PARENT 8 12
REMARK Flexibility Score: inf
ROOT
ATOM      1  C   UNL     1       6.088 -14.241  -3.770  1.00  0.00     0.076 C 
ENDROOT
BRANCH   1   2
ATOM      2  C   UNL     1       7.451 -14.638  -4.245  1.00  0.00     0.116 A 
ATOM      3  C   UNL     1       9.463 -15.378  -4.196  1.00  0.00     0.290 A 
ATOM      4  O   UNL     1       8.405 -15.103  -3.457  1.00  0.00    -0.430 OA
ATOM      5  C   UNL     1       9.198 -15.089  -5.514  1.00  0.00     0.066 A 
ATOM      6  C   UNL     1       7.913 -14.618  -5.549  1.00  0.00     0.027 A 
ATOM      7  C   UNL     1       9.974 -15.209  -6.665  1.00  0.00     0.016 A 
ATOM      8  C   UNL     1       7.307 -14.234  -6.746  1.00  0.00     0.012 A 
ATOM      9  C   UNL     1       9.391 -14.827  -7.888  1.00  0.00     0.001 A 
ATOM     10  C   UNL     1       8.064 -14.342  -7.928  1.00  0.00     0.001 A 
BRANCH   3  11
ATOM     11  O   UNL     1      10.657 -15.888  -3.699  1.00  0.00    -0.480 OA
ATOM     12  H   UNL     1      10.937 -16.837  -3.911  1.00  0.00     0.297 HD
ENDBRANCH   3  11
ENDBRANCH   1   2
BRANCH   1  13
ATOM     13  C   UNL     1       5.150 -15.452  -3.760  1.00  0.00     0.008 C 
BRANCH  13  14
ATOM     14  C   UNL     1       4.272 -15.476  -5.016  1.00  0.00    -0.003 C 
ATOM     15  C   UNL     1       3.808 -14.072  -5.391  1.00  0.00     0.004 C 
ENDBRANCH  13  14
ENDBRANCH   1  13
TORSDOF 4
ENDMDL
MODEL 3
REMARK VINA RESULT:    -5.065      1.284      4.248
REMARK INTER + INTRA:          -6.627
REMARK INTER:                  -6.362
REMARK INTRA:                  -0.264
REMARK UNBOUND:                -0.525
REMARK SMILES CCCCc1oc(O)c2ccccc12
REMARK SMILES IDX 4 1 5 2 7 3 6 4 9 5 14 6 10 7 13 8 11 9 12 10 8 11 3 13 2 14
REMARK SMILES IDX 1 15
REMARK H PARENT 8 12
REMARK Flexibility Score: inf
ROOT
ATOM      1  C   UNL     1       5.434 -15.138  -3.595  1.00  0.00     0.076 C 
ENDROOT
BRANCH   1   2
ATOM      2  C   UNL     1       6.265 -15.137  -4.841  1.00  0.00     0.116 A 
ATOM      3  C   UNL     1       6.764 -15.105  -6.926  1.00  0.00     0.290 A 
ATOM      4  O   UNL     1       5.765 -15.132  -6.064  1.00  0.00    -0.430 OA
ATOM      5  C   UNL     1       7.961 -15.089  -6.249  1.00  0.00     0.066 A 
ATOM      6  C   UNL     1       7.646 -15.107  -4.917  1.00  0.00     0.027 A 
ATOM      7  C   UNL     1       9.280 -15.054  -6.697  1.00  0.00     0.016 A 
ATOM      8  C   UNL     1       8.632 -15.087  -3.931  1.00  0.00     0.012 A 
ATOM      9  C   UNL     1      10.299 -15.036  -5.725  1.00  0.00     0.001 A 
ATOM     10  C   UNL     1       9.976 -15.052  -4.349  1.00  0.00     0.001 A 
BRANCH   3  11
ATOM     11  O   UNL     1       6.610 -15.092  -8.307  1.00  0.00    -0.480 OA
ATOM     12  H   UNL     1       6.374 -14.234  -8.789  1.00  0.00     0.297 HD
ENDBRANCH   3  11
ENDBRANCH   1   2
BRANCH   1  13
ATOM     13  C   UNL     1       4.087 -15.822  -3.849  1.00  0.00     0.008 C 
BRANCH  13  14
ATOM     14  C   UNL     1       2.931 -14.824  -3.716  1.00  0.00    -0.003 C 
ATOM     15  C   UNL     1       3.425 -13.475  -3.201  1.00  0.00     0.004 C 
ENDBRANCH  13  14
ENDBRANCH   1  13
TORSDOF 4
ENDMDL
MODEL 4
REMARK VINA RESULT:    -5.025     10.130     11.365
REMARK INTER + INTRA:          -6.578
REMARK INTER:                  -6.253
REMARK INTRA:                  -0.325
REMARK UNBOUND:                -0.525
REMARK SMILES CCCCc1oc(O)c2ccccc12
REMARK SMILES IDX 4 1 5 2 7 3 6 4 9 5 14 6 10 7 13 8 11 9 12 10 8 11 3 13 2 14
REMARK SMILES IDX 1 15
REMARK H PARENT 8 12
REMARK Flexibility Score: inf
ROOT
ATOM      1  C   UNL     1       2.019 -24.390   0.627  1.00  0.00     0.076 C 
ENDROOT
BRANCH   1   2
ATOM      2  C   UNL     1       2.692 -23.503  -0.373  1.00  0.00     0.116 A 
ATOM      3  C   UNL     1       4.185 -22.249  -1.267  1.00  0.00     0.290 A 
ATOM      4  O   UNL     1       3.874 -22.941  -0.188  1.00  0.00    -0.430 OA
ATOM      5  C   UNL     1       3.178 -22.361  -2.197  1.00  0.00     0.066 A 
ATOM      6  C   UNL     1       2.224 -23.163  -1.630  1.00  0.00     0.027 A 
ATOM      7  C   UNL     1       3.034 -21.833  -3.478  1.00  0.00     0.016 A 
ATOM      8  C   UNL     1       1.053 -23.500  -2.309  1.00  0.00     0.012 A 
ATOM      9  C   UNL     1       1.861 -22.152  -4.188  1.00  0.00     0.001 A 
ATOM     10  C   UNL     1       0.876 -22.982  -3.606  1.00  0.00     0.001 A 
BRANCH   3  11
ATOM     11  O   UNL     1       5.361 -21.525  -1.425  1.00  0.00    -0.480 OA
ATOM     12  H   UNL     1       5.777 -21.044  -0.637  1.00  0.00     0.297 HD
ENDBRANCH   3  11
ENDBRANCH   1   2
BRANCH   1  13
ATOM     13  C   UNL     1       2.298 -25.862   0.312  1.00  0.00     0.008 C 
BRANCH  13  14
ATOM     14  C   UNL     1       1.080 -26.734   0.636  1.00  0.00    -0.003 C 
ATOM     15  C   UNL     1       0.922 -27.860  -0.382  1.00  0.00     0.004 C 
ENDBRANCH  13  14
ENDBRANCH   1  13
TORSDOF 4
ENDMDL
MODEL 5
REMARK VINA RESULT:    -4.933      2.550      4.039
REMARK INTER + INTRA:          -6.468
REMARK INTER:                  -5.943
REMARK INTRA:                  -0.525
REMARK UNBOUND:                -0.525
REMARK SMILES CCCCc1oc(O)c2ccccc12
REMARK SMILES IDX 4 1 5 2 7 3 6 4 9 5 14 6 10 7 13 8 11 9 12 10 8 11 3 13 2 14
REMARK SMILES IDX 1 15
REMARK H PARENT 8 12
REMARK Flexibility Score: inf
ROOT
ATOM      1  C   UNL     1      10.685 -14.762  -6.727  1.00  0.00     0.076 C 
ENDROOT
BRANCH   1   2
ATOM      2  C   UNL     1       9.940 -14.624  -5.436  1.00  0.00     0.116 A 
ATOM      3  C   UNL     1       9.567 -14.240  -3.360  1.00  0.00     0.290 A 
ATOM      4  O   UNL     1      10.505 -14.301  -4.286  1.00  0.00    -0.430 OA
ATOM      5  C   UNL     1       8.343 -14.528  -3.918  1.00  0.00     0.066 A 
ATOM      6  C   UNL     1       8.578 -14.772  -5.244  1.00  0.00     0.027 A 
ATOM      7  C   UNL     1       7.064 -14.587  -3.370  1.00  0.00     0.016 A 
ATOM      8  C   UNL     1       7.543 -15.091  -6.125  1.00  0.00     0.012 A 
ATOM      9  C   UNL     1       5.998 -14.908  -4.232  1.00  0.00     0.001 A 
ATOM     10  C   UNL     1       6.237 -15.159  -5.603  1.00  0.00     0.001 A 
BRANCH   3  11
ATOM     11  O   UNL     1       9.799 -13.925  -2.026  1.00  0.00    -0.480 OA
ATOM     12  H   UNL     1      10.178 -14.619  -1.394  1.00  0.00     0.297 HD
ENDBRANCH   3  11
ENDBRANCH   1   2
BRANCH   1  13
ATOM     13  C   UNL     1      10.719 -13.425  -7.473  1.00  0.00     0.008 C 
BRANCH  13  14
ATOM     14  C   UNL     1       9.715 -13.418  -8.632  1.00  0.00    -0.003 C 
ATOM     15  C   UNL     1       9.624 -14.791  -9.291  1.00  0.00     0.004 C 
ENDBRANCH  13  14
ENDBRANCH   1  13
TORSDOF 4
ENDMDL
MODEL 6
REMARK VINA RESULT:    -4.880      2.109      3.971
REMARK INTER + INTRA:          -6.404
REMARK INTER:                  -5.939
REMARK INTRA:                  -0.464
REMARK UNBOUND:                -0.525
REMARK SMILES CCCCc1oc(O)c2ccccc12
REMARK SMILES IDX 4 1 5 2 7 3 6 4 9 5 14 6 10 7 13 8 11 9 12 10 8 11 3 13 2 14
REMARK SMILES IDX 1 15
REMARK H PARENT 8 12
REMARK Flexibility Score: inf
ROOT
ATOM      1  C   UNL     1       8.117 -15.162  -4.461  1.00  0.00     0.076 C 
ENDROOT
BRANCH   1   2
ATOM      2  C   UNL     1       8.140 -14.967  -5.945  1.00  0.00     0.116 A 
ATOM      3  C   UNL     1       7.432 -14.762  -7.958  1.00  0.00     0.290 A 
ATOM      4  O   UNL     1       7.064 -14.996  -6.713  1.00  0.00    -0.430 OA
ATOM      5  C   UNL     1       8.792 -14.569  -8.014  1.00  0.00     0.066 A 
ATOM      6  C   UNL     1       9.247 -14.697  -6.729  1.00  0.00     0.027 A 
ATOM      7  C   UNL     1       9.647 -14.289  -9.078  1.00  0.00     0.016 A 
ATOM      8  C   UNL     1      10.598 -14.549  -6.413  1.00  0.00     0.012 A 
ATOM      9  C   UNL     1      11.017 -14.137  -8.791  1.00  0.00     0.001 A 
ATOM     10  C   UNL     1      11.490 -14.266  -7.465  1.00  0.00     0.001 A 
BRANCH   3  11
ATOM     11  O   UNL     1       6.559 -14.718  -9.039  1.00  0.00    -0.480 OA
ATOM     12  H   UNL     1       5.588 -14.981  -8.926  1.00  0.00     0.297 HD
ENDBRANCH   3  11
ENDBRANCH   1   2
BRANCH   1  13
ATOM     13  C   UNL     1       8.229 -13.816  -3.740  1.00  0.00     0.008 C 
BRANCH  13  14
ATOM     14  C   UNL     1       9.351 -13.843  -2.696  1.00  0.00    -0.003 C 
ATOM     15  C   UNL     1      10.204 -15.101  -2.838  1.00  0.00     0.004 C 
ENDBRANCH  13  14
ENDBRANCH   1  13
TORSDOF 4
ENDMDL
MODEL 7
REMARK VINA RESULT:    -4.703     11.500     12.677
REMARK INTER + INTRA:          -6.191
REMARK INTER:                  -5.990
REMARK INTRA:                  -0.201
REMARK UNBOUND:                -0.525
REMARK SMILES CCCCc1oc(O)c2ccccc12
REMARK SMILES IDX 4 1 5 2 7 3 6 4 9 5 14 6 10 7 13 8 11 9 12 10 8 11 3 13 2 14
REMARK SMILES IDX 1 15
REMARK H PARENT 8 12
REMARK Flexibility Score: inf
ROOT
ATOM      1  C   UNL     1       0.928 -26.601  -0.723  1.00  0.00     0.076 C 
ENDROOT
BRANCH   1   2
ATOM      2  C   UNL     1       1.741 -25.403  -0.340  1.00  0.00     0.116 A 
ATOM      3  C   UNL     1       2.922 -24.072   0.855  1.00  0.00     0.290 A 
ATOM      4  O   UNL     1       2.241 -25.201   0.866  1.00  0.00    -0.430 OA
ATOM      5  C   UNL     1       2.873 -23.512  -0.400  1.00  0.00     0.066 A 
ATOM      6  C   UNL     1       2.121 -24.361  -1.167  1.00  0.00     0.027 A 
ATOM      7  C   UNL     1       3.429 -22.343  -0.918  1.00  0.00     0.016 A 
ATOM      8  C   UNL     1       1.873 -24.103  -2.515  1.00  0.00     0.012 A 
ATOM      9  C   UNL     1       3.194 -22.055  -2.275  1.00  0.00     0.001 A 
ATOM     10  C   UNL     1       2.420 -22.931  -3.070  1.00  0.00     0.001 A 
BRANCH   3  11
ATOM     11  O   UNL     1       3.587 -23.544   1.956  1.00  0.00    -0.480 OA
ATOM     12  H   UNL     1       4.193 -22.740   1.852  1.00  0.00     0.297 HD
ENDBRANCH   3  11
ENDBRANCH   1   2
BRANCH   1  13
ATOM     13  C   UNL     1       1.657 -27.890  -0.334  1.00  0.00     0.008 C 
BRANCH  13  14
ATOM     14  C   UNL     1       3.149 -27.801  -0.676  1.00  0.00    -0.003 C 
ATOM     15  C   UNL     1       3.874 -29.095  -0.315  1.00  0.00     0.004 C 
ENDBRANCH  13  14
ENDBRANCH   1  13
TORSDOF 4
ENDMDL
MODEL 8
REMARK VINA RESULT:    -4.655      9.170     10.495
REMARK INTER + INTRA:          -6.132
REMARK INTER:                  -5.872
REMARK INTRA:                  -0.260
REMARK UNBOUND:                -0.525
REMARK SMILES CCCCc1oc(O)c2ccccc12
REMARK SMILES IDX 4 1 5 2 7 3 6 4 9 5 14 6 10 7 13 8 11 9 12 10 8 11 3 13 2 14
REMARK SMILES IDX 1 15
REMARK H PARENT 8 12
REMARK Flexibility Score: inf
ROOT
ATOM      1  C   UNL     1       2.000 -23.387   1.129  1.00  0.00     0.076 C 
ENDROOT
BRANCH   1   2
ATOM      2  C   UNL     1       2.769 -22.903  -0.060  1.00  0.00     0.116 A 
ATOM      3  C   UNL     1       4.421 -22.224  -1.247  1.00  0.00     0.290 A 
ATOM      4  O   UNL     1       4.052 -22.583  -0.033  1.00  0.00    -0.430 OA
ATOM      5  C   UNL     1       3.349 -22.314  -2.104  1.00  0.00     0.066 A 
ATOM      6  C   UNL     1       2.293 -22.749  -1.350  1.00  0.00     0.027 A 
ATOM      7  C   UNL     1       3.228 -22.056  -3.469  1.00  0.00     0.016 A 
ATOM      8  C   UNL     1       1.033 -22.964  -1.909  1.00  0.00     0.012 A 
ATOM      9  C   UNL     1       1.967 -22.260  -4.061  1.00  0.00     0.001 A 
ATOM     10  C   UNL     1       0.875 -22.712  -3.285  1.00  0.00     0.001 A 
BRANCH   3  11
ATOM     11  O   UNL     1       5.706 -21.822  -1.591  1.00  0.00    -0.480 OA
ATOM     12  H   UNL     1       6.468 -21.920  -0.931  1.00  0.00     0.297 HD
ENDBRANCH   3  11
ENDBRANCH   1   2
BRANCH   1  13
ATOM     13  C   UNL     1       1.181 -22.246   1.739  1.00  0.00     0.008 C 
BRANCH  13  14
ATOM     14  C   UNL     1       1.701 -21.882   3.135  1.00  0.00    -0.003 C 
ATOM     15  C   UNL     1       1.075 -20.584   3.635  1.00  0.00     0.004 C 
ENDBRANCH  13  14
ENDBRANCH   1  13
TORSDOF 4
ENDMDL
