MODEL 1
REMARK VINA RESULT:    -5.883      0.000      0.000
REMARK INTER + INTRA:          -6.831
REMARK INTER:                  -6.743
REMARK INTRA:                  -0.088
REMARK UNBOUND:                -0.088
REMARK SMILES COc1cc(C(=O)[O-])ccc1O
REMARK SMILES IDX 5 1 9 2 4 3 10 4 3 5 11 6 6 7 7 8 8 9 2 10 1 11 12 12
REMARK H PARENT 12 13
REMARK Flexibility Score: inf
ROOT
ATOM      1  C   UNL     1     -13.971  61.633  38.956  1.00  0.00     0.001 A 
ATOM      2  C   UNL     1     -13.849  60.343  39.500  1.00  0.00     0.014 A 
ATOM      3  C   UNL     1     -12.865  62.501  39.004  1.00  0.00     0.060 A 
ATOM      4  C   UNL     1     -12.648  59.932  40.081  1.00  0.00     0.051 A 
ATOM      5  C   UNL     1     -11.650  62.090  39.588  1.00  0.00     0.161 A 
ATOM      6  C   UNL     1     -11.550  60.795  40.127  1.00  0.00     0.157 A 
ENDROOT
BRANCH   1   7
ATOM      7  C   UNL     1     -15.247  62.064  38.343  1.00  0.00     0.072 C 
ATOM      8  O   UNL     1     -15.524  63.289  38.238  1.00  0.00    -0.545 OA
ATOM      9  O   UNL     1     -16.157  61.124  37.875  1.00  0.00    -0.545 OA
ENDBRANCH   1   7
BRANCH   5  10
ATOM     10  O   UNL     1     -10.530  62.936  39.649  1.00  0.00    -0.493 OA
ATOM     11  C   UNL     1     -10.021  63.685  38.550  1.00  0.00     0.278 C 
ENDBRANCH   5  10
BRANCH   6  12
ATOM     12  O   UNL     1     -10.367  60.347  40.715  1.00  0.00    -0.504 OA
ATOM     13  H   UNL     1      -9.565  60.061  40.165  1.00  0.00     0.293 HD
ENDBRANCH   6  12
TORSDOF 3
ENDMDL
MODEL 2
REMARK VINA RESULT:    -5.648     17.935     20.228
REMARK INTER + INTRA:          -6.561
REMARK INTER:                  -6.479
REMARK INTRA:                  -0.083
REMARK UNBOUND:                -0.088
REMARK SMILES COc1cc(C(=O)[O-])ccc1O
REMARK SMILES IDX 5 1 9 2 4 3 10 4 3 5 11 6 6 7 7 8 8 9 2 10 1 11 12 12
REMARK H PARENT 12 13
REMARK Flexibility Score: inf
ROOT
ATOM      1  C   UNL     1     -10.203  49.114  55.083  1.00  0.00     0.001 A 
ATOM      2  C   UNL     1      -9.569  50.283  54.632  1.00  0.00     0.014 A 
ATOM      3  C   UNL     1     -11.552  48.895  54.747  1.00  0.00     0.060 A 
ATOM      4  C   UNL     1     -10.269  51.214  53.861  1.00  0.00     0.051 A 
ATOM      5  C   UNL     1     -12.262  49.831  53.968  1.00  0.00     0.161 A 
ATOM      6  C   UNL     1     -11.607  50.995  53.527  1.00  0.00     0.157 A 
ENDROOT
BRANCH   1   7
ATOM      7  C   UNL     1      -9.458  48.131  55.901  1.00  0.00     0.072 C 
ATOM      8  O   UNL     1      -9.794  46.917  55.907  1.00  0.00    -0.545 OA
ATOM      9  O   UNL     1      -8.375  48.535  56.673  1.00  0.00    -0.545 OA
ENDBRANCH   1   7
BRANCH   5  10
ATOM     10  O   UNL     1     -13.608  49.638  53.617  1.00  0.00    -0.493 OA
ATOM     11  C   UNL     1     -14.190  48.377  53.305  1.00  0.00     0.278 C 
ENDBRANCH   5  10
BRANCH   6  12
ATOM     12  O   UNL     1     -12.273  51.948  52.755  1.00  0.00    -0.504 OA
ATOM     13  H   UNL     1     -13.284  51.998  52.711  1.00  0.00     0.293 HD
ENDBRANCH   6  12
TORSDOF 3
ENDMDL
MODEL 3
REMARK VINA RESULT:    -5.636     17.559     19.417
REMARK INTER + INTRA:          -6.548
REMARK INTER:                  -6.463
REMARK INTRA:                  -0.084
REMARK UNBOUND:                -0.088
REMARK SMILES COc1cc(C(=O)[O-])ccc1O
REMARK SMILES IDX 5 1 9 2 4 3 10 4 3 5 11 6 6 7 7 8 8 9 2 10 1 11 12 12
REMARK H PARENT 12 13
REMARK Flexibility Score: inf
ROOT
ATOM      1  C   UNL     1     -12.298  50.048  53.455  1.00  0.00     0.001 A 
ATOM      2  C   UNL     1     -11.500  51.186  53.259  1.00  0.00     0.014 A 
ATOM      3  C   UNL     1     -11.889  49.080  54.391  1.00  0.00     0.060 A 
ATOM      4  C   UNL     1     -10.317  51.354  53.981  1.00  0.00     0.051 A 
ATOM      5  C   UNL     1     -10.695  49.244  55.123  1.00  0.00     0.161 A 
ATOM      6  C   UNL     1      -9.911  50.392  54.910  1.00  0.00     0.157 A 
ENDROOT
BRANCH   1   7
ATOM      7  C   UNL     1     -13.551  49.875  52.687  1.00  0.00     0.072 C 
ATOM      8  O   UNL     1     -13.632  50.277  51.495  1.00  0.00    -0.545 OA
ATOM      9  O   UNL     1     -14.656  49.265  53.268  1.00  0.00    -0.545 OA
ENDBRANCH   1   7
BRANCH   5  10
ATOM     10  O   UNL     1     -10.263  48.294  56.063  1.00  0.00    -0.493 OA
ATOM     11  C   UNL     1     -10.308  46.884  55.868  1.00  0.00     0.278 C 
ENDBRANCH   5  10
BRANCH   6  12
ATOM     12  O   UNL     1      -8.723  50.594  55.612  1.00  0.00    -0.504 OA
ATOM     13  H   UNL     1      -8.665  50.487  56.618  1.00  0.00     0.293 HD
ENDBRANCH   6  12
TORSDOF 3
ENDMDL
MODEL 4
REMARK VINA RESULT:    -5.563     14.288     16.153
REMARK INTER + INTRA:          -6.464
REMARK INTER:                  -6.368
REMARK INTRA:                  -0.096
REMARK UNBOUND:                -0.088
REMARK SMILES COc1cc(C(=O)[O-])ccc1O
REMARK SMILES IDX 5 1 9 2 4 3 10 4 3 5 11 6 6 7 7 8 8 9 2 10 1 11 12 12
REMARK H PARENT 12 13
REMARK Flexibility Score: inf
ROOT
ATOM      1  C   UNL     1      -6.178  61.549  54.234  1.00  0.00     0.001 A 
ATOM      2  C   UNL     1      -7.371  61.906  54.884  1.00  0.00     0.014 A 
ATOM      3  C   UNL     1      -5.762  62.293  53.114  1.00  0.00     0.060 A 
ATOM      4  C   UNL     1      -8.132  62.982  54.424  1.00  0.00     0.051 A 
ATOM      5  C   UNL     1      -6.527  63.380  52.646  1.00  0.00     0.161 A 
ATOM      6  C   UNL     1      -7.718  63.720  53.312  1.00  0.00     0.157 A 
ENDROOT
BRANCH   1   7
ATOM      7  C   UNL     1      -5.375  60.407  54.725  1.00  0.00     0.072 C 
ATOM      8  O   UNL     1      -5.940  59.371  55.165  1.00  0.00    -0.545 OA
ATOM      9  O   UNL     1      -3.987  60.463  54.707  1.00  0.00    -0.545 OA
ENDBRANCH   1   7
BRANCH   5  10
ATOM     10  O   UNL     1      -6.136  64.139  51.531  1.00  0.00    -0.493 OA
ATOM     11  C   UNL     1      -6.459  63.821  50.181  1.00  0.00     0.278 C 
ENDBRANCH   5  10
BRANCH   6  12
ATOM     12  O   UNL     1      -8.506  64.788  52.882  1.00  0.00    -0.504 OA
ATOM     13  H   UNL     1      -9.514  64.791  52.983  1.00  0.00     0.293 HD
ENDBRANCH   6  12
TORSDOF 3
ENDMDL
MODEL 5
REMARK VINA RESULT:    -5.349      3.921      5.641
REMARK INTER + INTRA:          -6.218
REMARK INTER:                  -6.131
REMARK INTRA:                  -0.087
REMARK UNBOUND:                -0.088
REMARK SMILES COc1cc(C(=O)[O-])ccc1O
REMARK SMILES IDX 5 1 9 2 4 3 10 4 3 5 11 6 6 7 7 8 8 9 2 10 1 11 12 12
REMARK H PARENT 12 13
REMARK Flexibility Score: inf
ROOT
ATOM      1  C   UNL     1      -9.308  64.423  40.806  1.00  0.00     0.001 A 
ATOM      2  C   UNL     1      -9.337  63.736  39.581  1.00  0.00     0.014 A 
ATOM      3  C   UNL     1      -9.671  63.739  41.982  1.00  0.00     0.060 A 
ATOM      4  C   UNL     1      -9.722  62.395  39.532  1.00  0.00     0.051 A 
ATOM      5  C   UNL     1     -10.060  62.385  41.936  1.00  0.00     0.161 A 
ATOM      6  C   UNL     1     -10.082  61.717  40.699  1.00  0.00     0.157 A 
ENDROOT
BRANCH   1   7
ATOM      7  C   UNL     1      -8.900  65.844  40.853  1.00  0.00     0.072 C 
ATOM      8  O   UNL     1      -8.815  66.450  41.954  1.00  0.00    -0.545 OA
ATOM      9  O   UNL     1      -8.605  66.531  39.682  1.00  0.00    -0.545 OA
ENDBRANCH   1   7
BRANCH   5  10
ATOM     10  O   UNL     1     -10.427  61.678  43.093  1.00  0.00    -0.493 OA
ATOM     11  C   UNL     1      -9.726  61.732  44.332  1.00  0.00     0.278 C 
ENDBRANCH   5  10
BRANCH   6  12
ATOM     12  O   UNL     1     -10.461  60.377  40.610  1.00  0.00    -0.504 OA
ATOM     13  H   UNL     1     -10.429  59.752  41.406  1.00  0.00     0.293 HD
ENDBRANCH   6  12
TORSDOF 3
ENDMDL
MODEL 6
REMARK VINA RESULT:    -5.162     14.619     16.192
REMARK INTER + INTRA:          -6.004
REMARK INTER:                  -5.917
REMARK INTRA:                  -0.087
REMARK UNBOUND:                -0.088
REMARK SMILES COc1cc(C(=O)[O-])ccc1O
REMARK SMILES IDX 5 1 9 2 4 3 10 4 3 5 11 6 6 7 7 8 8 9 2 10 1 11 12 12
REMARK H PARENT 12 13
REMARK Flexibility Score: inf
ROOT
ATOM      1  C   UNL     1      -6.757  63.109  52.967  1.00  0.00     0.001 A 
ATOM      2  C   UNL     1      -7.787  63.115  53.922  1.00  0.00     0.014 A 
ATOM      3  C   UNL     1      -5.665  62.240  53.145  1.00  0.00     0.060 A 
ATOM      4  C   UNL     1      -7.725  62.272  55.033  1.00  0.00     0.051 A 
ATOM      5  C   UNL     1      -5.599  61.386  54.265  1.00  0.00     0.161 A 
ATOM      6  C   UNL     1      -6.641  61.409  55.209  1.00  0.00     0.157 A 
ENDROOT
BRANCH   1   7
ATOM      7  C   UNL     1      -6.827  64.006  51.792  1.00  0.00     0.072 C 
ATOM      8  O   UNL     1      -6.291  63.674  50.701  1.00  0.00    -0.545 OA
ATOM      9  O   UNL     1      -7.486  65.226  51.875  1.00  0.00    -0.545 OA
ENDBRANCH   1   7
BRANCH   5  10
ATOM     10  O   UNL     1      -4.521  60.509  54.468  1.00  0.00    -0.493 OA
ATOM     11  C   UNL     1      -3.340  60.832  55.194  1.00  0.00     0.278 C 
ENDBRANCH   5  10
BRANCH   6  12
ATOM     12  O   UNL     1      -6.615  60.581  56.332  1.00  0.00    -0.504 OA
ATOM     13  H   UNL     1      -7.033  59.659  56.333  1.00  0.00     0.293 HD
ENDBRANCH   6  12
TORSDOF 3
ENDMDL
MODEL 7
REMARK VINA RESULT:    -5.131      1.804      4.471
REMARK INTER + INTRA:          -5.968
REMARK INTER:                  -5.891
REMARK INTRA:                  -0.077
REMARK UNBOUND:                -0.088
REMARK SMILES COc1cc(C(=O)[O-])ccc1O
REMARK SMILES IDX 5 1 9 2 4 3 10 4 3 5 11 6 6 7 7 8 8 9 2 10 1 11 12 12
REMARK H PARENT 12 13
REMARK Flexibility Score: inf
ROOT
ATOM      1  C   UNL     1     -10.239  63.284  39.433  1.00  0.00     0.001 A 
ATOM      2  C   UNL     1      -9.631  62.311  40.242  1.00  0.00     0.014 A 
ATOM      3  C   UNL     1     -11.549  63.065  38.968  1.00  0.00     0.060 A 
ATOM      4  C   UNL     1     -10.317  61.142  40.578  1.00  0.00     0.051 A 
ATOM      5  C   UNL     1     -12.245  61.886  39.305  1.00  0.00     0.161 A 
ATOM      6  C   UNL     1     -11.617  60.925  40.116  1.00  0.00     0.157 A 
ENDROOT
BRANCH   1   7
ATOM      7  C   UNL     1      -9.508  64.521  39.079  1.00  0.00     0.072 C 
ATOM      8  O   UNL     1      -9.251  64.791  37.875  1.00  0.00    -0.545 OA
ATOM      9  O   UNL     1      -9.095  65.403  40.070  1.00  0.00    -0.545 OA
ENDBRANCH   1   7
BRANCH   5  10
ATOM     10  O   UNL     1     -13.553  61.641  38.855  1.00  0.00    -0.493 OA
ATOM     11  C   UNL     1     -14.521  62.652  38.589  1.00  0.00     0.278 C 
ENDBRANCH   5  10
BRANCH   6  12
ATOM     12  O   UNL     1     -12.270  59.745  40.473  1.00  0.00    -0.504 OA
ATOM     13  H   UNL     1     -12.758  59.643  41.355  1.00  0.00     0.293 HD
ENDBRANCH   6  12
TORSDOF 3
ENDMDL
MODEL 8
REMARK VINA RESULT:    -4.987     17.321     18.984
REMARK INTER + INTRA:          -5.803
REMARK INTER:                  -5.703
REMARK INTRA:                  -0.100
REMARK UNBOUND:                -0.088
REMARK SMILES COc1cc(C(=O)[O-])ccc1O
REMARK SMILES IDX 5 1 9 2 4 3 10 4 3 5 11 6 6 7 7 8 8 9 2 10 1 11 12 12
REMARK H PARENT 12 13
REMARK Flexibility Score: inf
ROOT
ATOM      1  C   UNL     1     -13.890  49.092  53.041  1.00  0.00     0.001 A 
ATOM      2  C   UNL     1     -13.696  50.162  52.152  1.00  0.00     0.014 A 
ATOM      3  C   UNL     1     -12.965  48.893  54.083  1.00  0.00     0.060 A 
ATOM      4  C   UNL     1     -12.601  51.015  52.301  1.00  0.00     0.051 A 
ATOM      5  C   UNL     1     -11.858  49.752  54.238  1.00  0.00     0.161 A 
ATOM      6  C   UNL     1     -11.683  50.817  53.336  1.00  0.00     0.157 A 
ENDROOT
BRANCH   1   7
ATOM      7  C   UNL     1     -15.052  48.190  52.879  1.00  0.00     0.072 C 
ATOM      8  O   UNL     1     -14.935  46.952  53.078  1.00  0.00    -0.545 OA
ATOM      9  O   UNL     1     -16.290  48.698  52.504  1.00  0.00    -0.545 OA
ENDBRANCH   1   7
BRANCH   5  10
ATOM     10  O   UNL     1     -10.920  49.577  55.268  1.00  0.00    -0.493 OA
ATOM     11  C   UNL     1      -9.825  48.668  55.221  1.00  0.00     0.278 C 
ENDBRANCH   5  10
BRANCH   6  12
ATOM     12  O   UNL     1     -10.601  51.690  53.452  1.00  0.00    -0.504 OA
ATOM     13  H   UNL     1      -9.679  51.456  53.106  1.00  0.00     0.293 HD
ENDBRANCH   6  12
TORSDOF 3
ENDMDL
