MODEL 1
REMARK VINA RESULT:    -4.359      0.000      0.000
REMARK INTER + INTRA:          -5.713
REMARK INTER:                  -5.634
REMARK INTRA:                  -0.080
REMARK UNBOUND:                -0.080
REMARK SMILES CCCCCCC(=O)[O-]
REMARK SMILES IDX 5 1 6 2 7 3 8 4 9 5 4 6 3 7 2 8 1 9
REMARK H PARENT
REMARK Flexibility Score: inf
ROOT
ATOM      1  C   UNL     1      11.351 -60.225 -19.005  1.00  0.00     0.006 C 
ENDROOT
BRANCH   1   2
ATOM      2  C   UNL     1      12.703 -60.812 -18.591  1.00  0.00     0.053 C 
BRANCH   2   3
ATOM      3  C   UNL     1      13.293 -60.027 -17.463  1.00  0.00     0.041 C 
ATOM      4  O   UNL     1      12.586 -59.718 -16.468  1.00  0.00    -0.550 OA
ATOM      5  O   UNL     1      14.638 -59.680 -17.485  1.00  0.00    -0.550 OA
ENDBRANCH   2   3
ENDBRANCH   1   2
BRANCH   1   6
ATOM      6  C   UNL     1      11.273 -60.038 -20.525  1.00  0.00     0.000 C 
BRANCH   6   7
ATOM      7  C   UNL     1      10.301 -58.907 -20.890  1.00  0.00    -0.000 C 
BRANCH   7   8
ATOM      8  C   UNL     1      10.477 -58.422 -22.337  1.00  0.00    -0.003 C 
ATOM      9  C   UNL     1       9.891 -57.030 -22.570  1.00  0.00     0.004 C 
ENDBRANCH   7   8
ENDBRANCH   6   7
ENDBRANCH   1   6
TORSDOF 5
ENDMDL
MODEL 2
REMARK VINA RESULT:    -4.105     11.994     12.985
REMARK INTER + INTRA:          -5.385
REMARK INTER:                  -5.241
REMARK INTRA:                  -0.144
REMARK UNBOUND:                -0.080
REMARK SMILES CCCCCCC(=O)[O-]
REMARK SMILES IDX 5 1 6 2 7 3 8 4 9 5 4 6 3 7 2 8 1 9
REMARK H PARENT
REMARK Flexibility Score: inf
ROOT
ATOM      1  C   UNL     1      13.102 -58.893 -30.775  1.00  0.00     0.006 C 
ENDROOT
BRANCH   1   2
ATOM      2  C   UNL     1      12.710 -60.137 -31.577  1.00  0.00     0.053 C 
BRANCH   2   3
ATOM      3  C   UNL     1      13.868 -60.623 -32.389  1.00  0.00     0.041 C 
ATOM      4  O   UNL     1      13.842 -60.540 -33.645  1.00  0.00    -0.550 OA
ATOM      5  O   UNL     1      14.999 -61.124 -31.756  1.00  0.00    -0.550 OA
ENDBRANCH   2   3
ENDBRANCH   1   2
BRANCH   1   6
ATOM      6  C   UNL     1      13.101 -57.642 -31.662  1.00  0.00     0.000 C 
BRANCH   6   7
ATOM      7  C   UNL     1      13.211 -56.367 -30.814  1.00  0.00    -0.000 C 
BRANCH   7   8
ATOM      8  C   UNL     1      14.139 -55.317 -31.444  1.00  0.00    -0.003 C 
ATOM      9  C   UNL     1      13.783 -55.009 -32.898  1.00  0.00     0.004 C 
ENDBRANCH   7   8
ENDBRANCH   6   7
ENDBRANCH   1   6
TORSDOF 5
ENDMDL
MODEL 3
REMARK VINA RESULT:    -4.078     11.618     12.839
REMARK INTER + INTRA:          -5.350
REMARK INTER:                  -5.096
REMARK INTRA:                  -0.253
REMARK UNBOUND:                -0.080
REMARK SMILES CCCCCCC(=O)[O-]
REMARK SMILES IDX 5 1 6 2 7 3 8 4 9 5 4 6 3 7 2 8 1 9
REMARK H PARENT
REMARK Flexibility Score: inf
ROOT
ATOM      1  C   UNL     1      13.123 -58.406 -30.616  1.00  0.00     0.006 C 
ENDROOT
BRANCH   1   2
ATOM      2  C   UNL     1      13.119 -57.491 -31.844  1.00  0.00     0.053 C 
BRANCH   2   3
ATOM      3  C   UNL     1      13.468 -56.089 -31.454  1.00  0.00     0.041 C 
ATOM      4  O   UNL     1      13.460 -55.747 -30.243  1.00  0.00    -0.550 OA
ATOM      5  O   UNL     1      13.852 -55.173 -32.425  1.00  0.00    -0.550 OA
ENDBRANCH   2   3
ENDBRANCH   1   2
BRANCH   1   6
ATOM      6  C   UNL     1      12.901 -59.869 -31.019  1.00  0.00     0.000 C 
BRANCH   6   7
ATOM      7  C   UNL     1      14.137 -60.721 -30.698  1.00  0.00    -0.000 C 
BRANCH   7   8
ATOM      8  C   UNL     1      15.003 -60.995 -31.937  1.00  0.00    -0.003 C 
ATOM      9  C   UNL     1      14.217 -60.891 -33.243  1.00  0.00     0.004 C 
ENDBRANCH   7   8
ENDBRANCH   6   7
ENDBRANCH   1   6
TORSDOF 5
ENDMDL
MODEL 4
REMARK VINA RESULT:    -4.032     14.139     15.707
REMARK INTER + INTRA:          -5.290
REMARK INTER:                  -5.126
REMARK INTRA:                  -0.164
REMARK UNBOUND:                -0.080
REMARK SMILES CCCCCCC(=O)[O-]
REMARK SMILES IDX 5 1 6 2 7 3 8 4 9 5 4 6 3 7 2 8 1 9
REMARK H PARENT
REMARK Flexibility Score: inf
ROOT
ATOM      1  C   UNL     1      17.093 -45.338 -23.143  1.00  0.00     0.006 C 
ENDROOT
BRANCH   1   2
ATOM      2  C   UNL     1      15.802 -44.517 -23.202  1.00  0.00     0.053 C 
BRANCH   2   3
ATOM      3  C   UNL     1      16.097 -43.062 -23.019  1.00  0.00     0.041 C 
ATOM      4  O   UNL     1      17.285 -42.669 -22.876  1.00  0.00    -0.550 OA
ATOM      5  O   UNL     1      15.065 -42.133 -23.055  1.00  0.00    -0.550 OA
ENDBRANCH   2   3
ENDBRANCH   1   2
BRANCH   1   6
ATOM      6  C   UNL     1      17.208 -46.089 -21.811  1.00  0.00     0.000 C 
BRANCH   6   7
ATOM      7  C   UNL     1      16.860 -47.575 -21.986  1.00  0.00    -0.000 C 
BRANCH   7   8
ATOM      8  C   UNL     1      15.401 -47.886 -21.618  1.00  0.00    -0.003 C 
ATOM      9  C   UNL     1      15.253 -49.197 -20.848  1.00  0.00     0.004 C 
ENDBRANCH   7   8
ENDBRANCH   6   7
ENDBRANCH   1   6
TORSDOF 5
ENDMDL
MODEL 5
REMARK VINA RESULT:    -3.994     13.339     14.856
REMARK INTER + INTRA:          -5.241
REMARK INTER:                  -5.053
REMARK INTRA:                  -0.188
REMARK UNBOUND:                -0.080
REMARK SMILES CCCCCCC(=O)[O-]
REMARK SMILES IDX 5 1 6 2 7 3 8 4 9 5 4 6 3 7 2 8 1 9
REMARK H PARENT
REMARK Flexibility Score: inf
ROOT
ATOM      1  C   UNL     1      17.906 -47.039 -23.045  1.00  0.00     0.006 C 
ENDROOT
BRANCH   1   2
ATOM      2  C   UNL     1      17.184 -45.764 -23.490  1.00  0.00     0.053 C 
BRANCH   2   3
ATOM      3  C   UNL     1      17.860 -45.168 -24.684  1.00  0.00     0.041 C 
ATOM      4  O   UNL     1      17.983 -45.838 -25.743  1.00  0.00    -0.550 OA
ATOM      5  O   UNL     1      18.311 -43.855 -24.645  1.00  0.00    -0.550 OA
ENDBRANCH   2   3
ENDBRANCH   1   2
BRANCH   1   6
ATOM      6  C   UNL     1      17.151 -47.729 -21.902  1.00  0.00     0.000 C 
BRANCH   6   7
ATOM      7  C   UNL     1      15.679 -47.291 -21.873  1.00  0.00    -0.000 C 
BRANCH   7   8
ATOM      8  C   UNL     1      14.782 -48.287 -21.123  1.00  0.00    -0.003 C 
ATOM      9  C   UNL     1      15.512 -49.577 -20.752  1.00  0.00     0.004 C 
ENDBRANCH   7   8
ENDBRANCH   6   7
ENDBRANCH   1   6
TORSDOF 5
ENDMDL
MODEL 6
REMARK VINA RESULT:    -3.959     17.277     17.845
REMARK INTER + INTRA:          -5.195
REMARK INTER:                  -5.091
REMARK INTRA:                  -0.104
REMARK UNBOUND:                -0.080
REMARK SMILES CCCCCCC(=O)[O-]
REMARK SMILES IDX 5 1 6 2 7 3 8 4 9 5 4 6 3 7 2 8 1 9
REMARK H PARENT
REMARK Flexibility Score: inf
ROOT
ATOM      1  C   UNL     1      19.200 -49.264 -31.747  1.00  0.00     0.006 C 
ENDROOT
BRANCH   1   2
ATOM      2  C   UNL     1      20.235 -49.895 -32.682  1.00  0.00     0.053 C 
BRANCH   2   3
ATOM      3  C   UNL     1      20.254 -51.381 -32.517  1.00  0.00     0.041 C 
ATOM      4  O   UNL     1      21.267 -51.953 -32.035  1.00  0.00    -0.550 OA
ATOM      5  O   UNL     1      19.134 -52.133 -32.848  1.00  0.00    -0.550 OA
ENDBRANCH   2   3
ENDBRANCH   1   2
BRANCH   1   6
ATOM      6  C   UNL     1      19.134 -47.745 -31.942  1.00  0.00     0.000 C 
BRANCH   6   7
ATOM      7  C   UNL     1      19.061 -47.019 -30.590  1.00  0.00    -0.000 C 
BRANCH   7   8
ATOM      8  C   UNL     1      17.735 -47.270 -29.857  1.00  0.00    -0.003 C 
ATOM      9  C   UNL     1      17.233 -46.038 -29.105  1.00  0.00     0.004 C 
ENDBRANCH   7   8
ENDBRANCH   6   7
ENDBRANCH   1   6
TORSDOF 5
ENDMDL
MODEL 7
REMARK VINA RESULT:    -3.944     17.786     18.411
REMARK INTER + INTRA:          -5.176
REMARK INTER:                  -5.078
REMARK INTRA:                  -0.098
REMARK UNBOUND:                -0.080
REMARK SMILES CCCCCCC(=O)[O-]
REMARK SMILES IDX 5 1 6 2 7 3 8 4 9 5 4 6 3 7 2 8 1 9
REMARK H PARENT
REMARK Flexibility Score: inf
ROOT
ATOM      1  C   UNL     1      19.759 -50.881 -32.502  1.00  0.00     0.006 C 
ENDROOT
BRANCH   1   2
ATOM      2  C   UNL     1      20.965 -51.813 -32.350  1.00  0.00     0.053 C 
BRANCH   2   3
ATOM      3  C   UNL     1      21.304 -52.450 -33.660  1.00  0.00     0.041 C 
ATOM      4  O   UNL     1      21.886 -51.786 -34.557  1.00  0.00    -0.550 OA
ATOM      5  O   UNL     1      21.021 -53.794 -33.873  1.00  0.00    -0.550 OA
ENDBRANCH   2   3
ENDBRANCH   1   2
BRANCH   1   6
ATOM      6  C   UNL     1      20.155 -49.422 -32.247  1.00  0.00     0.000 C 
BRANCH   6   7
ATOM      7  C   UNL     1      19.061 -48.686 -31.460  1.00  0.00    -0.000 C 
BRANCH   7   8
ATOM      8  C   UNL     1      19.131 -47.161 -31.637  1.00  0.00    -0.003 C 
ATOM      9  C   UNL     1      19.090 -46.409 -30.308  1.00  0.00     0.004 C 
ENDBRANCH   7   8
ENDBRANCH   6   7
ENDBRANCH   1   6
TORSDOF 5
ENDMDL
MODEL 8
REMARK VINA RESULT:    -3.922     17.518     18.326
REMARK INTER + INTRA:          -5.148
REMARK INTER:                  -5.028
REMARK INTRA:                  -0.121
REMARK UNBOUND:                -0.080
REMARK SMILES CCCCCCC(=O)[O-]
REMARK SMILES IDX 5 1 6 2 7 3 8 4 9 5 4 6 3 7 2 8 1 9
REMARK H PARENT
REMARK Flexibility Score: inf
ROOT
ATOM      1  C   UNL     1      19.048 -47.191 -31.645  1.00  0.00     0.006 C 
ENDROOT
BRANCH   1   2
ATOM      2  C   UNL     1      19.081 -48.710 -31.453  1.00  0.00     0.053 C 
BRANCH   2   3
ATOM      3  C   UNL     1      19.977 -49.347 -32.467  1.00  0.00     0.041 C 
ATOM      4  O   UNL     1      20.582 -48.637 -33.313  1.00  0.00    -0.550 OA
ATOM      5  O   UNL     1      20.183 -50.720 -32.448  1.00  0.00    -0.550 OA
ENDBRANCH   2   3
ENDBRANCH   1   2
BRANCH   1   6
ATOM      6  C   UNL     1      19.119 -46.464 -30.296  1.00  0.00     0.000 C 
BRANCH   6   7
ATOM      7  C   UNL     1      17.921 -46.833 -29.409  1.00  0.00    -0.000 C 
BRANCH   7   8
ATOM      8  C   UNL     1      17.291 -45.608 -28.728  1.00  0.00    -0.003 C 
ATOM      9  C   UNL     1      17.859 -45.349 -27.334  1.00  0.00     0.004 C 
ENDBRANCH   7   8
ENDBRANCH   6   7
ENDBRANCH   1   6
TORSDOF 5
ENDMDL
MODEL 9
REMARK VINA RESULT:    -3.916     18.212     18.874
REMARK INTER + INTRA:          -5.141
REMARK INTER:                  -4.986
REMARK INTRA:                  -0.155
REMARK UNBOUND:                -0.080
REMARK SMILES CCCCCCC(=O)[O-]
REMARK SMILES IDX 5 1 6 2 7 3 8 4 9 5 4 6 3 7 2 8 1 9
REMARK H PARENT
REMARK Flexibility Score: inf
ROOT
ATOM      1  C   UNL     1      19.758 -50.815 -32.484  1.00  0.00     0.006 C 
ENDROOT
BRANCH   1   2
ATOM      2  C   UNL     1      20.140 -49.411 -32.007  1.00  0.00     0.053 C 
BRANCH   2   3
ATOM      3  C   UNL     1      20.157 -48.453 -33.156  1.00  0.00     0.041 C 
ATOM      4  O   UNL     1      20.781 -48.740 -34.211  1.00  0.00    -0.550 OA
ATOM      5  O   UNL     1      19.442 -47.264 -33.081  1.00  0.00    -0.550 OA
ENDBRANCH   2   3
ENDBRANCH   1   2
BRANCH   1   6
ATOM      6  C   UNL     1      20.919 -51.798 -32.287  1.00  0.00     0.000 C 
BRANCH   6   7
ATOM      7  C   UNL     1      21.229 -52.550 -33.589  1.00  0.00    -0.000 C 
BRANCH   7   8
ATOM      8  C   UNL     1      20.544 -53.924 -33.654  1.00  0.00    -0.003 C 
ATOM      9  C   UNL     1      21.083 -54.801 -34.784  1.00  0.00     0.004 C 
ENDBRANCH   7   8
ENDBRANCH   6   7
ENDBRANCH   1   6
TORSDOF 5
ENDMDL
