MODEL 1
REMARK VINA RESULT:    -5.646      0.000      0.000
REMARK INTER + INTRA:          -6.552
REMARK INTER:                  -6.471
REMARK INTRA:                  -0.081
REMARK UNBOUND:                -0.081
REMARK SMILES COc1cc(C(=O)[O-])ccc1O
REMARK SMILES IDX 5 1 9 2 4 3 10 4 3 5 11 6 6 7 7 8 8 9 2 10 1 11 12 12
REMARK H PARENT 12 13
REMARK Flexibility Score: inf
ROOT
ATOM      1  C   UNL     1      30.056  -1.440 166.236  1.00  0.00     0.001 A 
ATOM      2  C   UNL     1      29.180  -1.650 167.314  1.00  0.00     0.014 A 
ATOM      3  C   UNL     1      30.880  -0.300 166.237  1.00  0.00     0.060 A 
ATOM      4  C   UNL     1      29.129  -0.740 168.372  1.00  0.00     0.051 A 
ATOM      5  C   UNL     1      30.832   0.622 167.304  1.00  0.00     0.161 A 
ATOM      6  C   UNL     1      29.952   0.394 168.369  1.00  0.00     0.157 A 
ENDROOT
BRANCH   1   7
ATOM      7  C   UNL     1      30.106  -2.408 165.118  1.00  0.00     0.072 C 
ATOM      8  O   UNL     1      31.059  -2.387 164.295  1.00  0.00    -0.545 OA
ATOM      9  O   UNL     1      29.101  -3.355 164.961  1.00  0.00    -0.545 OA
ENDBRANCH   1   7
BRANCH   5  10
ATOM     10  O   UNL     1      31.640   1.770 167.337  1.00  0.00    -0.493 OA
ATOM     11  C   UNL     1      32.551   2.147 166.310  1.00  0.00     0.278 C 
ENDBRANCH   5  10
BRANCH   6  12
ATOM     12  O   UNL     1      29.900   1.301 169.426  1.00  0.00    -0.504 OA
ATOM     13  H   UNL     1      29.382   1.099 170.274  1.00  0.00     0.293 HD
ENDBRANCH   6  12
TORSDOF 3
ENDMDL
MODEL 2
REMARK VINA RESULT:    -5.490      1.822      3.930
REMARK INTER + INTRA:          -6.373
REMARK INTER:                  -6.296
REMARK INTRA:                  -0.078
REMARK UNBOUND:                -0.081
REMARK SMILES COc1cc(C(=O)[O-])ccc1O
REMARK SMILES IDX 5 1 9 2 4 3 10 4 3 5 11 6 6 7 7 8 8 9 2 10 1 11 12 12
REMARK H PARENT 12 13
REMARK Flexibility Score: inf
ROOT
ATOM      1  C   UNL     1      30.994  -0.352 166.647  1.00  0.00     0.001 A 
ATOM      2  C   UNL     1      30.599  -0.017 167.952  1.00  0.00     0.014 A 
ATOM      3  C   UNL     1      30.228  -1.280 165.918  1.00  0.00     0.060 A 
ATOM      4  C   UNL     1      29.462  -0.598 168.518  1.00  0.00     0.051 A 
ATOM      5  C   UNL     1      29.079  -1.869 166.485  1.00  0.00     0.161 A 
ATOM      6  C   UNL     1      28.702  -1.521 167.789  1.00  0.00     0.157 A 
ENDROOT
BRANCH   1   7
ATOM      7  C   UNL     1      32.200   0.266 166.052  1.00  0.00     0.072 C 
ATOM      8  O   UNL     1      33.133  -0.451 165.602  1.00  0.00    -0.545 OA
ATOM      9  O   UNL     1      32.320   1.649 165.981  1.00  0.00    -0.545 OA
ENDBRANCH   1   7
BRANCH   5  10
ATOM     10  O   UNL     1      28.292  -2.798 165.787  1.00  0.00    -0.493 OA
ATOM     11  C   UNL     1      28.730  -3.534 164.649  1.00  0.00     0.278 C 
ENDBRANCH   5  10
BRANCH   6  12
ATOM     12  O   UNL     1      27.567  -2.099 168.355  1.00  0.00    -0.504 OA
ATOM     13  H   UNL     1      26.737  -1.553 168.553  1.00  0.00     0.293 HD
ENDBRANCH   6  12
TORSDOF 3
ENDMDL
MODEL 3
REMARK VINA RESULT:    -5.431      1.764      3.173
REMARK INTER + INTRA:          -6.306
REMARK INTER:                  -6.222
REMARK INTRA:                  -0.084
REMARK UNBOUND:                -0.081
REMARK SMILES COc1cc(C(=O)[O-])ccc1O
REMARK SMILES IDX 5 1 9 2 4 3 10 4 3 5 11 6 6 7 7 8 8 9 2 10 1 11 12 12
REMARK H PARENT 12 13
REMARK Flexibility Score: inf
ROOT
ATOM      1  C   UNL     1      31.507  -0.084 166.134  1.00  0.00     0.001 A 
ATOM      2  C   UNL     1      31.741   1.227 166.582  1.00  0.00     0.014 A 
ATOM      3  C   UNL     1      30.614  -0.901 166.851  1.00  0.00     0.060 A 
ATOM      4  C   UNL     1      31.096   1.711 167.722  1.00  0.00     0.051 A 
ATOM      5  C   UNL     1      29.961  -0.417 168.003  1.00  0.00     0.161 A 
ATOM      6  C   UNL     1      30.208   0.894 168.433  1.00  0.00     0.157 A 
ENDROOT
BRANCH   1   7
ATOM      7  C   UNL     1      32.192  -0.592 164.925  1.00  0.00     0.072 C 
ATOM      8  O   UNL     1      33.450  -0.629 164.869  1.00  0.00    -0.545 OA
ATOM      9  O   UNL     1      31.455  -1.036 163.833  1.00  0.00    -0.545 OA
ENDBRANCH   1   7
BRANCH   5  10
ATOM     10  O   UNL     1      29.065  -1.205 168.742  1.00  0.00    -0.493 OA
ATOM     11  C   UNL     1      28.042  -2.015 168.172  1.00  0.00     0.278 C 
ENDBRANCH   5  10
BRANCH   6  12
ATOM     12  O   UNL     1      29.565   1.379 169.570  1.00  0.00    -0.504 OA
ATOM     13  H   UNL     1      28.689   1.884 169.510  1.00  0.00     0.293 HD
ENDBRANCH   6  12
TORSDOF 3
ENDMDL
MODEL 4
REMARK VINA RESULT:    -5.202      1.871      4.304
REMARK INTER + INTRA:          -6.044
REMARK INTER:                  -5.963
REMARK INTRA:                  -0.080
REMARK UNBOUND:                -0.081
REMARK SMILES COc1cc(C(=O)[O-])ccc1O
REMARK SMILES IDX 5 1 9 2 4 3 10 4 3 5 11 6 6 7 7 8 8 9 2 10 1 11 12 12
REMARK H PARENT 12 13
REMARK Flexibility Score: inf
ROOT
ATOM      1  C   UNL     1      29.256  -1.612 166.643  1.00  0.00     0.001 A 
ATOM      2  C   UNL     1      28.294  -2.429 166.028  1.00  0.00     0.014 A 
ATOM      3  C   UNL     1      30.384  -1.209 165.905  1.00  0.00     0.060 A 
ATOM      4  C   UNL     1      28.454  -2.835 164.702  1.00  0.00     0.051 A 
ATOM      5  C   UNL     1      30.550  -1.617 164.566  1.00  0.00     0.161 A 
ATOM      6  C   UNL     1      29.579  -2.433 163.970  1.00  0.00     0.157 A 
ENDROOT
BRANCH   1   7
ATOM      7  C   UNL     1      29.081  -1.184 168.049  1.00  0.00     0.072 C 
ATOM      8  O   UNL     1      28.400  -1.877 168.850  1.00  0.00    -0.545 OA
ATOM      9  O   UNL     1      29.667  -0.008 168.505  1.00  0.00    -0.545 OA
ENDBRANCH   1   7
BRANCH   5  10
ATOM     10  O   UNL     1      31.663  -1.235 163.800  1.00  0.00    -0.493 OA
ATOM     11  C   UNL     1      32.739  -0.436 164.281  1.00  0.00     0.278 C 
ENDBRANCH   5  10
BRANCH   6  12
ATOM     12  O   UNL     1      29.738  -2.839 162.646  1.00  0.00    -0.504 OA
ATOM     13  H   UNL     1      30.638  -3.135 162.287  1.00  0.00     0.293 HD
ENDBRANCH   6  12
TORSDOF 3
ENDMDL
MODEL 5
REMARK VINA RESULT:    -5.031      1.801      2.460
REMARK INTER + INTRA:          -5.848
REMARK INTER:                  -5.747
REMARK INTRA:                  -0.101
REMARK UNBOUND:                -0.081
REMARK SMILES COc1cc(C(=O)[O-])ccc1O
REMARK SMILES IDX 5 1 9 2 4 3 10 4 3 5 11 6 6 7 7 8 8 9 2 10 1 11 12 12
REMARK H PARENT 12 13
REMARK Flexibility Score: inf
ROOT
ATOM      1  C   UNL     1      30.124  -1.605 165.020  1.00  0.00     0.001 A 
ATOM      2  C   UNL     1      28.918  -2.303 165.198  1.00  0.00     0.014 A 
ATOM      3  C   UNL     1      30.668  -0.892 166.105  1.00  0.00     0.060 A 
ATOM      4  C   UNL     1      28.269  -2.291 166.434  1.00  0.00     0.051 A 
ATOM      5  C   UNL     1      30.016  -0.877 167.355  1.00  0.00     0.161 A 
ATOM      6  C   UNL     1      28.814  -1.580 167.512  1.00  0.00     0.157 A 
ENDROOT
BRANCH   1   7
ATOM      7  C   UNL     1      30.808  -1.621 163.708  1.00  0.00     0.072 C 
ATOM      8  O   UNL     1      30.144  -1.581 162.638  1.00  0.00    -0.545 OA
ATOM      9  O   UNL     1      32.195  -1.681 163.638  1.00  0.00    -0.545 OA
ENDBRANCH   1   7
BRANCH   5  10
ATOM     10  O   UNL     1      30.529  -0.178 168.458  1.00  0.00    -0.493 OA
ATOM     11  C   UNL     1      30.465   1.236 168.620  1.00  0.00     0.278 C 
ENDBRANCH   5  10
BRANCH   6  12
ATOM     12  O   UNL     1      28.165  -1.570 168.745  1.00  0.00    -0.504 OA
ATOM     13  H   UNL     1      27.835  -0.708 169.163  1.00  0.00     0.293 HD
ENDBRANCH   6  12
TORSDOF 3
ENDMDL
MODEL 6
REMARK VINA RESULT:    -5.015      1.166      4.327
REMARK INTER + INTRA:          -5.830
REMARK INTER:                  -5.729
REMARK INTRA:                  -0.100
REMARK UNBOUND:                -0.081
REMARK SMILES COc1cc(C(=O)[O-])ccc1O
REMARK SMILES IDX 5 1 9 2 4 3 10 4 3 5 11 6 6 7 7 8 8 9 2 10 1 11 12 12
REMARK H PARENT 12 13
REMARK Flexibility Score: inf
ROOT
ATOM      1  C   UNL     1      30.055  -0.445 167.318  1.00  0.00     0.001 A 
ATOM      2  C   UNL     1      28.963  -0.982 168.020  1.00  0.00     0.014 A 
ATOM      3  C   UNL     1      30.364  -0.954 166.043  1.00  0.00     0.060 A 
ATOM      4  C   UNL     1      28.197  -2.006 167.462  1.00  0.00     0.051 A 
ATOM      5  C   UNL     1      29.593  -1.989 165.475  1.00  0.00     0.161 A 
ATOM      6  C   UNL     1      28.508  -2.511 166.192  1.00  0.00     0.157 A 
ENDROOT
BRANCH   1   7
ATOM      7  C   UNL     1      30.863   0.641 167.914  1.00  0.00     0.072 C 
ATOM      8  O   UNL     1      31.871   1.096 167.311  1.00  0.00    -0.545 OA
ATOM      9  O   UNL     1      30.522   1.174 169.152  1.00  0.00    -0.545 OA
ENDBRANCH   1   7
BRANCH   5  10
ATOM     10  O   UNL     1      29.873  -2.521 164.206  1.00  0.00    -0.493 OA
ATOM     11  C   UNL     1      31.059  -3.235 163.874  1.00  0.00     0.278 C 
ENDBRANCH   5  10
BRANCH   6  12
ATOM     12  O   UNL     1      27.742  -3.533 165.636  1.00  0.00    -0.504 OA
ATOM     13  H   UNL     1      27.454  -4.338 166.181  1.00  0.00     0.293 HD
ENDBRANCH   6  12
TORSDOF 3
ENDMDL
MODEL 7
REMARK VINA RESULT:    -4.964      1.929      3.041
REMARK INTER + INTRA:          -5.771
REMARK INTER:                  -5.676
REMARK INTRA:                  -0.095
REMARK UNBOUND:                -0.081
REMARK SMILES COc1cc(C(=O)[O-])ccc1O
REMARK SMILES IDX 5 1 9 2 4 3 10 4 3 5 11 6 6 7 7 8 8 9 2 10 1 11 12 12
REMARK H PARENT 12 13
REMARK Flexibility Score: inf
ROOT
ATOM      1  C   UNL     1      29.882  -0.545 167.470  1.00  0.00     0.001 A 
ATOM      2  C   UNL     1      30.037   0.612 168.251  1.00  0.00     0.014 A 
ATOM      3  C   UNL     1      30.720  -0.735 166.355  1.00  0.00     0.060 A 
ATOM      4  C   UNL     1      31.009   1.560 167.926  1.00  0.00     0.051 A 
ATOM      5  C   UNL     1      31.703   0.220 166.023  1.00  0.00     0.161 A 
ATOM      6  C   UNL     1      31.841   1.367 166.815  1.00  0.00     0.157 A 
ENDROOT
BRANCH   1   7
ATOM      7  C   UNL     1      28.851  -1.547 167.819  1.00  0.00     0.072 C 
ATOM      8  O   UNL     1      28.653  -1.872 169.019  1.00  0.00    -0.545 OA
ATOM      9  O   UNL     1      28.085  -2.145 166.824  1.00  0.00    -0.545 OA
ENDBRANCH   1   7
BRANCH   5  10
ATOM     10  O   UNL     1      32.556   0.063 164.919  1.00  0.00    -0.493 OA
ATOM     11  C   UNL     1      33.757  -0.701 164.929  1.00  0.00     0.278 C 
ENDBRANCH   5  10
BRANCH   6  12
ATOM     12  O   UNL     1      32.811   2.315 166.492  1.00  0.00    -0.504 OA
ATOM     13  H   UNL     1      33.755   2.043 166.243  1.00  0.00     0.293 HD
ENDBRANCH   6  12
TORSDOF 3
ENDMDL
MODEL 8
REMARK VINA RESULT:    -4.777      1.375      5.027
REMARK INTER + INTRA:          -5.557
REMARK INTER:                  -5.475
REMARK INTRA:                  -0.082
REMARK UNBOUND:                -0.081
REMARK SMILES COc1cc(C(=O)[O-])ccc1O
REMARK SMILES IDX 5 1 9 2 4 3 10 4 3 5 11 6 6 7 7 8 8 9 2 10 1 11 12 12
REMARK H PARENT 12 13
REMARK Flexibility Score: inf
ROOT
ATOM      1  C   UNL     1      30.488  -0.668 166.696  1.00  0.00     0.001 A 
ATOM      2  C   UNL     1      31.627  -0.215 166.009  1.00  0.00     0.014 A 
ATOM      3  C   UNL     1      29.696  -1.676 166.115  1.00  0.00     0.060 A 
ATOM      4  C   UNL     1      31.968  -0.757 164.769  1.00  0.00     0.051 A 
ATOM      5  C   UNL     1      30.037  -2.226 164.863  1.00  0.00     0.161 A 
ATOM      6  C   UNL     1      31.177  -1.761 164.194  1.00  0.00     0.157 A 
ENDROOT
BRANCH   1   7
ATOM      7  C   UNL     1      30.131  -0.089 168.010  1.00  0.00     0.072 C 
ATOM      8  O   UNL     1      29.198  -0.584 168.696  1.00  0.00    -0.545 OA
ATOM      9  O   UNL     1      30.822   1.010 168.506  1.00  0.00    -0.545 OA
ENDBRANCH   1   7
BRANCH   5  10
ATOM     10  O   UNL     1      29.270  -3.233 164.254  1.00  0.00    -0.493 OA
ATOM     11  C   UNL     1      28.209  -3.936 164.892  1.00  0.00     0.278 C 
ENDBRANCH   5  10
BRANCH   6  12
ATOM     12  O   UNL     1      31.519  -2.302 162.957  1.00  0.00    -0.504 OA
ATOM     13  H   UNL     1      32.101  -1.796 162.299  1.00  0.00     0.293 HD
ENDBRANCH   6  12
TORSDOF 3
ENDMDL
MODEL 9
REMARK VINA RESULT:    -4.598      1.486      2.892
REMARK INTER + INTRA:          -5.351
REMARK INTER:                  -5.270
REMARK INTRA:                  -0.082
REMARK UNBOUND:                -0.081
REMARK SMILES COc1cc(C(=O)[O-])ccc1O
REMARK SMILES IDX 5 1 9 2 4 3 10 4 3 5 11 6 6 7 7 8 8 9 2 10 1 11 12 12
REMARK H PARENT 12 13
REMARK Flexibility Score: inf
ROOT
ATOM      1  C   UNL     1      30.048  -1.686 165.464  1.00  0.00     0.001 A 
ATOM      2  C   UNL     1      30.996  -1.511 164.442  1.00  0.00     0.014 A 
ATOM      3  C   UNL     1      30.179  -0.943 166.652  1.00  0.00     0.060 A 
ATOM      4  C   UNL     1      32.053  -0.613 164.603  1.00  0.00     0.051 A 
ATOM      5  C   UNL     1      31.245  -0.035 166.818  1.00  0.00     0.161 A 
ATOM      6  C   UNL     1      32.180   0.125 165.787  1.00  0.00     0.157 A 
ENDROOT
BRANCH   1   7
ATOM      7  C   UNL     1      28.930  -2.638 165.288  1.00  0.00     0.072 C 
ATOM      8  O   UNL     1      27.778  -2.361 165.713  1.00  0.00    -0.545 OA
ATOM      9  O   UNL     1      29.137  -3.856 164.649  1.00  0.00    -0.545 OA
ENDBRANCH   1   7
BRANCH   5  10
ATOM     10  O   UNL     1      31.406   0.722 167.990  1.00  0.00    -0.493 OA
ATOM     11  C   UNL     1      30.338   1.150 168.829  1.00  0.00     0.278 C 
ENDBRANCH   5  10
BRANCH   6  12
ATOM     12  O   UNL     1      33.235   1.022 165.946  1.00  0.00    -0.504 OA
ATOM     13  H   UNL     1      33.148   1.995 165.678  1.00  0.00     0.293 HD
ENDBRANCH   6  12
TORSDOF 3
ENDMDL
