MODEL 1
REMARK VINA RESULT:    -5.921      0.000      0.000
REMARK INTER + INTRA:          -9.053
REMARK INTER:                  -7.997
REMARK INTRA:                  -1.056
REMARK UNBOUND:                -1.056
REMARK SMILES CC(=O)CCC=C(C)CCC=C(C)C
REMARK SMILES IDX 7 1 6 2 8 3 9 4 10 5 11 6 13 7 12 8 14 9 5 10 4 11 2 12 3 13
REMARK SMILES IDX 1 14
REMARK H PARENT
REMARK Flexibility Score: inf
ROOT
ATOM      1  C   UNL     1      -3.814 -13.513  31.513  1.00  0.00    -0.077 C 
ATOM      2  C   UNL     1      -2.572 -13.636  32.034  1.00  0.00    -0.028 C 
ATOM      3  C   UNL     1      -4.869 -14.501  31.937  1.00  0.00     0.039 C 
ENDROOT
BRANCH   1   4
ATOM      4  C   UNL     1      -4.211 -12.385  30.580  1.00  0.00     0.034 C 
BRANCH   4   5
ATOM      5  C   UNL     1      -4.576 -12.932  29.197  1.00  0.00     0.032 C 
BRANCH   5   6
ATOM      6  C   UNL     1      -4.034 -12.038  28.109  1.00  0.00    -0.028 C 
ATOM      7  C   UNL     1      -3.736 -13.921  26.484  1.00  0.00     0.039 C 
ATOM      8  C   UNL     1      -3.628 -12.471  26.894  1.00  0.00    -0.080 C 
ATOM      9  C   UNL     1      -3.070 -11.463  25.922  1.00  0.00     0.039 C 
ENDBRANCH   5   6
ENDBRANCH   4   5
ENDBRANCH   1   4
BRANCH   2  10
ATOM     10  C   UNL     1      -1.407 -12.734  31.707  1.00  0.00     0.035 C 
BRANCH  10  11
ATOM     11  C   UNL     1      -0.340 -13.493  30.909  1.00  0.00     0.079 C 
BRANCH  11  12
ATOM     12  C   UNL     1      -0.490 -13.230  29.436  1.00  0.00     0.130 C 
ATOM     13  O   UNL     1      -0.822 -12.119  29.049  1.00  0.00    -0.300 OA
ATOM     14  C   UNL     1      -0.260 -14.326  28.441  1.00  0.00     0.087 C 
ENDBRANCH  11  12
ENDBRANCH  10  11
ENDBRANCH   2  10
TORSDOF 6
ENDMDL
MODEL 2
REMARK VINA RESULT:    -5.812      1.459      2.243
REMARK INTER + INTRA:          -8.906
REMARK INTER:                  -7.469
REMARK INTRA:                  -1.437
REMARK UNBOUND:                -1.056
REMARK SMILES CC(=O)CCC=C(C)CCC=C(C)C
REMARK SMILES IDX 7 1 6 2 8 3 9 4 10 5 11 6 13 7 12 8 14 9 5 10 4 11 2 12 3 13
REMARK SMILES IDX 1 14
REMARK H PARENT
REMARK Flexibility Score: inf
ROOT
ATOM      1  C   UNL     1      -3.786 -11.120  31.179  1.00  0.00    -0.077 C 
ATOM      2  C   UNL     1      -3.612 -12.342  31.733  1.00  0.00    -0.028 C 
ATOM      3  C   UNL     1      -4.578 -10.094  31.947  1.00  0.00     0.039 C 
ENDROOT
BRANCH   1   4
ATOM      4  C   UNL     1      -3.161 -10.714  29.859  1.00  0.00     0.034 C 
BRANCH   4   5
ATOM      5  C   UNL     1      -4.180 -10.830  28.721  1.00  0.00     0.032 C 
BRANCH   5   6
ATOM      6  C   UNL     1      -3.747 -11.875  27.723  1.00  0.00    -0.028 C 
ATOM      7  C   UNL     1      -5.429 -13.557  28.510  1.00  0.00     0.039 C 
ATOM      8  C   UNL     1      -4.282 -13.114  27.633  1.00  0.00    -0.080 C 
ATOM      9  C   UNL     1      -3.719 -14.066  26.609  1.00  0.00     0.039 C 
ENDBRANCH   5   6
ENDBRANCH   4   5
ENDBRANCH   1   4
BRANCH   2  10
ATOM     10  C   UNL     1      -2.853 -13.477  31.092  1.00  0.00     0.035 C 
BRANCH  10  11
ATOM     11  C   UNL     1      -1.478 -13.650  31.747  1.00  0.00     0.079 C 
BRANCH  11  12
ATOM     12  C   UNL     1      -0.394 -13.100  30.861  1.00  0.00     0.130 C 
ATOM     13  O   UNL     1       0.558 -12.518  31.359  1.00  0.00    -0.300 OA
ATOM     14  C   UNL     1      -0.485 -13.238  29.372  1.00  0.00     0.087 C 
ENDBRANCH  11  12
ENDBRANCH  10  11
ENDBRANCH   2  10
TORSDOF 6
ENDMDL
MODEL 3
REMARK VINA RESULT:    -5.601      1.824      4.362
REMARK INTER + INTRA:          -8.621
REMARK INTER:                  -7.090
REMARK INTRA:                  -1.531
REMARK UNBOUND:                -1.056
REMARK SMILES CC(=O)CCC=C(C)CCC=C(C)C
REMARK SMILES IDX 7 1 6 2 8 3 9 4 10 5 11 6 13 7 12 8 14 9 5 10 4 11 2 12 3 13
REMARK SMILES IDX 1 14
REMARK H PARENT
REMARK Flexibility Score: inf
ROOT
ATOM      1  C   UNL     1      -3.401 -10.733  30.821  1.00  0.00    -0.077 C 
ATOM      2  C   UNL     1      -3.639 -10.305  29.560  1.00  0.00    -0.028 C 
ATOM      3  C   UNL     1      -2.546  -9.877  31.718  1.00  0.00     0.039 C 
ENDROOT
BRANCH   1   4
ATOM      4  C   UNL     1      -4.015 -11.996  31.393  1.00  0.00     0.034 C 
BRANCH   4   5
ATOM      5  C   UNL     1      -2.922 -12.989  31.802  1.00  0.00     0.032 C 
BRANCH   5   6
ATOM      6  C   UNL     1      -2.168 -13.480  30.591  1.00  0.00    -0.028 C 
ATOM      7  C   UNL     1       0.032 -12.599  31.403  1.00  0.00     0.039 C 
ATOM      8  C   UNL     1      -0.845 -13.290  30.385  1.00  0.00    -0.080 C 
ATOM      9  C   UNL     1      -0.236 -13.804  29.106  1.00  0.00     0.039 C 
ENDBRANCH   5   6
ENDBRANCH   4   5
ENDBRANCH   1   4
BRANCH   2  10
ATOM     10  C   UNL     1      -4.466 -11.046  28.539  1.00  0.00     0.035 C 
BRANCH  10  11
ATOM     11  C   UNL     1      -3.575 -11.920  27.649  1.00  0.00     0.079 C 
BRANCH  11  12
ATOM     12  C   UNL     1      -4.148 -13.304  27.518  1.00  0.00     0.130 C 
ATOM     13  O   UNL     1      -3.667 -14.085  26.711  1.00  0.00    -0.300 OA
ATOM     14  C   UNL     1      -5.321 -13.724  28.351  1.00  0.00     0.087 C 
ENDBRANCH  11  12
ENDBRANCH  10  11
ENDBRANCH   2  10
TORSDOF 6
ENDMDL
MODEL 4
REMARK VINA RESULT:    -5.536      2.255      4.074
REMARK INTER + INTRA:          -8.533
REMARK INTER:                  -7.440
REMARK INTRA:                  -1.093
REMARK UNBOUND:                -1.056
REMARK SMILES CC(=O)CCC=C(C)CCC=C(C)C
REMARK SMILES IDX 7 1 6 2 8 3 9 4 10 5 11 6 13 7 12 8 14 9 5 10 4 11 2 12 3 13
REMARK SMILES IDX 1 14
REMARK H PARENT
REMARK Flexibility Score: inf
ROOT
ATOM      1  C   UNL     1      -1.795 -12.732  29.737  1.00  0.00    -0.077 C 
ATOM      2  C   UNL     1      -2.142 -13.563  30.747  1.00  0.00    -0.028 C 
ATOM      3  C   UNL     1      -0.718 -13.176  28.783  1.00  0.00     0.039 C 
ENDROOT
BRANCH   1   4
ATOM      4  C   UNL     1      -2.491 -11.410  29.480  1.00  0.00     0.034 C 
BRANCH   4   5
ATOM      5  C   UNL     1      -3.372 -11.498  28.229  1.00  0.00     0.032 C 
BRANCH   5   6
ATOM      6  C   UNL     1      -4.560 -12.393  28.475  1.00  0.00    -0.028 C 
ATOM      7  C   UNL     1      -3.900 -14.031  26.698  1.00  0.00     0.039 C 
ATOM      8  C   UNL     1      -4.825 -13.522  27.778  1.00  0.00    -0.080 C 
ATOM      9  C   UNL     1      -6.075 -14.294  28.112  1.00  0.00     0.039 C 
ENDBRANCH   5   6
ENDBRANCH   4   5
ENDBRANCH   1   4
BRANCH   2  10
ATOM     10  C   UNL     1      -3.193 -13.264  31.786  1.00  0.00     0.035 C 
BRANCH  10  11
ATOM     11  C   UNL     1      -4.498 -14.002  31.468  1.00  0.00     0.079 C 
BRANCH  11  12
ATOM     12  C   UNL     1      -5.049 -14.665  32.700  1.00  0.00     0.130 C 
ATOM     13  O   UNL     1      -5.196 -15.878  32.722  1.00  0.00    -0.300 OA
ATOM     14  C   UNL     1      -5.444 -13.846  33.892  1.00  0.00     0.087 C 
ENDBRANCH  11  12
ENDBRANCH  10  11
ENDBRANCH   2  10
TORSDOF 6
ENDMDL
MODEL 5
REMARK VINA RESULT:    -5.525      1.088      3.902
REMARK INTER + INTRA:          -8.519
REMARK INTER:                  -7.552
REMARK INTRA:                  -0.968
REMARK UNBOUND:                -1.056
REMARK SMILES CC(=O)CCC=C(C)CCC=C(C)C
REMARK SMILES IDX 7 1 6 2 8 3 9 4 10 5 11 6 13 7 12 8 14 9 5 10 4 11 2 12 3 13
REMARK SMILES IDX 1 14
REMARK H PARENT
REMARK Flexibility Score: inf
ROOT
ATOM      1  C   UNL     1      -4.862 -13.889  30.983  1.00  0.00    -0.077 C 
ATOM      2  C   UNL     1      -5.309 -13.941  29.707  1.00  0.00    -0.028 C 
ATOM      3  C   UNL     1      -5.183 -15.039  31.900  1.00  0.00     0.039 C 
ENDROOT
BRANCH   1   4
ATOM      4  C   UNL     1      -3.993 -12.763  31.507  1.00  0.00     0.034 C 
BRANCH   4   5
ATOM      5  C   UNL     1      -2.598 -13.282  31.870  1.00  0.00     0.032 C 
BRANCH   5   6
ATOM      6  C   UNL     1      -1.813 -13.617  30.626  1.00  0.00    -0.028 C 
ATOM      7  C   UNL     1       0.268 -12.483  31.439  1.00  0.00     0.039 C 
ATOM      8  C   UNL     1      -0.532 -13.243  30.406  1.00  0.00    -0.080 C 
ATOM      9  C   UNL     1       0.110 -13.617  29.096  1.00  0.00     0.039 C 
ENDBRANCH   5   6
ENDBRANCH   4   5
ENDBRANCH   1   4
BRANCH   2  10
ATOM     10  C   UNL     1      -5.080 -12.871  28.668  1.00  0.00     0.035 C 
BRANCH  10  11
ATOM     11  C   UNL     1      -3.798 -13.148  27.876  1.00  0.00     0.079 C 
BRANCH  11  12
ATOM     12  C   UNL     1      -3.099 -11.863  27.525  1.00  0.00     0.130 C 
ATOM     13  O   UNL     1      -2.635 -11.164  28.414  1.00  0.00    -0.300 OA
ATOM     14  C   UNL     1      -2.992 -11.421  26.097  1.00  0.00     0.087 C 
ENDBRANCH  11  12
ENDBRANCH  10  11
ENDBRANCH   2  10
TORSDOF 6
ENDMDL
MODEL 6
REMARK VINA RESULT:    -5.522      2.292      4.228
REMARK INTER + INTRA:          -8.515
REMARK INTER:                  -7.564
REMARK INTRA:                  -0.952
REMARK UNBOUND:                -1.056
REMARK SMILES CC(=O)CCC=C(C)CCC=C(C)C
REMARK SMILES IDX 7 1 6 2 8 3 9 4 10 5 11 6 13 7 12 8 14 9 5 10 4 11 2 12 3 13
REMARK SMILES IDX 1 14
REMARK H PARENT
REMARK Flexibility Score: inf
ROOT
ATOM      1  C   UNL     1      -0.571 -13.106  30.974  1.00  0.00    -0.077 C 
ATOM      2  C   UNL     1      -1.517 -13.280  31.926  1.00  0.00    -0.028 C 
ATOM      3  C   UNL     1       0.693 -12.379  31.347  1.00  0.00     0.039 C 
ENDROOT
BRANCH   1   4
ATOM      4  C   UNL     1      -0.696 -13.672  29.573  1.00  0.00     0.034 C 
BRANCH   4   5
ATOM      5  C   UNL     1      -1.538 -12.745  28.690  1.00  0.00     0.032 C 
BRANCH   5   6
ATOM      6  C   UNL     1      -2.878 -13.368  28.388  1.00  0.00    -0.028 C 
ATOM      7  C   UNL     1      -4.150 -11.272  28.904  1.00  0.00     0.039 C 
ATOM      8  C   UNL     1      -4.063 -12.727  28.504  1.00  0.00    -0.080 C 
ATOM      9  C   UNL     1      -5.326 -13.492  28.205  1.00  0.00     0.039 C 
ENDBRANCH   5   6
ENDBRANCH   4   5
ENDBRANCH   1   4
BRANCH   2  10
ATOM     10  C   UNL     1      -2.837 -13.978  31.712  1.00  0.00     0.035 C 
BRANCH  10  11
ATOM     11  C   UNL     1      -4.001 -13.091  32.168  1.00  0.00     0.079 C 
BRANCH  11  12
ATOM     12  C   UNL     1      -4.991 -13.886  32.975  1.00  0.00     0.130 C 
ATOM     13  O   UNL     1      -5.314 -13.499  34.088  1.00  0.00    -0.300 OA
ATOM     14  C   UNL     1      -5.564 -15.160  32.434  1.00  0.00     0.087 C 
ENDBRANCH  11  12
ENDBRANCH  10  11
ENDBRANCH   2  10
TORSDOF 6
ENDMDL
MODEL 7
REMARK VINA RESULT:    -5.400      1.914      5.020
REMARK INTER + INTRA:          -8.350
REMARK INTER:                  -7.462
REMARK INTRA:                  -0.887
REMARK UNBOUND:                -1.056
REMARK SMILES CC(=O)CCC=C(C)CCC=C(C)C
REMARK SMILES IDX 7 1 6 2 8 3 9 4 10 5 11 6 13 7 12 8 14 9 5 10 4 11 2 12 3 13
REMARK SMILES IDX 1 14
REMARK H PARENT
REMARK Flexibility Score: inf
ROOT
ATOM      1  C   UNL     1      -1.304 -12.966  28.954  1.00  0.00    -0.077 C 
ATOM      2  C   UNL     1      -2.249 -13.153  28.004  1.00  0.00    -0.028 C 
ATOM      3  C   UNL     1      -0.088 -13.853  28.937  1.00  0.00     0.039 C 
ENDROOT
BRANCH   1   4
ATOM      4  C   UNL     1      -1.381 -11.859  29.987  1.00  0.00     0.034 C 
BRANCH   4   5
ATOM      5  C   UNL     1      -1.302 -12.436  31.404  1.00  0.00     0.032 C 
BRANCH   5   6
ATOM      6  C   UNL     1      -2.368 -13.483  31.613  1.00  0.00    -0.028 C 
ATOM      7  C   UNL     1      -4.152 -11.799  32.119  1.00  0.00     0.039 C 
ATOM      8  C   UNL     1      -3.647 -13.214  31.960  1.00  0.00    -0.080 C 
ATOM      9  C   UNL     1      -4.591 -14.368  32.173  1.00  0.00     0.039 C 
ENDBRANCH   5   6
ENDBRANCH   4   5
ENDBRANCH   1   4
BRANCH   2  10
ATOM     10  C   UNL     1      -3.525 -12.356  27.888  1.00  0.00     0.035 C 
BRANCH  10  11
ATOM     11  C   UNL     1      -4.665 -13.042  28.648  1.00  0.00     0.079 C 
BRANCH  11  12
ATOM     12  C   UNL     1      -5.320 -14.091  27.791  1.00  0.00     0.130 C 
ATOM     13  O   UNL     1      -4.846 -14.364  26.699  1.00  0.00    -0.300 OA
ATOM     14  C   UNL     1      -6.564 -14.785  28.258  1.00  0.00     0.087 C 
ENDBRANCH  11  12
ENDBRANCH  10  11
ENDBRANCH   2  10
TORSDOF 6
ENDMDL
MODEL 8
REMARK VINA RESULT:    -5.363      2.056      4.430
REMARK INTER + INTRA:          -8.300
REMARK INTER:                  -7.187
REMARK INTRA:                  -1.112
REMARK UNBOUND:                -1.056
REMARK SMILES CC(=O)CCC=C(C)CCC=C(C)C
REMARK SMILES IDX 7 1 6 2 8 3 9 4 10 5 11 6 13 7 12 8 14 9 5 10 4 11 2 12 3 13
REMARK SMILES IDX 1 14
REMARK H PARENT
REMARK Flexibility Score: inf
ROOT
ATOM      1  C   UNL     1      -4.377 -13.121  28.419  1.00  0.00    -0.077 C 
ATOM      2  C   UNL     1      -4.669 -13.506  29.683  1.00  0.00    -0.028 C 
ATOM      3  C   UNL     1      -4.768 -14.033  27.286  1.00  0.00     0.039 C 
ENDROOT
BRANCH   1   4
ATOM      4  C   UNL     1      -3.740 -11.786  28.089  1.00  0.00     0.034 C 
BRANCH   4   5
ATOM      5  C   UNL     1      -2.235 -11.950  27.854  1.00  0.00     0.032 C 
BRANCH   5   6
ATOM      6  C   UNL     1      -1.491 -11.994  29.165  1.00  0.00    -0.028 C 
ATOM      7  C   UNL     1      -0.488 -14.243  28.706  1.00  0.00     0.039 C 
ATOM      8  C   UNL     1      -0.723 -13.029  29.574  1.00  0.00    -0.080 C 
ATOM      9  C   UNL     1      -0.072 -12.949  30.931  1.00  0.00     0.039 C 
ENDBRANCH   5   6
ENDBRANCH   4   5
ENDBRANCH   1   4
BRANCH   2  10
ATOM     10  C   UNL     1      -4.339 -12.712  30.923  1.00  0.00     0.035 C 
BRANCH  10  11
ATOM     11  C   UNL     1      -3.728 -13.616  32.000  1.00  0.00     0.079 C 
BRANCH  11  12
ATOM     12  C   UNL     1      -4.801 -14.194  32.882  1.00  0.00     0.130 C 
ATOM     13  O   UNL     1      -5.162 -13.582  33.876  1.00  0.00    -0.300 OA
ATOM     14  C   UNL     1      -5.412 -15.525  32.563  1.00  0.00     0.087 C 
ENDBRANCH  11  12
ENDBRANCH  10  11
ENDBRANCH   2  10
TORSDOF 6
ENDMDL
MODEL 9
REMARK VINA RESULT:    -5.299      1.252      3.882
REMARK INTER + INTRA:          -8.214
REMARK INTER:                  -7.096
REMARK INTRA:                  -1.117
REMARK UNBOUND:                -1.056
REMARK SMILES CC(=O)CCC=C(C)CCC=C(C)C
REMARK SMILES IDX 7 1 6 2 8 3 9 4 10 5 11 6 13 7 12 8 14 9 5 10 4 11 2 12 3 13
REMARK SMILES IDX 1 14
REMARK H PARENT
REMARK Flexibility Score: inf
ROOT
ATOM      1  C   UNL     1      -2.996 -13.266  27.587  1.00  0.00    -0.077 C 
ATOM      2  C   UNL     1      -1.928 -13.982  28.010  1.00  0.00    -0.028 C 
ATOM      3  C   UNL     1      -4.117 -13.995  26.896  1.00  0.00     0.039 C 
ENDROOT
BRANCH   1   4
ATOM      4  C   UNL     1      -3.145 -11.779  27.842  1.00  0.00     0.034 C 
BRANCH   4   5
ATOM      5  C   UNL     1      -4.303 -11.512  28.810  1.00  0.00     0.032 C 
BRANCH   5   6
ATOM      6  C   UNL     1      -4.266 -12.480  29.966  1.00  0.00    -0.028 C 
ATOM      7  C   UNL     1      -4.139 -10.667  31.690  1.00  0.00     0.039 C 
ATOM      8  C   UNL     1      -4.166 -12.117  31.265  1.00  0.00    -0.080 C 
ATOM      9  C   UNL     1      -4.100 -13.199  32.310  1.00  0.00     0.039 C 
ENDBRANCH   5   6
ENDBRANCH   4   5
ENDBRANCH   1   4
BRANCH   2  10
ATOM     10  C   UNL     1      -0.724 -13.402  28.710  1.00  0.00     0.035 C 
BRANCH  10  11
ATOM     11  C   UNL     1      -0.853 -13.555  30.230  1.00  0.00     0.079 C 
BRANCH  11  12
ATOM     12  C   UNL     1      -0.456 -12.283  30.928  1.00  0.00     0.130 C 
ATOM     13  O   UNL     1      -0.896 -11.213  30.535  1.00  0.00    -0.300 OA
ATOM     14  C   UNL     1       0.495 -12.317  32.086  1.00  0.00     0.087 C 
ENDBRANCH  11  12
ENDBRANCH  10  11
ENDBRANCH   2  10
TORSDOF 6
ENDMDL
