MODEL 1
REMARK VINA RESULT:    -3.892      0.000      0.000
REMARK INTER + INTRA:          -8.920
REMARK INTER:                  -7.305
REMARK INTRA:                  -1.615
REMARK UNBOUND:                -1.615
REMARK SMILES CCCCCC=CCC=CCCCCCCCC(=O)OC
REMARK SMILES IDX 11 1 10 2 9 3 8 4 7 5 6 6 5 7 4 8 3 9 2 10 1 11 12 12 13 13
REMARK SMILES IDX 14 14 15 15 16 16 17 17 18 18 19 19 20 20 21 21
REMARK H PARENT
REMARK Flexibility Score: inf
ROOT
ATOM      1  C   UNL     1      19.276  32.710  41.481  1.00  0.00     0.027 C 
ENDROOT
BRANCH   1   2
ATOM      2  C   UNL     1      20.779  32.745  41.481  1.00  0.00    -0.031 C 
ATOM      3  C   UNL     1      21.469  33.369  40.516  1.00  0.00    -0.027 C 
BRANCH   3   4
ATOM      4  C   UNL     1      22.971  33.388  40.521  1.00  0.00     0.054 C 
BRANCH   4   5
ATOM      5  C   UNL     1      23.500  32.704  41.759  1.00  0.00    -0.027 C 
ATOM      6  C   UNL     1      24.136  33.337  42.763  1.00  0.00    -0.031 C 
BRANCH   6   7
ATOM      7  C   UNL     1      24.334  34.829  42.836  1.00  0.00     0.027 C 
BRANCH   7   8
ATOM      8  C   UNL     1      23.233  35.487  43.682  1.00  0.00     0.004 C 
BRANCH   8   9
ATOM      9  C   UNL     1      22.536  36.649  42.955  1.00  0.00     0.000 C 
BRANCH   9  10
ATOM     10  C   UNL     1      23.279  37.122  41.688  1.00  0.00    -0.003 C 
ATOM     11  C   UNL     1      22.404  37.054  40.437  1.00  0.00     0.004 C 
ENDBRANCH   9  10
ENDBRANCH   8   9
ENDBRANCH   7   8
ENDBRANCH   6   7
ENDBRANCH   4   5
ENDBRANCH   3   4
ENDBRANCH   1   2
BRANCH   1  12
ATOM     12  C   UNL     1      18.711  33.262  40.166  1.00  0.00     0.004 C 
BRANCH  12  13
ATOM     13  C   UNL     1      17.314  32.690  39.884  1.00  0.00     0.000 C 
BRANCH  13  14
ATOM     14  C   UNL     1      16.639  32.136  41.149  1.00  0.00     0.000 C 
BRANCH  14  15
ATOM     15  C   UNL     1      15.118  31.996  40.992  1.00  0.00     0.001 C 
BRANCH  15  16
ATOM     16  C   UNL     1      14.382  33.087  41.780  1.00  0.00     0.012 C 
BRANCH  16  17
ATOM     17  C   UNL     1      12.895  32.751  41.927  1.00  0.00     0.123 C 
BRANCH  17  18
ATOM     18  C   UNL     1      12.317  33.447  43.118  1.00  0.00     0.305 C 
ATOM     19  O   UNL     1      13.077  33.827  44.051  1.00  0.00    -0.252 OA
BRANCH  18  20
ATOM     20  O   UNL     1      10.935  33.636  43.202  1.00  0.00    -0.469 OA
ATOM     21  C   UNL     1      10.219  33.520  44.426  1.00  0.00     0.282 C 
ENDBRANCH  18  20
ENDBRANCH  17  18
ENDBRANCH  16  17
ENDBRANCH  15  16
ENDBRANCH  14  15
ENDBRANCH  13  14
ENDBRANCH  12  13
ENDBRANCH   1  12
TORSDOF 15
ENDMDL
MODEL 2
REMARK VINA RESULT:    -3.272      4.068      8.561
REMARK INTER + INTRA:          -7.757
REMARK INTER:                  -5.856
REMARK INTRA:                  -1.901
REMARK UNBOUND:                -1.615
REMARK SMILES CCCCCC=CCC=CCCCCCCCC(=O)OC
REMARK SMILES IDX 11 1 10 2 9 3 8 4 7 5 6 6 5 7 4 8 3 9 2 10 1 11 12 12 13 13
REMARK SMILES IDX 14 14 15 15 16 16 17 17 18 18 19 19 20 20 21 21
REMARK H PARENT
REMARK Flexibility Score: inf
ROOT
ATOM      1  C   UNL     1      21.737  34.884  39.530  1.00  0.00     0.027 C 
ENDROOT
BRANCH   1   2
ATOM      2  C   UNL     1      21.256  34.614  38.131  1.00  0.00    -0.031 C 
ATOM      3  C   UNL     1      21.426  33.420  37.545  1.00  0.00    -0.027 C 
BRANCH   3   4
ATOM      4  C   UNL     1      20.950  33.167  36.143  1.00  0.00     0.054 C 
BRANCH   4   5
ATOM      5  C   UNL     1      19.596  33.797  35.926  1.00  0.00    -0.027 C 
ATOM      6  C   UNL     1      18.429  33.236  36.296  1.00  0.00    -0.031 C 
BRANCH   6   7
ATOM      7  C   UNL     1      18.313  31.940  37.056  1.00  0.00     0.027 C 
BRANCH   7   8
ATOM      8  C   UNL     1      17.601  32.156  38.400  1.00  0.00     0.004 C 
BRANCH   8   9
ATOM      9  C   UNL     1      18.491  32.853  39.442  1.00  0.00     0.000 C 
BRANCH   9  10
ATOM     10  C   UNL     1      17.794  33.079  40.800  1.00  0.00    -0.003 C 
ATOM     11  C   UNL     1      16.456  32.345  40.900  1.00  0.00     0.004 C 
ENDBRANCH   9  10
ENDBRANCH   8   9
ENDBRANCH   7   8
ENDBRANCH   6   7
ENDBRANCH   4   5
ENDBRANCH   3   4
ENDBRANCH   1   2
BRANCH   1  12
ATOM     12  C   UNL     1      22.673  33.770  40.015  1.00  0.00     0.004 C 
BRANCH  12  13
ATOM     13  C   UNL     1      22.002  32.923  41.107  1.00  0.00     0.000 C 
BRANCH  13  14
ATOM     14  C   UNL     1      23.023  32.183  41.987  1.00  0.00     0.000 C 
BRANCH  14  15
ATOM     15  C   UNL     1      24.342  32.955  42.136  1.00  0.00     0.001 C 
BRANCH  15  16
ATOM     16  C   UNL     1      24.371  33.744  43.450  1.00  0.00     0.012 C 
BRANCH  16  17
ATOM     17  C   UNL     1      24.784  35.199  43.209  1.00  0.00     0.123 C 
BRANCH  17  18
ATOM     18  C   UNL     1      23.578  36.051  42.967  1.00  0.00     0.305 C 
ATOM     19  O   UNL     1      22.464  35.709  43.448  1.00  0.00    -0.252 OA
BRANCH  18  20
ATOM     20  O   UNL     1      23.694  37.198  42.177  1.00  0.00    -0.469 OA
ATOM     21  C   UNL     1      24.615  38.241  42.470  1.00  0.00     0.282 C 
ENDBRANCH  18  20
ENDBRANCH  17  18
ENDBRANCH  16  17
ENDBRANCH  15  16
ENDBRANCH  14  15
ENDBRANCH  13  14
ENDBRANCH  12  13
ENDBRANCH   1  12
TORSDOF 15
ENDMDL
MODEL 3
REMARK VINA RESULT:    -3.208      1.296      1.890
REMARK INTER + INTRA:          -7.636
REMARK INTER:                  -6.442
REMARK INTRA:                  -1.194
REMARK UNBOUND:                -1.615
REMARK SMILES CCCCCC=CCC=CCCCCCCCC(=O)OC
REMARK SMILES IDX 11 1 10 2 9 3 8 4 7 5 6 6 5 7 4 8 3 9 2 10 1 11 12 12 13 13
REMARK SMILES IDX 14 14 15 15 16 16 17 17 18 18 19 19 20 20 21 21
REMARK H PARENT
REMARK Flexibility Score: inf
ROOT
ATOM      1  C   UNL     1      19.735  32.965  41.841  1.00  0.00     0.027 C 
ENDROOT
BRANCH   1   2
ATOM      2  C   UNL     1      20.565  33.427  40.676  1.00  0.00    -0.031 C 
ATOM      3  C   UNL     1      21.795  32.942  40.450  1.00  0.00    -0.027 C 
BRANCH   3   4
ATOM      4  C   UNL     1      22.618  33.420  39.288  1.00  0.00     0.054 C 
BRANCH   4   5
ATOM      5  C   UNL     1      24.017  32.857  39.368  1.00  0.00    -0.027 C 
ATOM      6  C   UNL     1      24.883  33.113  40.365  1.00  0.00    -0.031 C 
BRANCH   6   7
ATOM      7  C   UNL     1      24.553  33.928  41.589  1.00  0.00     0.027 C 
BRANCH   7   8
ATOM      8  C   UNL     1      25.124  35.349  41.470  1.00  0.00     0.004 C 
BRANCH   8   9
ATOM      9  C   UNL     1      24.204  36.416  42.088  1.00  0.00     0.000 C 
BRANCH   9  10
ATOM     10  C   UNL     1      22.723  35.988  42.163  1.00  0.00    -0.003 C 
ATOM     11  C   UNL     1      22.192  35.970  43.596  1.00  0.00     0.004 C 
ENDBRANCH   9  10
ENDBRANCH   8   9
ENDBRANCH   7   8
ENDBRANCH   6   7
ENDBRANCH   4   5
ENDBRANCH   3   4
ENDBRANCH   1   2
BRANCH   1  12
ATOM     12  C   UNL     1      18.675  31.950  41.394  1.00  0.00     0.004 C 
BRANCH  12  13
ATOM     13  C   UNL     1      18.199  32.244  39.964  1.00  0.00     0.000 C 
BRANCH  13  14
ATOM     14  C   UNL     1      16.670  32.176  39.827  1.00  0.00     0.000 C 
BRANCH  14  15
ATOM     15  C   UNL     1      15.946  32.479  41.147  1.00  0.00     0.001 C 
BRANCH  15  16
ATOM     16  C   UNL     1      14.474  32.055  41.076  1.00  0.00     0.012 C 
BRANCH  16  17
ATOM     17  C   UNL     1      13.594  32.977  41.925  1.00  0.00     0.123 C 
BRANCH  17  18
ATOM     18  C   UNL     1      12.154  32.808  41.560  1.00  0.00     0.305 C 
ATOM     19  O   UNL     1      11.822  32.727  40.346  1.00  0.00    -0.252 OA
BRANCH  18  20
ATOM     20  O   UNL     1      11.186  32.779  42.568  1.00  0.00    -0.469 OA
ATOM     21  C   UNL     1      11.490  33.058  43.929  1.00  0.00     0.282 C 
ENDBRANCH  18  20
ENDBRANCH  17  18
ENDBRANCH  16  17
ENDBRANCH  15  16
ENDBRANCH  14  15
ENDBRANCH  13  14
ENDBRANCH  12  13
ENDBRANCH   1  12
TORSDOF 15
ENDMDL
MODEL 4
REMARK VINA RESULT:    -3.193      2.490      3.768
REMARK INTER + INTRA:          -7.608
REMARK INTER:                  -5.588
REMARK INTRA:                  -2.019
REMARK UNBOUND:                -1.615
REMARK SMILES CCCCCC=CCC=CCCCCCCCC(=O)OC
REMARK SMILES IDX 11 1 10 2 9 3 8 4 7 5 6 6 5 7 4 8 3 9 2 10 1 11 12 12 13 13
REMARK SMILES IDX 14 14 15 15 16 16 17 17 18 18 19 19 20 20 21 21
REMARK H PARENT
REMARK Flexibility Score: inf
ROOT
ATOM      1  C   UNL     1      20.880  34.893  38.990  1.00  0.00     0.027 C 
ENDROOT
BRANCH   1   2
ATOM      2  C   UNL     1      21.438  34.077  40.122  1.00  0.00    -0.031 C 
ATOM      3  C   UNL     1      22.200  32.995  39.902  1.00  0.00    -0.027 C 
BRANCH   3   4
ATOM      4  C   UNL     1      22.744  32.181  41.041  1.00  0.00     0.054 C 
BRANCH   4   5
ATOM      5  C   UNL     1      24.220  32.443  41.216  1.00  0.00    -0.027 C 
ATOM      6  C   UNL     1      24.751  33.151  42.231  1.00  0.00    -0.031 C 
BRANCH   6   7
ATOM      7  C   UNL     1      23.958  33.710  43.383  1.00  0.00     0.027 C 
BRANCH   7   8
ATOM      8  C   UNL     1      24.028  35.244  43.403  1.00  0.00     0.004 C 
BRANCH   8   9
ATOM      9  C   UNL     1      22.642  35.906  43.327  1.00  0.00     0.000 C 
BRANCH   9  10
ATOM     10  C   UNL     1      22.650  37.283  42.631  1.00  0.00    -0.003 C 
ATOM     11  C   UNL     1      22.937  37.179  41.132  1.00  0.00     0.004 C 
ENDBRANCH   9  10
ENDBRANCH   8   9
ENDBRANCH   7   8
ENDBRANCH   6   7
ENDBRANCH   4   5
ENDBRANCH   3   4
ENDBRANCH   1   2
BRANCH   1  12
ATOM     12  C   UNL     1      21.361  34.359  37.635  1.00  0.00     0.004 C 
BRANCH  12  13
ATOM     13  C   UNL     1      20.173  34.045  36.713  1.00  0.00     0.000 C 
BRANCH  13  14
ATOM     14  C   UNL     1      19.516  32.694  37.041  1.00  0.00     0.000 C 
BRANCH  14  15
ATOM     15  C   UNL     1      18.027  32.656  36.666  1.00  0.00     0.001 C 
BRANCH  15  16
ATOM     16  C   UNL     1      17.168  32.258  37.872  1.00  0.00     0.012 C 
BRANCH  16  17
ATOM     17  C   UNL     1      17.918  32.496  39.185  1.00  0.00     0.123 C 
BRANCH  17  18
ATOM     18  C   UNL     1      17.016  32.258  40.354  1.00  0.00     0.305 C 
ATOM     19  O   UNL     1      17.493  32.257  41.522  1.00  0.00    -0.252 OA
BRANCH  18  20
ATOM     20  O   UNL     1      15.659  32.002  40.137  1.00  0.00    -0.469 OA
ATOM     21  C   UNL     1      14.696  32.037  41.182  1.00  0.00     0.282 C 
ENDBRANCH  18  20
ENDBRANCH  17  18
ENDBRANCH  16  17
ENDBRANCH  15  16
ENDBRANCH  14  15
ENDBRANCH  13  14
ENDBRANCH  12  13
ENDBRANCH   1  12
TORSDOF 15
ENDMDL
MODEL 5
REMARK VINA RESULT:    -3.036      4.466      8.247
REMARK INTER + INTRA:          -7.315
REMARK INTER:                  -5.538
REMARK INTRA:                  -1.777
REMARK UNBOUND:                -1.615
REMARK SMILES CCCCCC=CCC=CCCCCCCCC(=O)OC
REMARK SMILES IDX 11 1 10 2 9 3 8 4 7 5 6 6 5 7 4 8 3 9 2 10 1 11 12 12 13 13
REMARK SMILES IDX 14 14 15 15 16 16 17 17 18 18 19 19 20 20 21 21
REMARK H PARENT
REMARK Flexibility Score: inf
ROOT
ATOM      1  C   UNL     1      18.987  32.990  41.396  1.00  0.00     0.027 C 
ENDROOT
BRANCH   1   2
ATOM      2  C   UNL     1      18.111  32.243  40.430  1.00  0.00    -0.031 C 
ATOM      3  C   UNL     1      17.981  32.630  39.152  1.00  0.00    -0.027 C 
BRANCH   3   4
ATOM      4  C   UNL     1      17.094  31.881  38.198  1.00  0.00     0.054 C 
BRANCH   4   5
ATOM      5  C   UNL     1      16.979  32.628  36.892  1.00  0.00    -0.027 C 
ATOM      6  C   UNL     1      17.996  32.809  36.028  1.00  0.00    -0.031 C 
BRANCH   6   7
ATOM      7  C   UNL     1      19.371  32.219  36.200  1.00  0.00     0.027 C 
BRANCH   7   8
ATOM      8  C   UNL     1      20.454  33.294  36.020  1.00  0.00     0.004 C 
BRANCH   8   9
ATOM      9  C   UNL     1      21.125  33.692  37.345  1.00  0.00     0.000 C 
BRANCH   9  10
ATOM     10  C   UNL     1      20.472  34.912  38.029  1.00  0.00    -0.003 C 
ATOM     11  C   UNL     1      21.485  35.770  38.786  1.00  0.00     0.004 C 
ENDBRANCH   9  10
ENDBRANCH   8   9
ENDBRANCH   7   8
ENDBRANCH   6   7
ENDBRANCH   4   5
ENDBRANCH   3   4
ENDBRANCH   1   2
BRANCH   1  12
ATOM     12  C   UNL     1      20.291  32.228  41.661  1.00  0.00     0.004 C 
BRANCH  12  13
ATOM     13  C   UNL     1      21.465  32.865  40.902  1.00  0.00     0.000 C 
BRANCH  13  14
ATOM     14  C   UNL     1      22.828  32.488  41.504  1.00  0.00     0.000 C 
BRANCH  14  15
ATOM     15  C   UNL     1      23.968  33.375  40.983  1.00  0.00     0.001 C 
BRANCH  15  16
ATOM     16  C   UNL     1      24.873  33.836  42.132  1.00  0.00     0.012 C 
BRANCH  16  17
ATOM     17  C   UNL     1      24.052  34.161  43.383  1.00  0.00     0.123 C 
BRANCH  17  18
ATOM     18  C   UNL     1      23.500  35.549  43.301  1.00  0.00     0.305 C 
ATOM     19  O   UNL     1      22.353  35.794  43.765  1.00  0.00    -0.252 OA
BRANCH  18  20
ATOM     20  O   UNL     1      24.246  36.551  42.676  1.00  0.00    -0.469 OA
ATOM     21  C   UNL     1      23.737  37.326  41.598  1.00  0.00     0.282 C 
ENDBRANCH  18  20
ENDBRANCH  17  18
ENDBRANCH  16  17
ENDBRANCH  15  16
ENDBRANCH  14  15
ENDBRANCH  13  14
ENDBRANCH  12  13
ENDBRANCH   1  12
TORSDOF 15
ENDMDL
MODEL 6
REMARK VINA RESULT:    -3.011      3.327      4.998
REMARK INTER + INTRA:          -7.266
REMARK INTER:                  -5.253
REMARK INTRA:                  -2.013
REMARK UNBOUND:                -1.615
REMARK SMILES CCCCCC=CCC=CCCCCCCCC(=O)OC
REMARK SMILES IDX 11 1 10 2 9 3 8 4 7 5 6 6 5 7 4 8 3 9 2 10 1 11 12 12 13 13
REMARK SMILES IDX 14 14 15 15 16 16 17 17 18 18 19 19 20 20 21 21
REMARK H PARENT
REMARK Flexibility Score: inf
ROOT
ATOM      1  C   UNL     1      21.310  35.795  38.889  1.00  0.00     0.027 C 
ENDROOT
BRANCH   1   2
ATOM      2  C   UNL     1      21.685  36.269  40.266  1.00  0.00    -0.031 C 
ATOM      3  C   UNL     1      22.872  36.842  40.514  1.00  0.00    -0.027 C 
BRANCH   3   4
ATOM      4  C   UNL     1      23.239  37.303  41.896  1.00  0.00     0.054 C 
BRANCH   4   5
ATOM      5  C   UNL     1      22.443  36.545  42.931  1.00  0.00    -0.027 C 
ATOM      6  C   UNL     1      22.928  35.527  43.666  1.00  0.00    -0.031 C 
BRANCH   6   7
ATOM      7  C   UNL     1      24.359  35.055  43.624  1.00  0.00     0.027 C 
BRANCH   7   8
ATOM      8  C   UNL     1      24.431  33.521  43.666  1.00  0.00     0.004 C 
BRANCH   8   9
ATOM      9  C   UNL     1      24.530  32.891  42.267  1.00  0.00     0.000 C 
BRANCH   9  10
ATOM     10  C   UNL     1      24.969  33.883  41.170  1.00  0.00    -0.003 C 
ATOM     11  C   UNL     1      25.125  33.214  39.804  1.00  0.00     0.004 C 
ENDBRANCH   9  10
ENDBRANCH   8   9
ENDBRANCH   7   8
ENDBRANCH   6   7
ENDBRANCH   4   5
ENDBRANCH   3   4
ENDBRANCH   1   2
BRANCH   1  12
ATOM     12  C   UNL     1      21.822  34.371  38.638  1.00  0.00     0.004 C 
BRANCH  12  13
ATOM     13  C   UNL     1      21.025  33.689  37.516  1.00  0.00     0.000 C 
BRANCH  13  14
ATOM     14  C   UNL     1      20.314  32.412  37.994  1.00  0.00     0.000 C 
BRANCH  14  15
ATOM     15  C   UNL     1      18.918  32.248  37.375  1.00  0.00     0.001 C 
BRANCH  15  16
ATOM     16  C   UNL     1      17.830  32.298  38.454  1.00  0.00     0.012 C 
BRANCH  16  17
ATOM     17  C   UNL     1      18.244  33.214  39.610  1.00  0.00     0.123 C 
BRANCH  17  18
ATOM     18  C   UNL     1      17.864  32.604  40.922  1.00  0.00     0.305 C 
ATOM     19  O   UNL     1      16.648  32.395  41.186  1.00  0.00    -0.252 OA
BRANCH  18  20
ATOM     20  O   UNL     1      18.858  32.307  41.858  1.00  0.00    -0.469 OA
ATOM     21  C   UNL     1      20.123  32.957  41.863  1.00  0.00     0.282 C 
ENDBRANCH  18  20
ENDBRANCH  17  18
ENDBRANCH  16  17
ENDBRANCH  15  16
ENDBRANCH  14  15
ENDBRANCH  13  14
ENDBRANCH  12  13
ENDBRANCH   1  12
TORSDOF 15
ENDMDL
MODEL 7
REMARK VINA RESULT:    -2.819      3.754      5.084
REMARK INTER + INTRA:          -6.907
REMARK INTER:                  -4.898
REMARK INTRA:                  -2.009
REMARK UNBOUND:                -1.615
REMARK SMILES CCCCCC=CCC=CCCCCCCCC(=O)OC
REMARK SMILES IDX 11 1 10 2 9 3 8 4 7 5 6 6 5 7 4 8 3 9 2 10 1 11 12 12 13 13
REMARK SMILES IDX 14 14 15 15 16 16 17 17 18 18 19 19 20 20 21 21
REMARK H PARENT
REMARK Flexibility Score: inf
ROOT
ATOM      1  C   UNL     1      22.780  33.329  38.669  1.00  0.00     0.027 C 
ENDROOT
BRANCH   1   2
ATOM      2  C   UNL     1      22.754  33.039  40.144  1.00  0.00    -0.031 C 
ATOM      3  C   UNL     1      23.845  33.188  40.910  1.00  0.00    -0.027 C 
BRANCH   3   4
ATOM      4  C   UNL     1      23.809  32.885  42.381  1.00  0.00     0.054 C 
BRANCH   4   5
ATOM      5  C   UNL     1      24.673  33.862  43.140  1.00  0.00    -0.027 C 
ATOM      6  C   UNL     1      24.232  35.022  43.660  1.00  0.00    -0.031 C 
BRANCH   6   7
ATOM      7  C   UNL     1      22.794  35.472  43.635  1.00  0.00     0.027 C 
BRANCH   7   8
ATOM      8  C   UNL     1      22.648  36.797  42.872  1.00  0.00     0.004 C 
BRANCH   8   9
ATOM      9  C   UNL     1      23.336  36.774  41.498  1.00  0.00     0.000 C 
BRANCH   9  10
ATOM     10  C   UNL     1      22.521  37.468  40.385  1.00  0.00    -0.003 C 
ATOM     11  C   UNL     1      21.660  36.485  39.591  1.00  0.00     0.004 C 
ENDBRANCH   9  10
ENDBRANCH   8   9
ENDBRANCH   7   8
ENDBRANCH   6   7
ENDBRANCH   4   5
ENDBRANCH   3   4
ENDBRANCH   1   2
BRANCH   1  12
ATOM     12  C   UNL     1      23.267  32.110  37.875  1.00  0.00     0.004 C 
BRANCH  12  13
ATOM     13  C   UNL     1      22.573  32.030  36.507  1.00  0.00     0.000 C 
BRANCH  13  14
ATOM     14  C   UNL     1      21.342  32.946  36.418  1.00  0.00     0.000 C 
BRANCH  14  15
ATOM     15  C   UNL     1      20.023  32.160  36.382  1.00  0.00     0.001 C 
BRANCH  15  16
ATOM     16  C   UNL     1      18.984  32.788  37.319  1.00  0.00     0.012 C 
BRANCH  16  17
ATOM     17  C   UNL     1      19.271  32.427  38.779  1.00  0.00     0.123 C 
BRANCH  17  18
ATOM     18  C   UNL     1      18.009  32.453  39.583  1.00  0.00     0.305 C 
ATOM     19  O   UNL     1      16.894  32.363  38.999  1.00  0.00    -0.252 OA
BRANCH  18  20
ATOM     20  O   UNL     1      18.078  32.615  40.969  1.00  0.00    -0.469 OA
ATOM     21  C   UNL     1      19.305  32.835  41.654  1.00  0.00     0.282 C 
ENDBRANCH  18  20
ENDBRANCH  17  18
ENDBRANCH  16  17
ENDBRANCH  15  16
ENDBRANCH  14  15
ENDBRANCH  13  14
ENDBRANCH  12  13
ENDBRANCH   1  12
TORSDOF 15
ENDMDL
MODEL 8
REMARK VINA RESULT:    -2.723      3.174      5.319
REMARK INTER + INTRA:          -6.727
REMARK INTER:                  -4.450
REMARK INTRA:                  -2.277
REMARK UNBOUND:                -1.615
REMARK SMILES CCCCCC=CCC=CCCCCCCCC(=O)OC
REMARK SMILES IDX 11 1 10 2 9 3 8 4 7 5 6 6 5 7 4 8 3 9 2 10 1 11 12 12 13 13
REMARK SMILES IDX 14 14 15 15 16 16 17 17 18 18 19 19 20 20 21 21
REMARK H PARENT
REMARK Flexibility Score: inf
ROOT
ATOM      1  C   UNL     1      20.983  36.164  39.253  1.00  0.00     0.027 C 
ENDROOT
BRANCH   1   2
ATOM      2  C   UNL     1      22.355  35.985  39.843  1.00  0.00    -0.031 C 
ATOM      3  C   UNL     1      22.639  36.371  41.096  1.00  0.00    -0.027 C 
BRANCH   3   4
ATOM      4  C   UNL     1      24.016  36.196  41.669  1.00  0.00     0.054 C 
BRANCH   4   5
ATOM      5  C   UNL     1      23.935  35.892  43.146  1.00  0.00    -0.027 C 
ATOM      6  C   UNL     1      24.338  34.736  43.707  1.00  0.00    -0.031 C 
BRANCH   6   7
ATOM      7  C   UNL     1      25.006  33.615  42.955  1.00  0.00     0.027 C 
BRANCH   7   8
ATOM      8  C   UNL     1      24.005  32.491  42.645  1.00  0.00     0.004 C 
BRANCH   8   9
ATOM      9  C   UNL     1      23.570  32.469  41.170  1.00  0.00     0.000 C 
BRANCH   9  10
ATOM     10  C   UNL     1      22.117  31.993  40.960  1.00  0.00    -0.003 C 
ATOM     11  C   UNL     1      21.092  32.978  41.523  1.00  0.00     0.004 C 
ENDBRANCH   9  10
ENDBRANCH   8   9
ENDBRANCH   7   8
ENDBRANCH   6   7
ENDBRANCH   4   5
ENDBRANCH   3   4
ENDBRANCH   1   2
BRANCH   1  12
ATOM     12  C   UNL     1      20.788  35.264  38.027  1.00  0.00     0.004 C 
BRANCH  12  13
ATOM     13  C   UNL     1      21.720  34.044  38.085  1.00  0.00     0.000 C 
BRANCH  13  14
ATOM     14  C   UNL     1      21.372  32.988  37.024  1.00  0.00     0.000 C 
BRANCH  14  15
ATOM     15  C   UNL     1      19.992  33.219  36.392  1.00  0.00     0.001 C 
BRANCH  15  16
ATOM     16  C   UNL     1      19.119  31.963  36.506  1.00  0.00     0.012 C 
BRANCH  16  17
ATOM     17  C   UNL     1      17.753  32.296  37.113  1.00  0.00     0.123 C 
BRANCH  17  18
ATOM     18  C   UNL     1      17.789  32.134  38.600  1.00  0.00     0.305 C 
ATOM     19  O   UNL     1      18.881  31.876  39.175  1.00  0.00    -0.252 OA
BRANCH  18  20
ATOM     20  O   UNL     1      16.603  32.233  39.332  1.00  0.00    -0.469 OA
ATOM     21  C   UNL     1      16.579  32.243  40.754  1.00  0.00     0.282 C 
ENDBRANCH  18  20
ENDBRANCH  17  18
ENDBRANCH  16  17
ENDBRANCH  15  16
ENDBRANCH  14  15
ENDBRANCH  13  14
ENDBRANCH  12  13
ENDBRANCH   1  12
TORSDOF 15
ENDMDL
