MODEL 1
REMARK VINA RESULT:    -5.563      0.000      0.000
REMARK INTER + INTRA:          -5.726
REMARK INTER:                  -5.726
REMARK INTRA:                   0.000
REMARK UNBOUND:                 0.000
REMARK SMILES Cc1cccc(O)c1C
REMARK SMILES IDX 1 1 2 2 8 3 6 4 5 5 4 6 3 7 9 8 7 9
REMARK H PARENT 7 10
REMARK Flexibility Score: inf
ROOT
ATOM      1  C   UNL     1       6.204   6.550 -31.041  1.00  0.00     0.045 C 
ATOM      2  C   UNL     1       4.972   5.743 -30.723  1.00  0.00    -0.045 A 
ATOM      3  C   UNL     1       4.769   4.435 -31.247  1.00  0.00    -0.006 A 
ATOM      4  C   UNL     1       3.586   3.733 -30.905  1.00  0.00     0.118 A 
ATOM      5  C   UNL     1       2.637   4.325 -30.066  1.00  0.00     0.046 A 
ATOM      6  C   UNL     1       2.843   5.604 -29.557  1.00  0.00     0.004 A 
ATOM      7  C   UNL     1       3.999   6.309 -29.882  1.00  0.00     0.004 A 
ATOM      8  C   UNL     1       5.782   3.776 -32.157  1.00  0.00     0.048 C 
ENDROOT
BRANCH   4   9
ATOM      9  O   UNL     1       3.319   2.446 -31.381  1.00  0.00    -0.508 OA
ATOM     10  H   UNL     1       4.041   1.790 -31.650  1.00  0.00     0.293 HD
ENDBRANCH   4   9
TORSDOF 1
ENDMDL
MODEL 2
REMARK VINA RESULT:    -4.960      1.923      2.927
REMARK INTER + INTRA:          -5.105
REMARK INTER:                  -5.105
REMARK INTRA:                   0.000
REMARK UNBOUND:                 0.000
REMARK SMILES Cc1cccc(O)c1C
REMARK SMILES IDX 1 1 2 2 8 3 6 4 5 5 4 6 3 7 9 8 7 9
REMARK H PARENT 7 10
REMARK Flexibility Score: inf
ROOT
ATOM      1  C   UNL     1       3.366   2.867 -32.266  1.00  0.00     0.045 C 
ATOM      2  C   UNL     1       3.667   4.057 -31.392  1.00  0.00    -0.045 A 
ATOM      3  C   UNL     1       4.724   4.963 -31.688  1.00  0.00    -0.006 A 
ATOM      4  C   UNL     1       4.950   6.062 -30.822  1.00  0.00     0.118 A 
ATOM      5  C   UNL     1       4.143   6.245 -29.695  1.00  0.00     0.046 A 
ATOM      6  C   UNL     1       3.112   5.354 -29.413  1.00  0.00     0.004 A 
ATOM      7  C   UNL     1       2.874   4.269 -30.252  1.00  0.00     0.004 A 
ATOM      8  C   UNL     1       5.610   4.785 -32.901  1.00  0.00     0.048 C 
ENDROOT
BRANCH   4   9
ATOM      9  O   UNL     1       5.969   6.992 -31.049  1.00  0.00    -0.508 OA
ATOM     10  H   UNL     1       6.340   7.201 -31.967  1.00  0.00     0.293 HD
ENDBRANCH   4   9
TORSDOF 1
ENDMDL
MODEL 3
REMARK VINA RESULT:    -4.822      1.837      2.836
REMARK INTER + INTRA:          -4.963
REMARK INTER:                  -4.963
REMARK INTRA:                   0.000
REMARK UNBOUND:                 0.000
REMARK SMILES Cc1cccc(O)c1C
REMARK SMILES IDX 1 1 2 2 8 3 6 4 5 5 4 6 3 7 9 8 7 9
REMARK H PARENT 7 10
REMARK Flexibility Score: inf
ROOT
ATOM      1  C   UNL     1       5.924   3.149 -32.754  1.00  0.00     0.045 C 
ATOM      2  C   UNL     1       5.002   3.858 -31.794  1.00  0.00    -0.045 A 
ATOM      3  C   UNL     1       5.307   5.142 -31.263  1.00  0.00    -0.006 A 
ATOM      4  C   UNL     1       4.394   5.750 -30.365  1.00  0.00     0.118 A 
ATOM      5  C   UNL     1       3.214   5.089 -30.011  1.00  0.00     0.046 A 
ATOM      6  C   UNL     1       2.923   3.833 -30.535  1.00  0.00     0.004 A 
ATOM      7  C   UNL     1       3.808   3.220 -31.419  1.00  0.00     0.004 A 
ATOM      8  C   UNL     1       6.578   5.875 -31.632  1.00  0.00     0.048 C 
ENDROOT
BRANCH   4   9
ATOM      9  O   UNL     1       4.627   7.009 -29.804  1.00  0.00    -0.508 OA
ATOM     10  H   UNL     1       4.912   7.148 -28.844  1.00  0.00     0.293 HD
ENDBRANCH   4   9
TORSDOF 1
ENDMDL
MODEL 4
REMARK VINA RESULT:    -4.815      2.037      3.967
REMARK INTER + INTRA:          -4.956
REMARK INTER:                  -4.956
REMARK INTRA:                   0.000
REMARK UNBOUND:                 0.000
REMARK SMILES Cc1cccc(O)c1C
REMARK SMILES IDX 1 1 2 2 8 3 6 4 5 5 4 6 3 7 9 8 7 9
REMARK H PARENT 7 10
REMARK Flexibility Score: inf
ROOT
ATOM      1  C   UNL     1       2.955   3.627 -30.624  1.00  0.00     0.045 C 
ATOM      2  C   UNL     1       4.314   4.082 -31.091  1.00  0.00    -0.045 A 
ATOM      3  C   UNL     1       4.856   5.344 -30.720  1.00  0.00    -0.006 A 
ATOM      4  C   UNL     1       6.141   5.707 -31.196  1.00  0.00     0.118 A 
ATOM      5  C   UNL     1       6.857   4.833 -32.019  1.00  0.00     0.046 A 
ATOM      6  C   UNL     1       6.320   3.600 -32.378  1.00  0.00     0.004 A 
ATOM      7  C   UNL     1       5.059   3.226 -31.919  1.00  0.00     0.004 A 
ATOM      8  C   UNL     1       4.100   6.306 -29.832  1.00  0.00     0.048 C 
ENDROOT
BRANCH   4   9
ATOM      9  O   UNL     1       6.738   6.930 -30.873  1.00  0.00    -0.508 OA
ATOM     10  H   UNL     1       7.397   7.406 -31.475  1.00  0.00     0.293 HD
ENDBRANCH   4   9
TORSDOF 1
ENDMDL
MODEL 5
REMARK VINA RESULT:    -4.783      2.100      2.625
REMARK INTER + INTRA:          -4.923
REMARK INTER:                  -4.923
REMARK INTRA:                   0.000
REMARK UNBOUND:                 0.000
REMARK SMILES Cc1cccc(O)c1C
REMARK SMILES IDX 1 1 2 2 8 3 6 4 5 5 4 6 3 7 9 8 7 9
REMARK H PARENT 7 10
REMARK Flexibility Score: inf
ROOT
ATOM      1  C   UNL     1       5.001   3.599 -31.601  1.00  0.00     0.045 C 
ATOM      2  C   UNL     1       3.766   4.279 -31.069  1.00  0.00    -0.045 A 
ATOM      3  C   UNL     1       2.649   4.575 -31.900  1.00  0.00    -0.006 A 
ATOM      4  C   UNL     1       1.520   5.216 -31.331  1.00  0.00     0.118 A 
ATOM      5  C   UNL     1       1.512   5.549 -29.974  1.00  0.00     0.046 A 
ATOM      6  C   UNL     1       2.608   5.255 -29.167  1.00  0.00     0.004 A 
ATOM      7  C   UNL     1       3.726   4.626 -29.708  1.00  0.00     0.004 A 
ATOM      8  C   UNL     1       2.636   4.225 -33.371  1.00  0.00     0.048 C 
ENDROOT
BRANCH   4   9
ATOM      9  O   UNL     1       0.388   5.538 -32.086  1.00  0.00    -0.508 OA
ATOM     10  H   UNL     1       0.295   6.396 -32.614  1.00  0.00     0.293 HD
ENDBRANCH   4   9
TORSDOF 1
ENDMDL
MODEL 6
REMARK VINA RESULT:    -4.563      1.354      2.983
REMARK INTER + INTRA:          -4.696
REMARK INTER:                  -4.696
REMARK INTRA:                   0.000
REMARK UNBOUND:                 0.000
REMARK SMILES Cc1cccc(O)c1C
REMARK SMILES IDX 1 1 2 2 8 3 6 4 5 5 4 6 3 7 9 8 7 9
REMARK H PARENT 7 10
REMARK Flexibility Score: inf
ROOT
ATOM      1  C   UNL     1       3.327   5.864 -29.980  1.00  0.00     0.045 C 
ATOM      2  C   UNL     1       4.622   5.531 -30.676  1.00  0.00    -0.045 A 
ATOM      3  C   UNL     1       4.842   4.270 -31.298  1.00  0.00    -0.006 A 
ATOM      4  C   UNL     1       6.084   4.025 -31.935  1.00  0.00     0.118 A 
ATOM      5  C   UNL     1       7.073   5.013 -31.948  1.00  0.00     0.046 A 
ATOM      6  C   UNL     1       6.849   6.244 -31.338  1.00  0.00     0.004 A 
ATOM      7  C   UNL     1       5.635   6.503 -30.707  1.00  0.00     0.004 A 
ATOM      8  C   UNL     1       3.787   3.186 -31.296  1.00  0.00     0.048 C 
ENDROOT
BRANCH   4   9
ATOM      9  O   UNL     1       6.371   2.811 -32.566  1.00  0.00    -0.508 OA
ATOM     10  H   UNL     1       7.196   2.260 -32.367  1.00  0.00     0.293 HD
ENDBRANCH   4   9
TORSDOF 1
ENDMDL
MODEL 7
REMARK VINA RESULT:    -4.512      0.831      2.669
REMARK INTER + INTRA:          -4.644
REMARK INTER:                  -4.644
REMARK INTRA:                   0.000
REMARK UNBOUND:                 0.000
REMARK SMILES Cc1cccc(O)c1C
REMARK SMILES IDX 1 1 2 2 8 3 6 4 5 5 4 6 3 7 9 8 7 9
REMARK H PARENT 7 10
REMARK Flexibility Score: inf
ROOT
ATOM      1  C   UNL     1       4.568   6.642 -29.829  1.00  0.00     0.045 C 
ATOM      2  C   UNL     1       4.805   5.458 -30.732  1.00  0.00    -0.045 A 
ATOM      3  C   UNL     1       3.859   4.402 -30.856  1.00  0.00    -0.006 A 
ATOM      4  C   UNL     1       4.148   3.319 -31.725  1.00  0.00     0.118 A 
ATOM      5  C   UNL     1       5.347   3.297 -32.443  1.00  0.00     0.046 A 
ATOM      6  C   UNL     1       6.267   4.334 -32.316  1.00  0.00     0.004 A 
ATOM      7  C   UNL     1       6.001   5.406 -31.468  1.00  0.00     0.004 A 
ATOM      8  C   UNL     1       2.556   4.405 -30.089  1.00  0.00     0.048 C 
ENDROOT
BRANCH   4   9
ATOM      9  O   UNL     1       3.267   2.248 -31.898  1.00  0.00    -0.508 OA
ATOM     10  H   UNL     1       2.840   1.747 -31.130  1.00  0.00     0.293 HD
ENDBRANCH   4   9
TORSDOF 1
ENDMDL
MODEL 8
REMARK VINA RESULT:    -4.321      1.922      3.170
REMARK INTER + INTRA:          -4.447
REMARK INTER:                  -4.447
REMARK INTRA:                   0.000
REMARK UNBOUND:                 0.000
REMARK SMILES Cc1cccc(O)c1C
REMARK SMILES IDX 1 1 2 2 8 3 6 4 5 5 4 6 3 7 9 8 7 9
REMARK H PARENT 7 10
REMARK Flexibility Score: inf
ROOT
ATOM      1  C   UNL     1       0.888   5.074 -30.267  1.00  0.00     0.045 C 
ATOM      2  C   UNL     1       2.346   5.338 -30.539  1.00  0.00    -0.045 A 
ATOM      3  C   UNL     1       2.909   5.196 -31.838  1.00  0.00    -0.006 A 
ATOM      4  C   UNL     1       4.290   5.461 -32.022  1.00  0.00     0.118 A 
ATOM      5  C   UNL     1       5.079   5.855 -30.938  1.00  0.00     0.046 A 
ATOM      6  C   UNL     1       4.521   5.992 -29.670  1.00  0.00     0.004 A 
ATOM      7  C   UNL     1       3.166   5.735 -29.470  1.00  0.00     0.004 A 
ATOM      8  C   UNL     1       2.075   4.771 -33.026  1.00  0.00     0.048 C 
ENDROOT
BRANCH   4   9
ATOM      9  O   UNL     1       4.912   5.343 -33.269  1.00  0.00    -0.508 OA
ATOM     10  H   UNL     1       5.406   6.102 -33.720  1.00  0.00     0.293 HD
ENDBRANCH   4   9
TORSDOF 1
ENDMDL
MODEL 9
REMARK VINA RESULT:    -4.242      1.932      3.010
REMARK INTER + INTRA:          -4.366
REMARK INTER:                  -4.366
REMARK INTRA:                   0.000
REMARK UNBOUND:                 0.000
REMARK SMILES Cc1cccc(O)c1C
REMARK SMILES IDX 1 1 2 2 8 3 6 4 5 5 4 6 3 7 9 8 7 9
REMARK H PARENT 7 10
REMARK Flexibility Score: inf
ROOT
ATOM      1  C   UNL     1       3.052   3.300 -31.030  1.00  0.00     0.045 C 
ATOM      2  C   UNL     1       4.055   4.418 -30.904  1.00  0.00    -0.045 A 
ATOM      3  C   UNL     1       5.340   4.351 -31.511  1.00  0.00    -0.006 A 
ATOM      4  C   UNL     1       6.233   5.441 -31.352  1.00  0.00     0.118 A 
ATOM      5  C   UNL     1       5.849   6.560 -30.608  1.00  0.00     0.046 A 
ATOM      6  C   UNL     1       4.590   6.618 -30.018  1.00  0.00     0.004 A 
ATOM      7  C   UNL     1       3.699   5.558 -30.163  1.00  0.00     0.004 A 
ATOM      8  C   UNL     1       5.777   3.150 -32.320  1.00  0.00     0.048 C 
ENDROOT
BRANCH   4   9
ATOM      9  O   UNL     1       7.512   5.445 -31.919  1.00  0.00    -0.508 OA
ATOM     10  H   UNL     1       8.085   4.616 -32.008  1.00  0.00     0.293 HD
ENDBRANCH   4   9
TORSDOF 1
ENDMDL
