MODEL 1
REMARK VINA RESULT:    10.756      0.000      0.000
REMARK INTER + INTRA:          18.682
REMARK INTER:                  19.558
REMARK INTRA:                  -0.877
REMARK UNBOUND:                -0.877
REMARK SMILES CCCCCCCCCCCCCCCC(=O)[O-]
REMARK SMILES IDX 9 1 10 2 11 3 12 4 13 5 14 6 15 7 16 8 17 9 18 10 8 11 7 12
REMARK SMILES IDX 6 13 5 14 4 15 3 16 2 17 1 18
REMARK H PARENT
REMARK Flexibility Score: inf
ROOT
ATOM      1  C   UNL     1       9.952  77.099   4.469  1.00  0.00     0.000 C 
ENDROOT
BRANCH   1   2
ATOM      2  C   UNL     1       9.078  75.845   4.670  1.00  0.00     0.000 C 
BRANCH   2   3
ATOM      3  C   UNL     1       9.684  74.769   5.590  1.00  0.00     0.000 C 
BRANCH   3   4
ATOM      4  C   UNL     1       9.640  73.333   5.032  1.00  0.00     0.000 C 
BRANCH   4   5
ATOM      5  C   UNL     1       9.262  72.268   6.084  1.00  0.00     0.000 C 
BRANCH   5   6
ATOM      6  C   UNL     1       9.832  70.880   5.744  1.00  0.00     0.006 C 
BRANCH   6   7
ATOM      7  C   UNL     1       9.261  70.323   4.434  1.00  0.00     0.053 C 
BRANCH   7   8
ATOM      8  C   UNL     1      10.302  69.601   3.634  1.00  0.00     0.041 C 
ATOM      9  O   UNL     1      11.454  69.418   4.112  1.00  0.00    -0.550 OA
ATOM     10  O   UNL     1       9.993  69.104   2.376  1.00  0.00    -0.550 OA
ENDBRANCH   7   8
ENDBRANCH   6   7
ENDBRANCH   5   6
ENDBRANCH   4   5
ENDBRANCH   3   4
ENDBRANCH   2   3
ENDBRANCH   1   2
BRANCH   1  11
ATOM     11  C   UNL     1      11.458  76.798   4.562  1.00  0.00     0.000 C 
BRANCH  11  12
ATOM     12  C   UNL     1      12.217  77.197   3.285  1.00  0.00    -0.000 C 
BRANCH  12  13
ATOM     13  C   UNL     1      11.541  76.666   2.009  1.00  0.00    -0.000 C 
BRANCH  13  14
ATOM     14  C   UNL     1      12.144  75.335   1.531  1.00  0.00    -0.000 C 
BRANCH  14  15
ATOM     15  C   UNL     1      12.316  75.273   0.006  1.00  0.00    -0.000 C 
BRANCH  15  16
ATOM     16  C   UNL     1      11.159  74.502  -0.646  1.00  0.00    -0.000 C 
BRANCH  16  17
ATOM     17  C   UNL     1       9.913  74.437   0.249  1.00  0.00    -0.003 C 
ATOM     18  C   UNL     1       8.635  74.838  -0.487  1.00  0.00     0.004 C 
ENDBRANCH  16  17
ENDBRANCH  15  16
ENDBRANCH  14  15
ENDBRANCH  13  14
ENDBRANCH  12  13
ENDBRANCH  11  12
ENDBRANCH   1  11
TORSDOF 14
ENDMDL
MODEL 2
REMARK VINA RESULT:    11.170      0.843      1.339
REMARK INTER + INTRA:          19.435
REMARK INTER:                  20.255
REMARK INTRA:                  -0.820
REMARK UNBOUND:                -0.877
REMARK SMILES CCCCCCCCCCCCCCCC(=O)[O-]
REMARK SMILES IDX 9 1 10 2 11 3 12 4 13 5 14 6 15 7 16 8 17 9 18 10 8 11 7 12
REMARK SMILES IDX 6 13 5 14 4 15 3 16 2 17 1 18
REMARK H PARENT
REMARK Flexibility Score: inf
ROOT
ATOM      1  C   UNL     1       8.983  75.939   4.600  1.00  0.00     0.000 C 
ENDROOT
BRANCH   1   2
ATOM      2  C   UNL     1       9.744  74.773   5.261  1.00  0.00     0.000 C 
BRANCH   2   3
ATOM      3  C   UNL     1       9.292  73.368   4.822  1.00  0.00     0.000 C 
BRANCH   3   4
ATOM      4  C   UNL     1      10.141  72.207   5.375  1.00  0.00     0.000 C 
BRANCH   4   5
ATOM      5  C   UNL     1       9.307  70.998   5.852  1.00  0.00     0.000 C 
BRANCH   5   6
ATOM      6  C   UNL     1       9.072  69.968   4.733  1.00  0.00     0.006 C 
BRANCH   6   7
ATOM      7  C   UNL     1      10.362  69.633   3.973  1.00  0.00     0.053 C 
BRANCH   7   8
ATOM      8  C   UNL     1      10.088  69.246   2.552  1.00  0.00     0.041 C 
ATOM      9  O   UNL     1      10.487  68.136   2.110  1.00  0.00    -0.550 OA
ATOM     10  O   UNL     1       9.364  70.095   1.726  1.00  0.00    -0.550 OA
ENDBRANCH   7   8
ENDBRANCH   6   7
ENDBRANCH   5   6
ENDBRANCH   4   5
ENDBRANCH   3   4
ENDBRANCH   2   3
ENDBRANCH   1   2
BRANCH   1  11
ATOM     11  C   UNL     1       9.905  77.105   4.205  1.00  0.00     0.000 C 
BRANCH  11  12
ATOM     12  C   UNL     1      11.388  76.700   4.179  1.00  0.00    -0.000 C 
BRANCH  12  13
ATOM     13  C   UNL     1      12.035  76.926   2.801  1.00  0.00    -0.000 C 
BRANCH  13  14
ATOM     14  C   UNL     1      11.287  76.199   1.671  1.00  0.00    -0.000 C 
BRANCH  14  15
ATOM     15  C   UNL     1      12.221  75.377   0.771  1.00  0.00    -0.000 C 
BRANCH  15  16
ATOM     16  C   UNL     1      11.450  74.767  -0.408  1.00  0.00    -0.000 C 
BRANCH  16  17
ATOM     17  C   UNL     1      10.115  74.139   0.019  1.00  0.00    -0.003 C 
ATOM     18  C   UNL     1       8.913  75.024  -0.312  1.00  0.00     0.004 C 
ENDBRANCH  16  17
ENDBRANCH  15  16
ENDBRANCH  14  15
ENDBRANCH  13  14
ENDBRANCH  12  13
ENDBRANCH  11  12
ENDBRANCH   1  11
TORSDOF 14
ENDMDL
MODEL 3
REMARK VINA RESULT:    11.867      2.253      5.679
REMARK INTER + INTRA:          20.702
REMARK INTER:                  21.917
REMARK INTRA:                  -1.215
REMARK UNBOUND:                -0.877
REMARK SMILES CCCCCCCCCCCCCCCC(=O)[O-]
REMARK SMILES IDX 9 1 10 2 11 3 12 4 13 5 14 6 15 7 16 8 17 9 18 10 8 11 7 12
REMARK SMILES IDX 6 13 5 14 4 15 3 16 2 17 1 18
REMARK H PARENT
REMARK Flexibility Score: inf
ROOT
ATOM      1  C   UNL     1       9.058  75.823   4.873  1.00  0.00     0.000 C 
ENDROOT
BRANCH   1   2
ATOM      2  C   UNL     1       9.828  77.123   4.568  1.00  0.00     0.000 C 
BRANCH   2   3
ATOM      3  C   UNL     1      11.334  77.077   4.884  1.00  0.00     0.000 C 
BRANCH   3   4
ATOM      4  C   UNL     1      12.255  76.928   3.658  1.00  0.00     0.000 C 
BRANCH   4   5
ATOM      5  C   UNL     1      11.541  77.172   2.310  1.00  0.00     0.000 C 
BRANCH   5   6
ATOM      6  C   UNL     1      11.394  75.883   1.483  1.00  0.00     0.006 C 
BRANCH   6   7
ATOM      7  C   UNL     1       9.926  75.485   1.284  1.00  0.00     0.053 C 
BRANCH   7   8
ATOM      8  C   UNL     1       9.710  74.783  -0.022  1.00  0.00     0.041 C 
ATOM      9  O   UNL     1      10.650  74.136  -0.556  1.00  0.00    -0.550 OA
ATOM     10  O   UNL     1       8.464  74.815  -0.632  1.00  0.00    -0.550 OA
ENDBRANCH   7   8
ENDBRANCH   6   7
ENDBRANCH   5   6
ENDBRANCH   4   5
ENDBRANCH   3   4
ENDBRANCH   2   3
ENDBRANCH   1   2
BRANCH   1  11
ATOM     11  C   UNL     1       9.970  74.696   5.388  1.00  0.00     0.000 C 
BRANCH  11  12
ATOM     12  C   UNL     1       9.192  73.406   5.697  1.00  0.00    -0.000 C 
BRANCH  12  13
ATOM     13  C   UNL     1       9.994  72.138   5.354  1.00  0.00    -0.000 C 
BRANCH  13  14
ATOM     14  C   UNL     1       9.305  70.853   5.839  1.00  0.00    -0.000 C 
BRANCH  14  15
ATOM     15  C   UNL     1       9.059  69.845   4.707  1.00  0.00    -0.000 C 
BRANCH  15  16
ATOM     16  C   UNL     1      10.372  69.490   3.994  1.00  0.00    -0.000 C 
BRANCH  16  17
ATOM     17  C   UNL     1      10.151  69.006   2.554  1.00  0.00    -0.003 C 
ATOM     18  C   UNL     1       9.434  70.039   1.686  1.00  0.00     0.004 C 
ENDBRANCH  16  17
ENDBRANCH  15  16
ENDBRANCH  14  15
ENDBRANCH  13  14
ENDBRANCH  12  13
ENDBRANCH  11  12
ENDBRANCH   1  11
TORSDOF 14
ENDMDL
MODEL 4
REMARK VINA RESULT:    12.551      4.123      8.598
REMARK INTER + INTRA:          21.947
REMARK INTER:                  22.582
REMARK INTRA:                  -0.635
REMARK UNBOUND:                -0.877
REMARK SMILES CCCCCCCCCCCCCCCC(=O)[O-]
REMARK SMILES IDX 9 1 10 2 11 3 12 4 13 5 14 6 15 7 16 8 17 9 18 10 8 11 7 12
REMARK SMILES IDX 6 13 5 14 4 15 3 16 2 17 1 18
REMARK H PARENT
REMARK Flexibility Score: inf
ROOT
ATOM      1  C   UNL     1      10.752  70.558   5.160  1.00  0.00     0.000 C 
ENDROOT
BRANCH   1   2
ATOM      2  C   UNL     1      10.014  71.635   5.979  1.00  0.00     0.000 C 
BRANCH   2   3
ATOM      3  C   UNL     1       9.364  72.755   5.147  1.00  0.00     0.000 C 
BRANCH   3   4
ATOM      4  C   UNL     1       9.636  74.185   5.651  1.00  0.00     0.000 C 
BRANCH   4   5
ATOM      5  C   UNL     1       8.958  75.283   4.804  1.00  0.00     0.000 C 
BRANCH   5   6
ATOM      6  C   UNL     1       9.605  76.665   5.007  1.00  0.00     0.006 C 
BRANCH   6   7
ATOM      7  C   UNL     1      10.086  77.280   3.687  1.00  0.00     0.053 C 
BRANCH   7   8
ATOM      8  C   UNL     1      11.546  77.033   3.454  1.00  0.00     0.041 C 
ATOM      9  O   UNL     1      12.334  76.931   4.432  1.00  0.00    -0.550 OA
ATOM     10  O   UNL     1      12.029  76.882   2.162  1.00  0.00    -0.550 OA
ENDBRANCH   7   8
ENDBRANCH   6   7
ENDBRANCH   5   6
ENDBRANCH   4   5
ENDBRANCH   3   4
ENDBRANCH   2   3
ENDBRANCH   1   2
BRANCH   1  11
ATOM     11  C   UNL     1       9.842  69.862   4.133  1.00  0.00     0.000 C 
BRANCH  11  12
ATOM     12  C   UNL     1       8.546  69.326   4.762  1.00  0.00    -0.000 C 
BRANCH  12  13
ATOM     13  C   UNL     1       8.678  67.864   5.225  1.00  0.00    -0.000 C 
BRANCH  13  14
ATOM     14  C   UNL     1       8.984  67.746   6.727  1.00  0.00    -0.000 C 
BRANCH  14  15
ATOM     15  C   UNL     1       8.696  66.344   7.285  1.00  0.00    -0.000 C 
BRANCH  15  16
ATOM     16  C   UNL     1       9.808  65.898   8.246  1.00  0.00    -0.000 C 
BRANCH  16  17
ATOM     17  C   UNL     1      10.093  64.391   8.161  1.00  0.00    -0.003 C 
ATOM     18  C   UNL     1       8.826  63.542   8.258  1.00  0.00     0.004 C 
ENDBRANCH  16  17
ENDBRANCH  15  16
ENDBRANCH  14  15
ENDBRANCH  13  14
ENDBRANCH  12  13
ENDBRANCH  11  12
ENDBRANCH   1  11
TORSDOF 14
ENDMDL
MODEL 5
REMARK VINA RESULT:    13.040      2.119      3.082
REMARK INTER + INTRA:          22.835
REMARK INTER:                  23.363
REMARK INTRA:                  -0.528
REMARK UNBOUND:                -0.877
REMARK SMILES CCCCCCCCCCCCCCCC(=O)[O-]
REMARK SMILES IDX 9 1 10 2 11 3 12 4 13 5 14 6 15 7 16 8 17 9 18 10 8 11 7 12
REMARK SMILES IDX 6 13 5 14 4 15 3 16 2 17 1 18
REMARK H PARENT
REMARK Flexibility Score: inf
ROOT
ATOM      1  C   UNL     1       9.934  76.730   4.698  1.00  0.00     0.000 C 
ENDROOT
BRANCH   1   2
ATOM      2  C   UNL     1       9.149  75.469   5.112  1.00  0.00     0.000 C 
BRANCH   2   3
ATOM      3  C   UNL     1       9.994  74.189   5.244  1.00  0.00     0.000 C 
BRANCH   3   4
ATOM      4  C   UNL     1       9.231  72.953   5.756  1.00  0.00     0.000 C 
BRANCH   4   5
ATOM      5  C   UNL     1      10.009  71.629   5.593  1.00  0.00     0.000 C 
BRANCH   5   6
ATOM      6  C   UNL     1       9.191  70.554   4.857  1.00  0.00     0.006 C 
BRANCH   6   7
ATOM      7  C   UNL     1      10.076  69.432   4.299  1.00  0.00     0.053 C 
BRANCH   7   8
ATOM      8  C   UNL     1       9.942  69.303   2.812  1.00  0.00     0.041 C 
ATOM      9  O   UNL     1       9.320  70.179   2.154  1.00  0.00    -0.550 OA
ATOM     10  O   UNL     1      10.530  68.234   2.150  1.00  0.00    -0.550 OA
ENDBRANCH   7   8
ENDBRANCH   6   7
ENDBRANCH   5   6
ENDBRANCH   4   5
ENDBRANCH   3   4
ENDBRANCH   2   3
ENDBRANCH   1   2
BRANCH   1  11
ATOM     11  C   UNL     1      11.458  76.538   4.784  1.00  0.00     0.000 C 
BRANCH  11  12
ATOM     12  C   UNL     1      12.211  77.325   3.698  1.00  0.00    -0.000 C 
BRANCH  12  13
ATOM     13  C   UNL     1      11.483  77.302   2.343  1.00  0.00    -0.000 C 
BRANCH  13  14
ATOM     14  C   UNL     1      12.201  78.140   1.272  1.00  0.00    -0.000 C 
BRANCH  14  15
ATOM     15  C   UNL     1      11.989  79.650   1.456  1.00  0.00    -0.000 C 
BRANCH  15  16
ATOM     16  C   UNL     1      12.215  80.400   0.136  1.00  0.00    -0.000 C 
BRANCH  16  17
ATOM     17  C   UNL     1      13.551  80.038  -0.530  1.00  0.00    -0.003 C 
ATOM     18  C   UNL     1      13.380  79.106  -1.729  1.00  0.00     0.004 C 
ENDBRANCH  16  17
ENDBRANCH  15  16
ENDBRANCH  14  15
ENDBRANCH  13  14
ENDBRANCH  12  13
ENDBRANCH  11  12
ENDBRANCH   1  11
TORSDOF 14
ENDMDL
