MODEL 1
REMARK VINA RESULT:    -4.286      0.000      0.000
REMARK INTER + INTRA:          -6.402
REMARK INTER:                  -5.789
REMARK INTRA:                  -0.613
REMARK UNBOUND:                -0.613
REMARK SMILES CCCCCCCC(=O)[O-]
REMARK SMILES IDX 5 1 6 2 7 3 8 4 9 5 10 6 4 7 3 8 2 9 1 10
REMARK H PARENT
REMARK Flexibility Score: inf
ROOT
ATOM      1  C   UNL     1      12.218 -23.418  21.308  1.00  0.00     0.000 C 
ENDROOT
BRANCH   1   2
ATOM      2  C   UNL     1      13.083 -22.919  20.138  1.00  0.00     0.006 C 
BRANCH   2   3
ATOM      3  C   UNL     1      14.586 -23.067  20.403  1.00  0.00     0.053 C 
BRANCH   3   4
ATOM      4  C   UNL     1      14.911 -24.475  20.795  1.00  0.00     0.041 C 
ATOM      5  O   UNL     1      15.351 -24.726  21.947  1.00  0.00    -0.550 OA
ATOM      6  O   UNL     1      14.680 -25.515  19.904  1.00  0.00    -0.550 OA
ENDBRANCH   3   4
ENDBRANCH   2   3
ENDBRANCH   1   2
BRANCH   1   7
ATOM      7  C   UNL     1      12.267 -22.544  22.579  1.00  0.00     0.000 C 
BRANCH   7   8
ATOM      8  C   UNL     1      12.695 -23.281  23.860  1.00  0.00    -0.000 C 
BRANCH   8   9
ATOM      9  C   UNL     1      13.823 -22.560  24.613  1.00  0.00    -0.003 C 
ATOM     10  C   UNL     1      14.369 -21.392  23.798  1.00  0.00     0.004 C 
ENDBRANCH   8   9
ENDBRANCH   7   8
ENDBRANCH   1   7
TORSDOF 6
ENDMDL
MODEL 2
REMARK VINA RESULT:    -4.228      2.099      4.104
REMARK INTER + INTRA:          -6.324
REMARK INTER:                  -5.984
REMARK INTRA:                  -0.340
REMARK UNBOUND:                -0.613
REMARK SMILES CCCCCCCC(=O)[O-]
REMARK SMILES IDX 5 1 6 2 7 3 8 4 9 5 10 6 4 7 3 8 2 9 1 10
REMARK H PARENT
REMARK Flexibility Score: inf
ROOT
ATOM      1  C   UNL     1      12.308 -23.887  20.678  1.00  0.00     0.000 C 
ENDROOT
BRANCH   1   2
ATOM      2  C   UNL     1      12.073 -23.717  22.189  1.00  0.00     0.006 C 
BRANCH   2   3
ATOM      3  C   UNL     1      12.342 -22.288  22.676  1.00  0.00     0.053 C 
BRANCH   3   4
ATOM      4  C   UNL     1      13.415 -22.286  23.719  1.00  0.00     0.041 C 
ATOM      5  O   UNL     1      13.574 -23.287  24.466  1.00  0.00    -0.550 OA
ATOM      6  O   UNL     1      14.271 -21.198  23.834  1.00  0.00    -0.550 OA
ENDBRANCH   3   4
ENDBRANCH   2   3
ENDBRANCH   1   2
BRANCH   1   7
ATOM      7  C   UNL     1      13.329 -22.909  20.060  1.00  0.00     0.000 C 
BRANCH   7   8
ATOM      8  C   UNL     1      14.798 -23.358  20.148  1.00  0.00    -0.000 C 
BRANCH   8   9
ATOM      9  C   UNL     1      14.946 -24.856  20.455  1.00  0.00    -0.003 C 
ATOM     10  C   UNL     1      15.281 -25.645  19.193  1.00  0.00     0.004 C 
ENDBRANCH   8   9
ENDBRANCH   7   8
ENDBRANCH   1   7
TORSDOF 6
ENDMDL
MODEL 3
REMARK VINA RESULT:    -4.226      3.677      4.917
REMARK INTER + INTRA:          -6.321
REMARK INTER:                  -6.094
REMARK INTRA:                  -0.227
REMARK UNBOUND:                -0.613
REMARK SMILES CCCCCCCC(=O)[O-]
REMARK SMILES IDX 5 1 6 2 7 3 8 4 9 5 10 6 4 7 3 8 2 9 1 10
REMARK H PARENT
REMARK Flexibility Score: inf
ROOT
ATOM      1  C   UNL     1      11.663 -24.659  20.757  1.00  0.00     0.000 C 
ENDROOT
BRANCH   1   2
ATOM      2  C   UNL     1      10.553 -25.025  21.757  1.00  0.00     0.006 C 
BRANCH   2   3
ATOM      3  C   UNL     1      10.514 -24.090  22.972  1.00  0.00     0.053 C 
BRANCH   3   4
ATOM      4  C   UNL     1       9.270 -24.323  23.771  1.00  0.00     0.041 C 
ATOM      5  O   UNL     1       8.145 -24.017  23.296  1.00  0.00    -0.550 OA
ATOM      6  O   UNL     1       9.350 -24.925  25.020  1.00  0.00    -0.550 OA
ENDBRANCH   3   4
ENDBRANCH   2   3
ENDBRANCH   1   2
BRANCH   1   7
ATOM      7  C   UNL     1      12.418 -23.351  21.067  1.00  0.00     0.000 C 
BRANCH   7   8
ATOM      8  C   UNL     1      13.312 -22.828  19.928  1.00  0.00    -0.000 C 
BRANCH   8   9
ATOM      9  C   UNL     1      14.743 -23.384  19.991  1.00  0.00    -0.003 C 
ATOM     10  C   UNL     1      15.330 -23.233  21.390  1.00  0.00     0.004 C 
ENDBRANCH   8   9
ENDBRANCH   7   8
ENDBRANCH   1   7
TORSDOF 6
ENDMDL
MODEL 4
REMARK VINA RESULT:    -4.142      1.903      2.926
REMARK INTER + INTRA:          -6.207
REMARK INTER:                  -5.820
REMARK INTRA:                  -0.387
REMARK UNBOUND:                -0.613
REMARK SMILES CCCCCCCC(=O)[O-]
REMARK SMILES IDX 5 1 6 2 7 3 8 4 9 5 10 6 4 7 3 8 2 9 1 10
REMARK H PARENT
REMARK Flexibility Score: inf
ROOT
ATOM      1  C   UNL     1      12.360 -22.688  21.803  1.00  0.00     0.000 C 
ENDROOT
BRANCH   1   2
ATOM      2  C   UNL     1      12.756 -23.120  20.380  1.00  0.00     0.006 C 
BRANCH   2   3
ATOM      3  C   UNL     1      14.270 -23.076  20.145  1.00  0.00     0.053 C 
BRANCH   3   4
ATOM      4  C   UNL     1      14.974 -23.991  21.098  1.00  0.00     0.041 C 
ATOM      5  O   UNL     1      15.748 -23.520  21.973  1.00  0.00    -0.550 OA
ATOM      6  O   UNL     1      14.737 -25.358  21.051  1.00  0.00    -0.550 OA
ENDBRANCH   3   4
ENDBRANCH   2   3
ENDBRANCH   1   2
BRANCH   1   7
ATOM      7  C   UNL     1      11.513 -23.712  22.586  1.00  0.00     0.000 C 
BRANCH   7   8
ATOM      8  C   UNL     1      10.852 -24.805  21.727  1.00  0.00    -0.000 C 
BRANCH   8   9
ATOM      9  C   UNL     1       9.441 -25.172  22.212  1.00  0.00    -0.003 C 
ATOM     10  C   UNL     1       9.071 -24.390  23.468  1.00  0.00     0.004 C 
ENDBRANCH   8   9
ENDBRANCH   7   8
ENDBRANCH   1   7
TORSDOF 6
ENDMDL
MODEL 5
REMARK VINA RESULT:    -4.121      3.327      4.235
REMARK INTER + INTRA:          -6.179
REMARK INTER:                  -5.790
REMARK INTRA:                  -0.390
REMARK UNBOUND:                -0.613
REMARK SMILES CCCCCCCC(=O)[O-]
REMARK SMILES IDX 5 1 6 2 7 3 8 4 9 5 10 6 4 7 3 8 2 9 1 10
REMARK H PARENT
REMARK Flexibility Score: inf
ROOT
ATOM      1  C   UNL     1      12.615 -24.722  20.735  1.00  0.00     0.000 C 
ENDROOT
BRANCH   1   2
ATOM      2  C   UNL     1      11.135 -24.882  21.128  1.00  0.00     0.006 C 
BRANCH   2   3
ATOM      3  C   UNL     1      10.801 -24.222  22.471  1.00  0.00     0.053 C 
BRANCH   3   4
ATOM      4  C   UNL     1       9.513 -24.760  23.011  1.00  0.00     0.041 C 
ATOM      5  O   UNL     1       9.293 -24.748  24.251  1.00  0.00    -0.550 OA
ATOM      6  O   UNL     1       8.536 -25.227  22.141  1.00  0.00    -0.550 OA
ENDBRANCH   3   4
ENDBRANCH   2   3
ENDBRANCH   1   2
BRANCH   1   7
ATOM      7  C   UNL     1      13.014 -23.313  20.250  1.00  0.00     0.000 C 
BRANCH   7   8
ATOM      8  C   UNL     1      14.459 -22.895  20.579  1.00  0.00    -0.000 C 
BRANCH   8   9
ATOM      9  C   UNL     1      14.812 -23.089  22.061  1.00  0.00    -0.003 C 
ATOM     10  C   UNL     1      14.093 -22.067  22.935  1.00  0.00     0.004 C 
ENDBRANCH   8   9
ENDBRANCH   7   8
ENDBRANCH   1   7
TORSDOF 6
ENDMDL
MODEL 6
REMARK VINA RESULT:    -4.114      2.445      4.513
REMARK INTER + INTRA:          -6.170
REMARK INTER:                  -5.855
REMARK INTRA:                  -0.315
REMARK UNBOUND:                -0.613
REMARK SMILES CCCCCCCC(=O)[O-]
REMARK SMILES IDX 5 1 6 2 7 3 8 4 9 5 10 6 4 7 3 8 2 9 1 10
REMARK H PARENT
REMARK Flexibility Score: inf
ROOT
ATOM      1  C   UNL     1      12.913 -22.657  21.681  1.00  0.00     0.000 C 
ENDROOT
BRANCH   1   2
ATOM      2  C   UNL     1      14.084 -22.380  22.639  1.00  0.00     0.006 C 
BRANCH   2   3
ATOM      3  C   UNL     1      13.662 -21.588  23.883  1.00  0.00     0.053 C 
BRANCH   3   4
ATOM      4  C   UNL     1      12.575 -22.310  24.616  1.00  0.00     0.041 C 
ATOM      5  O   UNL     1      11.465 -21.748  24.815  1.00  0.00    -0.550 OA
ATOM      6  O   UNL     1      12.770 -23.619  25.036  1.00  0.00    -0.550 OA
ENDBRANCH   3   4
ENDBRANCH   2   3
ENDBRANCH   1   2
BRANCH   1   7
ATOM      7  C   UNL     1      13.318 -22.994  20.231  1.00  0.00     0.000 C 
BRANCH   7   8
ATOM      8  C   UNL     1      14.805 -23.338  20.033  1.00  0.00    -0.000 C 
BRANCH   8   9
ATOM      9  C   UNL     1      15.023 -24.780  19.551  1.00  0.00    -0.003 C 
ATOM     10  C   UNL     1      14.108 -25.751  20.291  1.00  0.00     0.004 C 
ENDBRANCH   8   9
ENDBRANCH   7   8
ENDBRANCH   1   7
TORSDOF 6
ENDMDL
MODEL 7
REMARK VINA RESULT:    -4.080      3.895      5.355
REMARK INTER + INTRA:          -6.124
REMARK INTER:                  -5.961
REMARK INTRA:                  -0.164
REMARK UNBOUND:                -0.613
REMARK SMILES CCCCCCCC(=O)[O-]
REMARK SMILES IDX 5 1 6 2 7 3 8 4 9 5 10 6 4 7 3 8 2 9 1 10
REMARK H PARENT
REMARK Flexibility Score: inf
ROOT
ATOM      1  C   UNL     1      10.400 -24.915  21.868  1.00  0.00     0.000 C 
ENDROOT
BRANCH   1   2
ATOM      2  C   UNL     1      10.477 -24.136  23.193  1.00  0.00     0.006 C 
BRANCH   2   3
ATOM      3  C   UNL     1       9.279 -24.404  24.112  1.00  0.00     0.053 C 
BRANCH   3   4
ATOM      4  C   UNL     1       9.647 -24.144  25.539  1.00  0.00     0.041 C 
ATOM      5  O   UNL     1       9.951 -22.980  25.912  1.00  0.00    -0.550 OA
ATOM      6  O   UNL     1       9.606 -25.176  26.467  1.00  0.00    -0.550 OA
ENDBRANCH   3   4
ENDBRANCH   2   3
ENDBRANCH   1   2
BRANCH   1   7
ATOM      7  C   UNL     1      11.561 -24.653  20.886  1.00  0.00     0.000 C 
BRANCH   7   8
ATOM      8  C   UNL     1      12.488 -23.486  21.268  1.00  0.00    -0.000 C 
BRANCH   8   9
ATOM      9  C   UNL     1      13.293 -22.950  20.076  1.00  0.00    -0.003 C 
ATOM     10  C   UNL     1      14.770 -23.307  20.205  1.00  0.00     0.004 C 
ENDBRANCH   8   9
ENDBRANCH   7   8
ENDBRANCH   1   7
TORSDOF 6
ENDMDL
MODEL 8
REMARK VINA RESULT:    -4.018      2.181      3.863
REMARK INTER + INTRA:          -6.040
REMARK INTER:                  -5.705
REMARK INTRA:                  -0.335
REMARK UNBOUND:                -0.613
REMARK SMILES CCCCCCCC(=O)[O-]
REMARK SMILES IDX 5 1 6 2 7 3 8 4 9 5 10 6 4 7 3 8 2 9 1 10
REMARK H PARENT
REMARK Flexibility Score: inf
ROOT
ATOM      1  C   UNL     1      14.674 -23.178  20.412  1.00  0.00     0.000 C 
ENDROOT
BRANCH   1   2
ATOM      2  C   UNL     1      14.984 -23.935  21.715  1.00  0.00     0.006 C 
BRANCH   2   3
ATOM      3  C   UNL     1      15.630 -23.044  22.782  1.00  0.00     0.053 C 
BRANCH   3   4
ATOM      4  C   UNL     1      14.584 -22.457  23.677  1.00  0.00     0.041 C 
ATOM      5  O   UNL     1      14.439 -21.208  23.747  1.00  0.00    -0.550 OA
ATOM      6  O   UNL     1      13.736 -23.291  24.394  1.00  0.00    -0.550 OA
ENDBRANCH   3   4
ENDBRANCH   2   3
ENDBRANCH   1   2
BRANCH   1   7
ATOM      7  C   UNL     1      13.175 -22.949  20.129  1.00  0.00     0.000 C 
BRANCH   7   8
ATOM      8  C   UNL     1      12.217 -23.494  21.203  1.00  0.00    -0.000 C 
BRANCH   8   9
ATOM      9  C   UNL     1      11.531 -24.801  20.781  1.00  0.00    -0.003 C 
ATOM     10  C   UNL     1      10.394 -25.157  21.734  1.00  0.00     0.004 C 
ENDBRANCH   8   9
ENDBRANCH   7   8
ENDBRANCH   1   7
TORSDOF 6
ENDMDL
MODEL 9
REMARK VINA RESULT:    -3.973      1.692      2.476
REMARK INTER + INTRA:          -5.980
REMARK INTER:                  -5.694
REMARK INTRA:                  -0.285
REMARK UNBOUND:                -0.613
REMARK SMILES CCCCCCCC(=O)[O-]
REMARK SMILES IDX 5 1 6 2 7 3 8 4 9 5 10 6 4 7 3 8 2 9 1 10
REMARK H PARENT
REMARK Flexibility Score: inf
ROOT
ATOM      1  C   UNL     1      15.145 -22.989  21.197  1.00  0.00     0.000 C 
ENDROOT
BRANCH   1   2
ATOM      2  C   UNL     1      14.223 -23.352  20.021  1.00  0.00     0.006 C 
BRANCH   2   3
ATOM      3  C   UNL     1      12.739 -23.359  20.408  1.00  0.00     0.053 C 
BRANCH   3   4
ATOM      4  C   UNL     1      12.265 -24.761  20.636  1.00  0.00     0.041 C 
ATOM      5  O   UNL     1      11.100 -24.973  21.064  1.00  0.00    -0.550 OA
ATOM      6  O   UNL     1      13.092 -25.833  20.328  1.00  0.00    -0.550 OA
ENDBRANCH   3   4
ENDBRANCH   2   3
ENDBRANCH   1   2
BRANCH   1   7
ATOM      7  C   UNL     1      14.507 -23.123  22.595  1.00  0.00     0.000 C 
BRANCH   7   8
ATOM      8  C   UNL     1      14.187 -21.792  23.297  1.00  0.00    -0.000 C 
BRANCH   8   9
ATOM      9  C   UNL     1      13.119 -21.936  24.391  1.00  0.00    -0.003 C 
ATOM     10  C   UNL     1      11.789 -22.398  23.803  1.00  0.00     0.004 C 
ENDBRANCH   8   9
ENDBRANCH   7   8
ENDBRANCH   1   7
TORSDOF 6
ENDMDL
