MODEL 1
REMARK VINA RESULT:    -3.755      0.000      0.000
REMARK INTER + INTRA:          -6.646
REMARK INTER:                  -5.731
REMARK INTRA:                  -0.915
REMARK UNBOUND:                -0.915
REMARK SMILES O=C([O-])CCCCCCCCC(=O)[O-]
REMARK SMILES IDX 7 1 6 2 5 3 4 4 2 5 1 6 3 7 8 8 9 9 10 10 11 11 12 12 13 13
REMARK SMILES IDX 14 14
REMARK H PARENT
REMARK Flexibility Score: inf
ROOT
ATOM      1  C   UNL     1     164.819 177.044 186.857  1.00  0.00     0.000 C 
ENDROOT
BRANCH   1   2
ATOM      2  C   UNL     1     165.245 177.760 185.565  1.00  0.00     0.000 C 
BRANCH   2   3
ATOM      3  C   UNL     1     164.054 178.098 184.655  1.00  0.00     0.006 C 
BRANCH   3   4
ATOM      4  C   UNL     1     163.831 176.996 183.615  1.00  0.00     0.053 C 
BRANCH   4   5
ATOM      5  C   UNL     1     163.324 177.579 182.334  1.00  0.00     0.041 C 
ATOM      6  O   UNL     1     163.151 178.821 182.228  1.00  0.00    -0.550 OA
ATOM      7  O   UNL     1     163.090 176.755 181.240  1.00  0.00    -0.550 OA
ENDBRANCH   4   5
ENDBRANCH   3   4
ENDBRANCH   2   3
ENDBRANCH   1   2
BRANCH   1   8
ATOM      8  C   UNL     1     163.512 177.600 187.440  1.00  0.00     0.000 C 
BRANCH   8   9
ATOM      9  C   UNL     1     162.529 176.469 187.764  1.00  0.00     0.000 C 
BRANCH   9  10
ATOM     10  C   UNL     1     161.076 176.934 187.585  1.00  0.00     0.006 C 
BRANCH  10  11
ATOM     11  C   UNL     1     160.955 178.084 186.576  1.00  0.00     0.053 C 
BRANCH  11  12
ATOM     12  C   UNL     1     160.458 177.608 185.246  1.00  0.00     0.041 C 
ATOM     13  O   UNL     1     160.257 178.430 184.313  1.00  0.00    -0.550 OA
ATOM     14  O   UNL     1     160.252 176.252 185.024  1.00  0.00    -0.550 OA
ENDBRANCH  11  12
ENDBRANCH  10  11
ENDBRANCH   9  10
ENDBRANCH   8   9
ENDBRANCH   1   8
TORSDOF 9
ENDMDL
MODEL 2
REMARK VINA RESULT:    -3.748      3.242      4.707
REMARK INTER + INTRA:          -6.634
REMARK INTER:                  -5.941
REMARK INTRA:                  -0.693
REMARK UNBOUND:                -0.915
REMARK SMILES O=C([O-])CCCCCCCCC(=O)[O-]
REMARK SMILES IDX 7 1 6 2 5 3 4 4 2 5 1 6 3 7 8 8 9 9 10 10 11 11 12 12 13 13
REMARK SMILES IDX 14 14
REMARK H PARENT
REMARK Flexibility Score: inf
ROOT
ATOM      1  C   UNL     1     162.412 176.087 187.749  1.00  0.00     0.000 C 
ENDROOT
BRANCH   1   2
ATOM      2  C   UNL     1     161.273 177.023 188.183  1.00  0.00     0.000 C 
BRANCH   2   3
ATOM      3  C   UNL     1     161.027 178.160 187.180  1.00  0.00     0.006 C 
BRANCH   3   4
ATOM      4  C   UNL     1     161.635 177.827 185.814  1.00  0.00     0.053 C 
BRANCH   4   5
ATOM      5  C   UNL     1     160.558 177.616 184.798  1.00  0.00     0.041 C 
ATOM      6  O   UNL     1     160.236 176.452 184.447  1.00  0.00    -0.550 OA
ATOM      7  O   UNL     1     159.876 178.707 184.273  1.00  0.00    -0.550 OA
ENDBRANCH   4   5
ENDBRANCH   3   4
ENDBRANCH   2   3
ENDBRANCH   1   2
BRANCH   1   8
ATOM      8  C   UNL     1     161.926 174.662 187.446  1.00  0.00     0.000 C 
BRANCH   8   9
ATOM      9  C   UNL     1     160.397 174.579 187.505  1.00  0.00     0.000 C 
BRANCH   9  10
ATOM     10  C   UNL     1     159.875 173.410 186.656  1.00  0.00     0.006 C 
BRANCH  10  11
ATOM     11  C   UNL     1     160.632 172.106 186.937  1.00  0.00     0.053 C 
BRANCH  11  12
ATOM     12  C   UNL     1     160.756 171.258 185.708  1.00  0.00     0.041 C 
ATOM     13  O   UNL     1     161.465 171.642 184.742  1.00  0.00    -0.550 OA
ATOM     14  O   UNL     1     160.116 170.026 185.645  1.00  0.00    -0.550 OA
ENDBRANCH  11  12
ENDBRANCH  10  11
ENDBRANCH   9  10
ENDBRANCH   8   9
ENDBRANCH   1   8
TORSDOF 9
ENDMDL
MODEL 3
REMARK VINA RESULT:    -3.743      1.964      3.434
REMARK INTER + INTRA:          -6.627
REMARK INTER:                  -5.894
REMARK INTRA:                  -0.732
REMARK UNBOUND:                -0.915
REMARK SMILES O=C([O-])CCCCCCCCC(=O)[O-]
REMARK SMILES IDX 7 1 6 2 5 3 4 4 2 5 1 6 3 7 8 8 9 9 10 10 11 11 12 12 13 13
REMARK SMILES IDX 14 14
REMARK H PARENT
REMARK Flexibility Score: inf
ROOT
ATOM      1  C   UNL     1     160.260 178.258 185.564  1.00  0.00     0.000 C 
ENDROOT
BRANCH   1   2
ATOM      2  C   UNL     1     160.931 177.067 184.862  1.00  0.00     0.000 C 
BRANCH   2   3
ATOM      3  C   UNL     1     160.603 177.003 183.362  1.00  0.00     0.006 C 
BRANCH   3   4
ATOM      4  C   UNL     1     161.869 176.758 182.535  1.00  0.00     0.053 C 
BRANCH   4   5
ATOM      5  C   UNL     1     162.188 177.956 181.698  1.00  0.00     0.041 C 
ATOM      6  O   UNL     1     161.589 178.147 180.609  1.00  0.00    -0.550 OA
ATOM      7  O   UNL     1     163.115 178.889 182.147  1.00  0.00    -0.550 OA
ENDBRANCH   4   5
ENDBRANCH   3   4
ENDBRANCH   2   3
ENDBRANCH   1   2
BRANCH   1   8
ATOM      8  C   UNL     1     160.569 178.310 187.068  1.00  0.00     0.000 C 
BRANCH   8   9
ATOM      9  C   UNL     1     161.288 177.036 187.526  1.00  0.00     0.000 C 
BRANCH   9  10
ATOM     10  C   UNL     1     162.652 177.368 188.151  1.00  0.00     0.006 C 
BRANCH  10  11
ATOM     11  C   UNL     1     163.816 177.069 187.197  1.00  0.00     0.053 C 
BRANCH  11  12
ATOM     12  C   UNL     1     164.212 178.278 186.405  1.00  0.00     0.041 C 
ATOM     13  O   UNL     1     164.270 178.221 185.148  1.00  0.00    -0.550 OA
ATOM     14  O   UNL     1     164.482 179.476 187.053  1.00  0.00    -0.550 OA
ENDBRANCH  11  12
ENDBRANCH  10  11
ENDBRANCH   9  10
ENDBRANCH   8   9
ENDBRANCH   1   8
TORSDOF 9
ENDMDL
MODEL 4
REMARK VINA RESULT:    -3.716      3.389      4.986
REMARK INTER + INTRA:          -6.586
REMARK INTER:                  -5.954
REMARK INTRA:                  -0.632
REMARK UNBOUND:                -0.915
REMARK SMILES O=C([O-])CCCCCCCCC(=O)[O-]
REMARK SMILES IDX 7 1 6 2 5 3 4 4 2 5 1 6 3 7 8 8 9 9 10 10 11 11 12 12 13 13
REMARK SMILES IDX 14 14
REMARK H PARENT
REMARK Flexibility Score: inf
ROOT
ATOM      1  C   UNL     1     161.219 175.850 187.551  1.00  0.00     0.000 C 
ENDROOT
BRANCH   1   2
ATOM      2  C   UNL     1     160.916 177.319 187.885  1.00  0.00     0.000 C 
BRANCH   2   3
ATOM      3  C   UNL     1     160.799 178.199 186.631  1.00  0.00     0.006 C 
BRANCH   3   4
ATOM      4  C   UNL     1     161.581 177.593 185.462  1.00  0.00     0.053 C 
BRANCH   4   5
ATOM      5  C   UNL     1     160.695 177.432 184.267  1.00  0.00     0.041 C 
ATOM      6  O   UNL     1     160.578 178.369 183.434  1.00  0.00    -0.550 OA
ATOM      7  O   UNL     1     160.037 176.229 184.047  1.00  0.00    -0.550 OA
ENDBRANCH   4   5
ENDBRANCH   3   4
ENDBRANCH   2   3
ENDBRANCH   1   2
BRANCH   1   8
ATOM      8  C   UNL     1     159.961 174.969 187.555  1.00  0.00     0.000 C 
BRANCH   8   9
ATOM      9  C   UNL     1     160.216 173.644 186.826  1.00  0.00     0.000 C 
BRANCH   9  10
ATOM     10  C   UNL     1     160.562 172.526 187.821  1.00  0.00     0.006 C 
BRANCH  10  11
ATOM     11  C   UNL     1     161.933 171.899 187.535  1.00  0.00     0.053 C 
BRANCH  11  12
ATOM     12  C   UNL     1     162.973 172.369 188.506  1.00  0.00     0.041 C 
ATOM     13  O   UNL     1     163.254 171.676 189.519  1.00  0.00    -0.550 OA
ATOM     14  O   UNL     1     163.657 173.555 188.272  1.00  0.00    -0.550 OA
ENDBRANCH  11  12
ENDBRANCH  10  11
ENDBRANCH   9  10
ENDBRANCH   8   9
ENDBRANCH   1   8
TORSDOF 9
ENDMDL
MODEL 5
REMARK VINA RESULT:    -3.695      2.598      4.588
REMARK INTER + INTRA:          -6.553
REMARK INTER:                  -5.669
REMARK INTRA:                  -0.884
REMARK UNBOUND:                -0.915
REMARK SMILES O=C([O-])CCCCCCCCC(=O)[O-]
REMARK SMILES IDX 7 1 6 2 5 3 4 4 2 5 1 6 3 7 8 8 9 9 10 10 11 11 12 12 13 13
REMARK SMILES IDX 14 14
REMARK H PARENT
REMARK Flexibility Score: inf
ROOT
ATOM      1  C   UNL     1     161.388 177.357 188.015  1.00  0.00     0.000 C 
ENDROOT
BRANCH   1   2
ATOM      2  C   UNL     1     160.753 176.169 187.275  1.00  0.00     0.000 C 
BRANCH   2   3
ATOM      3  C   UNL     1     161.487 175.825 185.970  1.00  0.00     0.006 C 
BRANCH   3   4
ATOM      4  C   UNL     1     160.627 176.168 184.750  1.00  0.00     0.053 C 
BRANCH   4   5
ATOM      5  C   UNL     1     160.814 177.601 184.364  1.00  0.00     0.041 C 
ATOM      6  O   UNL     1     161.710 177.925 183.543  1.00  0.00    -0.550 OA
ATOM      7  O   UNL     1     159.964 178.574 184.876  1.00  0.00    -0.550 OA
ENDBRANCH   4   5
ENDBRANCH   3   4
ENDBRANCH   2   3
ENDBRANCH   1   2
BRANCH   1   8
ATOM      8  C   UNL     1     162.919 177.383 187.894  1.00  0.00     0.000 C 
BRANCH   8   9
ATOM      9  C   UNL     1     163.392 178.657 187.185  1.00  0.00     0.000 C 
BRANCH   9  10
ATOM     10  C   UNL     1     164.216 178.317 185.933  1.00  0.00     0.006 C 
BRANCH  10  11
ATOM     11  C   UNL     1     165.286 177.255 186.214  1.00  0.00     0.053 C 
BRANCH  11  12
ATOM     12  C   UNL     1     166.624 177.871 186.489  1.00  0.00     0.041 C 
ATOM     13  O   UNL     1     167.305 178.354 185.547  1.00  0.00    -0.550 OA
ATOM     14  O   UNL     1     167.102 177.943 187.791  1.00  0.00    -0.550 OA
ENDBRANCH  11  12
ENDBRANCH  10  11
ENDBRANCH   9  10
ENDBRANCH   8   9
ENDBRANCH   1   8
TORSDOF 9
ENDMDL
MODEL 6
REMARK VINA RESULT:    -3.692      3.594      5.652
REMARK INTER + INTRA:          -6.549
REMARK INTER:                  -5.777
REMARK INTRA:                  -0.772
REMARK UNBOUND:                -0.915
REMARK SMILES O=C([O-])CCCCCCCCC(=O)[O-]
REMARK SMILES IDX 7 1 6 2 5 3 4 4 2 5 1 6 3 7 8 8 9 9 10 10 11 11 12 12 13 13
REMARK SMILES IDX 14 14
REMARK H PARENT
REMARK Flexibility Score: inf
ROOT
ATOM      1  C   UNL     1     160.427 174.357 186.043  1.00  0.00     0.000 C 
ENDROOT
BRANCH   1   2
ATOM      2  C   UNL     1     159.926 173.832 187.398  1.00  0.00     0.000 C 
BRANCH   2   3
ATOM      3  C   UNL     1     160.579 172.500 187.795  1.00  0.00     0.006 C 
BRANCH   3   4
ATOM      4  C   UNL     1     162.008 172.407 187.250  1.00  0.00     0.053 C 
BRANCH   4   5
ATOM      5  C   UNL     1     162.993 172.861 188.281  1.00  0.00     0.041 C 
ATOM      6  O   UNL     1     163.456 172.045 189.119  1.00  0.00    -0.550 OA
ATOM      7  O   UNL     1     163.436 174.178 188.285  1.00  0.00    -0.550 OA
ENDBRANCH   4   5
ENDBRANCH   3   4
ENDBRANCH   2   3
ENDBRANCH   1   2
BRANCH   1   8
ATOM      8  C   UNL     1     160.952 175.798 186.122  1.00  0.00     0.000 C 
BRANCH   8   9
ATOM      9  C   UNL     1     160.733 176.386 187.521  1.00  0.00     0.000 C 
BRANCH   9  10
ATOM     10  C   UNL     1     161.354 177.787 187.633  1.00  0.00     0.006 C 
BRANCH  10  11
ATOM     11  C   UNL     1     162.885 177.738 187.709  1.00  0.00     0.053 C 
BRANCH  11  12
ATOM     12  C   UNL     1     163.523 178.542 186.618  1.00  0.00     0.041 C 
ATOM     13  O   UNL     1     163.131 178.418 185.427  1.00  0.00    -0.550 OA
ATOM     14  O   UNL     1     164.526 179.454 186.920  1.00  0.00    -0.550 OA
ENDBRANCH  11  12
ENDBRANCH  10  11
ENDBRANCH   9  10
ENDBRANCH   8   9
ENDBRANCH   1   8
TORSDOF 9
ENDMDL
MODEL 7
REMARK VINA RESULT:    -3.685      3.130      4.434
REMARK INTER + INTRA:          -6.539
REMARK INTER:                  -5.827
REMARK INTRA:                  -0.712
REMARK UNBOUND:                -0.915
REMARK SMILES O=C([O-])CCCCCCCCC(=O)[O-]
REMARK SMILES IDX 7 1 6 2 5 3 4 4 2 5 1 6 3 7 8 8 9 9 10 10 11 11 12 12 13 13
REMARK SMILES IDX 14 14
REMARK H PARENT
REMARK Flexibility Score: inf
ROOT
ATOM      1  C   UNL     1     160.708 177.296 187.448  1.00  0.00     0.000 C 
ENDROOT
BRANCH   1   2
ATOM      2  C   UNL     1     161.973 177.530 188.290  1.00  0.00     0.000 C 
BRANCH   2   3
ATOM      3  C   UNL     1     163.265 177.337 187.482  1.00  0.00     0.006 C 
BRANCH   3   4
ATOM      4  C   UNL     1     163.603 178.598 186.681  1.00  0.00     0.053 C 
BRANCH   4   5
ATOM      5  C   UNL     1     164.703 178.320 185.705  1.00  0.00     0.041 C 
ATOM      6  O   UNL     1     165.905 178.462 186.048  1.00  0.00    -0.550 OA
ATOM      7  O   UNL     1     164.399 177.857 184.431  1.00  0.00    -0.550 OA
ENDBRANCH   4   5
ENDBRANCH   3   4
ENDBRANCH   2   3
ENDBRANCH   1   2
BRANCH   1   8
ATOM      8  C   UNL     1     160.732 175.954 186.702  1.00  0.00     0.000 C 
BRANCH   8   9
ATOM      9  C   UNL     1     160.058 174.853 187.529  1.00  0.00     0.000 C 
BRANCH   9  10
ATOM     10  C   UNL     1     160.912 173.576 187.547  1.00  0.00     0.006 C 
BRANCH  10  11
ATOM     11  C   UNL     1     162.277 173.783 186.878  1.00  0.00     0.053 C 
BRANCH  11  12
ATOM     12  C   UNL     1     163.407 173.474 187.812  1.00  0.00     0.041 C 
ATOM     13  O   UNL     1     164.487 174.117 187.735  1.00  0.00    -0.550 OA
ATOM     14  O   UNL     1     163.255 172.499 188.789  1.00  0.00    -0.550 OA
ENDBRANCH  11  12
ENDBRANCH  10  11
ENDBRANCH   9  10
ENDBRANCH   8   9
ENDBRANCH   1   8
TORSDOF 9
ENDMDL
MODEL 8
REMARK VINA RESULT:    -3.639      2.387      3.855
REMARK INTER + INTRA:          -6.468
REMARK INTER:                  -5.642
REMARK INTRA:                  -0.826
REMARK UNBOUND:                -0.915
REMARK SMILES O=C([O-])CCCCCCCCC(=O)[O-]
REMARK SMILES IDX 7 1 6 2 5 3 4 4 2 5 1 6 3 7 8 8 9 9 10 10 11 11 12 12 13 13
REMARK SMILES IDX 14 14
REMARK H PARENT
REMARK Flexibility Score: inf
ROOT
ATOM      1  C   UNL     1     160.625 177.079 186.335  1.00  0.00     0.000 C 
ENDROOT
BRANCH   1   2
ATOM      2  C   UNL     1     160.291 177.962 185.122  1.00  0.00     0.000 C 
BRANCH   2   3
ATOM      3  C   UNL     1     160.592 177.269 183.785  1.00  0.00     0.006 C 
BRANCH   3   4
ATOM      4  C   UNL     1     160.792 175.763 183.981  1.00  0.00     0.053 C 
BRANCH   4   5
ATOM      5  C   UNL     1     160.290 175.008 182.791  1.00  0.00     0.041 C 
ATOM      6  O   UNL     1     160.170 175.584 181.680  1.00  0.00    -0.550 OA
ATOM      7  O   UNL     1     160.001 173.653 182.900  1.00  0.00    -0.550 OA
ENDBRANCH   4   5
ENDBRANCH   3   4
ENDBRANCH   2   3
ENDBRANCH   1   2
BRANCH   1   8
ATOM      8  C   UNL     1     160.774 177.886 187.633  1.00  0.00     0.000 C 
BRANCH   8   9
ATOM      9  C   UNL     1     162.097 177.558 188.336  1.00  0.00     0.000 C 
BRANCH   9  10
ATOM     10  C   UNL     1     162.938 176.581 187.499  1.00  0.00     0.006 C 
BRANCH  10  11
ATOM     11  C   UNL     1     164.317 177.155 187.150  1.00  0.00     0.053 C 
BRANCH  11  12
ATOM     12  C   UNL     1     164.210 178.391 186.311  1.00  0.00     0.041 C 
ATOM     13  O   UNL     1     164.549 179.509 186.783  1.00  0.00    -0.550 OA
ATOM     14  O   UNL     1     163.768 178.305 184.997  1.00  0.00    -0.550 OA
ENDBRANCH  11  12
ENDBRANCH  10  11
ENDBRANCH   9  10
ENDBRANCH   8   9
ENDBRANCH   1   8
TORSDOF 9
ENDMDL
MODEL 9
REMARK VINA RESULT:    -3.164      2.867      4.872
REMARK INTER + INTRA:          -5.743
REMARK INTER:                  -5.059
REMARK INTRA:                  -0.684
REMARK UNBOUND:                -0.915
REMARK SMILES O=C([O-])CCCCCCCCC(=O)[O-]
REMARK SMILES IDX 7 1 6 2 5 3 4 4 2 5 1 6 3 7 8 8 9 9 10 10 11 11 12 12 13 13
REMARK SMILES IDX 14 14
REMARK H PARENT
REMARK Flexibility Score: inf
ROOT
ATOM      1  C   UNL     1     161.086 176.691 187.869  1.00  0.00     0.000 C 
ENDROOT
BRANCH   1   2
ATOM      2  C   UNL     1     160.248 175.423 187.643  1.00  0.00     0.000 C 
BRANCH   2   3
ATOM      3  C   UNL     1     161.089 174.241 187.137  1.00  0.00     0.006 C 
BRANCH   3   4
ATOM      4  C   UNL     1     160.306 173.408 186.117  1.00  0.00     0.053 C 
BRANCH   4   5
ATOM      5  C   UNL     1     160.611 171.953 186.284  1.00  0.00     0.041 C 
ATOM      6  O   UNL     1     161.208 171.544 187.313  1.00  0.00    -0.550 OA
ATOM      7  O   UNL     1     160.190 171.041 185.323  1.00  0.00    -0.550 OA
ENDBRANCH   4   5
ENDBRANCH   3   4
ENDBRANCH   2   3
ENDBRANCH   1   2
BRANCH   1   8
ATOM      8  C   UNL     1     162.596 176.412 187.873  1.00  0.00     0.000 C 
BRANCH   8   9
ATOM      9  C   UNL     1     163.341 177.407 186.977  1.00  0.00     0.000 C 
BRANCH   9  10
ATOM     10  C   UNL     1     162.361 178.193 186.092  1.00  0.00     0.006 C 
BRANCH  10  11
ATOM     11  C   UNL     1     162.120 177.506 184.742  1.00  0.00     0.053 C 
BRANCH  11  12
ATOM     12  C   UNL     1     160.662 177.445 184.402  1.00  0.00     0.041 C 
ATOM     13  O   UNL     1     160.138 176.354 184.053  1.00  0.00    -0.550 OA
ATOM     14  O   UNL     1     159.875 178.585 184.504  1.00  0.00    -0.550 OA
ENDBRANCH  11  12
ENDBRANCH  10  11
ENDBRANCH   9  10
ENDBRANCH   8   9
ENDBRANCH   1   8
TORSDOF 9
ENDMDL
