MODEL 1
REMARK VINA RESULT:    -7.302      0.000      0.000
REMARK INTER + INTRA:          -9.070
REMARK INTER:                  -8.797
REMARK INTRA:                  -0.274
REMARK UNBOUND:                -0.274
REMARK SMILES O=c1c(O)c(-c2ccc(O)c(O)c2)oc2cc(O)cc(O)c12
REMARK SMILES IDX 5 1 3 2 2 3 1 4 22 5 20 6 19 7 17 8 16 9 15 10 14 11 6 12
REMARK SMILES IDX 7 13 8 14 9 15 13 16 11 17 10 18 12 20 4 22 21 24 18 26
REMARK H PARENT 10 19 12 21 4 23 21 25 18 27
REMARK Flexibility Score: inf
ROOT
ATOM      1  C   UNL     1     -41.960  10.919   8.727  1.00  0.00     0.180 A 
ATOM      2  C   UNL     1     -40.908   9.985   8.662  1.00  0.00     0.208 A 
ATOM      3  C   UNL     1     -40.705   9.272   7.470  1.00  0.00     0.238 A 
ATOM      4  O   UNL     1     -39.773   8.425   7.404  1.00  0.00    -0.285 OA
ATOM      5  C   UNL     1     -41.541   9.519   6.360  1.00  0.00     0.111 A 
ATOM      6  C   UNL     1     -41.400   8.846   5.122  1.00  0.00     0.134 A 
ATOM      7  C   UNL     1     -42.265   9.155   4.062  1.00  0.00     0.093 A 
ATOM      8  C   UNL     1     -43.266  10.122   4.217  1.00  0.00     0.123 A 
ATOM      9  C   UNL     1     -43.408  10.787   5.436  1.00  0.00     0.094 A 
ATOM     10  C   UNL     1     -42.557  10.492   6.505  1.00  0.00     0.146 A 
ATOM     11  O   UNL     1     -42.718  11.136   7.655  1.00  0.00    -0.452 OA
ENDROOT
BRANCH   1  12
ATOM     12  C   UNL     1     -42.249  11.696   9.954  1.00  0.00     0.025 A 
ATOM     13  C   UNL     1     -41.838  13.035  10.085  1.00  0.00     0.016 A 
ATOM     14  C   UNL     1     -42.100  13.742  11.262  1.00  0.00     0.051 A 
ATOM     15  C   UNL     1     -42.760  13.122  12.327  1.00  0.00     0.157 A 
ATOM     16  C   UNL     1     -42.892  11.070  11.033  1.00  0.00     0.062 A 
ATOM     17  C   UNL     1     -43.156  11.778  12.216  1.00  0.00     0.158 A 
BRANCH  15  18
ATOM     18  O   UNL     1     -43.008  13.852  13.489  1.00  0.00    -0.504 OA
ATOM     19  H   UNL     1     -43.692  14.599  13.519  1.00  0.00     0.293 HD
ENDBRANCH  15  18
BRANCH  17  20
ATOM     20  O   UNL     1     -43.807  11.151  13.276  1.00  0.00    -0.504 OA
ATOM     21  H   UNL     1     -44.563  10.494  13.121  1.00  0.00     0.293 HD
ENDBRANCH  17  20
ENDBRANCH   1  12
BRANCH   2  22
ATOM     22  O   UNL     1     -40.064   9.795   9.760  1.00  0.00    -0.502 OA
ATOM     23  H   UNL     1     -40.410   9.759  10.711  1.00  0.00     0.293 HD
ENDBRANCH   2  22
BRANCH   6  24
ATOM     24  O   UNL     1     -40.412   7.879   4.937  1.00  0.00    -0.507 OA
ATOM     25  H   UNL     1     -40.523   6.932   5.280  1.00  0.00     0.293 HD
ENDBRANCH   6  24
BRANCH   8  26
ATOM     26  O   UNL     1     -44.125  10.428   3.164  1.00  0.00    -0.508 OA
ATOM     27  H   UNL     1     -44.038  11.292   2.642  1.00  0.00     0.293 HD
ENDBRANCH   8  26
TORSDOF 6
ENDMDL
MODEL 2
REMARK VINA RESULT:    -7.284      2.067      6.910
REMARK INTER + INTRA:          -9.048
REMARK INTER:                  -8.787
REMARK INTRA:                  -0.261
REMARK UNBOUND:                -0.274
REMARK SMILES O=c1c(O)c(-c2ccc(O)c(O)c2)oc2cc(O)cc(O)c12
REMARK SMILES IDX 5 1 3 2 2 3 1 4 22 5 20 6 19 7 17 8 16 9 15 10 14 11 6 12
REMARK SMILES IDX 7 13 8 14 9 15 13 16 11 17 10 18 12 20 4 22 21 24 18 26
REMARK H PARENT 10 19 12 21 4 23 21 25 18 27
REMARK Flexibility Score: inf
ROOT
ATOM      1  C   UNL     1     -40.831  10.051   6.978  1.00  0.00     0.180 A 
ATOM      2  C   UNL     1     -40.301   9.340   8.073  1.00  0.00     0.208 A 
ATOM      3  C   UNL     1     -40.633   9.751   9.374  1.00  0.00     0.238 A 
ATOM      4  O   UNL     1     -40.156   9.129  10.362  1.00  0.00    -0.285 OA
ATOM      5  C   UNL     1     -41.500  10.848   9.558  1.00  0.00     0.111 A 
ATOM      6  C   UNL     1     -41.886  11.323  10.835  1.00  0.00     0.134 A 
ATOM      7  C   UNL     1     -42.761  12.415  10.935  1.00  0.00     0.093 A 
ATOM      8  C   UNL     1     -43.256  13.039   9.784  1.00  0.00     0.123 A 
ATOM      9  C   UNL     1     -42.877  12.575   8.523  1.00  0.00     0.094 A 
ATOM     10  C   UNL     1     -42.005  11.489   8.403  1.00  0.00     0.146 A 
ATOM     11  O   UNL     1     -41.657  11.071   7.191  1.00  0.00    -0.452 OA
ENDROOT
BRANCH   1  12
ATOM     12  C   UNL     1     -40.514   9.690   5.578  1.00  0.00     0.025 A 
ATOM     13  C   UNL     1     -41.081   8.556   4.968  1.00  0.00     0.016 A 
ATOM     14  C   UNL     1     -40.750   8.221   3.653  1.00  0.00     0.051 A 
ATOM     15  C   UNL     1     -39.838   9.000   2.933  1.00  0.00     0.157 A 
ATOM     16  C   UNL     1     -39.583  10.457   4.860  1.00  0.00     0.062 A 
ATOM     17  C   UNL     1     -39.248  10.122   3.539  1.00  0.00     0.158 A 
BRANCH  15  18
ATOM     18  O   UNL     1     -39.527   8.641   1.622  1.00  0.00    -0.504 OA
ATOM     19  H   UNL     1     -38.971   7.823   1.406  1.00  0.00     0.293 HD
ENDBRANCH  15  18
BRANCH  17  20
ATOM     20  O   UNL     1     -38.334  10.899   2.830  1.00  0.00    -0.504 OA
ATOM     21  H   UNL     1     -38.614  11.752   2.360  1.00  0.00     0.293 HD
ENDBRANCH  17  20
ENDBRANCH   1  12
BRANCH   2  22
ATOM     22  O   UNL     1     -39.484   8.226   7.863  1.00  0.00    -0.502 OA
ATOM     23  H   UNL     1     -38.472   8.284   7.879  1.00  0.00     0.293 HD
ENDBRANCH   2  22
BRANCH   6  24
ATOM     24  O   UNL     1     -41.410  10.721  12.000  1.00  0.00    -0.507 OA
ATOM     25  H   UNL     1     -42.037  10.322  12.688  1.00  0.00     0.293 HD
ENDBRANCH   6  24
BRANCH   8  26
ATOM     26  O   UNL     1     -44.125  14.123   9.883  1.00  0.00    -0.508 OA
ATOM     27  H   UNL     1     -44.094  14.758  10.673  1.00  0.00     0.293 HD
ENDBRANCH   8  26
TORSDOF 6
ENDMDL
MODEL 3
REMARK VINA RESULT:    -7.124     11.909     13.993
REMARK INTER + INTRA:          -8.855
REMARK INTER:                  -8.818
REMARK INTRA:                  -0.037
REMARK UNBOUND:                -0.274
REMARK SMILES O=c1c(O)c(-c2ccc(O)c(O)c2)oc2cc(O)cc(O)c12
REMARK SMILES IDX 5 1 3 2 2 3 1 4 22 5 20 6 19 7 17 8 16 9 15 10 14 11 6 12
REMARK SMILES IDX 7 13 8 14 9 15 13 16 11 17 10 18 12 20 4 22 21 24 18 26
REMARK H PARENT 10 19 12 21 4 23 21 25 18 27
REMARK Flexibility Score: inf
ROOT
ATOM      1  C   UNL     1     -31.188  13.215   0.745  1.00  0.00     0.180 A 
ATOM      2  C   UNL     1     -31.144  12.160  -0.187  1.00  0.00     0.208 A 
ATOM      3  C   UNL     1     -32.255  11.309  -0.302  1.00  0.00     0.238 A 
ATOM      4  O   UNL     1     -32.223  10.353  -1.124  1.00  0.00    -0.285 OA
ATOM      5  C   UNL     1     -33.394  11.538   0.499  1.00  0.00     0.111 A 
ATOM      6  C   UNL     1     -34.555  10.730   0.441  1.00  0.00     0.134 A 
ATOM      7  C   UNL     1     -35.652  11.029   1.263  1.00  0.00     0.093 A 
ATOM      8  C   UNL     1     -35.608  12.120   2.140  1.00  0.00     0.123 A 
ATOM      9  C   UNL     1     -34.466  12.919   2.200  1.00  0.00     0.094 A 
ATOM     10  C   UNL     1     -33.362  12.636   1.390  1.00  0.00     0.146 A 
ATOM     11  O   UNL     1     -32.286  13.410   1.471  1.00  0.00    -0.452 OA
ENDROOT
BRANCH   1  12
ATOM     12  C   UNL     1     -30.051  14.143   0.936  1.00  0.00     0.025 A 
ATOM     13  C   UNL     1     -29.498  14.370   2.210  1.00  0.00     0.016 A 
ATOM     14  C   UNL     1     -28.441  15.269   2.371  1.00  0.00     0.051 A 
ATOM     15  C   UNL     1     -27.929  15.964   1.270  1.00  0.00     0.157 A 
ATOM     16  C   UNL     1     -29.550  14.859  -0.163  1.00  0.00     0.062 A 
ATOM     17  C   UNL     1     -28.488  15.762  -0.003  1.00  0.00     0.158 A 
BRANCH  15  18
ATOM     18  O   UNL     1     -26.873  16.854   1.461  1.00  0.00    -0.504 OA
ATOM     19  H   UNL     1     -27.025  17.836   1.655  1.00  0.00     0.293 HD
ENDBRANCH  15  18
BRANCH  17  20
ATOM     20  O   UNL     1     -27.988  16.457  -1.103  1.00  0.00    -0.504 OA
ATOM     21  H   UNL     1     -28.201  17.436  -1.254  1.00  0.00     0.293 HD
ENDBRANCH  17  20
ENDBRANCH   1  12
BRANCH   2  22
ATOM     22  O   UNL     1     -30.023  11.984  -1.002  1.00  0.00    -0.502 OA
ATOM     23  H   UNL     1     -29.189  11.505  -0.683  1.00  0.00     0.293 HD
ENDBRANCH   2  22
BRANCH   6  24
ATOM     24  O   UNL     1     -34.628   9.637  -0.423  1.00  0.00    -0.507 OA
ATOM     25  H   UNL     1     -34.212   8.743  -0.189  1.00  0.00     0.293 HD
ENDBRANCH   6  24
BRANCH   8  26
ATOM     26  O   UNL     1     -36.697  12.417   2.956  1.00  0.00    -0.508 OA
ATOM     27  H   UNL     1     -37.048  13.363   3.050  1.00  0.00     0.293 HD
ENDBRANCH   8  26
TORSDOF 6
ENDMDL
MODEL 4
REMARK VINA RESULT:    -7.121     11.867     13.886
REMARK INTER + INTRA:          -8.852
REMARK INTER:                  -8.800
REMARK INTRA:                  -0.052
REMARK UNBOUND:                -0.274
REMARK SMILES O=c1c(O)c(-c2ccc(O)c(O)c2)oc2cc(O)cc(O)c12
REMARK SMILES IDX 5 1 3 2 2 3 1 4 22 5 20 6 19 7 17 8 16 9 15 10 14 11 6 12
REMARK SMILES IDX 7 13 8 14 9 15 13 16 11 17 10 18 12 20 4 22 21 24 18 26
REMARK H PARENT 10 19 12 21 4 23 21 25 18 27
REMARK Flexibility Score: inf
ROOT
ATOM      1  C   UNL     1     -31.710  14.172   1.004  1.00  0.00     0.180 A 
ATOM      2  C   UNL     1     -32.494  14.621   2.084  1.00  0.00     0.208 A 
ATOM      3  C   UNL     1     -33.662  13.916   2.415  1.00  0.00     0.238 A 
ATOM      4  O   UNL     1     -34.378  14.314   3.374  1.00  0.00    -0.285 OA
ATOM      5  C   UNL     1     -34.014  12.766   1.677  1.00  0.00     0.111 A 
ATOM      6  C   UNL     1     -35.172  11.997   1.948  1.00  0.00     0.134 A 
ATOM      7  C   UNL     1     -35.448  10.861   1.174  1.00  0.00     0.093 A 
ATOM      8  C   UNL     1     -34.590  10.480   0.135  1.00  0.00     0.123 A 
ATOM      9  C   UNL     1     -33.448  11.235  -0.136  1.00  0.00     0.094 A 
ATOM     10  C   UNL     1     -33.156  12.372   0.624  1.00  0.00     0.146 A 
ATOM     11  O   UNL     1     -32.066  13.075   0.341  1.00  0.00    -0.452 OA
ENDROOT
BRANCH   1  12
ATOM     12  C   UNL     1     -30.475  14.872   0.583  1.00  0.00     0.025 A 
ATOM     13  C   UNL     1     -30.296  15.308  -0.742  1.00  0.00     0.016 A 
ATOM     14  C   UNL     1     -29.113  15.945  -1.123  1.00  0.00     0.051 A 
ATOM     15  C   UNL     1     -28.087  16.145  -0.194  1.00  0.00     0.157 A 
ATOM     16  C   UNL     1     -29.434  15.054   1.508  1.00  0.00     0.062 A 
ATOM     17  C   UNL     1     -28.245  15.694   1.128  1.00  0.00     0.158 A 
BRANCH  15  18
ATOM     18  O   UNL     1     -26.917  16.784  -0.602  1.00  0.00    -0.504 OA
ATOM     19  H   UNL     1     -26.330  16.414  -1.339  1.00  0.00     0.293 HD
ENDBRANCH  15  18
BRANCH  17  20
ATOM     20  O   UNL     1     -27.224  15.883   2.057  1.00  0.00    -0.504 OA
ATOM     21  H   UNL     1     -26.790  15.102   2.536  1.00  0.00     0.293 HD
ENDBRANCH  17  20
ENDBRANCH   1  12
BRANCH   2  22
ATOM     22  O   UNL     1     -32.097  15.734   2.831  1.00  0.00    -0.502 OA
ATOM     23  H   UNL     1     -31.616  16.523   2.416  1.00  0.00     0.293 HD
ENDBRANCH   2  22
BRANCH   6  24
ATOM     24  O   UNL     1     -36.045  12.351   2.977  1.00  0.00    -0.507 OA
ATOM     25  H   UNL     1     -35.848  13.124   3.601  1.00  0.00     0.293 HD
ENDBRANCH   6  24
BRANCH   8  26
ATOM     26  O   UNL     1     -34.865   9.351  -0.633  1.00  0.00    -0.508 OA
ATOM     27  H   UNL     1     -35.630   8.727  -0.405  1.00  0.00     0.293 HD
ENDBRANCH   8  26
TORSDOF 6
ENDMDL
MODEL 5
REMARK VINA RESULT:    -6.966     11.416     13.722
REMARK INTER + INTRA:          -8.665
REMARK INTER:                  -8.342
REMARK INTRA:                  -0.323
REMARK UNBOUND:                -0.274
REMARK SMILES O=c1c(O)c(-c2ccc(O)c(O)c2)oc2cc(O)cc(O)c12
REMARK SMILES IDX 5 1 3 2 2 3 1 4 22 5 20 6 19 7 17 8 16 9 15 10 14 11 6 12
REMARK SMILES IDX 7 13 8 14 9 15 13 16 11 17 10 18 12 20 4 22 21 24 18 26
REMARK H PARENT 10 19 12 21 4 23 21 25 18 27
REMARK Flexibility Score: inf
ROOT
ATOM      1  C   UNL     1     -32.849  13.158   0.751  1.00  0.00     0.180 A 
ATOM      2  C   UNL     1     -32.959  14.341  -0.004  1.00  0.00     0.208 A 
ATOM      3  C   UNL     1     -31.788  15.012  -0.390  1.00  0.00     0.238 A 
ATOM      4  O   UNL     1     -31.873  16.078  -1.058  1.00  0.00    -0.285 OA
ATOM      5  C   UNL     1     -30.531  14.480  -0.033  1.00  0.00     0.111 A 
ATOM      6  C   UNL     1     -29.303  15.091  -0.386  1.00  0.00     0.134 A 
ATOM      7  C   UNL     1     -28.094  14.494  -0.001  1.00  0.00     0.093 A 
ATOM      8  C   UNL     1     -28.089  13.299   0.728  1.00  0.00     0.123 A 
ATOM      9  C   UNL     1     -29.297  12.693   1.078  1.00  0.00     0.094 A 
ATOM     10  C   UNL     1     -30.513  13.273   0.706  1.00  0.00     0.146 A 
ATOM     11  O   UNL     1     -31.647  12.678   1.056  1.00  0.00    -0.452 OA
ENDROOT
BRANCH   1  12
ATOM     12  C   UNL     1     -34.038  12.405   1.211  1.00  0.00     0.025 A 
ATOM     13  C   UNL     1     -34.733  12.773   2.377  1.00  0.00     0.016 A 
ATOM     14  C   UNL     1     -35.838  12.033   2.805  1.00  0.00     0.051 A 
ATOM     15  C   UNL     1     -36.257  10.909   2.086  1.00  0.00     0.157 A 
ATOM     16  C   UNL     1     -34.448  11.263   0.504  1.00  0.00     0.062 A 
ATOM     17  C   UNL     1     -35.557  10.518   0.932  1.00  0.00     0.158 A 
BRANCH  15  18
ATOM     18  O   UNL     1     -37.364  10.190   2.537  1.00  0.00    -0.504 OA
ATOM     19  H   UNL     1     -37.284   9.243   2.887  1.00  0.00     0.293 HD
ENDBRANCH  15  18
BRANCH  17  20
ATOM     20  O   UNL     1     -35.965   9.394   0.216  1.00  0.00    -0.504 OA
ATOM     21  H   UNL     1     -35.812   8.456   0.567  1.00  0.00     0.293 HD
ENDBRANCH  17  20
ENDBRANCH   1  12
BRANCH   2  22
ATOM     22  O   UNL     1     -34.215  14.821  -0.387  1.00  0.00    -0.502 OA
ATOM     23  H   UNL     1     -34.732  14.428  -1.165  1.00  0.00     0.293 HD
ENDBRANCH   2  22
BRANCH   6  24
ATOM     24  O   UNL     1     -29.276  16.282  -1.113  1.00  0.00    -0.507 OA
ATOM     25  H   UNL     1     -29.973  17.004  -0.979  1.00  0.00     0.293 HD
ENDBRANCH   6  24
BRANCH   8  26
ATOM     26  O   UNL     1     -26.888  12.706   1.110  1.00  0.00    -0.508 OA
ATOM     27  H   UNL     1     -26.151  13.239   1.558  1.00  0.00     0.293 HD
ENDBRANCH   8  26
TORSDOF 6
ENDMDL
MODEL 6
REMARK VINA RESULT:    -6.717      2.127      7.539
REMARK INTER + INTRA:          -8.365
REMARK INTER:                  -8.047
REMARK INTRA:                  -0.318
REMARK UNBOUND:                -0.274
REMARK SMILES O=c1c(O)c(-c2ccc(O)c(O)c2)oc2cc(O)cc(O)c12
REMARK SMILES IDX 5 1 3 2 2 3 1 4 22 5 20 6 19 7 17 8 16 9 15 10 14 11 6 12
REMARK SMILES IDX 7 13 8 14 9 15 13 16 11 17 10 18 12 20 4 22 21 24 18 26
REMARK H PARENT 10 19 12 21 4 23 21 25 18 27
REMARK Flexibility Score: inf
ROOT
ATOM      1  C   UNL     1     -41.203   9.855   6.305  1.00  0.00     0.180 A 
ATOM      2  C   UNL     1     -42.382  10.612   6.451  1.00  0.00     0.208 A 
ATOM      3  C   UNL     1     -42.802  10.972   7.741  1.00  0.00     0.238 A 
ATOM      4  O   UNL     1     -43.861  11.640   7.886  1.00  0.00    -0.285 OA
ATOM      5  C   UNL     1     -42.029  10.589   8.858  1.00  0.00     0.111 A 
ATOM      6  C   UNL     1     -42.380  10.915  10.190  1.00  0.00     0.134 A 
ATOM      7  C   UNL     1     -41.553  10.505  11.247  1.00  0.00     0.093 A 
ATOM      8  C   UNL     1     -40.384   9.777  10.995  1.00  0.00     0.123 A 
ATOM      9  C   UNL     1     -40.034   9.454   9.684  1.00  0.00     0.094 A 
ATOM     10  C   UNL     1     -40.846   9.851   8.617  1.00  0.00     0.146 A 
ATOM     11  O   UNL     1     -40.492   9.525   7.379  1.00  0.00    -0.452 OA
ENDROOT
BRANCH   1  12
ATOM     12  C   UNL     1     -40.706   9.422   4.979  1.00  0.00     0.025 A 
ATOM     13  C   UNL     1     -41.231   8.287   4.335  1.00  0.00     0.016 A 
ATOM     14  C   UNL     1     -40.729   7.882   3.096  1.00  0.00     0.051 A 
ATOM     15  C   UNL     1     -39.690   8.593   2.487  1.00  0.00     0.157 A 
ATOM     16  C   UNL     1     -39.647  10.120   4.376  1.00  0.00     0.062 A 
ATOM     17  C   UNL     1     -39.142   9.716   3.131  1.00  0.00     0.158 A 
BRANCH  15  18
ATOM     18  O   UNL     1     -39.210   8.167   1.250  1.00  0.00    -0.504 OA
ATOM     19  H   UNL     1     -38.903   8.818   0.538  1.00  0.00     0.293 HD
ENDBRANCH  15  18
BRANCH  17  20
ATOM     20  O   UNL     1     -38.101  10.424   2.535  1.00  0.00    -0.504 OA
ATOM     21  H   UNL     1     -37.775  10.203   1.601  1.00  0.00     0.293 HD
ENDBRANCH  17  20
ENDBRANCH   1  12
BRANCH   2  22
ATOM     22  O   UNL     1     -43.103  11.020   5.326  1.00  0.00    -0.502 OA
ATOM     23  H   UNL     1     -42.697  11.602   4.602  1.00  0.00     0.293 HD
ENDBRANCH   2  22
BRANCH   6  24
ATOM     24  O   UNL     1     -43.539  11.640  10.472  1.00  0.00    -0.507 OA
ATOM     25  H   UNL     1     -44.115  11.432  11.278  1.00  0.00     0.293 HD
ENDBRANCH   6  24
BRANCH   8  26
ATOM     26  O   UNL     1     -39.563   9.371  12.045  1.00  0.00    -0.508 OA
ATOM     27  H   UNL     1     -39.430   9.946  12.868  1.00  0.00     0.293 HD
ENDBRANCH   8  26
TORSDOF 6
ENDMDL
MODEL 7
REMARK VINA RESULT:    -6.609     11.677     13.555
REMARK INTER + INTRA:          -8.236
REMARK INTER:                  -7.940
REMARK INTRA:                  -0.295
REMARK UNBOUND:                -0.274
REMARK SMILES O=c1c(O)c(-c2ccc(O)c(O)c2)oc2cc(O)cc(O)c12
REMARK SMILES IDX 5 1 3 2 2 3 1 4 22 5 20 6 19 7 17 8 16 9 15 10 14 11 6 12
REMARK SMILES IDX 7 13 8 14 9 15 13 16 11 17 10 18 12 20 4 22 21 24 18 26
REMARK H PARENT 10 19 12 21 4 23 21 25 18 27
REMARK Flexibility Score: inf
ROOT
ATOM      1  C   UNL     1     -32.250  13.619   1.713  1.00  0.00     0.180 A 
ATOM      2  C   UNL     1     -31.519  14.563   2.460  1.00  0.00     0.208 A 
ATOM      3  C   UNL     1     -30.118  14.570   2.361  1.00  0.00     0.238 A 
ATOM      4  O   UNL     1     -29.452  15.403   3.033  1.00  0.00    -0.285 OA
ATOM      5  C   UNL     1     -29.476  13.650   1.506  1.00  0.00     0.111 A 
ATOM      6  C   UNL     1     -28.070  13.594   1.346  1.00  0.00     0.134 A 
ATOM      7  C   UNL     1     -27.507  12.656   0.468  1.00  0.00     0.093 A 
ATOM      8  C   UNL     1     -28.323  11.775  -0.253  1.00  0.00     0.123 A 
ATOM      9  C   UNL     1     -29.709  11.827  -0.098  1.00  0.00     0.094 A 
ATOM     10  C   UNL     1     -30.289  12.753   0.774  1.00  0.00     0.146 A 
ATOM     11  O   UNL     1     -31.610  12.777   0.905  1.00  0.00    -0.452 OA
ENDROOT
BRANCH   1  12
ATOM     12  C   UNL     1     -33.727  13.537   1.778  1.00  0.00     0.025 A 
ATOM     13  C   UNL     1     -34.372  12.545   2.538  1.00  0.00     0.016 A 
ATOM     14  C   UNL     1     -35.767  12.472   2.565  1.00  0.00     0.051 A 
ATOM     15  C   UNL     1     -36.537  13.376   1.825  1.00  0.00     0.157 A 
ATOM     16  C   UNL     1     -34.502  14.429   1.019  1.00  0.00     0.062 A 
ATOM     17  C   UNL     1     -35.903  14.357   1.045  1.00  0.00     0.158 A 
BRANCH  15  18
ATOM     18  O   UNL     1     -37.927  13.279   1.872  1.00  0.00    -0.504 OA
ATOM     19  H   UNL     1     -38.445  13.386   2.736  1.00  0.00     0.293 HD
ENDBRANCH  15  18
BRANCH  17  20
ATOM     20  O   UNL     1     -36.663  15.256   0.300  1.00  0.00    -0.504 OA
ATOM     21  H   UNL     1     -37.448  15.753   0.706  1.00  0.00     0.293 HD
ENDBRANCH  17  20
ENDBRANCH   1  12
BRANCH   2  22
ATOM     22  O   UNL     1     -32.182  15.495   3.262  1.00  0.00    -0.502 OA
ATOM     23  H   UNL     1     -32.824  16.180   2.881  1.00  0.00     0.293 HD
ENDBRANCH   2  22
BRANCH   6  24
ATOM     24  O   UNL     1     -27.231  14.459   2.050  1.00  0.00    -0.507 OA
ATOM     25  H   UNL     1     -27.479  14.813   2.966  1.00  0.00     0.293 HD
ENDBRANCH   6  24
BRANCH   8  26
ATOM     26  O   UNL     1     -27.764  10.844  -1.125  1.00  0.00    -0.508 OA
ATOM     27  H   UNL     1     -26.964  10.282  -0.859  1.00  0.00     0.293 HD
ENDBRANCH   8  26
TORSDOF 6
ENDMDL
MODEL 8
REMARK VINA RESULT:    -6.558     10.518     12.975
REMARK INTER + INTRA:          -8.174
REMARK INTER:                  -7.884
REMARK INTRA:                  -0.290
REMARK UNBOUND:                -0.274
REMARK SMILES O=c1c(O)c(-c2ccc(O)c(O)c2)oc2cc(O)cc(O)c12
REMARK SMILES IDX 5 1 3 2 2 3 1 4 22 5 20 6 19 7 17 8 16 9 15 10 14 11 6 12
REMARK SMILES IDX 7 13 8 14 9 15 13 16 11 17 10 18 12 20 4 22 21 24 18 26
REMARK H PARENT 10 19 12 21 4 23 21 25 18 27
REMARK Flexibility Score: inf
ROOT
ATOM      1  C   UNL     1     -32.998  13.401   0.939  1.00  0.00     0.180 A 
ATOM      2  C   UNL     1     -33.990  14.400   0.964  1.00  0.00     0.208 A 
ATOM      3  C   UNL     1     -35.292  14.054   1.358  1.00  0.00     0.238 A 
ATOM      4  O   UNL     1     -36.192  14.937   1.375  1.00  0.00    -0.285 OA
ATOM      5  C   UNL     1     -35.575  12.725   1.739  1.00  0.00     0.111 A 
ATOM      6  C   UNL     1     -36.859  12.295   2.153  1.00  0.00     0.134 A 
ATOM      7  C   UNL     1     -37.057  10.958   2.526  1.00  0.00     0.093 A 
ATOM      8  C   UNL     1     -35.997  10.044   2.493  1.00  0.00     0.123 A 
ATOM      9  C   UNL     1     -34.730  10.463   2.085  1.00  0.00     0.094 A 
ATOM     10  C   UNL     1     -34.512  11.792   1.708  1.00  0.00     0.146 A 
ATOM     11  O   UNL     1     -33.298  12.162   1.319  1.00  0.00    -0.452 OA
ENDROOT
BRANCH   1  12
ATOM     12  C   UNL     1     -31.607  13.684   0.518  1.00  0.00     0.025 A 
ATOM     13  C   UNL     1     -31.139  13.317  -0.757  1.00  0.00     0.016 A 
ATOM     14  C   UNL     1     -29.816  13.572  -1.125  1.00  0.00     0.051 A 
ATOM     15  C   UNL     1     -28.937  14.182  -0.224  1.00  0.00     0.157 A 
ATOM     16  C   UNL     1     -30.716  14.276   1.427  1.00  0.00     0.062 A 
ATOM     17  C   UNL     1     -29.386  14.533   1.060  1.00  0.00     0.158 A 
BRANCH  15  18
ATOM     18  O   UNL     1     -27.622  14.425  -0.619  1.00  0.00    -0.504 OA
ATOM     19  H   UNL     1     -27.118  15.255  -0.331  1.00  0.00     0.293 HD
ENDBRANCH  15  18
BRANCH  17  20
ATOM     20  O   UNL     1     -28.514  15.135   1.965  1.00  0.00    -0.504 OA
ATOM     21  H   UNL     1     -28.286  14.700   2.852  1.00  0.00     0.293 HD
ENDBRANCH  17  20
ENDBRANCH   1  12
BRANCH   2  22
ATOM     22  O   UNL     1     -33.673  15.719   0.629  1.00  0.00    -0.502 OA
ATOM     23  H   UNL     1     -33.947  16.507   1.205  1.00  0.00     0.293 HD
ENDBRANCH   2  22
BRANCH   6  24
ATOM     24  O   UNL     1     -37.934  13.183   2.197  1.00  0.00    -0.507 OA
ATOM     25  H   UNL     1     -38.244  13.686   1.375  1.00  0.00     0.293 HD
ENDBRANCH   6  24
BRANCH   8  26
ATOM     26  O   UNL     1     -36.195   8.716   2.863  1.00  0.00    -0.508 OA
ATOM     27  H   UNL     1     -36.996   8.188   2.539  1.00  0.00     0.293 HD
ENDBRANCH   8  26
TORSDOF 6
ENDMDL
MODEL 9
REMARK VINA RESULT:    -6.335     11.873     14.045
REMARK INTER + INTRA:          -7.904
REMARK INTER:                  -7.576
REMARK INTRA:                  -0.329
REMARK UNBOUND:                -0.274
REMARK SMILES O=c1c(O)c(-c2ccc(O)c(O)c2)oc2cc(O)cc(O)c12
REMARK SMILES IDX 5 1 3 2 2 3 1 4 22 5 20 6 19 7 17 8 16 9 15 10 14 11 6 12
REMARK SMILES IDX 7 13 8 14 9 15 13 16 11 17 10 18 12 20 4 22 21 24 18 26
REMARK H PARENT 10 19 12 21 4 23 21 25 18 27
REMARK Flexibility Score: inf
ROOT
ATOM      1  C   UNL     1     -32.387  13.413   0.118  1.00  0.00     0.180 A 
ATOM      2  C   UNL     1     -32.021  12.176  -0.448  1.00  0.00     0.208 A 
ATOM      3  C   UNL     1     -30.697  11.731  -0.310  1.00  0.00     0.238 A 
ATOM      4  O   UNL     1     -30.354  10.631  -0.821  1.00  0.00    -0.285 OA
ATOM      5  C   UNL     1     -29.770  12.517   0.407  1.00  0.00     0.111 A 
ATOM      6  C   UNL     1     -28.418  12.139   0.596  1.00  0.00     0.134 A 
ATOM      7  C   UNL     1     -27.560  12.971   1.330  1.00  0.00     0.093 A 
ATOM      8  C   UNL     1     -28.027  14.172   1.877  1.00  0.00     0.123 A 
ATOM      9  C   UNL     1     -29.359  14.548   1.693  1.00  0.00     0.094 A 
ATOM     10  C   UNL     1     -30.229  13.733   0.964  1.00  0.00     0.146 A 
ATOM     11  O   UNL     1     -31.490  14.118   0.800  1.00  0.00    -0.452 OA
ENDROOT
BRANCH   1  12
ATOM     12  C   UNL     1     -33.759  13.957  -0.001  1.00  0.00     0.025 A 
ATOM     13  C   UNL     1     -34.112  14.831  -1.045  1.00  0.00     0.016 A 
ATOM     14  C   UNL     1     -35.405  15.352  -1.125  1.00  0.00     0.051 A 
ATOM     15  C   UNL     1     -36.361  15.022  -0.158  1.00  0.00     0.157 A 
ATOM     16  C   UNL     1     -34.714  13.645   0.980  1.00  0.00     0.062 A 
ATOM     17  C   UNL     1     -36.014  14.167   0.903  1.00  0.00     0.158 A 
BRANCH  15  18
ATOM     18  O   UNL     1     -37.644  15.556  -0.263  1.00  0.00    -0.504 OA
ATOM     19  H   UNL     1     -37.871  16.285  -0.929  1.00  0.00     0.293 HD
ENDBRANCH  15  18
BRANCH  17  20
ATOM     20  O   UNL     1     -36.959  13.840   1.873  1.00  0.00    -0.504 OA
ATOM     21  H   UNL     1     -37.622  14.524   2.220  1.00  0.00     0.293 HD
ENDBRANCH  17  20
ENDBRANCH   1  12
BRANCH   2  22
ATOM     22  O   UNL     1     -32.971  11.394  -1.111  1.00  0.00    -0.502 OA
ATOM     23  H   UNL     1     -33.112  10.413  -0.896  1.00  0.00     0.293 HD
ENDBRANCH   2  22
BRANCH   6  24
ATOM     24  O   UNL     1     -27.924  10.948   0.063  1.00  0.00    -0.507 OA
ATOM     25  H   UNL     1     -27.765  10.131   0.640  1.00  0.00     0.293 HD
ENDBRANCH   6  24
BRANCH   8  26
ATOM     26  O   UNL     1     -27.175  14.997   2.606  1.00  0.00    -0.508 OA
ATOM     27  H   UNL     1     -26.753  14.690   3.475  1.00  0.00     0.293 HD
ENDBRANCH   8  26
TORSDOF 6
ENDMDL
