MODEL 1
REMARK VINA RESULT:    -3.508      0.000      0.000
REMARK INTER + INTRA:          -6.578
REMARK INTER:                  -5.353
REMARK INTRA:                  -1.225
REMARK UNBOUND:                -1.225
REMARK SMILES C=CCCCCCCCCCC
REMARK SMILES IDX 7 1 8 2 9 3 10 4 11 5 12 6 6 7 5 8 4 9 3 10 2 11 1 12
REMARK H PARENT
REMARK Flexibility Score: inf
ROOT
ATOM      1  C   UNL     1       1.116  13.928  17.653  1.00  0.00     0.000 C 
ENDROOT
BRANCH   1   2
ATOM      2  C   UNL     1       0.539  13.112  16.483  1.00  0.00    -0.000 C 
BRANCH   2   3
ATOM      3  C   UNL     1       1.617  12.702  15.465  1.00  0.00    -0.000 C 
BRANCH   3   4
ATOM      4  C   UNL     1       2.682  13.794  15.248  1.00  0.00    -0.000 C 
BRANCH   4   5
ATOM      5  C   UNL     1       2.771  14.336  13.811  1.00  0.00    -0.003 C 
ATOM      6  C   UNL     1       4.132  14.089  13.162  1.00  0.00     0.004 C 
ENDBRANCH   4   5
ENDBRANCH   3   4
ENDBRANCH   2   3
ENDBRANCH   1   2
BRANCH   1   7
ATOM      7  C   UNL     1       0.476  15.323  17.770  1.00  0.00     0.000 C 
BRANCH   7   8
ATOM      8  C   UNL     1       1.515  16.455  17.708  1.00  0.00     0.000 C 
BRANCH   8   9
ATOM      9  C   UNL     1       1.451  17.249  16.391  1.00  0.00     0.004 C 
BRANCH   9  10
ATOM     10  C   UNL     1       0.227  16.865  15.545  1.00  0.00     0.027 C 
BRANCH  10  11
ATOM     11  C   UNL     1       0.272  17.463  14.164  1.00  0.00    -0.035 C 
ATOM     12  C   UNL     1       1.412  17.905  13.626  1.00  0.00     0.004 C 
ENDBRANCH  10  11
ENDBRANCH   9  10
ENDBRANCH   8   9
ENDBRANCH   7   8
ENDBRANCH   1   7
TORSDOF 9
ENDMDL
MODEL 2
REMARK VINA RESULT:    -3.502      0.824      2.114
REMARK INTER + INTRA:          -6.570
REMARK INTER:                  -5.431
REMARK INTRA:                  -1.139
REMARK UNBOUND:                -1.225
REMARK SMILES C=CCCCCCCCCCC
REMARK SMILES IDX 7 1 8 2 9 3 10 4 11 5 12 6 6 7 5 8 4 9 3 10 2 11 1 12
REMARK H PARENT
REMARK Flexibility Score: inf
ROOT
ATOM      1  C   UNL     1       0.350  12.739  16.025  1.00  0.00     0.000 C 
ENDROOT
BRANCH   1   2
ATOM      2  C   UNL     1       1.443  12.632  14.948  1.00  0.00    -0.000 C 
BRANCH   2   3
ATOM      3  C   UNL     1       2.630  13.572  15.218  1.00  0.00    -0.000 C 
BRANCH   3   4
ATOM      4  C   UNL     1       3.072  14.354  13.967  1.00  0.00    -0.000 C 
BRANCH   4   5
ATOM      5  C   UNL     1       4.329  13.805  13.269  1.00  0.00    -0.003 C 
ATOM      6  C   UNL     1       4.005  12.881  12.095  1.00  0.00     0.004 C 
ENDBRANCH   4   5
ENDBRANCH   3   4
ENDBRANCH   2   3
ENDBRANCH   1   2
BRANCH   1   7
ATOM      7  C   UNL     1       0.899  13.241  17.372  1.00  0.00     0.000 C 
BRANCH   7   8
ATOM      8  C   UNL     1      -0.135  14.057  18.164  1.00  0.00     0.000 C 
BRANCH   8   9
ATOM      9  C   UNL     1      -0.182  15.534  17.734  1.00  0.00     0.004 C 
BRANCH   9  10
ATOM     10  C   UNL     1       1.222  16.108  17.490  1.00  0.00     0.027 C 
BRANCH  10  11
ATOM     11  C   UNL     1       1.227  17.192  16.445  1.00  0.00    -0.035 C 
ATOM     12  C   UNL     1       0.818  16.965  15.194  1.00  0.00     0.004 C 
ENDBRANCH  10  11
ENDBRANCH   9  10
ENDBRANCH   8   9
ENDBRANCH   7   8
ENDBRANCH   1   7
TORSDOF 9
ENDMDL
MODEL 3
REMARK VINA RESULT:    -3.451      0.772      3.767
REMARK INTER + INTRA:          -6.492
REMARK INTER:                  -5.068
REMARK INTRA:                  -1.424
REMARK UNBOUND:                -1.225
REMARK SMILES C=CCCCCCCCCCC
REMARK SMILES IDX 7 1 8 2 9 3 10 4 11 5 12 6 6 7 5 8 4 9 3 10 2 11 1 12
REMARK H PARENT
REMARK Flexibility Score: inf
ROOT
ATOM      1  C   UNL     1       1.695  16.842  17.190  1.00  0.00     0.000 C 
ENDROOT
BRANCH   1   2
ATOM      2  C   UNL     1       1.123  17.639  16.005  1.00  0.00    -0.000 C 
BRANCH   2   3
ATOM      3  C   UNL     1       0.226  16.781  15.098  1.00  0.00    -0.000 C 
BRANCH   3   4
ATOM      4  C   UNL     1       0.524  16.981  13.599  1.00  0.00    -0.000 C 
BRANCH   4   5
ATOM      5  C   UNL     1       1.677  17.953  13.292  1.00  0.00    -0.003 C 
ATOM      6  C   UNL     1       2.625  17.432  12.212  1.00  0.00     0.004 C 
ENDBRANCH   4   5
ENDBRANCH   3   4
ENDBRANCH   2   3
ENDBRANCH   1   2
BRANCH   1   7
ATOM      7  C   UNL     1       0.772  15.689  17.624  1.00  0.00     0.000 C 
BRANCH   7   8
ATOM      8  C   UNL     1       1.521  14.355  17.768  1.00  0.00     0.000 C 
BRANCH   8   9
ATOM      9  C   UNL     1       0.838  13.205  17.007  1.00  0.00     0.004 C 
BRANCH   9  10
ATOM     10  C   UNL     1       1.272  13.149  15.534  1.00  0.00     0.027 C 
BRANCH  10  11
ATOM     11  C   UNL     1       2.688  13.621  15.334  1.00  0.00    -0.035 C 
ATOM     12  C   UNL     1       3.068  14.252  14.219  1.00  0.00     0.004 C 
ENDBRANCH  10  11
ENDBRANCH   9  10
ENDBRANCH   8   9
ENDBRANCH   7   8
ENDBRANCH   1   7
TORSDOF 9
ENDMDL
MODEL 4
REMARK VINA RESULT:    -3.415      1.334      3.990
REMARK INTER + INTRA:          -6.436
REMARK INTER:                  -5.152
REMARK INTRA:                  -1.284
REMARK UNBOUND:                -1.225
REMARK SMILES C=CCCCCCCCCCC
REMARK SMILES IDX 7 1 8 2 9 3 10 4 11 5 12 6 6 7 5 8 4 9 3 10 2 11 1 12
REMARK H PARENT
REMARK Flexibility Score: inf
ROOT
ATOM      1  C   UNL     1       2.543  13.736  15.576  1.00  0.00     0.000 C 
ENDROOT
BRANCH   1   2
ATOM      2  C   UNL     1       1.506  12.602  15.496  1.00  0.00    -0.000 C 
BRANCH   2   3
ATOM      3  C   UNL     1       0.191  12.956  16.209  1.00  0.00    -0.000 C 
BRANCH   3   4
ATOM      4  C   UNL     1       0.403  13.410  17.666  1.00  0.00    -0.000 C 
BRANCH   4   5
ATOM      5  C   UNL     1       0.123  12.332  18.728  1.00  0.00    -0.003 C 
ATOM      6  C   UNL     1      -0.875  12.785  19.792  1.00  0.00     0.004 C 
ENDBRANCH   4   5
ENDBRANCH   3   4
ENDBRANCH   2   3
ENDBRANCH   1   2
BRANCH   1   7
ATOM      7  C   UNL     1       2.950  14.261  14.187  1.00  0.00     0.000 C 
BRANCH   7   8
ATOM      8  C   UNL     1       1.780  14.922  13.440  1.00  0.00     0.000 C 
BRANCH   8   9
ATOM      9  C   UNL     1       1.480  16.344  13.947  1.00  0.00     0.004 C 
BRANCH   9  10
ATOM     10  C   UNL     1       0.097  16.440  14.610  1.00  0.00     0.027 C 
BRANCH  10  11
ATOM     11  C   UNL     1       0.184  16.768  16.077  1.00  0.00    -0.035 C 
ATOM     12  C   UNL     1       1.350  17.043  16.668  1.00  0.00     0.004 C 
ENDBRANCH  10  11
ENDBRANCH   9  10
ENDBRANCH   8   9
ENDBRANCH   7   8
ENDBRANCH   1   7
TORSDOF 9
ENDMDL
MODEL 5
REMARK VINA RESULT:    -3.404      1.013      4.777
REMARK INTER + INTRA:          -6.420
REMARK INTER:                  -4.726
REMARK INTRA:                  -1.693
REMARK UNBOUND:                -1.225
REMARK SMILES C=CCCCCCCCCCC
REMARK SMILES IDX 7 1 8 2 9 3 10 4 11 5 12 6 6 7 5 8 4 9 3 10 2 11 1 12
REMARK H PARENT
REMARK Flexibility Score: inf
ROOT
ATOM      1  C   UNL     1       1.816  15.001  13.226  1.00  0.00     0.000 C 
ENDROOT
BRANCH   1   2
ATOM      2  C   UNL     1       1.306  16.332  13.806  1.00  0.00    -0.000 C 
BRANCH   2   3
ATOM      3  C   UNL     1      -0.049  16.183  14.517  1.00  0.00    -0.000 C 
BRANCH   3   4
ATOM      4  C   UNL     1       0.044  16.409  16.038  1.00  0.00    -0.000 C 
BRANCH   4   5
ATOM      5  C   UNL     1       1.324  17.122  16.510  1.00  0.00    -0.003 C 
ATOM      6  C   UNL     1       1.867  16.567  17.826  1.00  0.00     0.004 C 
ENDBRANCH   4   5
ENDBRANCH   3   4
ENDBRANCH   2   3
ENDBRANCH   1   2
BRANCH   1   7
ATOM      7  C   UNL     1       3.013  14.437  14.011  1.00  0.00     0.000 C 
BRANCH   7   8
ATOM      8  C   UNL     1       2.588  13.731  15.309  1.00  0.00     0.000 C 
BRANCH   8   9
ATOM      9  C   UNL     1       1.564  12.608  15.066  1.00  0.00     0.004 C 
BRANCH   9  10
ATOM     10  C   UNL     1       0.370  12.699  16.028  1.00  0.00     0.027 C 
BRANCH  10  11
ATOM     11  C   UNL     1       0.788  13.031  17.435  1.00  0.00    -0.035 C 
ATOM     12  C   UNL     1      -0.108  13.239  18.405  1.00  0.00     0.004 C 
ENDBRANCH  10  11
ENDBRANCH   9  10
ENDBRANCH   8   9
ENDBRANCH   7   8
ENDBRANCH   1   7
TORSDOF 9
ENDMDL
MODEL 6
REMARK VINA RESULT:    -3.393      0.822      3.856
REMARK INTER + INTRA:          -6.403
REMARK INTER:                  -4.890
REMARK INTRA:                  -1.513
REMARK UNBOUND:                -1.225
REMARK SMILES C=CCCCCCCCCCC
REMARK SMILES IDX 7 1 8 2 9 3 10 4 11 5 12 6 6 7 5 8 4 9 3 10 2 11 1 12
REMARK H PARENT
REMARK Flexibility Score: inf
ROOT
ATOM      1  C   UNL     1       1.696  14.251  17.883  1.00  0.00     0.000 C 
ENDROOT
BRANCH   1   2
ATOM      2  C   UNL     1       1.423  15.701  17.449  1.00  0.00    -0.000 C 
BRANCH   2   3
ATOM      3  C   UNL     1      -0.047  15.932  17.061  1.00  0.00    -0.000 C 
BRANCH   3   4
ATOM      4  C   UNL     1      -0.205  16.852  15.835  1.00  0.00    -0.000 C 
BRANCH   4   5
ATOM      5  C   UNL     1       1.107  17.454  15.303  1.00  0.00    -0.003 C 
ATOM      6  C   UNL     1       1.016  17.888  13.840  1.00  0.00     0.004 C 
ENDBRANCH   4   5
ENDBRANCH   3   4
ENDBRANCH   2   3
ENDBRANCH   1   2
BRANCH   1   7
ATOM      7  C   UNL     1       0.851  13.233  17.097  1.00  0.00     0.000 C 
BRANCH   7   8
ATOM      8  C   UNL     1       1.519  12.804  15.780  1.00  0.00     0.000 C 
BRANCH   8   9
ATOM      9  C   UNL     1       0.761  13.308  14.539  1.00  0.00     0.004 C 
BRANCH   9  10
ATOM     10  C   UNL     1       1.662  14.137  13.610  1.00  0.00     0.027 C 
BRANCH  10  11
ATOM     11  C   UNL     1       3.073  14.247  14.126  1.00  0.00    -0.035 C 
ATOM     12  C   UNL     1       4.123  13.892  13.381  1.00  0.00     0.004 C 
ENDBRANCH  10  11
ENDBRANCH   9  10
ENDBRANCH   8   9
ENDBRANCH   7   8
ENDBRANCH   1   7
TORSDOF 9
ENDMDL
MODEL 7
REMARK VINA RESULT:    -3.367      1.346      4.453
REMARK INTER + INTRA:          -6.363
REMARK INTER:                  -5.272
REMARK INTRA:                  -1.091
REMARK UNBOUND:                -1.225
REMARK SMILES C=CCCCCCCCCCC
REMARK SMILES IDX 7 1 8 2 9 3 10 4 11 5 12 6 6 7 5 8 4 9 3 10 2 11 1 12
REMARK H PARENT
REMARK Flexibility Score: inf
ROOT
ATOM      1  C   UNL     1       1.562  17.784  16.494  1.00  0.00     0.000 C 
ENDROOT
BRANCH   1   2
ATOM      2  C   UNL     1       0.336  17.526  15.601  1.00  0.00    -0.000 C 
BRANCH   2   3
ATOM      3  C   UNL     1       0.624  17.798  14.114  1.00  0.00    -0.000 C 
BRANCH   3   4
ATOM      4  C   UNL     1       1.645  16.815  13.512  1.00  0.00    -0.000 C 
BRANCH   4   5
ATOM      5  C   UNL     1       1.337  15.328  13.760  1.00  0.00    -0.003 C 
ATOM      6  C   UNL     1       2.534  14.552  14.310  1.00  0.00     0.004 C 
ENDBRANCH   4   5
ENDBRANCH   3   4
ENDBRANCH   2   3
ENDBRANCH   1   2
BRANCH   1   7
ATOM      7  C   UNL     1       1.738  16.704  17.577  1.00  0.00     0.000 C 
BRANCH   7   8
ATOM      8  C   UNL     1       0.748  15.539  17.415  1.00  0.00     0.000 C 
BRANCH   8   9
ATOM      9  C   UNL     1       1.376  14.175  17.754  1.00  0.00     0.004 C 
BRANCH   9  10
ATOM     10  C   UNL     1       0.387  13.018  17.546  1.00  0.00     0.027 C 
BRANCH  10  11
ATOM     11  C   UNL     1       0.077  12.289  18.826  1.00  0.00    -0.035 C 
ATOM     12  C   UNL     1      -0.811  12.760  19.706  1.00  0.00     0.004 C 
ENDBRANCH  10  11
ENDBRANCH   9  10
ENDBRANCH   8   9
ENDBRANCH   7   8
ENDBRANCH   1   7
TORSDOF 9
ENDMDL
MODEL 8
REMARK VINA RESULT:    -3.354      0.912      1.183
REMARK INTER + INTRA:          -6.344
REMARK INTER:                  -5.287
REMARK INTRA:                  -1.057
REMARK UNBOUND:                -1.225
REMARK SMILES C=CCCCCCCCCCC
REMARK SMILES IDX 7 1 8 2 9 3 10 4 11 5 12 6 6 7 5 8 4 9 3 10 2 11 1 12
REMARK H PARENT
REMARK Flexibility Score: inf
ROOT
ATOM      1  C   UNL     1       1.880  14.334  17.430  1.00  0.00     0.000 C 
ENDROOT
BRANCH   1   2
ATOM      2  C   UNL     1       1.712  13.606  16.085  1.00  0.00    -0.000 C 
BRANCH   2   3
ATOM      3  C   UNL     1       2.894  13.848  15.132  1.00  0.00    -0.000 C 
BRANCH   3   4
ATOM      4  C   UNL     1       2.550  14.816  13.985  1.00  0.00    -0.000 C 
BRANCH   4   5
ATOM      5  C   UNL     1       3.535  14.796  12.802  1.00  0.00    -0.003 C 
ATOM      6  C   UNL     1       4.278  13.468  12.665  1.00  0.00     0.004 C 
ENDBRANCH   4   5
ENDBRANCH   3   4
ENDBRANCH   2   3
ENDBRANCH   1   2
BRANCH   1   7
ATOM      7  C   UNL     1       0.981  15.578  17.541  1.00  0.00     0.000 C 
BRANCH   7   8
ATOM      8  C   UNL     1       1.742  16.884  17.260  1.00  0.00     0.000 C 
BRANCH   8   9
ATOM      9  C   UNL     1       1.170  17.659  16.060  1.00  0.00     0.004 C 
BRANCH   9  10
ATOM     10  C   UNL     1      -0.109  17.009  15.510  1.00  0.00     0.027 C 
BRANCH  10  11
ATOM     11  C   UNL     1      -0.292  17.256  14.036  1.00  0.00    -0.035 C 
ATOM     12  C   UNL     1      -0.596  18.467  13.559  1.00  0.00     0.004 C 
ENDBRANCH  10  11
ENDBRANCH   9  10
ENDBRANCH   8   9
ENDBRANCH   7   8
ENDBRANCH   1   7
TORSDOF 9
ENDMDL
MODEL 9
REMARK VINA RESULT:    -3.306      1.133      3.702
REMARK INTER + INTRA:          -6.270
REMARK INTER:                  -5.148
REMARK INTRA:                  -1.123
REMARK UNBOUND:                -1.225
REMARK SMILES C=CCCCCCCCCCC
REMARK SMILES IDX 7 1 8 2 9 3 10 4 11 5 12 6 6 7 5 8 4 9 3 10 2 11 1 12
REMARK H PARENT
REMARK Flexibility Score: inf
ROOT
ATOM      1  C   UNL     1       1.877  16.873  17.516  1.00  0.00     0.000 C 
ENDROOT
BRANCH   1   2
ATOM      2  C   UNL     1       0.925  15.665  17.513  1.00  0.00    -0.000 C 
BRANCH   2   3
ATOM      3  C   UNL     1       1.666  14.331  17.703  1.00  0.00    -0.000 C 
BRANCH   3   4
ATOM      4  C   UNL     1       1.000  13.163  16.951  1.00  0.00    -0.000 C 
BRANCH   4   5
ATOM      5  C   UNL     1      -0.323  12.669  17.562  1.00  0.00    -0.003 C 
ATOM      6  C   UNL     1      -0.184  12.238  19.022  1.00  0.00     0.004 C 
ENDBRANCH   4   5
ENDBRANCH   3   4
ENDBRANCH   2   3
ENDBRANCH   1   2
BRANCH   1   7
ATOM      7  C   UNL     1       1.472  17.944  16.488  1.00  0.00     0.000 C 
BRANCH   7   8
ATOM      8  C   UNL     1       0.620  17.371  15.343  1.00  0.00     0.000 C 
BRANCH   8   9
ATOM      9  C   UNL     1       1.105  17.829  13.956  1.00  0.00     0.004 C 
BRANCH   9  10
ATOM     10  C   UNL     1       1.809  16.699  13.190  1.00  0.00     0.027 C 
BRANCH  10  11
ATOM     11  C   UNL     1       1.718  15.376  13.903  1.00  0.00    -0.035 C 
ATOM     12  C   UNL     1       2.777  14.571  14.030  1.00  0.00     0.004 C 
ENDBRANCH  10  11
ENDBRANCH   9  10
ENDBRANCH   8   9
ENDBRANCH   7   8
ENDBRANCH   1   7
TORSDOF 9
ENDMDL
