MODEL 1
REMARK VINA RESULT:    -4.186      0.000      0.000
REMARK INTER + INTRA:         -14.849
REMARK INTER:                 -11.037
REMARK INTRA:                  -3.812
REMARK UNBOUND:                -3.812
REMARK SMILES CCCCCCCCCCCCCCCCCCCCCCCCCCCCCC(=O)[O-]
REMARK SMILES IDX 16 1 17 2 18 3 19 4 20 5 21 6 22 7 23 8 24 9 25 10 26 11
REMARK SMILES IDX 27 12 28 13 29 14 30 15 31 16 32 17 15 18 14 19 13 20 12 21
REMARK SMILES IDX 11 22 10 23 9 24 8 25 7 26 6 27 5 28 4 29 3 30 2 31 1 32
REMARK H PARENT
REMARK Flexibility Score: inf
ROOT
ATOM      1  C   UNL     1      -5.700  -0.203   0.786  1.00  0.00     0.000 C 
ENDROOT
BRANCH   1   2
ATOM      2  C   UNL     1      -6.663   0.660  -0.049  1.00  0.00     0.000 C 
BRANCH   2   3
ATOM      3  C   UNL     1      -7.321   1.777   0.775  1.00  0.00     0.000 C 
BRANCH   3   4
ATOM      4  C   UNL     1      -7.409   1.436   2.273  1.00  0.00     0.000 C 
BRANCH   4   5
ATOM      5  C   UNL     1      -6.736   2.493   3.164  1.00  0.00     0.000 C 
BRANCH   5   6
ATOM      6  C   UNL     1      -6.052   3.604   2.349  1.00  0.00     0.000 C 
BRANCH   6   7
ATOM      7  C   UNL     1      -4.551   3.743   2.664  1.00  0.00     0.000 C 
BRANCH   7   8
ATOM      8  C   UNL     1      -3.638   3.979   1.444  1.00  0.00     0.000 C 
BRANCH   8   9
ATOM      9  C   UNL     1      -3.225   2.709   0.678  1.00  0.00     0.000 C 
BRANCH   9  10
ATOM     10  C   UNL     1      -3.430   2.830  -0.839  1.00  0.00     0.000 C 
BRANCH  10  11
ATOM     11  C   UNL     1      -4.858   3.289  -1.162  1.00  0.00     0.000 C 
BRANCH  11  12
ATOM     12  C   UNL     1      -4.857   4.372  -2.249  1.00  0.00     0.000 C 
BRANCH  12  13
ATOM     13  C   UNL     1      -3.460   4.956  -2.519  1.00  0.00     0.006 C 
BRANCH  13  14
ATOM     14  C   UNL     1      -3.095   5.040  -4.013  1.00  0.00     0.053 C 
BRANCH  14  15
ATOM     15  C   UNL     1      -2.116   3.983  -4.426  1.00  0.00     0.041 C 
ATOM     16  O   UNL     1      -2.110   3.553  -5.609  1.00  0.00    -0.550 OA
ATOM     17  O   UNL     1      -1.235   3.443  -3.497  1.00  0.00    -0.550 OA
ENDBRANCH  14  15
ENDBRANCH  13  14
ENDBRANCH  12  13
ENDBRANCH  11  12
ENDBRANCH  10  11
ENDBRANCH   9  10
ENDBRANCH   8   9
ENDBRANCH   7   8
ENDBRANCH   6   7
ENDBRANCH   5   6
ENDBRANCH   4   5
ENDBRANCH   3   4
ENDBRANCH   2   3
ENDBRANCH   1   2
BRANCH   1  18
ATOM     18  C   UNL     1      -5.798  -1.700   0.453  1.00  0.00     0.000 C 
BRANCH  18  19
ATOM     19  C   UNL     1      -7.247  -2.214   0.446  1.00  0.00     0.000 C 
BRANCH  19  20
ATOM     20  C   UNL     1      -7.857  -2.295   1.858  1.00  0.00     0.000 C 
BRANCH  20  21
ATOM     21  C   UNL     1      -7.788  -3.684   2.529  1.00  0.00     0.000 C 
BRANCH  21  22
ATOM     22  C   UNL     1      -7.049  -3.724   3.878  1.00  0.00     0.000 C 
BRANCH  22  23
ATOM     23  C   UNL     1      -6.628  -5.143   4.284  1.00  0.00     0.000 C 
BRANCH  23  24
ATOM     24  C   UNL     1      -5.273  -5.130   5.007  1.00  0.00    -0.000 C 
BRANCH  24  25
ATOM     25  C   UNL     1      -4.331  -4.034   4.471  1.00  0.00    -0.000 C 
BRANCH  25  26
ATOM     26  C   UNL     1      -2.844  -4.431   4.471  1.00  0.00    -0.000 C 
BRANCH  26  27
ATOM     27  C   UNL     1      -2.112  -4.023   5.761  1.00  0.00    -0.000 C 
BRANCH  27  28
ATOM     28  C   UNL     1      -2.769  -2.817   6.454  1.00  0.00    -0.000 C 
BRANCH  28  29
ATOM     29  C   UNL     1      -2.952  -3.039   7.964  1.00  0.00    -0.000 C 
BRANCH  29  30
ATOM     30  C   UNL     1      -4.207  -2.319   8.480  1.00  0.00    -0.000 C 
BRANCH  30  31
ATOM     31  C   UNL     1      -5.505  -3.033   8.071  1.00  0.00    -0.003 C 
ATOM     32  C   UNL     1      -6.445  -2.136   7.266  1.00  0.00     0.004 C 
ENDBRANCH  30  31
ENDBRANCH  29  30
ENDBRANCH  28  29
ENDBRANCH  27  28
ENDBRANCH  26  27
ENDBRANCH  25  26
ENDBRANCH  24  25
ENDBRANCH  23  24
ENDBRANCH  22  23
ENDBRANCH  21  22
ENDBRANCH  20  21
ENDBRANCH  19  20
ENDBRANCH  18  19
ENDBRANCH   1  18
TORSDOF 28
ENDMDL
MODEL 2
REMARK VINA RESULT:    -3.905      2.271      2.881
REMARK INTER + INTRA:         -14.108
REMARK INTER:                 -10.014
REMARK INTRA:                  -4.094
REMARK UNBOUND:                -3.812
REMARK SMILES CCCCCCCCCCCCCCCCCCCCCCCCCCCCCC(=O)[O-]
REMARK SMILES IDX 16 1 17 2 18 3 19 4 20 5 21 6 22 7 23 8 24 9 25 10 26 11
REMARK SMILES IDX 27 12 28 13 29 14 30 15 31 16 32 17 15 18 14 19 13 20 12 21
REMARK SMILES IDX 11 22 10 23 9 24 8 25 7 26 6 27 5 28 4 29 3 30 2 31 1 32
REMARK H PARENT
REMARK Flexibility Score: inf
ROOT
ATOM      1  C   UNL     1      -5.495  -1.772   0.876  1.00  0.00     0.000 C 
ENDROOT
BRANCH   1   2
ATOM      2  C   UNL     1      -5.199  -0.274   0.687  1.00  0.00     0.000 C 
BRANCH   2   3
ATOM      3  C   UNL     1      -6.477   0.574   0.601  1.00  0.00     0.000 C 
BRANCH   3   4
ATOM      4  C   UNL     1      -6.723   1.409   1.869  1.00  0.00     0.000 C 
BRANCH   4   5
ATOM      5  C   UNL     1      -7.264   2.815   1.560  1.00  0.00     0.000 C 
BRANCH   5   6
ATOM      6  C   UNL     1      -6.280   3.927   1.958  1.00  0.00     0.000 C 
BRANCH   6   7
ATOM      7  C   UNL     1      -4.928   3.384   2.455  1.00  0.00     0.000 C 
BRANCH   7   8
ATOM      8  C   UNL     1      -3.694   3.847   1.654  1.00  0.00     0.000 C 
BRANCH   8   9
ATOM      9  C   UNL     1      -3.081   2.786   0.722  1.00  0.00     0.000 C 
BRANCH   9  10
ATOM     10  C   UNL     1      -3.810   2.679  -0.625  1.00  0.00     0.000 C 
BRANCH  10  11
ATOM     11  C   UNL     1      -3.822   4.031  -1.348  1.00  0.00     0.000 C 
BRANCH  11  12
ATOM     12  C   UNL     1      -5.258   4.499  -1.621  1.00  0.00     0.000 C 
BRANCH  12  13
ATOM     13  C   UNL     1      -6.260   3.338  -1.736  1.00  0.00     0.006 C 
BRANCH  13  14
ATOM     14  C   UNL     1      -7.550   3.697  -2.498  1.00  0.00     0.053 C 
BRANCH  14  15
ATOM     15  C   UNL     1      -8.185   4.956  -1.990  1.00  0.00     0.041 C 
ATOM     16  O   UNL     1      -8.728   4.978  -0.855  1.00  0.00    -0.550 OA
ATOM     17  O   UNL     1      -8.212   6.096  -2.784  1.00  0.00    -0.550 OA
ENDBRANCH  14  15
ENDBRANCH  13  14
ENDBRANCH  12  13
ENDBRANCH  11  12
ENDBRANCH  10  11
ENDBRANCH   9  10
ENDBRANCH   8   9
ENDBRANCH   7   8
ENDBRANCH   6   7
ENDBRANCH   5   6
ENDBRANCH   4   5
ENDBRANCH   3   4
ENDBRANCH   2   3
ENDBRANCH   1   2
BRANCH   1  18
ATOM     18  C   UNL     1      -6.810  -2.211   0.211  1.00  0.00     0.000 C 
BRANCH  18  19
ATOM     19  C   UNL     1      -7.868  -2.664   1.230  1.00  0.00     0.000 C 
BRANCH  19  20
ATOM     20  C   UNL     1      -7.362  -2.596   2.683  1.00  0.00     0.000 C 
BRANCH  20  21
ATOM     21  C   UNL     1      -7.138  -3.962   3.369  1.00  0.00     0.000 C 
BRANCH  21  22
ATOM     22  C   UNL     1      -6.688  -3.890   4.839  1.00  0.00     0.000 C 
BRANCH  22  23
ATOM     23  C   UNL     1      -5.305  -4.516   5.068  1.00  0.00     0.000 C 
BRANCH  23  24
ATOM     24  C   UNL     1      -4.228  -3.790   4.248  1.00  0.00    -0.000 C 
BRANCH  24  25
ATOM     25  C   UNL     1      -2.824  -3.925   4.873  1.00  0.00    -0.000 C 
BRANCH  25  26
ATOM     26  C   UNL     1      -2.827  -4.501   6.299  1.00  0.00    -0.000 C 
BRANCH  26  27
ATOM     27  C   UNL     1      -2.426  -3.469   7.367  1.00  0.00    -0.000 C 
BRANCH  27  28
ATOM     28  C   UNL     1      -3.349  -2.239   7.372  1.00  0.00    -0.000 C 
BRANCH  28  29
ATOM     29  C   UNL     1      -4.607  -2.455   8.228  1.00  0.00    -0.000 C 
BRANCH  29  30
ATOM     30  C   UNL     1      -5.812  -1.705   7.640  1.00  0.00    -0.000 C 
BRANCH  30  31
ATOM     31  C   UNL     1      -6.247  -0.516   8.512  1.00  0.00    -0.003 C 
ATOM     32  C   UNL     1      -5.069   0.190   9.183  1.00  0.00     0.004 C 
ENDBRANCH  30  31
ENDBRANCH  29  30
ENDBRANCH  28  29
ENDBRANCH  27  28
ENDBRANCH  26  27
ENDBRANCH  25  26
ENDBRANCH  24  25
ENDBRANCH  23  24
ENDBRANCH  22  23
ENDBRANCH  21  22
ENDBRANCH  20  21
ENDBRANCH  19  20
ENDBRANCH  18  19
ENDBRANCH   1  18
TORSDOF 28
ENDMDL
MODEL 3
REMARK VINA RESULT:    -3.887      3.139      4.909
REMARK INTER + INTRA:         -14.062
REMARK INTER:                  -9.267
REMARK INTRA:                  -4.794
REMARK UNBOUND:                -3.812
REMARK SMILES CCCCCCCCCCCCCCCCCCCCCCCCCCCCCC(=O)[O-]
REMARK SMILES IDX 16 1 17 2 18 3 19 4 20 5 21 6 22 7 23 8 24 9 25 10 26 11
REMARK SMILES IDX 27 12 28 13 29 14 30 15 31 16 32 17 15 18 14 19 13 20 12 21
REMARK SMILES IDX 11 22 10 23 9 24 8 25 7 26 6 27 5 28 4 29 3 30 2 31 1 32
REMARK H PARENT
REMARK Flexibility Score: inf
ROOT
ATOM      1  C   UNL     1      -5.676  -2.105   0.607  1.00  0.00     0.000 C 
ENDROOT
BRANCH   1   2
ATOM      2  C   UNL     1      -5.446  -0.589   0.481  1.00  0.00     0.000 C 
BRANCH   2   3
ATOM      3  C   UNL     1      -6.470   0.232   1.280  1.00  0.00     0.000 C 
BRANCH   3   4
ATOM      4  C   UNL     1      -7.277   1.199   0.396  1.00  0.00     0.000 C 
BRANCH   4   5
ATOM      5  C   UNL     1      -6.479   1.697  -0.821  1.00  0.00     0.000 C 
BRANCH   5   6
ATOM      6  C   UNL     1      -5.870   3.091  -0.598  1.00  0.00     0.000 C 
BRANCH   6   7
ATOM      7  C   UNL     1      -4.413   3.194  -1.085  1.00  0.00     0.000 C 
BRANCH   7   8
ATOM      8  C   UNL     1      -3.376   2.437  -0.232  1.00  0.00     0.000 C 
BRANCH   8   9
ATOM      9  C   UNL     1      -3.130   3.018   1.172  1.00  0.00     0.000 C 
BRANCH   9  10
ATOM     10  C   UNL     1      -3.392   4.529   1.250  1.00  0.00     0.000 C 
BRANCH  10  11
ATOM     11  C   UNL     1      -4.390   4.853   2.369  1.00  0.00     0.000 C 
BRANCH  11  12
ATOM     12  C   UNL     1      -4.933   3.570   3.013  1.00  0.00     0.000 C 
BRANCH  12  13
ATOM     13  C   UNL     1      -6.470   3.512   3.043  1.00  0.00     0.006 C 
BRANCH  13  14
ATOM     14  C   UNL     1      -7.056   3.111   4.410  1.00  0.00     0.053 C 
BRANCH  14  15
ATOM     15  C   UNL     1      -8.368   2.397   4.285  1.00  0.00     0.041 C 
ATOM     16  O   UNL     1      -8.402   1.197   3.906  1.00  0.00    -0.550 OA
ATOM     17  O   UNL     1      -9.556   3.066   4.551  1.00  0.00    -0.550 OA
ENDBRANCH  14  15
ENDBRANCH  13  14
ENDBRANCH  12  13
ENDBRANCH  11  12
ENDBRANCH  10  11
ENDBRANCH   9  10
ENDBRANCH   8   9
ENDBRANCH   7   8
ENDBRANCH   6   7
ENDBRANCH   5   6
ENDBRANCH   4   5
ENDBRANCH   3   4
ENDBRANCH   2   3
ENDBRANCH   1   2
BRANCH   1  18
ATOM     18  C   UNL     1      -6.033  -2.769  -0.733  1.00  0.00     0.000 C 
BRANCH  18  19
ATOM     19  C   UNL     1      -7.483  -3.279  -0.775  1.00  0.00     0.000 C 
BRANCH  19  20
ATOM     20  C   UNL     1      -8.505  -2.147  -0.997  1.00  0.00     0.000 C 
BRANCH  20  21
ATOM     21  C   UNL     1      -9.445  -1.863   0.195  1.00  0.00     0.000 C 
BRANCH  21  22
ATOM     22  C   UNL     1      -9.508  -2.976   1.257  1.00  0.00     0.000 C 
BRANCH  22  23
ATOM     23  C   UNL     1      -8.914  -2.544   2.605  1.00  0.00     0.000 C 
BRANCH  23  24
ATOM     24  C   UNL     1      -7.817  -3.517   3.062  1.00  0.00    -0.000 C 
BRANCH  24  25
ATOM     25  C   UNL     1      -7.116  -3.049   4.353  1.00  0.00    -0.000 C 
BRANCH  25  26
ATOM     26  C   UNL     1      -6.469  -4.187   5.161  1.00  0.00    -0.000 C 
BRANCH  26  27
ATOM     27  C   UNL     1      -5.191  -4.738   4.508  1.00  0.00    -0.000 C 
BRANCH  27  28
ATOM     28  C   UNL     1      -4.248  -3.622   4.025  1.00  0.00    -0.000 C 
BRANCH  28  29
ATOM     29  C   UNL     1      -2.909  -3.620   4.781  1.00  0.00    -0.000 C 
BRANCH  29  30
ATOM     30  C   UNL     1      -3.124  -3.832   6.286  1.00  0.00    -0.000 C 
BRANCH  30  31
ATOM     31  C   UNL     1      -2.931  -2.540   7.097  1.00  0.00    -0.003 C 
ATOM     32  C   UNL     1      -4.205  -2.093   7.812  1.00  0.00     0.004 C 
ENDBRANCH  30  31
ENDBRANCH  29  30
ENDBRANCH  28  29
ENDBRANCH  27  28
ENDBRANCH  26  27
ENDBRANCH  25  26
ENDBRANCH  24  25
ENDBRANCH  23  24
ENDBRANCH  22  23
ENDBRANCH  21  22
ENDBRANCH  20  21
ENDBRANCH  19  20
ENDBRANCH  18  19
ENDBRANCH   1  18
TORSDOF 28
ENDMDL
MODEL 4
REMARK VINA RESULT:    -3.879      1.463      3.886
REMARK INTER + INTRA:         -14.041
REMARK INTER:                 -10.146
REMARK INTRA:                  -3.896
REMARK UNBOUND:                -3.812
REMARK SMILES CCCCCCCCCCCCCCCCCCCCCCCCCCCCCC(=O)[O-]
REMARK SMILES IDX 16 1 17 2 18 3 19 4 20 5 21 6 22 7 23 8 24 9 25 10 26 11
REMARK SMILES IDX 27 12 28 13 29 14 30 15 31 16 32 17 15 18 14 19 13 20 12 21
REMARK SMILES IDX 11 22 10 23 9 24 8 25 7 26 6 27 5 28 4 29 3 30 2 31 1 32
REMARK H PARENT
REMARK Flexibility Score: inf
ROOT
ATOM      1  C   UNL     1      -7.213   3.573   1.527  1.00  0.00     0.000 C 
ENDROOT
BRANCH   1   2
ATOM      2  C   UNL     1      -6.849   4.837   2.326  1.00  0.00     0.000 C 
BRANCH   2   3
ATOM      3  C   UNL     1      -5.818   5.716   1.603  1.00  0.00     0.000 C 
BRANCH   3   4
ATOM      4  C   UNL     1      -4.409   5.600   2.209  1.00  0.00     0.000 C 
BRANCH   4   5
ATOM      5  C   UNL     1      -3.403   4.940   1.252  1.00  0.00     0.000 C 
BRANCH   5   6
ATOM      6  C   UNL     1      -3.263   3.427   1.493  1.00  0.00     0.000 C 
BRANCH   6   7
ATOM      7  C   UNL     1      -3.318   2.604   0.193  1.00  0.00     0.000 C 
BRANCH   7   8
ATOM      8  C   UNL     1      -3.659   3.403  -1.081  1.00  0.00     0.000 C 
BRANCH   8   9
ATOM      9  C   UNL     1      -5.150   3.431  -1.460  1.00  0.00     0.000 C 
BRANCH   9  10
ATOM     10  C   UNL     1      -5.614   4.804  -1.967  1.00  0.00     0.000 C 
BRANCH  10  11
ATOM     11  C   UNL     1      -6.264   4.683  -3.352  1.00  0.00     0.000 C 
BRANCH  11  12
ATOM     12  C   UNL     1      -5.268   5.039  -4.463  1.00  0.00     0.000 C 
BRANCH  12  13
ATOM     13  C   UNL     1      -4.004   5.742  -3.939  1.00  0.00     0.006 C 
BRANCH  13  14
ATOM     14  C   UNL     1      -2.773   5.579  -4.850  1.00  0.00     0.053 C 
BRANCH  14  15
ATOM     15  C   UNL     1      -2.321   4.153  -4.954  1.00  0.00     0.041 C 
ATOM     16  O   UNL     1      -1.632   3.639  -4.034  1.00  0.00    -0.550 OA
ATOM     17  O   UNL     1      -2.626   3.403  -6.083  1.00  0.00    -0.550 OA
ENDBRANCH  14  15
ENDBRANCH  13  14
ENDBRANCH  12  13
ENDBRANCH  11  12
ENDBRANCH  10  11
ENDBRANCH   9  10
ENDBRANCH   8   9
ENDBRANCH   7   8
ENDBRANCH   6   7
ENDBRANCH   5   6
ENDBRANCH   4   5
ENDBRANCH   3   4
ENDBRANCH   2   3
ENDBRANCH   1   2
BRANCH   1  18
ATOM     18  C   UNL     1      -6.724   2.280   2.199  1.00  0.00     0.000 C 
BRANCH  18  19
ATOM     19  C   UNL     1      -7.294   1.014   1.538  1.00  0.00     0.000 C 
BRANCH  19  20
ATOM     20  C   UNL     1      -6.461   0.549   0.328  1.00  0.00     0.000 C 
BRANCH  20  21
ATOM     21  C   UNL     1      -5.214  -0.296   0.671  1.00  0.00     0.000 C 
BRANCH  21  22
ATOM     22  C   UNL     1      -5.493  -1.779   0.977  1.00  0.00     0.000 C 
BRANCH  22  23
ATOM     23  C   UNL     1      -6.687  -2.334   0.188  1.00  0.00     0.000 C 
BRANCH  23  24
ATOM     24  C   UNL     1      -7.732  -2.950   1.130  1.00  0.00    -0.000 C 
BRANCH  24  25
ATOM     25  C   UNL     1      -7.581  -2.452   2.581  1.00  0.00    -0.000 C 
BRANCH  25  26
ATOM     26  C   UNL     1      -7.953  -3.500   3.644  1.00  0.00    -0.000 C 
BRANCH  26  27
ATOM     27  C   UNL     1      -6.851  -4.551   3.865  1.00  0.00    -0.000 C 
BRANCH  27  28
ATOM     28  C   UNL     1      -5.734  -4.045   4.794  1.00  0.00    -0.000 C 
BRANCH  28  29
ATOM     29  C   UNL     1      -4.356  -4.607   4.410  1.00  0.00    -0.000 C 
BRANCH  29  30
ATOM     30  C   UNL     1      -3.253  -3.559   4.622  1.00  0.00    -0.000 C 
BRANCH  30  31
ATOM     31  C   UNL     1      -2.220  -3.996   5.673  1.00  0.00    -0.003 C 
ATOM     32  C   UNL     1      -1.455  -5.254   5.264  1.00  0.00     0.004 C 
ENDBRANCH  30  31
ENDBRANCH  29  30
ENDBRANCH  28  29
ENDBRANCH  27  28
ENDBRANCH  26  27
ENDBRANCH  25  26
ENDBRANCH  24  25
ENDBRANCH  23  24
ENDBRANCH  22  23
ENDBRANCH  21  22
ENDBRANCH  20  21
ENDBRANCH  19  20
ENDBRANCH  18  19
ENDBRANCH   1  18
TORSDOF 28
ENDMDL
MODEL 5
REMARK VINA RESULT:    -3.868      4.470      7.385
REMARK INTER + INTRA:         -14.012
REMARK INTER:                  -9.568
REMARK INTRA:                  -4.444
REMARK UNBOUND:                -3.812
REMARK SMILES CCCCCCCCCCCCCCCCCCCCCCCCCCCCCC(=O)[O-]
REMARK SMILES IDX 16 1 17 2 18 3 19 4 20 5 21 6 22 7 23 8 24 9 25 10 26 11
REMARK SMILES IDX 27 12 28 13 29 14 30 15 31 16 32 17 15 18 14 19 13 20 12 21
REMARK SMILES IDX 11 22 10 23 9 24 8 25 7 26 6 27 5 28 4 29 3 30 2 31 1 32
REMARK H PARENT
REMARK Flexibility Score: inf
ROOT
ATOM      1  C   UNL     1      -6.533   2.879   1.938  1.00  0.00     0.000 C 
ENDROOT
BRANCH   1   2
ATOM      2  C   UNL     1      -5.146   3.027   2.588  1.00  0.00     0.000 C 
BRANCH   2   3
ATOM      3  C   UNL     1      -4.172   3.840   1.722  1.00  0.00     0.000 C 
BRANCH   3   4
ATOM      4  C   UNL     1      -3.075   2.969   1.085  1.00  0.00     0.000 C 
BRANCH   4   5
ATOM      5  C   UNL     1      -3.276   2.772  -0.427  1.00  0.00     0.000 C 
BRANCH   5   6
ATOM      6  C   UNL     1      -4.020   3.948  -1.082  1.00  0.00     0.000 C 
BRANCH   6   7
ATOM      7  C   UNL     1      -5.399   3.549  -1.640  1.00  0.00     0.000 C 
BRANCH   7   8
ATOM      8  C   UNL     1      -6.547   4.531  -1.327  1.00  0.00     0.000 C 
BRANCH   8   9
ATOM      9  C   UNL     1      -6.338   5.968  -1.835  1.00  0.00     0.000 C 
BRANCH   9  10
ATOM     10  C   UNL     1      -6.621   7.030  -0.763  1.00  0.00     0.000 C 
BRANCH  10  11
ATOM     11  C   UNL     1      -6.015   6.620   0.585  1.00  0.00     0.000 C 
BRANCH  11  12
ATOM     12  C   UNL     1      -7.022   6.816   1.727  1.00  0.00     0.000 C 
BRANCH  12  13
ATOM     13  C   UNL     1      -6.352   7.097   3.083  1.00  0.00     0.006 C 
BRANCH  13  14
ATOM     14  C   UNL     1      -6.551   5.979   4.123  1.00  0.00     0.053 C 
BRANCH  14  15
ATOM     15  C   UNL     1      -5.370   5.825   5.033  1.00  0.00     0.041 C 
ATOM     16  O   UNL     1      -5.541   5.563   6.253  1.00  0.00    -0.550 OA
ATOM     17  O   UNL     1      -4.082   6.008   4.546  1.00  0.00    -0.550 OA
ENDBRANCH  14  15
ENDBRANCH  13  14
ENDBRANCH  12  13
ENDBRANCH  11  12
ENDBRANCH  10  11
ENDBRANCH   9  10
ENDBRANCH   8   9
ENDBRANCH   7   8
ENDBRANCH   6   7
ENDBRANCH   5   6
ENDBRANCH   4   5
ENDBRANCH   3   4
ENDBRANCH   2   3
ENDBRANCH   1   2
BRANCH   1  18
ATOM     18  C   UNL     1      -6.934   1.414   1.710  1.00  0.00     0.000 C 
BRANCH  18  19
ATOM     19  C   UNL     1      -6.360   0.837   0.406  1.00  0.00     0.000 C 
BRANCH  19  20
ATOM     20  C   UNL     1      -5.145  -0.080   0.646  1.00  0.00     0.000 C 
BRANCH  20  21
ATOM     21  C   UNL     1      -5.482  -1.544   1.003  1.00  0.00     0.000 C 
BRANCH  21  22
ATOM     22  C   UNL     1      -6.243  -2.324  -0.085  1.00  0.00     0.000 C 
BRANCH  22  23
ATOM     23  C   UNL     1      -7.691  -2.640   0.314  1.00  0.00     0.000 C 
BRANCH  23  24
ATOM     24  C   UNL     1      -8.687  -1.889  -0.583  1.00  0.00    -0.000 C 
BRANCH  24  25
ATOM     25  C   UNL     1      -9.056  -2.689  -1.848  1.00  0.00    -0.000 C 
BRANCH  25  26
ATOM     26  C   UNL     1      -9.066  -4.214  -1.644  1.00  0.00    -0.000 C 
BRANCH  26  27
ATOM     27  C   UNL     1      -8.230  -4.968  -2.692  1.00  0.00    -0.000 C 
BRANCH  27  28
ATOM     28  C   UNL     1      -7.045  -4.135  -3.210  1.00  0.00    -0.000 C 
BRANCH  28  29
ATOM     29  C   UNL     1      -5.694  -4.658  -2.697  1.00  0.00    -0.000 C 
BRANCH  29  30
ATOM     30  C   UNL     1      -5.771  -6.155  -2.365  1.00  0.00    -0.000 C 
BRANCH  30  31
ATOM     31  C   UNL     1      -4.887  -7.010  -3.287  1.00  0.00    -0.003 C 
ATOM     32  C   UNL     1      -3.784  -7.750  -2.531  1.00  0.00     0.004 C 
ENDBRANCH  30  31
ENDBRANCH  29  30
ENDBRANCH  28  29
ENDBRANCH  27  28
ENDBRANCH  26  27
ENDBRANCH  25  26
ENDBRANCH  24  25
ENDBRANCH  23  24
ENDBRANCH  22  23
ENDBRANCH  21  22
ENDBRANCH  20  21
ENDBRANCH  19  20
ENDBRANCH  18  19
ENDBRANCH   1  18
TORSDOF 28
ENDMDL
MODEL 6
REMARK VINA RESULT:    -3.848      4.748      7.144
REMARK INTER + INTRA:         -13.958
REMARK INTER:                 -12.339
REMARK INTRA:                  -1.619
REMARK UNBOUND:                -3.812
REMARK SMILES CCCCCCCCCCCCCCCCCCCCCCCCCCCCCC(=O)[O-]
REMARK SMILES IDX 16 1 17 2 18 3 19 4 20 5 21 6 22 7 23 8 24 9 25 10 26 11
REMARK SMILES IDX 27 12 28 13 29 14 30 15 31 16 32 17 15 18 14 19 13 20 12 21
REMARK SMILES IDX 11 22 10 23 9 24 8 25 7 26 6 27 5 28 4 29 3 30 2 31 1 32
REMARK H PARENT
REMARK Flexibility Score: inf
ROOT
ATOM      1  C   UNL     1      -3.926  -7.587  -2.915  1.00  0.00     0.000 C 
ENDROOT
BRANCH   1   2
ATOM      2  C   UNL     1      -5.125  -7.704  -3.873  1.00  0.00     0.000 C 
BRANCH   2   3
ATOM      3  C   UNL     1      -6.190  -6.627  -3.620  1.00  0.00     0.000 C 
BRANCH   3   4
ATOM      4  C   UNL     1      -5.920  -5.812  -2.343  1.00  0.00     0.000 C 
BRANCH   4   5
ATOM      5  C   UNL     1      -6.032  -4.295  -2.571  1.00  0.00     0.000 C 
BRANCH   5   6
ATOM      6  C   UNL     1      -7.440  -3.755  -2.269  1.00  0.00     0.000 C 
BRANCH   6   7
ATOM      7  C   UNL     1      -7.576  -3.200  -0.840  1.00  0.00     0.000 C 
BRANCH   7   8
ATOM      8  C   UNL     1      -8.260  -1.822  -0.728  1.00  0.00     0.000 C 
BRANCH   8   9
ATOM      9  C   UNL     1      -7.447  -0.744   0.010  1.00  0.00     0.000 C 
BRANCH   9  10
ATOM     10  C   UNL     1      -6.152  -1.290   0.630  1.00  0.00     0.000 C 
BRANCH  10  11
ATOM     11  C   UNL     1      -5.094  -0.184   0.745  1.00  0.00     0.000 C 
BRANCH  11  12
ATOM     12  C   UNL     1      -5.562   1.102   0.049  1.00  0.00     0.000 C 
BRANCH  12  13
ATOM     13  C   UNL     1      -4.838   2.361   0.556  1.00  0.00     0.006 C 
BRANCH  13  14
ATOM     14  C   UNL     1      -5.024   2.626   2.062  1.00  0.00     0.053 C 
BRANCH  14  15
ATOM     15  C   UNL     1      -4.311   3.862   2.520  1.00  0.00     0.041 C 
ATOM     16  O   UNL     1      -3.305   4.283   1.890  1.00  0.00    -0.550 OA
ATOM     17  O   UNL     1      -4.731   4.529   3.664  1.00  0.00    -0.550 OA
ENDBRANCH  14  15
ENDBRANCH  13  14
ENDBRANCH  12  13
ENDBRANCH  11  12
ENDBRANCH  10  11
ENDBRANCH   9  10
ENDBRANCH   8   9
ENDBRANCH   7   8
ENDBRANCH   6   7
ENDBRANCH   5   6
ENDBRANCH   4   5
ENDBRANCH   3   4
ENDBRANCH   2   3
ENDBRANCH   1   2
BRANCH   1  18
ATOM     18  C   UNL     1      -3.891  -8.704  -1.861  1.00  0.00     0.000 C 
BRANCH  18  19
ATOM     19  C   UNL     1      -2.471  -8.989  -1.344  1.00  0.00     0.000 C 
BRANCH  19  20
ATOM     20  C   UNL     1      -1.376  -8.443  -2.281  1.00  0.00     0.000 C 
BRANCH  20  21
ATOM     21  C   UNL     1       0.072  -8.609  -1.771  1.00  0.00     0.000 C 
BRANCH  21  22
ATOM     22  C   UNL     1       0.605  -7.439  -0.924  1.00  0.00     0.000 C 
BRANCH  22  23
ATOM     23  C   UNL     1       0.776  -7.806   0.556  1.00  0.00     0.000 C 
BRANCH  23  24
ATOM     24  C   UNL     1       1.425  -6.655   1.339  1.00  0.00    -0.000 C 
BRANCH  24  25
ATOM     25  C   UNL     1       1.478  -6.933   2.855  1.00  0.00    -0.000 C 
BRANCH  25  26
ATOM     26  C   UNL     1       0.801  -5.850   3.713  1.00  0.00    -0.000 C 
BRANCH  26  27
ATOM     27  C   UNL     1      -0.619  -6.235   4.159  1.00  0.00    -0.000 C 
BRANCH  27  28
ATOM     28  C   UNL     1      -1.295  -5.132   4.991  1.00  0.00    -0.000 C 
BRANCH  28  29
ATOM     29  C   UNL     1      -2.700  -4.787   4.474  1.00  0.00    -0.000 C 
BRANCH  29  30
ATOM     30  C   UNL     1      -3.227  -3.498   5.122  1.00  0.00    -0.000 C 
BRANCH  30  31
ATOM     31  C   UNL     1      -2.606  -3.237   6.503  1.00  0.00    -0.003 C 
ATOM     32  C   UNL     1      -3.514  -2.409   7.413  1.00  0.00     0.004 C 
ENDBRANCH  30  31
ENDBRANCH  29  30
ENDBRANCH  28  29
ENDBRANCH  27  28
ENDBRANCH  26  27
ENDBRANCH  25  26
ENDBRANCH  24  25
ENDBRANCH  23  24
ENDBRANCH  22  23
ENDBRANCH  21  22
ENDBRANCH  20  21
ENDBRANCH  19  20
ENDBRANCH  18  19
ENDBRANCH   1  18
TORSDOF 28
ENDMDL
MODEL 7
REMARK VINA RESULT:    -3.814      5.074      9.131
REMARK INTER + INTRA:         -13.870
REMARK INTER:                  -8.545
REMARK INTRA:                  -5.325
REMARK UNBOUND:                -3.812
REMARK SMILES CCCCCCCCCCCCCCCCCCCCCCCCCCCCCC(=O)[O-]
REMARK SMILES IDX 16 1 17 2 18 3 19 4 20 5 21 6 22 7 23 8 24 9 25 10 26 11
REMARK SMILES IDX 27 12 28 13 29 14 30 15 31 16 32 17 15 18 14 19 13 20 12 21
REMARK SMILES IDX 11 22 10 23 9 24 8 25 7 26 6 27 5 28 4 29 3 30 2 31 1 32
REMARK H PARENT
REMARK Flexibility Score: inf
ROOT
ATOM      1  C   UNL     1      -5.094   0.612   0.470  1.00  0.00     0.000 C 
ENDROOT
BRANCH   1   2
ATOM      2  C   UNL     1      -5.278   1.863  -0.407  1.00  0.00     0.000 C 
BRANCH   2   3
ATOM      3  C   UNL     1      -3.973   2.653  -0.591  1.00  0.00     0.000 C 
BRANCH   3   4
ATOM      4  C   UNL     1      -3.130   2.714   0.694  1.00  0.00     0.000 C 
BRANCH   4   5
ATOM      5  C   UNL     1      -3.384   3.990   1.512  1.00  0.00     0.000 C 
BRANCH   5   6
ATOM      6  C   UNL     1      -3.713   5.204   0.627  1.00  0.00     0.000 C 
BRANCH   6   7
ATOM      7  C   UNL     1      -5.001   5.929   1.056  1.00  0.00     0.000 C 
BRANCH   7   8
ATOM      8  C   UNL     1      -6.314   5.307   0.538  1.00  0.00     0.000 C 
BRANCH   8   9
ATOM      9  C   UNL     1      -7.577   5.685   1.331  1.00  0.00     0.000 C 
BRANCH   9  10
ATOM     10  C   UNL     1      -7.871   4.719   2.487  1.00  0.00     0.000 C 
BRANCH  10  11
ATOM     11  C   UNL     1      -6.961   3.486   2.412  1.00  0.00     0.000 C 
BRANCH  11  12
ATOM     12  C   UNL     1      -6.268   3.228   3.757  1.00  0.00     0.000 C 
BRANCH  12  13
ATOM     13  C   UNL     1      -6.087   4.503   4.598  1.00  0.00     0.006 C 
BRANCH  13  14
ATOM     14  C   UNL     1      -4.620   4.939   4.766  1.00  0.00     0.053 C 
BRANCH  14  15
ATOM     15  C   UNL     1      -4.341   5.506   6.126  1.00  0.00     0.041 C 
ATOM     16  O   UNL     1      -3.920   4.760   7.048  1.00  0.00    -0.550 OA
ATOM     17  O   UNL     1      -4.582   6.850   6.387  1.00  0.00    -0.550 OA
ENDBRANCH  14  15
ENDBRANCH  13  14
ENDBRANCH  12  13
ENDBRANCH  11  12
ENDBRANCH  10  11
ENDBRANCH   9  10
ENDBRANCH   8   9
ENDBRANCH   7   8
ENDBRANCH   6   7
ENDBRANCH   5   6
ENDBRANCH   4   5
ENDBRANCH   3   4
ENDBRANCH   2   3
ENDBRANCH   1   2
BRANCH   1  18
ATOM     18  C   UNL     1      -6.407   0.128   1.104  1.00  0.00     0.000 C 
BRANCH  18  19
ATOM     19  C   UNL     1      -6.976  -1.121   0.411  1.00  0.00     0.000 C 
BRANCH  19  20
ATOM     20  C   UNL     1      -8.416  -0.915  -0.097  1.00  0.00     0.000 C 
BRANCH  20  21
ATOM     21  C   UNL     1      -8.623   0.306  -1.019  1.00  0.00     0.000 C 
BRANCH  21  22
ATOM     22  C   UNL     1      -9.495   1.430  -0.432  1.00  0.00     0.000 C 
BRANCH  22  23
ATOM     23  C   UNL     1      -8.966   2.831  -0.769  1.00  0.00     0.000 C 
BRANCH  23  24
ATOM     24  C   UNL     1      -8.636   2.950  -2.265  1.00  0.00    -0.000 C 
BRANCH  24  25
ATOM     25  C   UNL     1      -7.285   3.650  -2.514  1.00  0.00    -0.000 C 
BRANCH  25  26
ATOM     26  C   UNL     1      -7.297   4.628  -3.702  1.00  0.00    -0.000 C 
BRANCH  26  27
ATOM     27  C   UNL     1      -6.210   5.712  -3.601  1.00  0.00    -0.000 C 
BRANCH  27  28
ATOM     28  C   UNL     1      -4.937   5.206  -2.901  1.00  0.00    -0.000 C 
BRANCH  28  29
ATOM     29  C   UNL     1      -3.843   4.798  -3.900  1.00  0.00    -0.000 C 
BRANCH  29  30
ATOM     30  C   UNL     1      -4.084   5.438  -5.275  1.00  0.00    -0.000 C 
BRANCH  30  31
ATOM     31  C   UNL     1      -3.025   5.026  -6.310  1.00  0.00    -0.003 C 
ATOM     32  C   UNL     1      -2.991   3.517  -6.554  1.00  0.00     0.004 C 
ENDBRANCH  30  31
ENDBRANCH  29  30
ENDBRANCH  28  29
ENDBRANCH  27  28
ENDBRANCH  26  27
ENDBRANCH  25  26
ENDBRANCH  24  25
ENDBRANCH  23  24
ENDBRANCH  22  23
ENDBRANCH  21  22
ENDBRANCH  20  21
ENDBRANCH  19  20
ENDBRANCH  18  19
ENDBRANCH   1  18
TORSDOF 28
ENDMDL
MODEL 8
REMARK VINA RESULT:    -3.809      2.781      4.687
REMARK INTER + INTRA:         -13.856
REMARK INTER:                  -8.756
REMARK INTRA:                  -5.100
REMARK UNBOUND:                -3.812
REMARK SMILES CCCCCCCCCCCCCCCCCCCCCCCCCCCCCC(=O)[O-]
REMARK SMILES IDX 16 1 17 2 18 3 19 4 20 5 21 6 22 7 23 8 24 9 25 10 26 11
REMARK SMILES IDX 27 12 28 13 29 14 30 15 31 16 32 17 15 18 14 19 13 20 12 21
REMARK SMILES IDX 11 22 10 23 9 24 8 25 7 26 6 27 5 28 4 29 3 30 2 31 1 32
REMARK H PARENT
REMARK Flexibility Score: inf
ROOT
ATOM      1  C   UNL     1      -5.262  -0.049   0.384  1.00  0.00     0.000 C 
ENDROOT
BRANCH   1   2
ATOM      2  C   UNL     1      -5.037   1.096   1.388  1.00  0.00     0.000 C 
BRANCH   2   3
ATOM      3  C   UNL     1      -5.109   2.482   0.729  1.00  0.00     0.000 C 
BRANCH   3   4
ATOM      4  C   UNL     1      -5.045   2.414  -0.806  1.00  0.00     0.000 C 
BRANCH   4   5
ATOM      5  C   UNL     1      -6.039   3.370  -1.486  1.00  0.00     0.000 C 
BRANCH   5   6
ATOM      6  C   UNL     1      -7.482   3.169  -0.994  1.00  0.00     0.000 C 
BRANCH   6   7
ATOM      7  C   UNL     1      -8.028   1.762  -1.292  1.00  0.00     0.000 C 
BRANCH   7   8
ATOM      8  C   UNL     1      -8.773   1.080  -0.126  1.00  0.00     0.000 C 
BRANCH   8   9
ATOM      9  C   UNL     1      -8.998   1.964   1.114  1.00  0.00     0.000 C 
BRANCH   9  10
ATOM     10  C   UNL     1      -8.475   1.325   2.408  1.00  0.00     0.000 C 
BRANCH  10  11
ATOM     11  C   UNL     1      -7.936   2.396   3.366  1.00  0.00     0.000 C 
BRANCH  11  12
ATOM     12  C   UNL     1      -7.964   3.785   2.713  1.00  0.00     0.000 C 
BRANCH  12  13
ATOM     13  C   UNL     1      -6.768   4.666   3.114  1.00  0.00     0.006 C 
BRANCH  13  14
ATOM     14  C   UNL     1      -6.064   4.214   4.407  1.00  0.00     0.053 C 
BRANCH  14  15
ATOM     15  C   UNL     1      -4.721   4.856   4.584  1.00  0.00     0.041 C 
ATOM     16  O   UNL     1      -4.084   5.277   3.582  1.00  0.00    -0.550 OA
ATOM     17  O   UNL     1      -4.154   4.956   5.848  1.00  0.00    -0.550 OA
ENDBRANCH  14  15
ENDBRANCH  13  14
ENDBRANCH  12  13
ENDBRANCH  11  12
ENDBRANCH  10  11
ENDBRANCH   9  10
ENDBRANCH   8   9
ENDBRANCH   7   8
ENDBRANCH   6   7
ENDBRANCH   5   6
ENDBRANCH   4   5
ENDBRANCH   3   4
ENDBRANCH   2   3
ENDBRANCH   1   2
BRANCH   1  18
ATOM     18  C   UNL     1      -5.343  -1.427   1.058  1.00  0.00     0.000 C 
BRANCH  18  19
ATOM     19  C   UNL     1      -6.589  -2.223   0.636  1.00  0.00     0.000 C 
BRANCH  19  20
ATOM     20  C   UNL     1      -7.778  -2.019   1.595  1.00  0.00     0.000 C 
BRANCH  20  21
ATOM     21  C   UNL     1      -7.519  -2.424   3.062  1.00  0.00     0.000 C 
BRANCH  21  22
ATOM     22  C   UNL     1      -6.992  -3.856   3.262  1.00  0.00     0.000 C 
BRANCH  22  23
ATOM     23  C   UNL     1      -6.092  -3.991   4.498  1.00  0.00     0.000 C 
BRANCH  23  24
ATOM     24  C   UNL     1      -4.635  -3.643   4.160  1.00  0.00    -0.000 C 
BRANCH  24  25
ATOM     25  C   UNL     1      -3.660  -4.784   4.518  1.00  0.00    -0.000 C 
BRANCH  25  26
ATOM     26  C   UNL     1      -2.795  -4.502   5.758  1.00  0.00    -0.000 C 
BRANCH  26  27
ATOM     27  C   UNL     1      -2.734  -3.009   6.123  1.00  0.00    -0.000 C 
BRANCH  27  28
ATOM     28  C   UNL     1      -3.002  -2.756   7.616  1.00  0.00    -0.000 C 
BRANCH  28  29
ATOM     29  C   UNL     1      -4.272  -1.922   7.849  1.00  0.00    -0.000 C 
BRANCH  29  30
ATOM     30  C   UNL     1      -5.517  -2.819   7.922  1.00  0.00    -0.000 C 
BRANCH  30  31
ATOM     31  C   UNL     1      -5.220  -4.188   8.555  1.00  0.00    -0.003 C 
ATOM     32  C   UNL     1      -6.044  -5.317   7.936  1.00  0.00     0.004 C 
ENDBRANCH  30  31
ENDBRANCH  29  30
ENDBRANCH  28  29
ENDBRANCH  27  28
ENDBRANCH  26  27
ENDBRANCH  25  26
ENDBRANCH  24  25
ENDBRANCH  23  24
ENDBRANCH  22  23
ENDBRANCH  21  22
ENDBRANCH  20  21
ENDBRANCH  19  20
ENDBRANCH  18  19
ENDBRANCH   1  18
TORSDOF 28
ENDMDL
MODEL 9
REMARK VINA RESULT:    -3.806      3.568      9.590
REMARK INTER + INTRA:         -13.848
REMARK INTER:                  -9.213
REMARK INTRA:                  -4.635
REMARK UNBOUND:                -3.812
REMARK SMILES CCCCCCCCCCCCCCCCCCCCCCCCCCCCCC(=O)[O-]
REMARK SMILES IDX 16 1 17 2 18 3 19 4 20 5 21 6 22 7 23 8 24 9 25 10 26 11
REMARK SMILES IDX 27 12 28 13 29 14 30 15 31 16 32 17 15 18 14 19 13 20 12 21
REMARK SMILES IDX 11 22 10 23 9 24 8 25 7 26 6 27 5 28 4 29 3 30 2 31 1 32
REMARK H PARENT
REMARK Flexibility Score: inf
ROOT
ATOM      1  C   UNL     1      -7.279  -2.478   2.522  1.00  0.00     0.000 C 
ENDROOT
BRANCH   1   2
ATOM      2  C   UNL     1      -6.680  -3.672   3.287  1.00  0.00     0.000 C 
BRANCH   2   3
ATOM      3  C   UNL     1      -7.248  -3.809   4.707  1.00  0.00     0.000 C 
BRANCH   3   4
ATOM      4  C   UNL     1      -7.045  -5.216   5.295  1.00  0.00     0.000 C 
BRANCH   4   5
ATOM      5  C   UNL     1      -7.151  -5.240   6.829  1.00  0.00     0.000 C 
BRANCH   5   6
ATOM      6  C   UNL     1      -5.937  -5.908   7.494  1.00  0.00     0.000 C 
BRANCH   6   7
ATOM      7  C   UNL     1      -5.070  -4.918   8.293  1.00  0.00     0.000 C 
BRANCH   7   8
ATOM      8  C   UNL     1      -5.549  -3.453   8.271  1.00  0.00     0.000 C 
BRANCH   8   9
ATOM      9  C   UNL     1      -4.817  -2.537   7.274  1.00  0.00     0.000 C 
BRANCH   9  10
ATOM     10  C   UNL     1      -3.297  -2.512   7.488  1.00  0.00     0.000 C 
BRANCH  10  11
ATOM     11  C   UNL     1      -2.563  -3.066   6.260  1.00  0.00     0.000 C 
BRANCH  11  12
ATOM     12  C   UNL     1      -3.555  -3.478   5.164  1.00  0.00     0.000 C 
BRANCH  12  13
ATOM     13  C   UNL     1      -3.253  -4.863   4.565  1.00  0.00     0.006 C 
BRANCH  13  14
ATOM     14  C   UNL     1      -2.670  -5.868   5.575  1.00  0.00     0.053 C 
BRANCH  14  15
ATOM     15  C   UNL     1      -1.283  -6.307   5.214  1.00  0.00     0.041 C 
ATOM     16  O   UNL     1      -0.646  -7.082   5.976  1.00  0.00    -0.550 OA
ATOM     17  O   UNL     1      -0.677  -5.832   4.058  1.00  0.00    -0.550 OA
ENDBRANCH  14  15
ENDBRANCH  13  14
ENDBRANCH  12  13
ENDBRANCH  11  12
ENDBRANCH  10  11
ENDBRANCH   9  10
ENDBRANCH   8   9
ENDBRANCH   7   8
ENDBRANCH   6   7
ENDBRANCH   5   6
ENDBRANCH   4   5
ENDBRANCH   3   4
ENDBRANCH   2   3
ENDBRANCH   1   2
BRANCH   1  18
ATOM     18  C   UNL     1      -7.563  -2.796   1.046  1.00  0.00     0.000 C 
BRANCH  18  19
ATOM     19  C   UNL     1      -6.464  -2.277   0.104  1.00  0.00     0.000 C 
BRANCH  19  20
ATOM     20  C   UNL     1      -5.593  -1.184   0.752  1.00  0.00     0.000 C 
BRANCH  20  21
ATOM     21  C   UNL     1      -5.969   0.267   0.380  1.00  0.00     0.000 C 
BRANCH  21  22
ATOM     22  C   UNL     1      -6.141   1.224   1.574  1.00  0.00     0.000 C 
BRANCH  22  23
ATOM     23  C   UNL     1      -7.606   1.381   2.004  1.00  0.00     0.000 C 
BRANCH  23  24
ATOM     24  C   UNL     1      -8.560   0.987   0.866  1.00  0.00    -0.000 C 
BRANCH  24  25
ATOM     25  C   UNL     1      -9.186   2.214   0.173  1.00  0.00    -0.000 C 
BRANCH  25  26
ATOM     26  C   UNL     1      -8.602   2.511  -1.219  1.00  0.00    -0.000 C 
BRANCH  26  27
ATOM     27  C   UNL     1      -7.552   3.635  -1.205  1.00  0.00    -0.000 C 
BRANCH  27  28
ATOM     28  C   UNL     1      -6.161   3.146  -1.643  1.00  0.00    -0.000 C 
BRANCH  28  29
ATOM     29  C   UNL     1      -5.027   3.855  -0.886  1.00  0.00    -0.000 C 
BRANCH  29  30
ATOM     30  C   UNL     1      -3.662   3.243  -1.234  1.00  0.00    -0.000 C 
BRANCH  30  31
ATOM     31  C   UNL     1      -3.039   2.482  -0.053  1.00  0.00    -0.003 C 
ATOM     32  C   UNL     1      -3.188   3.225   1.275  1.00  0.00     0.004 C 
ENDBRANCH  30  31
ENDBRANCH  29  30
ENDBRANCH  28  29
ENDBRANCH  27  28
ENDBRANCH  26  27
ENDBRANCH  25  26
ENDBRANCH  24  25
ENDBRANCH  23  24
ENDBRANCH  22  23
ENDBRANCH  21  22
ENDBRANCH  20  21
ENDBRANCH  19  20
ENDBRANCH  18  19
ENDBRANCH   1  18
TORSDOF 28
ENDMDL
