MODEL 1
REMARK VINA RESULT:    -4.026      0.000      0.000
REMARK INTER + INTRA:          -6.533
REMARK INTER:                  -6.145
REMARK INTRA:                  -0.388
REMARK UNBOUND:                -0.388
REMARK SMILES CC1=CCC[C@@H](C)C(=O)C[C@@H](C(C)C)C(=O)C1
REMARK SMILES IDX 8 1 9 2 6 3 7 4 5 5 4 6 3 7 2 8 1 9 10 11 11 12 15 13 16 14
REMARK SMILES IDX 17 15 12 17 13 18 14 19
REMARK H PARENT
REMARK Flexibility Score: 70.00
ROOT
ATOM      1  C   UNL     1      32.517  41.342  85.419  1.00  0.00     0.136 C 
ATOM      2  O   UNL     1      32.110  40.197  85.547  1.00  0.00    -0.299 OA
ENDROOT
BRANCH   1   3
ATOM      3  C   UNL     1      32.215  42.106  84.145  1.00  0.00     0.053 C 
ATOM      4  C   UNL     1      30.749  42.555  84.160  1.00  0.00     0.016 C 
BRANCH   3   5
ATOM      5  C   UNL     1      32.501  41.267  82.875  1.00  0.00     0.015 C 
BRANCH   5   6
ATOM      6  C   UNL     1      33.972  41.283  82.427  1.00  0.00     0.028 C 
BRANCH   6   7
ATOM      7  C   UNL     1      34.746  40.129  83.018  1.00  0.00    -0.028 C 
ATOM      8  C   UNL     1      35.743  40.243  83.925  1.00  0.00    -0.070 CG0
ATOM      9  C   UNL     1      36.419  38.981  84.398  1.00  0.00     0.039 C 
ATOM     10  G   UNL     1      36.214  41.579  84.473  1.00  0.00     0.000 G0
ENDBRANCH   6   7
ENDBRANCH   5   6
ENDBRANCH   3   5
ENDBRANCH   1   3
BRANCH   1  11
ATOM     11  C   UNL     1      33.271  41.985  86.562  1.00  0.00     0.087 C 
BRANCH  11  12
ATOM     12  C   UNL     1      34.504  42.801  86.094  1.00  0.00     0.066 C 
BRANCH  12  13
ATOM     13  C   UNL     1      35.712  41.903  85.863  1.00  0.00     0.140 C 
ATOM     14  O   UNL     1      36.327  41.467  86.826  1.00  0.00    -0.299 OA
BRANCH  13  15
ATOM     15  C   UNL     1      36.231  41.581  84.479  1.00  0.00     0.106 CG0
ATOM     16  G   UNL     1      35.759  40.241  83.940  1.00  0.00     0.000 G0
ENDBRANCH  13  15
ENDBRANCH  12  13
BRANCH  12  17
ATOM     17  C   UNL     1      34.871  43.989  87.037  1.00  0.00    -0.006 C 
ATOM     18  C   UNL     1      35.662  45.081  86.299  1.00  0.00     0.008 C 
ATOM     19  C   UNL     1      33.667  44.613  87.764  1.00  0.00     0.008 C 
ENDBRANCH  12  17
ENDBRANCH  11  12
ENDBRANCH   1  11
TORSDOF 1
ENDMDL
MODEL 2
REMARK VINA RESULT:    -3.990      2.210      3.924
REMARK INTER + INTRA:          -6.477
REMARK INTER:                  -6.172
REMARK INTRA:                  -0.305
REMARK UNBOUND:                -0.388
REMARK SMILES CC1=CCC[C@@H](C)C(=O)C[C@@H](C(C)C)C(=O)C1
REMARK SMILES IDX 8 1 9 2 6 3 7 4 5 5 4 6 3 7 2 8 1 9 10 11 11 12 15 13 16 14
REMARK SMILES IDX 17 15 12 17 13 18 14 19
REMARK H PARENT
REMARK Flexibility Score: 70.00
ROOT
ATOM      1  C   UNL     1      33.388  41.562  83.072  1.00  0.00     0.136 C 
ATOM      2  O   UNL     1      32.526  40.864  82.558  1.00  0.00    -0.299 OA
ENDROOT
BRANCH   1   3
ATOM      3  C   UNL     1      32.981  42.726  83.953  1.00  0.00     0.053 C 
ATOM      4  C   UNL     1      31.649  42.400  84.638  1.00  0.00     0.016 C 
BRANCH   3   5
ATOM      5  C   UNL     1      32.860  44.051  83.160  1.00  0.00     0.015 C 
BRANCH   5   6
ATOM      6  C   UNL     1      34.207  44.638  82.706  1.00  0.00     0.028 C 
BRANCH   6   7
ATOM      7  C   UNL     1      35.061  45.044  83.884  1.00  0.00    -0.028 C 
ATOM      8  C   UNL     1      36.297  44.565  84.152  1.00  0.00    -0.070 CG0
ATOM      9  C   UNL     1      37.003  45.073  85.383  1.00  0.00     0.039 C 
ATOM     10  G   UNL     1      36.993  43.537  83.276  1.00  0.00     0.000 G0
ENDBRANCH   6   7
ENDBRANCH   5   6
ENDBRANCH   3   5
ENDBRANCH   1   3
BRANCH   1  11
ATOM     11  C   UNL     1      34.843  41.214  82.852  1.00  0.00     0.087 C 
BRANCH  11  12
ATOM     12  C   UNL     1      35.712  41.397  84.124  1.00  0.00     0.066 C 
BRANCH  12  13
ATOM     13  C   UNL     1      37.004  42.142  83.813  1.00  0.00     0.140 C 
ATOM     14  O   UNL     1      38.076  41.614  84.069  1.00  0.00    -0.299 OA
BRANCH  13  15
ATOM     15  C   UNL     1      37.015  43.551  83.261  1.00  0.00     0.106 CG0
ATOM     16  G   UNL     1      36.295  44.561  84.138  1.00  0.00     0.000 G0
ENDBRANCH  13  15
ENDBRANCH  12  13
BRANCH  12  17
ATOM     17  C   UNL     1      36.011  40.067  84.882  1.00  0.00    -0.006 C 
ATOM     18  C   UNL     1      35.130  39.912  86.132  1.00  0.00     0.008 C 
ATOM     19  C   UNL     1      35.908  38.805  84.008  1.00  0.00     0.008 C 
ENDBRANCH  12  17
ENDBRANCH  11  12
ENDBRANCH   1  11
TORSDOF 1
ENDMDL
MODEL 3
REMARK VINA RESULT:    -3.946      2.270      3.268
REMARK INTER + INTRA:          -6.410
REMARK INTER:                  -5.966
REMARK INTRA:                  -0.445
REMARK UNBOUND:                -0.388
REMARK SMILES CC1=CCC[C@@H](C)C(=O)C[C@@H](C(C)C)C(=O)C1
REMARK SMILES IDX 8 1 9 2 6 3 7 4 5 5 4 6 3 7 2 8 1 9 10 11 11 12 15 13 16 14
REMARK SMILES IDX 17 15 12 17 13 18 14 19
REMARK H PARENT
REMARK Flexibility Score: 70.00
ROOT
ATOM      1  C   UNL     1      32.943  42.330  85.931  1.00  0.00     0.136 C 
ATOM      2  O   UNL     1      32.316  42.380  86.980  1.00  0.00    -0.299 OA
ENDROOT
BRANCH   1   3
ATOM      3  C   UNL     1      33.068  41.009  85.198  1.00  0.00     0.053 C 
ATOM      4  C   UNL     1      31.802  40.178  85.433  1.00  0.00     0.016 C 
BRANCH   3   5
ATOM      5  C   UNL     1      34.319  40.209  85.638  1.00  0.00     0.015 C 
BRANCH   5   6
ATOM      6  C   UNL     1      35.394  40.070  84.547  1.00  0.00     0.028 C 
BRANCH   6   7
ATOM      7  C   UNL     1      36.516  41.062  84.742  1.00  0.00    -0.028 C 
ATOM      8  C   UNL     1      36.689  42.193  84.023  1.00  0.00    -0.070 CG0
ATOM      9  C   UNL     1      37.877  43.064  84.346  1.00  0.00     0.039 C 
ATOM     10  G   UNL     1      35.751  42.614  82.904  1.00  0.00     0.000 G0
ENDBRANCH   6   7
ENDBRANCH   5   6
ENDBRANCH   3   5
ENDBRANCH   1   3
BRANCH   1  11
ATOM     11  C   UNL     1      33.537  43.602  85.369  1.00  0.00     0.087 C 
BRANCH  11  12
ATOM     12  C   UNL     1      33.489  43.663  83.820  1.00  0.00     0.066 C 
BRANCH  12  13
ATOM     13  C   UNL     1      34.882  43.824  83.226  1.00  0.00     0.140 C 
ATOM     14  O   UNL     1      35.291  44.943  82.953  1.00  0.00    -0.299 OA
BRANCH  13  15
ATOM     15  C   UNL     1      35.762  42.640  82.889  1.00  0.00     0.106 CG0
ATOM     16  G   UNL     1      36.688  42.221  84.019  1.00  0.00     0.000 G0
ENDBRANCH  13  15
ENDBRANCH  12  13
BRANCH  12  17
ATOM     17  C   UNL     1      32.521  44.750  83.260  1.00  0.00    -0.006 C 
ATOM     18  C   UNL     1      31.186  44.144  82.798  1.00  0.00     0.008 C 
ATOM     19  C   UNL     1      32.259  45.920  84.225  1.00  0.00     0.008 C 
ENDBRANCH  12  17
ENDBRANCH  11  12
ENDBRANCH   1  11
TORSDOF 1
ENDMDL
MODEL 4
REMARK VINA RESULT:    -3.943      2.711      4.405
REMARK INTER + INTRA:          -6.405
REMARK INTER:                  -5.978
REMARK INTRA:                  -0.427
REMARK UNBOUND:                -0.388
REMARK SMILES CC1=CCC[C@@H](C)C(=O)C[C@@H](C(C)C)C(=O)C1
REMARK SMILES IDX 8 1 9 2 6 3 7 4 5 5 4 6 3 7 2 8 1 9 10 11 11 12 15 13 16 14
REMARK SMILES IDX 17 15 12 17 13 18 14 19
REMARK H PARENT
REMARK Flexibility Score: 70.00
ROOT
ATOM      1  C   UNL     1      34.178  41.100  83.239  1.00  0.00     0.136 C 
ATOM      2  O   UNL     1      33.624  40.473  82.348  1.00  0.00    -0.299 OA
ENDROOT
BRANCH   1   3
ATOM      3  C   UNL     1      34.020  40.652  84.678  1.00  0.00     0.053 C 
ATOM      4  C   UNL     1      34.817  39.362  84.897  1.00  0.00     0.016 C 
BRANCH   3   5
ATOM      5  C   UNL     1      32.536  40.433  85.066  1.00  0.00     0.015 C 
BRANCH   5   6
ATOM      6  C   UNL     1      31.848  41.676  85.652  1.00  0.00     0.028 C 
BRANCH   6   7
ATOM      7  C   UNL     1      31.193  42.508  84.575  1.00  0.00    -0.028 C 
ATOM      8  C   UNL     1      31.619  43.724  84.162  1.00  0.00    -0.070 CG0
ATOM      9  C   UNL     1      30.833  44.421  83.081  1.00  0.00     0.039 C 
ATOM     10  G   UNL     1      32.840  44.414  84.746  1.00  0.00     0.000 G0
ENDBRANCH   6   7
ENDBRANCH   5   6
ENDBRANCH   3   5
ENDBRANCH   1   3
BRANCH   1  11
ATOM     11  C   UNL     1      35.049  42.281  82.873  1.00  0.00     0.087 C 
BRANCH  11  12
ATOM     12  C   UNL     1      35.146  43.338  84.003  1.00  0.00     0.066 C 
BRANCH  12  13
ATOM     13  C   UNL     1      34.065  44.402  83.865  1.00  0.00     0.140 C 
ATOM     14  O   UNL     1      34.209  45.301  83.049  1.00  0.00    -0.299 OA
BRANCH  13  15
ATOM     15  C   UNL     1      32.839  44.433  84.753  1.00  0.00     0.106 CG0
ATOM     16  G   UNL     1      31.632  43.725  84.161  1.00  0.00     0.000 G0
ENDBRANCH  13  15
ENDBRANCH  12  13
BRANCH  12  17
ATOM     17  C   UNL     1      36.554  43.998  84.134  1.00  0.00    -0.006 C 
ATOM     18  C   UNL     1      36.663  44.866  85.397  1.00  0.00     0.008 C 
ATOM     19  C   UNL     1      37.725  43.000  84.080  1.00  0.00     0.008 C 
ENDBRANCH  12  17
ENDBRANCH  11  12
ENDBRANCH   1  11
TORSDOF 1
ENDMDL
MODEL 5
REMARK VINA RESULT:    -3.939      2.193      4.911
REMARK INTER + INTRA:          -6.399
REMARK INTER:                  -5.932
REMARK INTRA:                  -0.467
REMARK UNBOUND:                -0.388
REMARK SMILES CC1=CCC[C@@H](C)C(=O)C[C@@H](C(C)C)C(=O)C1
REMARK SMILES IDX 8 1 9 2 6 3 7 4 5 5 4 6 3 7 2 8 1 9 10 11 11 12 15 13 16 14
REMARK SMILES IDX 17 15 12 17 13 18 14 19
REMARK H PARENT
REMARK Flexibility Score: 70.00
ROOT
ATOM      1  C   UNL     1      35.725  41.384  86.102  1.00  0.00     0.136 C 
ATOM      2  O   UNL     1      36.216  40.733  87.013  1.00  0.00    -0.299 OA
ENDROOT
BRANCH   1   3
ATOM      3  C   UNL     1      36.558  41.702  84.876  1.00  0.00     0.053 C 
ATOM      4  C   UNL     1      37.219  40.416  84.367  1.00  0.00     0.016 C 
BRANCH   3   5
ATOM      5  C   UNL     1      37.636  42.778  85.160  1.00  0.00     0.015 C 
BRANCH   5   6
ATOM      6  C   UNL     1      37.081  44.087  85.746  1.00  0.00     0.028 C 
BRANCH   6   7
ATOM      7  C   UNL     1      36.522  44.985  84.667  1.00  0.00    -0.028 C 
ATOM      8  C   UNL     1      35.216  45.299  84.514  1.00  0.00    -0.070 CG0
ATOM      9  C   UNL     1      34.833  46.202  83.369  1.00  0.00     0.039 C 
ATOM     10  G   UNL     1      34.126  44.775  85.434  1.00  0.00     0.000 G0
ENDBRANCH   6   7
ENDBRANCH   5   6
ENDBRANCH   3   5
ENDBRANCH   1   3
BRANCH   1  11
ATOM     11  C   UNL     1      34.278  41.814  86.203  1.00  0.00     0.087 C 
BRANCH  11  12
ATOM     12  C   UNL     1      33.670  42.229  84.838  1.00  0.00     0.066 C 
BRANCH  12  13
ATOM     13  C   UNL     1      33.248  43.692  84.838  1.00  0.00     0.140 C 
ATOM     14  O   UNL     1      32.204  44.015  84.290  1.00  0.00    -0.299 OA
BRANCH  13  15
ATOM     15  C   UNL     1      34.111  44.785  85.432  1.00  0.00     0.106 CG0
ATOM     16  G   UNL     1      35.200  45.285  84.499  1.00  0.00     0.000 G0
ENDBRANCH  13  15
ENDBRANCH  12  13
BRANCH  12  17
ATOM     17  C   UNL     1      32.496  41.317  84.366  1.00  0.00    -0.006 C 
ATOM     18  C   UNL     1      32.643  40.914  82.890  1.00  0.00     0.008 C 
ATOM     19  C   UNL     1      32.283  40.063  85.234  1.00  0.00     0.008 C 
ENDBRANCH  12  17
ENDBRANCH  11  12
ENDBRANCH   1  11
TORSDOF 1
ENDMDL
MODEL 6
REMARK VINA RESULT:    -3.852      1.740      2.165
REMARK INTER + INTRA:          -6.267
REMARK INTER:                  -5.941
REMARK INTRA:                  -0.326
REMARK UNBOUND:                -0.388
REMARK SMILES CC1=CCC[C@@H](C)C(=O)C[C@@H](C(C)C)C(=O)C1
REMARK SMILES IDX 8 1 9 2 6 3 7 4 5 5 4 6 3 7 2 8 1 9 10 11 11 12 15 13 16 14
REMARK SMILES IDX 17 15 12 17 13 18 14 19
REMARK H PARENT
REMARK Flexibility Score: 70.00
ROOT
ATOM      1  C   UNL     1      32.572  43.365  85.324  1.00  0.00     0.136 C 
ATOM      2  O   UNL     1      31.565  43.987  85.633  1.00  0.00    -0.299 OA
ENDROOT
BRANCH   1   3
ATOM      3  C   UNL     1      32.535  42.425  84.136  1.00  0.00     0.053 C 
ATOM      4  C   UNL     1      31.776  43.095  82.984  1.00  0.00     0.016 C 
BRANCH   3   5
ATOM      5  C   UNL     1      31.882  41.064  84.482  1.00  0.00     0.015 C 
BRANCH   5   6
ATOM      6  C   UNL     1      32.718  40.187  85.428  1.00  0.00     0.028 C 
BRANCH   6   7
ATOM      7  C   UNL     1      33.987  39.706  84.764  1.00  0.00    -0.028 C 
ATOM      8  C   UNL     1      35.241  39.978  85.192  1.00  0.00    -0.070 CG0
ATOM      9  C   UNL     1      36.397  39.426  84.396  1.00  0.00     0.039 C 
ATOM     10  G   UNL     1      35.531  40.817  86.424  1.00  0.00     0.000 G0
ENDBRANCH   6   7
ENDBRANCH   5   6
ENDBRANCH   3   5
ENDBRANCH   1   3
BRANCH   1  11
ATOM     11  C   UNL     1      33.844  43.590  86.110  1.00  0.00     0.087 C 
BRANCH  11  12
ATOM     12  C   UNL     1      35.122  43.194  85.326  1.00  0.00     0.066 C 
BRANCH  12  13
ATOM     13  C   UNL     1      35.989  42.229  86.125  1.00  0.00     0.140 C 
ATOM     14  O   UNL     1      37.099  42.585  86.491  1.00  0.00    -0.299 OA
BRANCH  13  15
ATOM     15  C   UNL     1      35.557  40.810  86.426  1.00  0.00     0.106 CG0
ATOM     16  G   UNL     1      35.245  39.986  85.189  1.00  0.00     0.000 G0
ENDBRANCH  13  15
ENDBRANCH  12  13
BRANCH  12  17
ATOM     17  C   UNL     1      35.963  44.411  84.831  1.00  0.00    -0.006 C 
ATOM     18  C   UNL     1      36.635  44.128  83.478  1.00  0.00     0.008 C 
ATOM     19  C   UNL     1      35.179  45.733  84.762  1.00  0.00     0.008 C 
ENDBRANCH  12  17
ENDBRANCH  11  12
ENDBRANCH   1  11
TORSDOF 1
ENDMDL
MODEL 7
REMARK VINA RESULT:    -3.834      1.820      2.731
REMARK INTER + INTRA:          -6.239
REMARK INTER:                  -6.444
REMARK INTRA:                   0.205
REMARK UNBOUND:                -0.388
REMARK SMILES CC1=CCC[C@@H](C)C(=O)C[C@@H](C(C)C)C(=O)C1
REMARK SMILES IDX 8 1 9 2 6 3 7 4 5 5 4 6 3 7 2 8 1 9 10 11 11 12 15 13 16 14
REMARK SMILES IDX 17 15 12 17 13 18 14 19
REMARK H PARENT
REMARK Flexibility Score: 70.00
ROOT
ATOM      1  C   UNL     1      33.015  41.805  86.248  1.00  0.00     0.136 C 
ATOM      2  O   UNL     1      32.194  42.662  86.542  1.00  0.00    -0.299 OA
ENDROOT
BRANCH   1   3
ATOM      3  C   UNL     1      32.570  40.574  85.485  1.00  0.00     0.053 C 
ATOM      4  C   UNL     1      33.799  39.733  85.122  1.00  0.00     0.016 C 
BRANCH   3   5
ATOM      5  C   UNL     1      31.774  40.932  84.205  1.00  0.00     0.015 C 
BRANCH   5   6
ATOM      6  C   UNL     1      32.652  41.269  82.989  1.00  0.00     0.028 C 
BRANCH   6   7
ATOM      7  C   UNL     1      32.913  42.753  82.887  1.00  0.00    -0.028 C 
ATOM      8  C   UNL     1      34.132  43.336  82.940  1.00  0.00    -0.070 CG0
ATOM      9  C   UNL     1      34.206  44.838  82.835  1.00  0.00     0.039 C 
ATOM     10  G   UNL     1      35.419  42.546  83.110  1.00  0.00     0.000 G0
ENDBRANCH   6   7
ENDBRANCH   5   6
ENDBRANCH   3   5
ENDBRANCH   1   3
BRANCH   1  11
ATOM     11  C   UNL     1      34.466  42.024  86.614  1.00  0.00     0.087 C 
BRANCH  11  12
ATOM     12  C   UNL     1      35.175  43.057  85.700  1.00  0.00     0.066 C 
BRANCH  12  13
ATOM     13  C   UNL     1      35.882  42.377  84.534  1.00  0.00     0.140 C 
ATOM     14  O   UNL     1      36.883  41.709  84.748  1.00  0.00    -0.299 OA
BRANCH  13  15
ATOM     15  C   UNL     1      35.433  42.554  83.100  1.00  0.00     0.106 CG0
ATOM     16  G   UNL     1      34.140  43.337  82.951  1.00  0.00     0.000 G0
ENDBRANCH  13  15
ENDBRANCH  12  13
BRANCH  12  17
ATOM     17  C   UNL     1      36.153  44.007  86.459  1.00  0.00    -0.006 C 
ATOM     18  C   UNL     1      35.539  45.398  86.681  1.00  0.00     0.008 C 
ATOM     19  C   UNL     1      36.671  43.443  87.793  1.00  0.00     0.008 C 
ENDBRANCH  12  17
ENDBRANCH  11  12
ENDBRANCH   1  11
TORSDOF 1
ENDMDL
MODEL 8
REMARK VINA RESULT:    -3.823      2.389      3.423
REMARK INTER + INTRA:          -6.223
REMARK INTER:                  -5.927
REMARK INTRA:                  -0.297
REMARK UNBOUND:                -0.388
REMARK SMILES CC1=CCC[C@@H](C)C(=O)C[C@@H](C(C)C)C(=O)C1
REMARK SMILES IDX 8 1 9 2 6 3 7 4 5 5 4 6 3 7 2 8 1 9 10 11 11 12 15 13 16 14
REMARK SMILES IDX 17 15 12 17 13 18 14 19
REMARK H PARENT
REMARK Flexibility Score: 70.00
ROOT
ATOM      1  C   UNL     1      33.459  41.616  83.522  1.00  0.00     0.136 C 
ATOM      2  O   UNL     1      34.100  41.807  82.499  1.00  0.00    -0.299 OA
ENDROOT
BRANCH   1   3
ATOM      3  C   UNL     1      33.348  40.214  84.084  1.00  0.00     0.053 C 
ATOM      4  C   UNL     1      32.355  40.213  85.252  1.00  0.00     0.016 C 
BRANCH   3   5
ATOM      5  C   UNL     1      34.717  39.657  84.550  1.00  0.00     0.015 C 
BRANCH   5   6
ATOM      6  C   UNL     1      35.062  39.977  86.014  1.00  0.00     0.028 C 
BRANCH   6   7
ATOM      7  C   UNL     1      36.112  41.057  86.114  1.00  0.00    -0.028 C 
ATOM      8  C   UNL     1      35.894  42.318  86.552  1.00  0.00    -0.070 CG0
ATOM      9  C   UNL     1      37.060  43.274  86.573  1.00  0.00     0.039 C 
ATOM     10  G   UNL     1      34.531  42.810  87.009  1.00  0.00     0.000 G0
ENDBRANCH   6   7
ENDBRANCH   5   6
ENDBRANCH   3   5
ENDBRANCH   1   3
BRANCH   1  11
ATOM     11  C   UNL     1      32.832  42.799  84.226  1.00  0.00     0.087 C 
BRANCH  11  12
ATOM     12  C   UNL     1      33.868  43.868  84.661  1.00  0.00     0.066 C 
BRANCH  12  13
ATOM     13  C   UNL     1      33.982  43.949  86.177  1.00  0.00     0.140 C 
ATOM     14  O   UNL     1      33.671  44.984  86.747  1.00  0.00    -0.299 OA
BRANCH  13  15
ATOM     15  C   UNL     1      34.538  42.814  87.011  1.00  0.00     0.106 CG0
ATOM     16  G   UNL     1      35.893  42.312  86.542  1.00  0.00     0.000 G0
ENDBRANCH  13  15
ENDBRANCH  12  13
BRANCH  12  17
ATOM     17  C   UNL     1      33.613  45.281  84.050  1.00  0.00    -0.006 C 
ATOM     18  C   UNL     1      34.623  45.614  82.940  1.00  0.00     0.008 C 
ATOM     19  C   UNL     1      32.179  45.496  83.537  1.00  0.00     0.008 C 
ENDBRANCH  12  17
ENDBRANCH  11  12
ENDBRANCH   1  11
TORSDOF 1
ENDMDL
MODEL 9
REMARK VINA RESULT:    -3.795      1.347      1.920
REMARK INTER + INTRA:          -6.180
REMARK INTER:                  -6.317
REMARK INTRA:                   0.137
REMARK UNBOUND:                -0.388
REMARK SMILES CC1=CCC[C@@H](C)C(=O)C[C@@H](C(C)C)C(=O)C1
REMARK SMILES IDX 8 1 9 2 6 3 7 4 5 5 4 6 3 7 2 8 1 9 10 11 11 12 15 13 16 14
REMARK SMILES IDX 17 15 12 17 13 18 14 19
REMARK H PARENT
REMARK Flexibility Score: 70.00
ROOT
ATOM      1  C   UNL     1      32.116  42.202  85.320  1.00  0.00     0.136 C 
ATOM      2  O   UNL     1      31.603  43.249  84.951  1.00  0.00    -0.299 OA
ENDROOT
BRANCH   1   3
ATOM      3  C   UNL     1      31.925  40.945  84.497  1.00  0.00     0.053 C 
ATOM      4  C   UNL     1      32.604  39.768  85.206  1.00  0.00     0.016 C 
BRANCH   3   5
ATOM      5  C   UNL     1      32.482  41.092  83.059  1.00  0.00     0.015 C 
BRANCH   5   6
ATOM      6  C   UNL     1      34.005  40.906  82.951  1.00  0.00     0.028 C 
BRANCH   6   7
ATOM      7  C   UNL     1      34.722  42.233  82.868  1.00  0.00    -0.028 C 
ATOM      8  C   UNL     1      35.733  42.624  83.676  1.00  0.00    -0.070 CG0
ATOM      9  C   UNL     1      36.325  43.993  83.459  1.00  0.00     0.039 C 
ATOM     10  G   UNL     1      36.286  41.752  84.790  1.00  0.00     0.000 G0
ENDBRANCH   6   7
ENDBRANCH   5   6
ENDBRANCH   3   5
ENDBRANCH   1   3
BRANCH   1  11
ATOM     11  C   UNL     1      32.972  42.205  86.568  1.00  0.00     0.087 C 
BRANCH  11  12
ATOM     12  C   UNL     1      34.383  42.806  86.336  1.00  0.00     0.066 C 
BRANCH  12  13
ATOM     13  C   UNL     1      35.409  41.721  86.037  1.00  0.00     0.140 C 
ATOM     14  O   UNL     1      35.584  40.823  86.847  1.00  0.00    -0.299 OA
BRANCH  13  15
ATOM     15  C   UNL     1      36.279  41.747  84.799  1.00  0.00     0.106 CG0
ATOM     16  G   UNL     1      35.744  42.636  83.689  1.00  0.00     0.000 G0
ENDBRANCH  13  15
ENDBRANCH  12  13
BRANCH  12  17
ATOM     17  C   UNL     1      34.876  43.726  87.496  1.00  0.00    -0.006 C 
ATOM     18  C   UNL     1      35.841  44.811  86.993  1.00  0.00     0.008 C 
ATOM     19  C   UNL     1      33.743  44.370  88.315  1.00  0.00     0.008 C 
ENDBRANCH  12  17
ENDBRANCH  11  12
ENDBRANCH   1  11
TORSDOF 1
ENDMDL
