MODEL 1
REMARK VINA RESULT:    -3.774      0.000      0.000
REMARK INTER + INTRA:          -4.857
REMARK INTER:                  -4.657
REMARK INTRA:                  -0.200
REMARK UNBOUND:                -0.200
REMARK SMILES CCCCCC(=O)[O-]
REMARK SMILES IDX 4 1 5 2 6 3 7 4 8 5 3 6 2 7 1 8
REMARK H PARENT
REMARK Flexibility Score: inf
ROOT
ATOM      1  C   UNL     1     -18.559  41.251  20.807  1.00  0.00     0.006 C 
ENDROOT
BRANCH   1   2
ATOM      2  C   UNL     1     -17.627  42.428  21.108  1.00  0.00     0.053 C 
BRANCH   2   3
ATOM      3  C   UNL     1     -16.454  41.972  21.918  1.00  0.00     0.041 C 
ATOM      4  O   UNL     1     -16.461  40.835  22.460  1.00  0.00    -0.550 OA
ATOM      5  O   UNL     1     -15.333  42.784  22.035  1.00  0.00    -0.550 OA
ENDBRANCH   2   3
ENDBRANCH   1   2
BRANCH   1   6
ATOM      6  C   UNL     1     -18.886  41.177  19.311  1.00  0.00     0.000 C 
BRANCH   6   7
ATOM      7  C   UNL     1     -17.803  40.405  18.549  1.00  0.00    -0.003 C 
ATOM      8  C   UNL     1     -17.490  39.076  19.230  1.00  0.00     0.004 C 
ENDBRANCH   6   7
ENDBRANCH   1   6
TORSDOF 4
ENDMDL
MODEL 2
REMARK VINA RESULT:    -3.748     12.493     13.587
REMARK INTER + INTRA:          -4.824
REMARK INTER:                  -4.676
REMARK INTRA:                  -0.148
REMARK UNBOUND:                -0.200
REMARK SMILES CCCCCC(=O)[O-]
REMARK SMILES IDX 4 1 5 2 6 3 7 4 8 5 3 6 2 7 1 8
REMARK H PARENT
REMARK Flexibility Score: inf
ROOT
ATOM      1  C   UNL     1     -30.271  43.045  19.268  1.00  0.00     0.006 C 
ENDROOT
BRANCH   1   2
ATOM      2  C   UNL     1     -29.182  42.011  18.967  1.00  0.00     0.053 C 
BRANCH   2   3
ATOM      3  C   UNL     1     -29.331  40.819  19.859  1.00  0.00     0.041 C 
ATOM      4  O   UNL     1     -30.191  40.819  20.779  1.00  0.00    -0.550 OA
ATOM      5  O   UNL     1     -28.554  39.689  19.644  1.00  0.00    -0.550 OA
ENDBRANCH   2   3
ENDBRANCH   1   2
BRANCH   1   6
ATOM      6  C   UNL     1     -31.266  43.151  18.106  1.00  0.00     0.000 C 
BRANCH   6   7
ATOM      7  C   UNL     1     -32.583  43.785  18.566  1.00  0.00    -0.003 C 
ATOM      8  C   UNL     1     -32.737  43.700  20.082  1.00  0.00     0.004 C 
ENDBRANCH   6   7
ENDBRANCH   1   6
TORSDOF 4
ENDMDL
MODEL 3
REMARK VINA RESULT:    -3.712      2.611      4.399
REMARK INTER + INTRA:          -4.780
REMARK INTER:                  -4.672
REMARK INTRA:                  -0.108
REMARK UNBOUND:                -0.200
REMARK SMILES CCCCCC(=O)[O-]
REMARK SMILES IDX 4 1 5 2 6 3 7 4 8 5 3 6 2 7 1 8
REMARK H PARENT
REMARK Flexibility Score: inf
ROOT
ATOM      1  C   UNL     1     -16.877  42.083  21.457  1.00  0.00     0.006 C 
ENDROOT
BRANCH   1   2
ATOM      2  C   UNL     1     -18.096  42.482  20.621  1.00  0.00     0.053 C 
BRANCH   2   3
ATOM      3  C   UNL     1     -18.471  41.379  19.683  1.00  0.00     0.041 C 
ATOM      4  O   UNL     1     -19.531  40.723  19.866  1.00  0.00    -0.550 OA
ATOM      5  O   UNL     1     -17.675  41.105  18.578  1.00  0.00    -0.550 OA
ENDBRANCH   2   3
ENDBRANCH   1   2
BRANCH   1   6
ATOM      6  C   UNL     1     -16.069  43.318  21.875  1.00  0.00     0.000 C 
BRANCH   6   7
ATOM      7  C   UNL     1     -16.975  44.546  22.018  1.00  0.00    -0.003 C 
ATOM      8  C   UNL     1     -16.756  45.240  23.359  1.00  0.00     0.004 C 
ENDBRANCH   6   7
ENDBRANCH   1   6
TORSDOF 4
ENDMDL
MODEL 4
REMARK VINA RESULT:    -3.689      3.245      5.149
REMARK INTER + INTRA:          -4.751
REMARK INTER:                  -4.633
REMARK INTRA:                  -0.119
REMARK UNBOUND:                -0.200
REMARK SMILES CCCCCC(=O)[O-]
REMARK SMILES IDX 4 1 5 2 6 3 7 4 8 5 3 6 2 7 1 8
REMARK H PARENT
REMARK Flexibility Score: inf
ROOT
ATOM      1  C   UNL     1     -16.672  44.745  21.913  1.00  0.00     0.006 C 
ENDROOT
BRANCH   1   2
ATOM      2  C   UNL     1     -15.989  43.375  21.927  1.00  0.00     0.053 C 
BRANCH   2   3
ATOM      3  C   UNL     1     -16.962  42.301  21.559  1.00  0.00     0.041 C 
ATOM      4  O   UNL     1     -16.837  41.141  22.035  1.00  0.00    -0.550 OA
ATOM      5  O   UNL     1     -18.037  42.591  20.728  1.00  0.00    -0.550 OA
ENDBRANCH   2   3
ENDBRANCH   1   2
BRANCH   1   6
ATOM      6  C   UNL     1     -16.835  45.294  23.336  1.00  0.00     0.000 C 
BRANCH   6   7
ATOM      7  C   UNL     1     -16.460  46.779  23.399  1.00  0.00    -0.003 C 
ATOM      8  C   UNL     1     -15.997  47.289  22.037  1.00  0.00     0.004 C 
ENDBRANCH   6   7
ENDBRANCH   1   6
TORSDOF 4
ENDMDL
MODEL 5
REMARK VINA RESULT:    -3.571     13.254     14.291
REMARK INTER + INTRA:          -4.606
REMARK INTER:                  -4.474
REMARK INTRA:                  -0.132
REMARK UNBOUND:                -0.200
REMARK SMILES CCCCCC(=O)[O-]
REMARK SMILES IDX 4 1 5 2 6 3 7 4 8 5 3 6 2 7 1 8
REMARK H PARENT
REMARK Flexibility Score: inf
ROOT
ATOM      1  C   UNL     1     -31.928  43.350  19.897  1.00  0.00     0.006 C 
ENDROOT
BRANCH   1   2
ATOM      2  C   UNL     1     -30.510  43.016  19.425  1.00  0.00     0.053 C 
BRANCH   2   3
ATOM      3  C   UNL     1     -30.024  41.761  20.077  1.00  0.00     0.041 C 
ATOM      4  O   UNL     1     -28.821  41.406  19.953  1.00  0.00    -0.550 OA
ATOM      5  O   UNL     1     -30.886  41.006  20.862  1.00  0.00    -0.550 OA
ENDBRANCH   2   3
ENDBRANCH   1   2
BRANCH   1   6
ATOM      6  C   UNL     1     -32.797  43.833  18.729  1.00  0.00     0.000 C 
BRANCH   6   7
ATOM      7  C   UNL     1     -32.017  43.793  17.410  1.00  0.00    -0.003 C 
ATOM      8  C   UNL     1     -32.764  44.534  16.305  1.00  0.00     0.004 C 
ENDBRANCH   6   7
ENDBRANCH   1   6
TORSDOF 4
ENDMDL
MODEL 6
REMARK VINA RESULT:    -3.566     13.186     14.088
REMARK INTER + INTRA:          -4.600
REMARK INTER:                  -4.487
REMARK INTRA:                  -0.113
REMARK UNBOUND:                -0.200
REMARK SMILES CCCCCC(=O)[O-]
REMARK SMILES IDX 4 1 5 2 6 3 7 4 8 5 3 6 2 7 1 8
REMARK H PARENT
REMARK Flexibility Score: inf
ROOT
ATOM      1  C   UNL     1     -30.950  42.784  20.032  1.00  0.00     0.006 C 
ENDROOT
BRANCH   1   2
ATOM      2  C   UNL     1     -30.746  43.046  18.537  1.00  0.00     0.053 C 
BRANCH   2   3
ATOM      3  C   UNL     1     -31.928  43.761  17.964  1.00  0.00     0.041 C 
ATOM      4  O   UNL     1     -32.916  44.040  18.694  1.00  0.00    -0.550 OA
ATOM      5  O   UNL     1     -31.921  44.162  16.634  1.00  0.00    -0.550 OA
ENDBRANCH   2   3
ENDBRANCH   1   2
BRANCH   1   6
ATOM      6  C   UNL     1     -30.446  41.389  20.420  1.00  0.00     0.000 C 
BRANCH   6   7
ATOM      7  C   UNL     1     -29.077  41.104  19.793  1.00  0.00    -0.003 C 
ATOM      8  C   UNL     1     -28.796  39.605  19.739  1.00  0.00     0.004 C 
ENDBRANCH   6   7
ENDBRANCH   1   6
TORSDOF 4
ENDMDL
MODEL 7
REMARK VINA RESULT:    -3.564      8.624     10.147
REMARK INTER + INTRA:          -4.597
REMARK INTER:                  -4.369
REMARK INTRA:                  -0.228
REMARK UNBOUND:                -0.200
REMARK SMILES CCCCCC(=O)[O-]
REMARK SMILES IDX 4 1 5 2 6 3 7 4 8 5 3 6 2 7 1 8
REMARK H PARENT
REMARK Flexibility Score: inf
ROOT
ATOM      1  C   UNL     1     -17.513  35.822  13.090  1.00  0.00     0.006 C 
ENDROOT
BRANCH   1   2
ATOM      2  C   UNL     1     -16.885  35.090  11.901  1.00  0.00     0.053 C 
BRANCH   2   3
ATOM      3  C   UNL     1     -15.759  35.891  11.328  1.00  0.00     0.041 C 
ATOM      4  O   UNL     1     -14.955  36.492  12.089  1.00  0.00    -0.550 OA
ATOM      5  O   UNL     1     -15.568  35.936   9.953  1.00  0.00    -0.550 OA
ENDBRANCH   2   3
ENDBRANCH   1   2
BRANCH   1   6
ATOM      6  C   UNL     1     -17.421  34.978  14.368  1.00  0.00     0.000 C 
BRANCH   6   7
ATOM      7  C   UNL     1     -16.259  35.443  15.252  1.00  0.00    -0.003 C 
ATOM      8  C   UNL     1     -16.280  36.958  15.441  1.00  0.00     0.004 C 
ENDBRANCH   6   7
ENDBRANCH   1   6
TORSDOF 4
ENDMDL
MODEL 8
REMARK VINA RESULT:    -3.467      2.316      3.246
REMARK INTER + INTRA:          -4.478
REMARK INTER:                  -4.356
REMARK INTRA:                  -0.122
REMARK UNBOUND:                -0.200
REMARK SMILES CCCCCC(=O)[O-]
REMARK SMILES IDX 4 1 5 2 6 3 7 4 8 5 3 6 2 7 1 8
REMARK H PARENT
REMARK Flexibility Score: inf
ROOT
ATOM      1  C   UNL     1     -15.985  42.965  21.892  1.00  0.00     0.006 C 
ENDROOT
BRANCH   1   2
ATOM      2  C   UNL     1     -17.085  44.025  21.777  1.00  0.00     0.053 C 
BRANCH   2   3
ATOM      3  C   UNL     1     -16.695  45.265  22.517  1.00  0.00     0.041 C 
ATOM      4  O   UNL     1     -16.692  45.278  23.776  1.00  0.00    -0.550 OA
ATOM      5  O   UNL     1     -16.289  46.393  21.816  1.00  0.00    -0.550 OA
ENDBRANCH   2   3
ENDBRANCH   1   2
BRANCH   1   6
ATOM      6  C   UNL     1     -16.582  41.552  21.911  1.00  0.00     0.000 C 
BRANCH   6   7
ATOM      7  C   UNL     1     -17.880  41.493  21.098  1.00  0.00    -0.003 C 
ATOM      8  C   UNL     1     -17.638  40.894  19.715  1.00  0.00     0.004 C 
ENDBRANCH   6   7
ENDBRANCH   1   6
TORSDOF 4
ENDMDL
MODEL 9
REMARK VINA RESULT:    -3.378      8.140      9.323
REMARK INTER + INTRA:          -4.368
REMARK INTER:                  -4.125
REMARK INTRA:                  -0.243
REMARK UNBOUND:                -0.200
REMARK SMILES CCCCCC(=O)[O-]
REMARK SMILES IDX 4 1 5 2 6 3 7 4 8 5 3 6 2 7 1 8
REMARK H PARENT
REMARK Flexibility Score: inf
ROOT
ATOM      1  C   UNL     1     -16.575  37.362  12.708  1.00  0.00     0.006 C 
ENDROOT
BRANCH   1   2
ATOM      2  C   UNL     1     -15.749  37.754  13.936  1.00  0.00     0.053 C 
BRANCH   2   3
ATOM      3  C   UNL     1     -14.294  37.802  13.595  1.00  0.00     0.041 C 
ATOM      4  O   UNL     1     -13.685  38.905  13.566  1.00  0.00    -0.550 OA
ATOM      5  O   UNL     1     -13.597  36.625  13.356  1.00  0.00    -0.550 OA
ENDBRANCH   2   3
ENDBRANCH   1   2
BRANCH   1   6
ATOM      6  C   UNL     1     -17.119  35.934  12.843  1.00  0.00     0.000 C 
BRANCH   6   7
ATOM      7  C   UNL     1     -16.630  35.048  11.693  1.00  0.00    -0.003 C 
ATOM      8  C   UNL     1     -15.816  35.853  10.683  1.00  0.00     0.004 C 
ENDBRANCH   6   7
ENDBRANCH   1   6
TORSDOF 4
ENDMDL
