MODEL 1
REMARK VINA RESULT:    -2.909      0.000      0.000
REMARK INTER + INTRA:          -4.394
REMARK INTER:                  -3.929
REMARK INTRA:                  -0.465
REMARK UNBOUND:                -0.465
REMARK SMILES CCCCCCCC(=O)[O-]
REMARK SMILES IDX 5 1 6 2 7 3 8 4 9 5 10 6 4 7 3 8 2 9 1 10
REMARK H PARENT
REMARK Flexibility Score: inf
ROOT
ATOM      1  C   UNL     1     -98.316 -45.191 -12.009  1.00  0.00     0.000 C 
ENDROOT
BRANCH   1   2
ATOM      2  C   UNL     1     -97.235 -46.292 -12.045  1.00  0.00     0.006 C 
BRANCH   2   3
ATOM      3  C   UNL     1     -95.833 -45.748 -11.735  1.00  0.00     0.053 C 
BRANCH   3   4
ATOM      4  C   UNL     1     -94.784 -46.666 -12.276  1.00  0.00     0.041 C 
ATOM      5  O   UNL     1     -95.001 -47.905 -12.345  1.00  0.00    -0.550 OA
ATOM      6  O   UNL     1     -93.585 -46.150 -12.751  1.00  0.00    -0.550 OA
ENDBRANCH   3   4
ENDBRANCH   2   3
ENDBRANCH   1   2
BRANCH   1   7
ATOM      7  C   UNL     1     -97.747 -43.766 -11.873  1.00  0.00     0.000 C 
BRANCH   7   8
ATOM      8  C   UNL     1     -98.125 -43.035 -10.571  1.00  0.00    -0.000 C 
BRANCH   8   9
ATOM      9  C   UNL     1     -97.035 -43.045  -9.484  1.00  0.00    -0.003 C 
ATOM     10  C   UNL     1     -97.155 -44.233  -8.531  1.00  0.00     0.004 C 
ENDBRANCH   8   9
ENDBRANCH   7   8
ENDBRANCH   1   7
TORSDOF 6
ENDMDL
MODEL 2
REMARK VINA RESULT:    -2.739      1.810      3.220
REMARK INTER + INTRA:          -4.164
REMARK INTER:                  -3.721
REMARK INTRA:                  -0.444
REMARK UNBOUND:                -0.465
REMARK SMILES CCCCCCCC(=O)[O-]
REMARK SMILES IDX 5 1 6 2 7 3 8 4 9 5 10 6 4 7 3 8 2 9 1 10
REMARK H PARENT
REMARK Flexibility Score: inf
ROOT
ATOM      1  C   UNL     1     -97.859 -45.100 -11.301  1.00  0.00     0.000 C 
ENDROOT
BRANCH   1   2
ATOM      2  C   UNL     1     -96.501 -45.196 -12.030  1.00  0.00     0.006 C 
BRANCH   2   3
ATOM      3  C   UNL     1     -95.917 -46.615 -11.996  1.00  0.00     0.053 C 
BRANCH   3   4
ATOM      4  C   UNL     1     -94.443 -46.568 -11.742  1.00  0.00     0.041 C 
ATOM      5  O   UNL     1     -93.659 -46.155 -12.636  1.00  0.00    -0.550 OA
ATOM      6  O   UNL     1     -93.940 -46.932 -10.500  1.00  0.00    -0.550 OA
ENDBRANCH   3   4
ENDBRANCH   2   3
ENDBRANCH   1   2
BRANCH   1   7
ATOM      7  C   UNL     1     -99.022 -44.661 -12.210  1.00  0.00     0.000 C 
BRANCH   7   8
ATOM      8  C   UNL     1     -99.968 -45.794 -12.650  1.00  0.00    -0.000 C 
BRANCH   8   9
ATOM      9  C   UNL     1     -99.635 -47.178 -12.064  1.00  0.00    -0.003 C 
ATOM     10  C   UNL     1     -99.189 -48.183 -13.125  1.00  0.00     0.004 C 
ENDBRANCH   8   9
ENDBRANCH   7   8
ENDBRANCH   1   7
TORSDOF 6
ENDMDL
MODEL 3
REMARK VINA RESULT:    -2.736      1.655      2.928
REMARK INTER + INTRA:          -4.161
REMARK INTER:                  -3.918
REMARK INTRA:                  -0.244
REMARK UNBOUND:                -0.465
REMARK SMILES CCCCCCCC(=O)[O-]
REMARK SMILES IDX 5 1 6 2 7 3 8 4 9 5 10 6 4 7 3 8 2 9 1 10
REMARK H PARENT
REMARK Flexibility Score: inf
ROOT
ATOM      1  C   UNL     1     -96.997 -44.364 -11.974  1.00  0.00     0.000 C 
ENDROOT
BRANCH   1   2
ATOM      2  C   UNL     1     -96.693 -45.877 -12.003  1.00  0.00     0.006 C 
BRANCH   2   3
ATOM      3  C   UNL     1     -95.371 -46.223 -11.302  1.00  0.00     0.053 C 
BRANCH   3   4
ATOM      4  C   UNL     1     -94.353 -46.674 -12.300  1.00  0.00     0.041 C 
ATOM      5  O   UNL     1     -93.752 -45.831 -13.017  1.00  0.00    -0.550 OA
ATOM      6  O   UNL     1     -94.029 -48.021 -12.403  1.00  0.00    -0.550 OA
ENDBRANCH   3   4
ENDBRANCH   2   3
ENDBRANCH   1   2
BRANCH   1   7
ATOM      7  C   UNL     1     -98.500 -44.032 -11.990  1.00  0.00     0.000 C 
BRANCH   7   8
ATOM      8  C   UNL     1     -99.430 -45.234 -12.247  1.00  0.00    -0.000 C 
BRANCH   8   9
ATOM      9  C   UNL     1    -100.834 -44.867 -12.757  1.00  0.00    -0.003 C 
ATOM     10  C   UNL     1    -101.146 -43.376 -12.625  1.00  0.00     0.004 C 
ENDBRANCH   8   9
ENDBRANCH   7   8
ENDBRANCH   1   7
TORSDOF 6
ENDMDL
MODEL 4
REMARK VINA RESULT:    -2.736      2.268      3.852
REMARK INTER + INTRA:          -4.160
REMARK INTER:                  -3.592
REMARK INTRA:                  -0.569
REMARK UNBOUND:                -0.465
REMARK SMILES CCCCCCCC(=O)[O-]
REMARK SMILES IDX 5 1 6 2 7 3 8 4 9 5 10 6 4 7 3 8 2 9 1 10
REMARK H PARENT
REMARK Flexibility Score: inf
ROOT
ATOM      1  C   UNL     1     -98.770 -42.905 -10.469  1.00  0.00     0.000 C 
ENDROOT
BRANCH   1   2
ATOM      2  C   UNL     1     -97.558 -42.895  -9.512  1.00  0.00     0.006 C 
BRANCH   2   3
ATOM      3  C   UNL     1     -97.728 -43.874  -8.342  1.00  0.00     0.053 C 
BRANCH   3   4
ATOM      4  C   UNL     1     -96.671 -44.932  -8.387  1.00  0.00     0.041 C 
ATOM      5  O   UNL     1     -96.940 -46.110  -8.033  1.00  0.00    -0.550 OA
ATOM      6  O   UNL     1     -95.404 -44.629  -8.868  1.00  0.00    -0.550 OA
ENDBRANCH   3   4
ENDBRANCH   2   3
ENDBRANCH   1   2
BRANCH   1   7
ATOM      7  C   UNL     1     -98.423 -43.335 -11.907  1.00  0.00     0.000 C 
BRANCH   7   8
ATOM      8  C   UNL     1     -98.872 -44.758 -12.287  1.00  0.00    -0.000 C 
BRANCH   8   9
ATOM      9  C   UNL     1     -97.911 -45.878 -11.848  1.00  0.00    -0.003 C 
ATOM     10  C   UNL     1     -96.440 -45.511 -12.042  1.00  0.00     0.004 C 
ENDBRANCH   8   9
ENDBRANCH   7   8
ENDBRANCH   1   7
TORSDOF 6
ENDMDL
MODEL 5
REMARK VINA RESULT:    -2.719      1.684      2.454
REMARK INTER + INTRA:          -4.138
REMARK INTER:                  -3.822
REMARK INTRA:                  -0.316
REMARK UNBOUND:                -0.465
REMARK SMILES CCCCCCCC(=O)[O-]
REMARK SMILES IDX 5 1 6 2 7 3 8 4 9 5 10 6 4 7 3 8 2 9 1 10
REMARK H PARENT
REMARK Flexibility Score: inf
ROOT
ATOM      1  C   UNL     1     -97.726 -47.466 -12.365  1.00  0.00     0.000 C 
ENDROOT
BRANCH   1   2
ATOM      2  C   UNL     1     -96.483 -47.851 -11.536  1.00  0.00     0.006 C 
BRANCH   2   3
ATOM      3  C   UNL     1     -95.284 -48.226 -12.417  1.00  0.00     0.053 C 
BRANCH   3   4
ATOM      4  C   UNL     1     -94.108 -47.359 -12.098  1.00  0.00     0.041 C 
ATOM      5  O   UNL     1     -93.957 -46.255 -12.686  1.00  0.00    -0.550 OA
ATOM      6  O   UNL     1     -93.205 -47.744 -11.116  1.00  0.00    -0.550 OA
ENDBRANCH   3   4
ENDBRANCH   2   3
ENDBRANCH   1   2
BRANCH   1   7
ATOM      7  C   UNL     1     -98.195 -46.016 -12.145  1.00  0.00     0.000 C 
BRANCH   7   8
ATOM      8  C   UNL     1     -97.116 -45.056 -11.608  1.00  0.00    -0.000 C 
BRANCH   8   9
ATOM      9  C   UNL     1     -97.353 -43.571 -11.933  1.00  0.00    -0.003 C 
ATOM     10  C   UNL     1     -98.834 -43.217 -12.056  1.00  0.00     0.004 C 
ENDBRANCH   8   9
ENDBRANCH   7   8
ENDBRANCH   1   7
TORSDOF 6
ENDMDL
MODEL 6
REMARK VINA RESULT:    -2.697      3.060      4.613
REMARK INTER + INTRA:          -4.108
REMARK INTER:                  -3.491
REMARK INTRA:                  -0.617
REMARK UNBOUND:                -0.465
REMARK SMILES CCCCCCCC(=O)[O-]
REMARK SMILES IDX 5 1 6 2 7 3 8 4 9 5 10 6 4 7 3 8 2 9 1 10
REMARK H PARENT
REMARK Flexibility Score: inf
ROOT
ATOM      1  C   UNL     1     -95.538 -46.511  -9.824  1.00  0.00     0.000 C 
ENDROOT
BRANCH   1   2
ATOM      2  C   UNL     1     -95.483 -45.173  -9.056  1.00  0.00     0.006 C 
BRANCH   2   3
ATOM      3  C   UNL     1     -96.788 -44.874  -8.305  1.00  0.00     0.053 C 
BRANCH   3   4
ATOM      4  C   UNL     1     -97.385 -43.589  -8.786  1.00  0.00     0.041 C 
ATOM      5  O   UNL     1     -96.766 -42.876  -9.619  1.00  0.00    -0.550 OA
ATOM      6  O   UNL     1     -98.647 -43.204  -8.353  1.00  0.00    -0.550 OA
ENDBRANCH   3   4
ENDBRANCH   2   3
ENDBRANCH   1   2
BRANCH   1   7
ATOM      7  C   UNL     1     -95.335 -46.364 -11.343  1.00  0.00     0.000 C 
BRANCH   7   8
ATOM      8  C   UNL     1     -96.313 -45.399 -12.040  1.00  0.00    -0.000 C 
BRANCH   8   9
ATOM      9  C   UNL     1     -97.787 -45.841 -12.014  1.00  0.00    -0.003 C 
ATOM     10  C   UNL     1     -98.763 -44.667 -12.071  1.00  0.00     0.004 C 
ENDBRANCH   8   9
ENDBRANCH   7   8
ENDBRANCH   1   7
TORSDOF 6
ENDMDL
MODEL 7
REMARK VINA RESULT:    -2.672      3.374      4.344
REMARK INTER + INTRA:          -4.074
REMARK INTER:                  -3.819
REMARK INTRA:                  -0.255
REMARK UNBOUND:                -0.465
REMARK SMILES CCCCCCCC(=O)[O-]
REMARK SMILES IDX 5 1 6 2 7 3 8 4 9 5 10 6 4 7 3 8 2 9 1 10
REMARK H PARENT
REMARK Flexibility Score: inf
ROOT
ATOM      1  C   UNL     1     -98.070 -46.341 -12.260  1.00  0.00     0.000 C 
ENDROOT
BRANCH   1   2
ATOM      2  C   UNL     1     -98.441 -47.767 -12.721  1.00  0.00     0.006 C 
BRANCH   2   3
ATOM      3  C   UNL     1     -99.900 -47.872 -13.183  1.00  0.00     0.053 C 
BRANCH   3   4
ATOM      4  C   UNL     1    -100.354 -49.298 -13.163  1.00  0.00     0.041 C 
ATOM      5  O   UNL     1     -99.762 -50.140 -12.438  1.00  0.00    -0.550 OA
ATOM      6  O   UNL     1    -101.462 -49.686 -13.904  1.00  0.00    -0.550 OA
ENDBRANCH   3   4
ENDBRANCH   2   3
ENDBRANCH   1   2
BRANCH   1   7
ATOM      7  C   UNL     1     -99.225 -45.329 -12.381  1.00  0.00     0.000 C 
BRANCH   7   8
ATOM      8  C   UNL     1     -98.841 -43.865 -12.095  1.00  0.00    -0.000 C 
BRANCH   8   9
ATOM      9  C   UNL     1     -97.361 -43.644 -11.733  1.00  0.00    -0.003 C 
ATOM     10  C   UNL     1     -97.152 -43.305 -10.258  1.00  0.00     0.004 C 
ENDBRANCH   8   9
ENDBRANCH   7   8
ENDBRANCH   1   7
TORSDOF 6
ENDMDL
MODEL 8
REMARK VINA RESULT:    -2.646      1.522      1.934
REMARK INTER + INTRA:          -4.039
REMARK INTER:                  -3.667
REMARK INTRA:                  -0.372
REMARK UNBOUND:                -0.465
REMARK SMILES CCCCCCCC(=O)[O-]
REMARK SMILES IDX 5 1 6 2 7 3 8 4 9 5 10 6 4 7 3 8 2 9 1 10
REMARK H PARENT
REMARK Flexibility Score: inf
ROOT
ATOM      1  C   UNL     1     -97.660 -46.118 -11.985  1.00  0.00     0.000 C 
ENDROOT
BRANCH   1   2
ATOM      2  C   UNL     1     -96.245 -45.501 -12.001  1.00  0.00     0.006 C 
BRANCH   2   3
ATOM      3  C   UNL     1     -95.141 -46.565 -11.952  1.00  0.00     0.053 C 
BRANCH   3   4
ATOM      4  C   UNL     1     -94.542 -46.635 -10.583  1.00  0.00     0.041 C 
ATOM      5  O   UNL     1     -93.598 -47.433 -10.345  1.00  0.00    -0.550 OA
ATOM      6  O   UNL     1     -94.992 -45.783  -9.583  1.00  0.00    -0.550 OA
ENDBRANCH   3   4
ENDBRANCH   2   3
ENDBRANCH   1   2
BRANCH   1   7
ATOM      7  C   UNL     1     -98.793 -45.076 -12.025  1.00  0.00     0.000 C 
BRANCH   7   8
ATOM      8  C   UNL     1     -98.330 -43.608 -11.978  1.00  0.00    -0.000 C 
BRANCH   8   9
ATOM      9  C   UNL     1     -98.636 -42.876 -10.659  1.00  0.00    -0.003 C 
ATOM     10  C   UNL     1     -97.508 -42.998  -9.634  1.00  0.00     0.004 C 
ENDBRANCH   8   9
ENDBRANCH   7   8
ENDBRANCH   1   7
TORSDOF 6
ENDMDL
MODEL 9
REMARK VINA RESULT:    -2.617      2.008      3.271
REMARK INTER + INTRA:          -4.000
REMARK INTER:                  -3.521
REMARK INTRA:                  -0.479
REMARK UNBOUND:                -0.465
REMARK SMILES CCCCCCCC(=O)[O-]
REMARK SMILES IDX 5 1 6 2 7 3 8 4 9 5 10 6 4 7 3 8 2 9 1 10
REMARK H PARENT
REMARK Flexibility Score: inf
ROOT
ATOM      1  C   UNL     1     -97.380 -43.927  -9.373  1.00  0.00     0.000 C 
ENDROOT
BRANCH   1   2
ATOM      2  C   UNL     1     -95.926 -44.246  -8.963  1.00  0.00     0.006 C 
BRANCH   2   3
ATOM      3  C   UNL     1     -95.712 -45.739  -8.677  1.00  0.00     0.053 C 
BRANCH   3   4
ATOM      4  C   UNL     1     -94.469 -46.228  -9.352  1.00  0.00     0.041 C 
ATOM      5  O   UNL     1     -94.394 -46.239 -10.609  1.00  0.00    -0.550 OA
ATOM      6  O   UNL     1     -93.376 -46.624  -8.593  1.00  0.00    -0.550 OA
ENDBRANCH   3   4
ENDBRANCH   2   3
ENDBRANCH   1   2
BRANCH   1   7
ATOM      7  C   UNL     1     -97.509 -43.326 -10.785  1.00  0.00     0.000 C 
BRANCH   7   8
ATOM      8  C   UNL     1     -97.055 -44.251 -11.931  1.00  0.00    -0.000 C 
BRANCH   8   9
ATOM      9  C   UNL     1     -97.762 -45.617 -11.977  1.00  0.00    -0.003 C 
ATOM     10  C   UNL     1     -99.224 -45.518 -12.408  1.00  0.00     0.004 C 
ENDBRANCH   8   9
ENDBRANCH   7   8
ENDBRANCH   1   7
TORSDOF 6
ENDMDL
