MODEL 1
REMARK VINA RESULT:    -4.895      0.000      0.000
REMARK INTER + INTRA:         -16.954
REMARK INTER:                 -12.336
REMARK INTRA:                  -4.618
REMARK UNBOUND:                -4.618
REMARK SMILES CCCCCCCCCCCCCCCCCCCCCCCCCCCC(=O)[O-]
REMARK SMILES IDX 15 1 16 2 17 3 18 4 19 5 20 6 21 7 22 8 23 9 24 10 25 11
REMARK SMILES IDX 26 12 27 13 28 14 29 15 30 16 14 17 13 18 12 19 11 20 10 21
REMARK SMILES IDX 9 22 8 23 7 24 6 25 5 26 4 27 3 28 2 29 1 30
REMARK H PARENT
REMARK Flexibility Score: inf
ROOT
ATOM      1  C   UNL     1      30.599  -7.150  12.180  1.00  0.00     0.000 C 
ENDROOT
BRANCH   1   2
ATOM      2  C   UNL     1      31.403  -6.474  11.063  1.00  0.00     0.000 C 
BRANCH   2   3
ATOM      3  C   UNL     1      32.140  -5.233  11.587  1.00  0.00     0.000 C 
BRANCH   3   4
ATOM      4  C   UNL     1      33.548  -5.076  10.988  1.00  0.00     0.000 C 
BRANCH   4   5
ATOM      5  C   UNL     1      33.817  -6.005   9.785  1.00  0.00     0.000 C 
BRANCH   5   6
ATOM      6  C   UNL     1      35.100  -6.838   9.963  1.00  0.00     0.000 C 
BRANCH   6   7
ATOM      7  C   UNL     1      35.706  -6.677  11.375  1.00  0.00     0.000 C 
BRANCH   7   8
ATOM      8  C   UNL     1      36.112  -8.011  12.023  1.00  0.00     0.000 C 
BRANCH   8   9
ATOM      9  C   UNL     1      34.908  -8.906  12.348  1.00  0.00     0.000 C 
BRANCH   9  10
ATOM     10  C   UNL     1      34.951 -10.201  11.525  1.00  0.00     0.000 C 
BRANCH  10  11
ATOM     11  C   UNL     1      33.588 -10.570  10.911  1.00  0.00     0.000 C 
BRANCH  11  12
ATOM     12  C   UNL     1      33.301  -9.944   9.534  1.00  0.00     0.006 C 
BRANCH  12  13
ATOM     13  C   UNL     1      31.827  -9.564   9.342  1.00  0.00     0.053 C 
BRANCH  13  14
ATOM     14  C   UNL     1      31.587  -9.071   7.950  1.00  0.00     0.041 C 
ATOM     15  O   UNL     1      31.885  -9.794   6.963  1.00  0.00    -0.550 OA
ATOM     16  O   UNL     1      31.061  -7.802   7.741  1.00  0.00    -0.550 OA
ENDBRANCH  13  14
ENDBRANCH  12  13
ENDBRANCH  11  12
ENDBRANCH  10  11
ENDBRANCH   9  10
ENDBRANCH   8   9
ENDBRANCH   7   8
ENDBRANCH   6   7
ENDBRANCH   5   6
ENDBRANCH   4   5
ENDBRANCH   3   4
ENDBRANCH   2   3
ENDBRANCH   1   2
BRANCH   1  17
ATOM     17  C   UNL     1      31.436  -8.223  12.888  1.00  0.00     0.000 C 
BRANCH  17  18
ATOM     18  C   UNL     1      30.738  -9.587  12.844  1.00  0.00     0.000 C 
BRANCH  18  19
ATOM     19  C   UNL     1      31.314 -10.533  13.909  1.00  0.00     0.000 C 
BRANCH  19  20
ATOM     20  C   UNL     1      32.041  -9.786  15.039  1.00  0.00     0.000 C 
BRANCH  20  21
ATOM     21  C   UNL     1      31.559 -10.213  16.437  1.00  0.00     0.000 C 
BRANCH  21  22
ATOM     22  C   UNL     1      31.026  -9.035  17.273  1.00  0.00    -0.000 C 
BRANCH  22  23
ATOM     23  C   UNL     1      29.645  -8.500  16.847  1.00  0.00    -0.000 C 
BRANCH  23  24
ATOM     24  C   UNL     1      28.652  -9.616  16.494  1.00  0.00    -0.000 C 
BRANCH  24  25
ATOM     25  C   UNL     1      28.101  -9.431  15.072  1.00  0.00    -0.000 C 
BRANCH  25  26
ATOM     26  C   UNL     1      27.054 -10.493  14.692  1.00  0.00    -0.000 C 
BRANCH  26  27
ATOM     27  C   UNL     1      27.518 -11.527  13.645  1.00  0.00    -0.000 C 
BRANCH  27  28
ATOM     28  C   UNL     1      27.437 -12.996  14.098  1.00  0.00    -0.000 C 
BRANCH  28  29
ATOM     29  C   UNL     1      28.174 -13.252  15.420  1.00  0.00    -0.003 C 
ATOM     30  C   UNL     1      28.709 -14.679  15.484  1.00  0.00     0.004 C 
ENDBRANCH  28  29
ENDBRANCH  27  28
ENDBRANCH  26  27
ENDBRANCH  25  26
ENDBRANCH  24  25
ENDBRANCH  23  24
ENDBRANCH  22  23
ENDBRANCH  21  22
ENDBRANCH  20  21
ENDBRANCH  19  20
ENDBRANCH  18  19
ENDBRANCH  17  18
ENDBRANCH   1  17
TORSDOF 26
ENDMDL
MODEL 2
REMARK VINA RESULT:    -4.871      2.321      3.743
REMARK INTER + INTRA:         -16.892
REMARK INTER:                 -12.042
REMARK INTRA:                  -4.850
REMARK UNBOUND:                -4.618
REMARK SMILES CCCCCCCCCCCCCCCCCCCCCCCCCCCC(=O)[O-]
REMARK SMILES IDX 15 1 16 2 17 3 18 4 19 5 20 6 21 7 22 8 23 9 24 10 25 11
REMARK SMILES IDX 26 12 27 13 28 14 29 15 30 16 14 17 13 18 12 19 11 20 10 21
REMARK SMILES IDX 9 22 8 23 7 24 6 25 5 26 4 27 3 28 2 29 1 30
REMARK H PARENT
REMARK Flexibility Score: inf
ROOT
ATOM      1  C   UNL     1      30.805 -10.277  12.192  1.00  0.00     0.000 C 
ENDROOT
BRANCH   1   2
ATOM      2  C   UNL     1      31.599  -9.090  11.632  1.00  0.00     0.000 C 
BRANCH   2   3
ATOM      3  C   UNL     1      31.431  -7.847  12.515  1.00  0.00     0.000 C 
BRANCH   3   4
ATOM      4  C   UNL     1      30.774  -6.669  11.773  1.00  0.00     0.000 C 
BRANCH   4   5
ATOM      5  C   UNL     1      31.348  -6.429  10.361  1.00  0.00     0.000 C 
BRANCH   5   6
ATOM      6  C   UNL     1      32.690  -5.674  10.395  1.00  0.00     0.000 C 
BRANCH   6   7
ATOM      7  C   UNL     1      33.732  -6.296   9.440  1.00  0.00     0.000 C 
BRANCH   7   8
ATOM      8  C   UNL     1      35.095  -6.554  10.103  1.00  0.00     0.000 C 
BRANCH   8   9
ATOM      9  C   UNL     1      34.980  -6.843  11.605  1.00  0.00     0.000 C 
BRANCH   9  10
ATOM     10  C   UNL     1      35.282  -8.319  11.903  1.00  0.00     0.000 C 
BRANCH  10  11
ATOM     11  C   UNL     1      35.015  -8.705  13.369  1.00  0.00     0.000 C 
BRANCH  11  12
ATOM     12  C   UNL     1      34.580 -10.165  13.591  1.00  0.00     0.006 C 
BRANCH  12  13
ATOM     13  C   UNL     1      34.548 -10.986  12.294  1.00  0.00     0.053 C 
BRANCH  13  14
ATOM     14  C   UNL     1      34.730 -12.441  12.588  1.00  0.00     0.041 C 
ATOM     15  O   UNL     1      34.322 -12.923  13.679  1.00  0.00    -0.550 OA
ATOM     16  O   UNL     1      35.376 -13.262  11.672  1.00  0.00    -0.550 OA
ENDBRANCH  13  14
ENDBRANCH  12  13
ENDBRANCH  11  12
ENDBRANCH  10  11
ENDBRANCH   9  10
ENDBRANCH   8   9
ENDBRANCH   7   8
ENDBRANCH   6   7
ENDBRANCH   5   6
ENDBRANCH   4   5
ENDBRANCH   3   4
ENDBRANCH   2   3
ENDBRANCH   1   2
BRANCH   1  17
ATOM     17  C   UNL     1      29.921  -9.840  13.366  1.00  0.00     0.000 C 
BRANCH  17  18
ATOM     18  C   UNL     1      28.808 -10.862  13.628  1.00  0.00     0.000 C 
BRANCH  18  19
ATOM     19  C   UNL     1      27.752 -10.289  14.587  1.00  0.00     0.000 C 
BRANCH  19  20
ATOM     20  C   UNL     1      28.214  -8.996  15.279  1.00  0.00     0.000 C 
BRANCH  20  21
ATOM     21  C   UNL     1      28.824  -9.253  16.668  1.00  0.00     0.000 C 
BRANCH  21  22
ATOM     22  C   UNL     1      30.201  -8.588  16.850  1.00  0.00    -0.000 C 
BRANCH  22  23
ATOM     23  C   UNL     1      31.328  -9.530  17.315  1.00  0.00    -0.000 C 
BRANCH  23  24
ATOM     24  C   UNL     1      32.220 -10.012  16.162  1.00  0.00    -0.000 C 
BRANCH  24  25
ATOM     25  C   UNL     1      31.810 -11.419  15.702  1.00  0.00    -0.000 C 
BRANCH  25  26
ATOM     26  C   UNL     1      30.954 -12.163  16.743  1.00  0.00    -0.000 C 
BRANCH  26  27
ATOM     27  C   UNL     1      30.002 -13.232  16.166  1.00  0.00    -0.000 C 
BRANCH  27  28
ATOM     28  C   UNL     1      28.565 -13.191  16.716  1.00  0.00    -0.000 C 
BRANCH  28  29
ATOM     29  C   UNL     1      27.512 -13.540  15.655  1.00  0.00    -0.003 C 
ATOM     30  C   UNL     1      27.988 -14.683  14.764  1.00  0.00     0.004 C 
ENDBRANCH  28  29
ENDBRANCH  27  28
ENDBRANCH  26  27
ENDBRANCH  25  26
ENDBRANCH  24  25
ENDBRANCH  23  24
ENDBRANCH  22  23
ENDBRANCH  21  22
ENDBRANCH  20  21
ENDBRANCH  19  20
ENDBRANCH  18  19
ENDBRANCH  17  18
ENDBRANCH   1  17
TORSDOF 26
ENDMDL
MODEL 3
REMARK VINA RESULT:    -4.865      2.455      3.247
REMARK INTER + INTRA:         -16.877
REMARK INTER:                 -12.492
REMARK INTRA:                  -4.384
REMARK UNBOUND:                -4.618
REMARK SMILES CCCCCCCCCCCCCCCCCCCCCCCCCCCC(=O)[O-]
REMARK SMILES IDX 15 1 16 2 17 3 18 4 19 5 20 6 21 7 22 8 23 9 24 10 25 11
REMARK SMILES IDX 26 12 27 13 28 14 29 15 30 16 14 17 13 18 12 19 11 20 10 21
REMARK SMILES IDX 9 22 8 23 7 24 6 25 5 26 4 27 3 28 2 29 1 30
REMARK H PARENT
REMARK Flexibility Score: inf
ROOT
ATOM      1  C   UNL     1      31.236  -7.502  10.792  1.00  0.00     0.000 C 
ENDROOT
BRANCH   1   2
ATOM      2  C   UNL     1      31.900  -6.292  10.123  1.00  0.00     0.000 C 
BRANCH   2   3
ATOM      3  C   UNL     1      32.465  -5.323  11.170  1.00  0.00     0.000 C 
BRANCH   3   4
ATOM      4  C   UNL     1      33.983  -5.111  11.033  1.00  0.00     0.000 C 
BRANCH   4   5
ATOM      5  C   UNL     1      34.678  -6.168  10.148  1.00  0.00     0.000 C 
BRANCH   5   6
ATOM      6  C   UNL     1      35.986  -6.686  10.773  1.00  0.00     0.000 C 
BRANCH   6   7
ATOM      7  C   UNL     1      35.907  -8.188  11.124  1.00  0.00     0.000 C 
BRANCH   7   8
ATOM      8  C   UNL     1      34.595  -8.588  11.818  1.00  0.00     0.000 C 
BRANCH   8   9
ATOM      9  C   UNL     1      34.558  -8.182  13.297  1.00  0.00     0.000 C 
BRANCH   9  10
ATOM     10  C   UNL     1      35.507  -9.055  14.129  1.00  0.00     0.000 C 
BRANCH  10  11
ATOM     11  C   UNL     1      34.845 -10.348  14.641  1.00  0.00     0.000 C 
BRANCH  11  12
ATOM     12  C   UNL     1      35.414 -11.650  14.051  1.00  0.00     0.006 C 
BRANCH  12  13
ATOM     13  C   UNL     1      34.598 -12.182  12.866  1.00  0.00     0.053 C 
BRANCH  13  14
ATOM     14  C   UNL     1      34.733 -13.668  12.756  1.00  0.00     0.041 C 
ATOM     15  O   UNL     1      34.513 -14.399  13.758  1.00  0.00    -0.550 OA
ATOM     16  O   UNL     1      35.131 -14.245  11.556  1.00  0.00    -0.550 OA
ENDBRANCH  13  14
ENDBRANCH  12  13
ENDBRANCH  11  12
ENDBRANCH  10  11
ENDBRANCH   9  10
ENDBRANCH   8   9
ENDBRANCH   7   8
ENDBRANCH   6   7
ENDBRANCH   5   6
ENDBRANCH   4   5
ENDBRANCH   3   4
ENDBRANCH   2   3
ENDBRANCH   1   2
BRANCH   1  17
ATOM     17  C   UNL     1      30.554  -7.099  12.104  1.00  0.00     0.000 C 
BRANCH  17  18
ATOM     18  C   UNL     1      30.923  -8.063  13.238  1.00  0.00     0.000 C 
BRANCH  18  19
ATOM     19  C   UNL     1      30.842  -9.523  12.766  1.00  0.00     0.000 C 
BRANCH  19  20
ATOM     20  C   UNL     1      31.041 -10.531  13.909  1.00  0.00     0.000 C 
BRANCH  20  21
ATOM     21  C   UNL     1      31.364  -9.850  15.250  1.00  0.00     0.000 C 
BRANCH  21  22
ATOM     22  C   UNL     1      30.334 -10.171  16.349  1.00  0.00    -0.000 C 
BRANCH  22  23
ATOM     23  C   UNL     1      29.331  -9.043  16.657  1.00  0.00    -0.000 C 
BRANCH  23  24
ATOM     24  C   UNL     1      28.173  -8.978  15.650  1.00  0.00    -0.000 C 
BRANCH  24  25
ATOM     25  C   UNL     1      27.506 -10.353  15.492  1.00  0.00    -0.000 C 
BRANCH  25  26
ATOM     26  C   UNL     1      27.375 -10.788  14.021  1.00  0.00    -0.000 C 
BRANCH  26  27
ATOM     27  C   UNL     1      26.904 -12.242  13.807  1.00  0.00    -0.000 C 
BRANCH  27  28
ATOM     28  C   UNL     1      26.998 -13.149  15.047  1.00  0.00    -0.000 C 
BRANCH  28  29
ATOM     29  C   UNL     1      27.451 -14.576  14.707  1.00  0.00    -0.003 C 
ATOM     30  C   UNL     1      28.776 -14.908  15.386  1.00  0.00     0.004 C 
ENDBRANCH  28  29
ENDBRANCH  27  28
ENDBRANCH  26  27
ENDBRANCH  25  26
ENDBRANCH  24  25
ENDBRANCH  23  24
ENDBRANCH  22  23
ENDBRANCH  21  22
ENDBRANCH  20  21
ENDBRANCH  19  20
ENDBRANCH  18  19
ENDBRANCH  17  18
ENDBRANCH   1  17
TORSDOF 26
ENDMDL
MODEL 4
REMARK VINA RESULT:    -4.764      3.090      7.419
REMARK INTER + INTRA:         -16.623
REMARK INTER:                 -11.642
REMARK INTRA:                  -4.981
REMARK UNBOUND:                -4.618
REMARK SMILES CCCCCCCCCCCCCCCCCCCCCCCCCCCC(=O)[O-]
REMARK SMILES IDX 15 1 16 2 17 3 18 4 19 5 20 6 21 7 22 8 23 9 24 10 25 11
REMARK SMILES IDX 26 12 27 13 28 14 29 15 30 16 14 17 13 18 12 19 11 20 10 21
REMARK SMILES IDX 9 22 8 23 7 24 6 25 5 26 4 27 3 28 2 29 1 30
REMARK H PARENT
REMARK Flexibility Score: inf
ROOT
ATOM      1  C   UNL     1      31.314  -8.784  12.183  1.00  0.00     0.000 C 
ENDROOT
BRANCH   1   2
ATOM      2  C   UNL     1      31.065  -9.740  13.356  1.00  0.00     0.000 C 
BRANCH   2   3
ATOM      3  C   UNL     1      29.939 -10.731  13.031  1.00  0.00     0.000 C 
BRANCH   3   4
ATOM      4  C   UNL     1      28.782 -10.677  14.044  1.00  0.00     0.000 C 
BRANCH   4   5
ATOM      5  C   UNL     1      28.648  -9.314  14.758  1.00  0.00     0.000 C 
BRANCH   5   6
ATOM      6  C   UNL     1      28.395  -9.468  16.269  1.00  0.00     0.000 C 
BRANCH   6   7
ATOM      7  C   UNL     1      29.482  -8.768  17.114  1.00  0.00     0.000 C 
BRANCH   7   8
ATOM      8  C   UNL     1      30.910  -9.004  16.594  1.00  0.00     0.000 C 
BRANCH   8   9
ATOM      9  C   UNL     1      31.887  -9.412  17.704  1.00  0.00     0.000 C 
BRANCH   9  10
ATOM     10  C   UNL     1      32.438 -10.823  17.457  1.00  0.00     0.000 C 
BRANCH  10  11
ATOM     11  C   UNL     1      31.684 -11.579  16.349  1.00  0.00     0.000 C 
BRANCH  11  12
ATOM     12  C   UNL     1      30.525 -12.467  16.836  1.00  0.00     0.006 C 
BRANCH  12  13
ATOM     13  C   UNL     1      30.213 -13.626  15.880  1.00  0.00     0.053 C 
BRANCH  13  14
ATOM     14  C   UNL     1      28.746 -13.920  15.870  1.00  0.00     0.041 C 
ATOM     15  O   UNL     1      28.299 -14.888  15.198  1.00  0.00    -0.550 OA
ATOM     16  O   UNL     1      27.868 -13.109  16.579  1.00  0.00    -0.550 OA
ENDBRANCH  13  14
ENDBRANCH  12  13
ENDBRANCH  11  12
ENDBRANCH  10  11
ENDBRANCH   9  10
ENDBRANCH   8   9
ENDBRANCH   7   8
ENDBRANCH   6   7
ENDBRANCH   5   6
ENDBRANCH   4   5
ENDBRANCH   3   4
ENDBRANCH   2   3
ENDBRANCH   1   2
BRANCH   1  17
ATOM     17  C   UNL     1      30.768  -7.384  12.491  1.00  0.00     0.000 C 
BRANCH  17  18
ATOM     18  C   UNL     1      30.782  -6.498  11.240  1.00  0.00     0.000 C 
BRANCH  18  19
ATOM     19  C   UNL     1      31.301  -7.277  10.021  1.00  0.00     0.000 C 
BRANCH  19  20
ATOM     20  C   UNL     1      32.050  -6.386   9.018  1.00  0.00     0.000 C 
BRANCH  20  21
ATOM     21  C   UNL     1      33.578  -6.541   9.113  1.00  0.00     0.000 C 
BRANCH  21  22
ATOM     22  C   UNL     1      34.208  -5.634  10.186  1.00  0.00    -0.000 C 
BRANCH  22  23
ATOM     23  C   UNL     1      35.269  -6.308  11.076  1.00  0.00    -0.000 C 
BRANCH  23  24
ATOM     24  C   UNL     1      34.845  -7.701  11.564  1.00  0.00    -0.000 C 
BRANCH  24  25
ATOM     25  C   UNL     1      34.498  -7.677  13.060  1.00  0.00    -0.000 C 
BRANCH  25  26
ATOM     26  C   UNL     1      35.323  -8.683  13.883  1.00  0.00    -0.000 C 
BRANCH  26  27
ATOM     27  C   UNL     1      34.496  -9.703  14.692  1.00  0.00    -0.000 C 
BRANCH  27  28
ATOM     28  C   UNL     1      34.932 -11.171  14.532  1.00  0.00    -0.000 C 
BRANCH  28  29
ATOM     29  C   UNL     1      34.054 -11.947  13.540  1.00  0.00    -0.003 C 
ATOM     30  C   UNL     1      34.216 -11.407  12.123  1.00  0.00     0.004 C 
ENDBRANCH  28  29
ENDBRANCH  27  28
ENDBRANCH  26  27
ENDBRANCH  25  26
ENDBRANCH  24  25
ENDBRANCH  23  24
ENDBRANCH  22  23
ENDBRANCH  21  22
ENDBRANCH  20  21
ENDBRANCH  19  20
ENDBRANCH  18  19
ENDBRANCH  17  18
ENDBRANCH   1  17
TORSDOF 26
ENDMDL
MODEL 5
REMARK VINA RESULT:    -4.718      2.407      3.423
REMARK INTER + INTRA:         -16.507
REMARK INTER:                 -11.180
REMARK INTRA:                  -5.327
REMARK UNBOUND:                -4.618
REMARK SMILES CCCCCCCCCCCCCCCCCCCCCCCCCCCC(=O)[O-]
REMARK SMILES IDX 15 1 16 2 17 3 18 4 19 5 20 6 21 7 22 8 23 9 24 10 25 11
REMARK SMILES IDX 26 12 27 13 28 14 29 15 30 16 14 17 13 18 12 19 11 20 10 21
REMARK SMILES IDX 9 22 8 23 7 24 6 25 5 26 4 27 3 28 2 29 1 30
REMARK H PARENT
REMARK Flexibility Score: inf
ROOT
ATOM      1  C   UNL     1      31.623  -8.077  12.585  1.00  0.00     0.000 C 
ENDROOT
BRANCH   1   2
ATOM      2  C   UNL     1      30.537  -7.083  12.155  1.00  0.00     0.000 C 
BRANCH   2   3
ATOM      3  C   UNL     1      31.148  -5.879  11.426  1.00  0.00     0.000 C 
BRANCH   3   4
ATOM      4  C   UNL     1      32.676  -5.983  11.273  1.00  0.00     0.000 C 
BRANCH   4   5
ATOM      5  C   UNL     1      33.162  -5.868   9.812  1.00  0.00     0.000 C 
BRANCH   5   6
ATOM      6  C   UNL     1      32.069  -6.255   8.799  1.00  0.00     0.000 C 
BRANCH   6   7
ATOM      7  C   UNL     1      32.376  -7.595   8.096  1.00  0.00     0.000 C 
BRANCH   7   8
ATOM      8  C   UNL     1      31.949  -8.827   8.911  1.00  0.00     0.000 C 
BRANCH   8   9
ATOM      9  C   UNL     1      33.138  -9.702   9.332  1.00  0.00     0.000 C 
BRANCH   9  10
ATOM     10  C   UNL     1      34.444  -9.186   8.712  1.00  0.00     0.000 C 
BRANCH  10  11
ATOM     11  C   UNL     1      35.523  -8.863   9.761  1.00  0.00     0.000 C 
BRANCH  11  12
ATOM     12  C   UNL     1      35.051  -8.929  11.225  1.00  0.00     0.006 C 
BRANCH  12  13
ATOM     13  C   UNL     1      35.649  -7.819  12.100  1.00  0.00     0.053 C 
BRANCH  13  14
ATOM     14  C   UNL     1      36.754  -8.358  12.953  1.00  0.00     0.041 C 
ATOM     15  O   UNL     1      37.885  -7.804  12.949  1.00  0.00    -0.550 OA
ATOM     16  O   UNL     1      36.544  -9.491  13.730  1.00  0.00    -0.550 OA
ENDBRANCH  13  14
ENDBRANCH  12  13
ENDBRANCH  11  12
ENDBRANCH  10  11
ENDBRANCH   9  10
ENDBRANCH   8   9
ENDBRANCH   7   8
ENDBRANCH   6   7
ENDBRANCH   5   6
ENDBRANCH   4   5
ENDBRANCH   3   4
ENDBRANCH   2   3
ENDBRANCH   1   2
BRANCH   1  17
ATOM     17  C   UNL     1      31.139  -9.523  12.423  1.00  0.00     0.000 C 
BRANCH  17  18
ATOM     18  C   UNL     1      32.002 -10.490  13.242  1.00  0.00     0.000 C 
BRANCH  18  19
ATOM     19  C   UNL     1      33.011  -9.723  14.111  1.00  0.00     0.000 C 
BRANCH  19  20
ATOM     20  C   UNL     1      33.051 -10.227  15.563  1.00  0.00     0.000 C 
BRANCH  20  21
ATOM     21  C   UNL     1      31.891 -11.184  15.891  1.00  0.00     0.000 C 
BRANCH  21  22
ATOM     22  C   UNL     1      30.793 -10.524  16.745  1.00  0.00    -0.000 C 
BRANCH  22  23
ATOM     23  C   UNL     1      30.625  -9.006  16.538  1.00  0.00    -0.000 C 
BRANCH  23  24
ATOM     24  C   UNL     1      29.462  -8.654  15.599  1.00  0.00    -0.000 C 
BRANCH  24  25
ATOM     25  C   UNL     1      28.190  -9.421  15.990  1.00  0.00    -0.000 C 
BRANCH  25  26
ATOM     26  C   UNL     1      27.564 -10.184  14.809  1.00  0.00    -0.000 C 
BRANCH  26  27
ATOM     27  C   UNL     1      28.326 -11.451  14.369  1.00  0.00    -0.000 C 
BRANCH  27  28
ATOM     28  C   UNL     1      27.440 -12.671  14.058  1.00  0.00    -0.000 C 
BRANCH  28  29
ATOM     29  C   UNL     1      27.516 -13.753  15.145  1.00  0.00    -0.003 C 
ATOM     30  C   UNL     1      28.389 -13.300  16.311  1.00  0.00     0.004 C 
ENDBRANCH  28  29
ENDBRANCH  27  28
ENDBRANCH  26  27
ENDBRANCH  25  26
ENDBRANCH  24  25
ENDBRANCH  23  24
ENDBRANCH  22  23
ENDBRANCH  21  22
ENDBRANCH  20  21
ENDBRANCH  19  20
ENDBRANCH  18  19
ENDBRANCH  17  18
ENDBRANCH   1  17
TORSDOF 26
ENDMDL
MODEL 6
REMARK VINA RESULT:    -4.614      3.210      8.736
REMARK INTER + INTRA:         -16.244
REMARK INTER:                 -13.374
REMARK INTRA:                  -2.870
REMARK UNBOUND:                -4.618
REMARK SMILES CCCCCCCCCCCCCCCCCCCCCCCCCCCC(=O)[O-]
REMARK SMILES IDX 15 1 16 2 17 3 18 4 19 5 20 6 21 7 22 8 23 9 24 10 25 11
REMARK SMILES IDX 26 12 27 13 28 14 29 15 30 16 14 17 13 18 12 19 11 20 10 21
REMARK SMILES IDX 9 22 8 23 7 24 6 25 5 26 4 27 3 28 2 29 1 30
REMARK H PARENT
REMARK Flexibility Score: inf
ROOT
ATOM      1  C   UNL     1      31.137 -10.253  12.167  1.00  0.00     0.000 C 
ENDROOT
BRANCH   1   2
ATOM      2  C   UNL     1      30.365 -10.000  13.467  1.00  0.00     0.000 C 
BRANCH   2   3
ATOM      3  C   UNL     1      29.107 -10.876  13.542  1.00  0.00     0.000 C 
BRANCH   3   4
ATOM      4  C   UNL     1      27.956 -10.207  14.315  1.00  0.00     0.000 C 
BRANCH   4   5
ATOM      5  C   UNL     1      28.405  -9.008  15.178  1.00  0.00     0.000 C 
BRANCH   5   6
ATOM      6  C   UNL     1      28.626  -9.398  16.651  1.00  0.00     0.000 C 
BRANCH   6   7
ATOM      7  C   UNL     1      30.039  -9.019  17.146  1.00  0.00     0.000 C 
BRANCH   7   8
ATOM      8  C   UNL     1      31.168  -9.585  16.270  1.00  0.00     0.000 C 
BRANCH   8   9
ATOM      9  C   UNL     1      32.279 -10.255  17.090  1.00  0.00     0.000 C 
BRANCH   9  10
ATOM     10  C   UNL     1      32.075 -11.776  17.147  1.00  0.00     0.000 C 
BRANCH  10  11
ATOM     11  C   UNL     1      30.917 -12.263  16.257  1.00  0.00     0.000 C 
BRANCH  11  12
ATOM     12  C   UNL     1      29.831 -13.075  16.986  1.00  0.00     0.006 C 
BRANCH  12  13
ATOM     13  C   UNL     1      28.505 -13.133  16.215  1.00  0.00     0.053 C 
BRANCH  13  14
ATOM     14  C   UNL     1      28.515 -14.264  15.235  1.00  0.00     0.041 C 
ATOM     15  O   UNL     1      29.155 -15.318  15.491  1.00  0.00    -0.550 OA
ATOM     16  O   UNL     1      27.841 -14.143  14.026  1.00  0.00    -0.550 OA
ENDBRANCH  13  14
ENDBRANCH  12  13
ENDBRANCH  11  12
ENDBRANCH  10  11
ENDBRANCH   9  10
ENDBRANCH   8   9
ENDBRANCH   7   8
ENDBRANCH   6   7
ENDBRANCH   5   6
ENDBRANCH   4   5
ENDBRANCH   3   4
ENDBRANCH   2   3
ENDBRANCH   1   2
BRANCH   1  17
ATOM     17  C   UNL     1      31.364  -8.944  11.400  1.00  0.00     0.000 C 
BRANCH  17  18
ATOM     18  C   UNL     1      30.956  -7.731  12.244  1.00  0.00     0.000 C 
BRANCH  18  19
ATOM     19  C   UNL     1      30.948  -6.450  11.396  1.00  0.00     0.000 C 
BRANCH  19  20
ATOM     20  C   UNL     1      31.306  -6.707   9.924  1.00  0.00     0.000 C 
BRANCH  20  21
ATOM     21  C   UNL     1      32.639  -6.056   9.515  1.00  0.00     0.000 C 
BRANCH  21  22
ATOM     22  C   UNL     1      33.318  -5.303  10.674  1.00  0.00    -0.000 C 
BRANCH  22  23
ATOM     23  C   UNL     1      34.747  -5.769  11.011  1.00  0.00    -0.000 C 
BRANCH  23  24
ATOM     24  C   UNL     1      34.780  -7.106  11.766  1.00  0.00    -0.000 C 
BRANCH  24  25
ATOM     25  C   UNL     1      36.225  -7.591  11.960  1.00  0.00    -0.000 C 
BRANCH  25  26
ATOM     26  C   UNL     1      37.230  -6.854  11.058  1.00  0.00    -0.000 C 
BRANCH  26  27
ATOM     27  C   UNL     1      38.325  -6.064  11.804  1.00  0.00    -0.000 C 
BRANCH  27  28
ATOM     28  C   UNL     1      39.346  -6.925  12.569  1.00  0.00    -0.000 C 
BRANCH  28  29
ATOM     29  C   UNL     1      40.789  -6.426  12.400  1.00  0.00    -0.003 C 
ATOM     30  C   UNL     1      41.522  -6.402  13.738  1.00  0.00     0.004 C 
ENDBRANCH  28  29
ENDBRANCH  27  28
ENDBRANCH  26  27
ENDBRANCH  25  26
ENDBRANCH  24  25
ENDBRANCH  23  24
ENDBRANCH  22  23
ENDBRANCH  21  22
ENDBRANCH  20  21
ENDBRANCH  19  20
ENDBRANCH  18  19
ENDBRANCH  17  18
ENDBRANCH   1  17
TORSDOF 26
ENDMDL
MODEL 7
REMARK VINA RESULT:    -4.613      2.903      8.105
REMARK INTER + INTRA:         -16.242
REMARK INTER:                 -11.660
REMARK INTRA:                  -4.582
REMARK UNBOUND:                -4.618
REMARK SMILES CCCCCCCCCCCCCCCCCCCCCCCCCCCC(=O)[O-]
REMARK SMILES IDX 15 1 16 2 17 3 18 4 19 5 20 6 21 7 22 8 23 9 24 10 25 11
REMARK SMILES IDX 26 12 27 13 28 14 29 15 30 16 14 17 13 18 12 19 11 20 10 21
REMARK SMILES IDX 9 22 8 23 7 24 6 25 5 26 4 27 3 28 2 29 1 30
REMARK H PARENT
REMARK Flexibility Score: inf
ROOT
ATOM      1  C   UNL     1      30.891  -7.900  12.965  1.00  0.00     0.000 C 
ENDROOT
BRANCH   1   2
ATOM      2  C   UNL     1      30.999  -9.198  12.156  1.00  0.00     0.000 C 
BRANCH   2   3
ATOM      3  C   UNL     1      32.230 -10.011  12.577  1.00  0.00     0.000 C 
BRANCH   3   4
ATOM      4  C   UNL     1      33.258  -9.177  13.361  1.00  0.00     0.000 C 
BRANCH   4   5
ATOM      5  C   UNL     1      33.913  -9.941  14.532  1.00  0.00     0.000 C 
BRANCH   5   6
ATOM      6  C   UNL     1      33.044  -9.922  15.803  1.00  0.00     0.000 C 
BRANCH   6   7
ATOM      7  C   UNL     1      32.357 -11.281  16.059  1.00  0.00     0.000 C 
BRANCH   7   8
ATOM      8  C   UNL     1      30.837 -11.170  16.266  1.00  0.00     0.000 C 
BRANCH   8   9
ATOM      9  C   UNL     1      30.312  -9.742  16.067  1.00  0.00     0.000 C 
BRANCH   9  10
ATOM     10  C   UNL     1      28.780  -9.703  16.168  1.00  0.00     0.000 C 
BRANCH  10  11
ATOM     11  C   UNL     1      28.088  -9.618  14.795  1.00  0.00     0.000 C 
BRANCH  11  12
ATOM     12  C   UNL     1      27.268 -10.859  14.399  1.00  0.00     0.006 C 
BRANCH  12  13
ATOM     13  C   UNL     1      28.143 -12.054  13.997  1.00  0.00     0.053 C 
BRANCH  13  14
ATOM     14  C   UNL     1      27.434 -13.343  14.275  1.00  0.00     0.041 C 
ATOM     15  O   UNL     1      27.317 -14.209  13.369  1.00  0.00    -0.550 OA
ATOM     16  O   UNL     1      26.878 -13.575  15.528  1.00  0.00    -0.550 OA
ENDBRANCH  13  14
ENDBRANCH  12  13
ENDBRANCH  11  12
ENDBRANCH  10  11
ENDBRANCH   9  10
ENDBRANCH   8   9
ENDBRANCH   7   8
ENDBRANCH   6   7
ENDBRANCH   5   6
ENDBRANCH   4   5
ENDBRANCH   3   4
ENDBRANCH   2   3
ENDBRANCH   1   2
BRANCH   1  17
ATOM     17  C   UNL     1      30.271  -6.778  12.123  1.00  0.00     0.000 C 
BRANCH  17  18
ATOM     18  C   UNL     1      31.210  -6.358  10.986  1.00  0.00     0.000 C 
BRANCH  18  19
ATOM     19  C   UNL     1      32.315  -5.423  11.502  1.00  0.00     0.000 C 
BRANCH  19  20
ATOM     20  C   UNL     1      33.659  -5.639  10.789  1.00  0.00     0.000 C 
BRANCH  20  21
ATOM     21  C   UNL     1      33.493  -6.210   9.370  1.00  0.00     0.000 C 
BRANCH  21  22
ATOM     22  C   UNL     1      34.391  -7.433   9.106  1.00  0.00    -0.000 C 
BRANCH  22  23
ATOM     23  C   UNL     1      33.742  -8.799   9.402  1.00  0.00    -0.000 C 
BRANCH  23  24
ATOM     24  C   UNL     1      34.703  -9.785  10.081  1.00  0.00    -0.000 C 
BRANCH  24  25
ATOM     25  C   UNL     1      36.158  -9.311   9.951  1.00  0.00    -0.000 C 
BRANCH  25  26
ATOM     26  C   UNL     1      36.865  -9.167  11.311  1.00  0.00    -0.000 C 
BRANCH  26  27
ATOM     27  C   UNL     1      36.566  -7.858  12.071  1.00  0.00    -0.000 C 
BRANCH  27  28
ATOM     28  C   UNL     1      37.170  -6.587  11.446  1.00  0.00    -0.000 C 
BRANCH  28  29
ATOM     29  C   UNL     1      38.526  -6.211  12.059  1.00  0.00    -0.003 C 
ATOM     30  C   UNL     1      39.662  -6.449  11.068  1.00  0.00     0.004 C 
ENDBRANCH  28  29
ENDBRANCH  27  28
ENDBRANCH  26  27
ENDBRANCH  25  26
ENDBRANCH  24  25
ENDBRANCH  23  24
ENDBRANCH  22  23
ENDBRANCH  21  22
ENDBRANCH  20  21
ENDBRANCH  19  20
ENDBRANCH  18  19
ENDBRANCH  17  18
ENDBRANCH   1  17
TORSDOF 26
ENDMDL
MODEL 8
REMARK VINA RESULT:    -4.606      2.648      3.855
REMARK INTER + INTRA:         -16.224
REMARK INTER:                 -11.609
REMARK INTRA:                  -4.614
REMARK UNBOUND:                -4.618
REMARK SMILES CCCCCCCCCCCCCCCCCCCCCCCCCCCC(=O)[O-]
REMARK SMILES IDX 15 1 16 2 17 3 18 4 19 5 20 6 21 7 22 8 23 9 24 10 25 11
REMARK SMILES IDX 26 12 27 13 28 14 29 15 30 16 14 17 13 18 12 19 11 20 10 21
REMARK SMILES IDX 9 22 8 23 7 24 6 25 5 26 4 27 3 28 2 29 1 30
REMARK H PARENT
REMARK Flexibility Score: inf
ROOT
ATOM      1  C   UNL     1      30.522  -7.835  12.874  1.00  0.00     0.000 C 
ENDROOT
BRANCH   1   2
ATOM      2  C   UNL     1      30.649  -6.719  11.829  1.00  0.00     0.000 C 
BRANCH   2   3
ATOM      3  C   UNL     1      31.327  -7.232  10.552  1.00  0.00     0.000 C 
BRANCH   3   4
ATOM      4  C   UNL     1      32.308  -6.213   9.945  1.00  0.00     0.000 C 
BRANCH   4   5
ATOM      5  C   UNL     1      32.916  -5.244  10.982  1.00  0.00     0.000 C 
BRANCH   5   6
ATOM      6  C   UNL     1      34.372  -5.600  11.332  1.00  0.00     0.000 C 
BRANCH   6   7
ATOM      7  C   UNL     1      35.104  -6.280  10.154  1.00  0.00     0.000 C 
BRANCH   7   8
ATOM      8  C   UNL     1      35.833  -7.575  10.550  1.00  0.00     0.000 C 
BRANCH   8   9
ATOM      9  C   UNL     1      35.038  -8.422  11.553  1.00  0.00     0.000 C 
BRANCH   9  10
ATOM     10  C   UNL     1      34.541  -9.719  10.900  1.00  0.00     0.000 C 
BRANCH  10  11
ATOM     11  C   UNL     1      35.141 -10.984  11.541  1.00  0.00     0.000 C 
BRANCH  11  12
ATOM     12  C   UNL     1      34.175 -11.786  12.431  1.00  0.00     0.006 C 
BRANCH  12  13
ATOM     13  C   UNL     1      34.888 -12.555  13.552  1.00  0.00     0.053 C 
BRANCH  13  14
ATOM     14  C   UNL     1      34.818 -14.029  13.306  1.00  0.00     0.041 C 
ATOM     15  O   UNL     1      34.823 -14.476  12.128  1.00  0.00    -0.550 OA
ATOM     16  O   UNL     1      34.717 -14.910  14.377  1.00  0.00    -0.550 OA
ENDBRANCH  13  14
ENDBRANCH  12  13
ENDBRANCH  11  12
ENDBRANCH  10  11
ENDBRANCH   9  10
ENDBRANCH   8   9
ENDBRANCH   7   8
ENDBRANCH   6   7
ENDBRANCH   5   6
ENDBRANCH   4   5
ENDBRANCH   3   4
ENDBRANCH   2   3
ENDBRANCH   1   2
BRANCH   1  17
ATOM     17  C   UNL     1      31.524  -8.962  12.596  1.00  0.00     0.000 C 
BRANCH  17  18
ATOM     18  C   UNL     1      31.063 -10.279  13.231  1.00  0.00     0.000 C 
BRANCH  18  19
ATOM     19  C   UNL     1      29.601 -10.582  12.867  1.00  0.00     0.000 C 
BRANCH  19  20
ATOM     20  C   UNL     1      28.746 -10.949  14.090  1.00  0.00     0.000 C 
BRANCH  20  21
ATOM     21  C   UNL     1      28.126  -9.716  14.772  1.00  0.00     0.000 C 
BRANCH  21  22
ATOM     22  C   UNL     1      28.631  -9.510  16.212  1.00  0.00    -0.000 C 
BRANCH  22  23
ATOM     23  C   UNL     1      29.892  -8.635  16.346  1.00  0.00    -0.000 C 
BRANCH  23  24
ATOM     24  C   UNL     1      30.934  -9.227  17.307  1.00  0.00    -0.000 C 
BRANCH  24  25
ATOM     25  C   UNL     1      32.077  -9.898  16.532  1.00  0.00    -0.000 C 
BRANCH  25  26
ATOM     26  C   UNL     1      32.278 -11.373  16.919  1.00  0.00    -0.000 C 
BRANCH  26  27
ATOM     27  C   UNL     1      31.361 -12.375  16.186  1.00  0.00    -0.000 C 
BRANCH  27  28
ATOM     28  C   UNL     1      30.114 -12.816  16.973  1.00  0.00    -0.000 C 
BRANCH  28  29
ATOM     29  C   UNL     1      29.160 -13.683  16.139  1.00  0.00    -0.003 C 
ATOM     30  C   UNL     1      27.705 -13.314  16.408  1.00  0.00     0.004 C 
ENDBRANCH  28  29
ENDBRANCH  27  28
ENDBRANCH  26  27
ENDBRANCH  25  26
ENDBRANCH  24  25
ENDBRANCH  23  24
ENDBRANCH  22  23
ENDBRANCH  21  22
ENDBRANCH  20  21
ENDBRANCH  19  20
ENDBRANCH  18  19
ENDBRANCH  17  18
ENDBRANCH   1  17
TORSDOF 26
ENDMDL
MODEL 9
REMARK VINA RESULT:    -4.579      2.499      7.734
REMARK INTER + INTRA:         -16.158
REMARK INTER:                 -11.343
REMARK INTRA:                  -4.815
REMARK UNBOUND:                -4.618
REMARK SMILES CCCCCCCCCCCCCCCCCCCCCCCCCCCC(=O)[O-]
REMARK SMILES IDX 15 1 16 2 17 3 18 4 19 5 20 6 21 7 22 8 23 9 24 10 25 11
REMARK SMILES IDX 26 12 27 13 28 14 29 15 30 16 14 17 13 18 12 19 11 20 10 21
REMARK SMILES IDX 9 22 8 23 7 24 6 25 5 26 4 27 3 28 2 29 1 30
REMARK H PARENT
REMARK Flexibility Score: inf
ROOT
ATOM      1  C   UNL     1      31.632  -8.044  12.351  1.00  0.00     0.000 C 
ENDROOT
BRANCH   1   2
ATOM      2  C   UNL     1      31.043  -8.869  13.502  1.00  0.00     0.000 C 
BRANCH   2   3
ATOM      3  C   UNL     1      30.881 -10.341  13.100  1.00  0.00     0.000 C 
BRANCH   3   4
ATOM      4  C   UNL     1      29.455 -10.872  13.334  1.00  0.00     0.000 C 
BRANCH   4   5
ATOM      5  C   UNL     1      28.633 -10.022  14.327  1.00  0.00     0.000 C 
BRANCH   5   6
ATOM      6  C   UNL     1      27.252 -10.638  14.620  1.00  0.00     0.000 C 
BRANCH   6   7
ATOM      7  C   UNL     1      27.147 -12.094  14.118  1.00  0.00     0.000 C 
BRANCH   7   8
ATOM      8  C   UNL     1      26.935 -13.118  15.246  1.00  0.00     0.000 C 
BRANCH   8   9
ATOM      9  C   UNL     1      28.227 -13.847  15.638  1.00  0.00     0.000 C 
BRANCH   9  10
ATOM     10  C   UNL     1      29.005 -13.052  16.695  1.00  0.00     0.000 C 
BRANCH  10  11
ATOM     11  C   UNL     1      30.475 -12.809  16.306  1.00  0.00     0.000 C 
BRANCH  11  12
ATOM     12  C   UNL     1      31.022 -11.416  16.665  1.00  0.00     0.006 C 
BRANCH  12  13
ATOM     13  C   UNL     1      32.515 -11.430  17.022  1.00  0.00     0.053 C 
BRANCH  13  14
ATOM     14  C   UNL     1      33.347 -11.120  15.818  1.00  0.00     0.041 C 
ATOM     15  O   UNL     1      33.722 -12.047  15.051  1.00  0.00    -0.550 OA
ATOM     16  O   UNL     1      33.735  -9.811  15.557  1.00  0.00    -0.550 OA
ENDBRANCH  13  14
ENDBRANCH  12  13
ENDBRANCH  11  12
ENDBRANCH  10  11
ENDBRANCH   9  10
ENDBRANCH   8   9
ENDBRANCH   7   8
ENDBRANCH   6   7
ENDBRANCH   5   6
ENDBRANCH   4   5
ENDBRANCH   3   4
ENDBRANCH   2   3
ENDBRANCH   1   2
BRANCH   1  17
ATOM     17  C   UNL     1      30.636  -6.982  11.870  1.00  0.00     0.000 C 
BRANCH  17  18
ATOM     18  C   UNL     1      31.363  -5.728  11.371  1.00  0.00     0.000 C 
BRANCH  18  19
ATOM     19  C   UNL     1      32.190  -6.037  10.113  1.00  0.00     0.000 C 
BRANCH  19  20
ATOM     20  C   UNL     1      33.668  -5.643  10.261  1.00  0.00     0.000 C 
BRANCH  20  21
ATOM     21  C   UNL     1      34.624  -6.701   9.681  1.00  0.00     0.000 C 
BRANCH  21  22
ATOM     22  C   UNL     1      35.706  -7.144  10.683  1.00  0.00    -0.000 C 
BRANCH  22  23
ATOM     23  C   UNL     1      35.239  -7.255  12.147  1.00  0.00    -0.000 C 
BRANCH  23  24
ATOM     24  C   UNL     1      35.528  -8.630  12.766  1.00  0.00    -0.000 C 
BRANCH  24  25
ATOM     25  C   UNL     1      35.917  -9.648  11.684  1.00  0.00    -0.000 C 
BRANCH  25  26
ATOM     26  C   UNL     1      34.848 -10.735  11.473  1.00  0.00    -0.000 C 
BRANCH  26  27
ATOM     27  C   UNL     1      33.606 -10.289  10.673  1.00  0.00    -0.000 C 
BRANCH  27  28
ATOM     28  C   UNL     1      33.739 -10.406   9.144  1.00  0.00    -0.000 C 
BRANCH  28  29
ATOM     29  C   UNL     1      32.726  -9.531   8.391  1.00  0.00    -0.003 C 
ATOM     30  C   UNL     1      31.341  -9.625   9.023  1.00  0.00     0.004 C 
ENDBRANCH  28  29
ENDBRANCH  27  28
ENDBRANCH  26  27
ENDBRANCH  25  26
ENDBRANCH  24  25
ENDBRANCH  23  24
ENDBRANCH  22  23
ENDBRANCH  21  22
ENDBRANCH  20  21
ENDBRANCH  19  20
ENDBRANCH  18  19
ENDBRANCH  17  18
ENDBRANCH   1  17
TORSDOF 26
ENDMDL
