MODEL 1
REMARK VINA RESULT:     0.000      0.000      0.000
REMARK INTER + INTRA:          -0.438
REMARK INTER:                   0.000
REMARK INTRA:                  -0.438
REMARK UNBOUND:                -0.438
REMARK SMILES CC1=CC[C@@H]2[C@H]3[C@H](C(C)C)CC[C@]2(C)[C@@H]13
REMARK SMILES IDX 1 1 2 2 3 3 4 4 5 5 6 6 15 7 13 8 12 9 11 10 7 11 14 12 8 13
REMARK SMILES IDX 9 14 10 15
REMARK H PARENT
REMARK Flexibility Score: inf
ROOT
ATOM      1  C   UNL     1     138.113 134.451 150.386  1.00  0.00     0.039 C 
ATOM      2  C   UNL     1     137.405 133.377 149.614  1.00  0.00    -0.073 C 
ATOM      3  C   UNL     1     137.392 133.353 148.254  1.00  0.00    -0.027 C 
ATOM      4  C   UNL     1     136.638 132.223 147.542  1.00  0.00     0.031 C 
ATOM      5  C   UNL     1     135.950 131.285 148.588  1.00  0.00     0.003 C 
ATOM      6  C   UNL     1     135.242 132.185 149.626  1.00  0.00     0.004 C 
ATOM      7  C   UNL     1     136.613 132.288 150.338  1.00  0.00     0.024 C 
ATOM      8  C   UNL     1     136.925 130.899 149.724  1.00  0.00    -0.022 C 
ATOM      9  C   UNL     1     136.279 129.760 150.566  1.00  0.00     0.008 C 
ATOM     10  C   UNL     1     134.940 130.192 151.216  1.00  0.00     0.005 C 
ATOM     11  C   UNL     1     134.213 131.348 150.452  1.00  0.00    -0.005 C 
ATOM     12  C   UNL     1     138.390 130.553 149.364  1.00  0.00     0.012 C 
ENDROOT
BRANCH  11  13
ATOM     13  C   UNL     1     133.364 132.228 151.426  1.00  0.00    -0.014 C 
ATOM     14  C   UNL     1     133.904 132.197 152.868  1.00  0.00     0.007 C 
ATOM     15  C   UNL     1     133.314 133.693 150.950  1.00  0.00     0.007 C 
ENDBRANCH  11  13
TORSDOF 1
ENDMDL
MODEL 2
REMARK VINA RESULT:     0.000      1.634      2.304
REMARK INTER + INTRA:          -0.438
REMARK INTER:                   0.000
REMARK INTRA:                  -0.438
REMARK UNBOUND:                -0.438
REMARK SMILES CC1=CC[C@@H]2[C@H]3[C@H](C(C)C)CC[C@]2(C)[C@@H]13
REMARK SMILES IDX 1 1 2 2 3 3 4 4 5 5 6 6 15 7 13 8 12 9 11 10 7 11 14 12 8 13
REMARK SMILES IDX 9 14 10 15
REMARK H PARENT
REMARK Flexibility Score: inf
ROOT
ATOM      1  C   UNL     1     136.945 135.697 150.486  1.00  0.00     0.039 C 
ATOM      2  C   UNL     1     136.278 134.755 149.527  1.00  0.00    -0.073 C 
ATOM      3  C   UNL     1     136.591 134.728 148.204  1.00  0.00    -0.027 C 
ATOM      4  C   UNL     1     135.858 133.738 147.291  1.00  0.00     0.031 C 
ATOM      5  C   UNL     1     134.792 132.933 148.106  1.00  0.00     0.003 C 
ATOM      6  C   UNL     1     134.012 133.945 148.977  1.00  0.00     0.004 C 
ATOM      7  C   UNL     1     135.166 133.818 149.999  1.00  0.00     0.024 C 
ATOM      8  C   UNL     1     135.385 132.393 149.428  1.00  0.00    -0.022 C 
ATOM      9  C   UNL     1     134.377 131.383 150.047  1.00  0.00     0.008 C 
ATOM     10  C   UNL     1     133.010 132.038 150.373  1.00  0.00     0.005 C 
ATOM     11  C   UNL     1     132.689 133.296 149.501  1.00  0.00    -0.005 C 
ATOM     12  C   UNL     1     136.816 131.805 149.416  1.00  0.00     0.012 C 
ENDROOT
BRANCH  11  13
ATOM     13  C   UNL     1     131.787 134.311 150.275  1.00  0.00    -0.014 C 
ATOM     14  C   UNL     1     131.948 134.195 151.802  1.00  0.00     0.007 C 
ATOM     15  C   UNL     1     132.095 135.761 149.856  1.00  0.00     0.007 C 
ENDBRANCH  11  13
TORSDOF 1
ENDMDL
MODEL 3
REMARK VINA RESULT:     0.000     10.392     12.430
REMARK INTER + INTRA:          -0.438
REMARK INTER:                   0.000
REMARK INTRA:                  -0.438
REMARK UNBOUND:                -0.438
REMARK SMILES CC1=CC[C@@H]2[C@H]3[C@H](C(C)C)CC[C@]2(C)[C@@H]13
REMARK SMILES IDX 1 1 2 2 3 3 4 4 5 5 6 6 15 7 13 8 12 9 11 10 7 11 14 12 8 13
REMARK SMILES IDX 9 14 10 15
REMARK H PARENT
REMARK Flexibility Score: inf
ROOT
ATOM      1  C   UNL     1     144.145 141.534 141.222  1.00  0.00     0.039 C 
ATOM      2  C   UNL     1     143.423 140.261 140.894  1.00  0.00    -0.073 C 
ATOM      3  C   UNL     1     143.274 139.821 139.616  1.00  0.00    -0.027 C 
ATOM      4  C   UNL     1     142.516 138.512 139.368  1.00  0.00     0.031 C 
ATOM      5  C   UNL     1     141.989 137.924 140.718  1.00  0.00     0.003 C 
ATOM      6  C   UNL     1     141.341 139.083 141.509  1.00  0.00     0.004 C 
ATOM      7  C   UNL     1     142.768 139.428 141.997  1.00  0.00     0.024 C 
ATOM      8  C   UNL     1     143.093 137.925 141.801  1.00  0.00    -0.022 C 
ATOM      9  C   UNL     1     142.599 137.084 143.013  1.00  0.00     0.008 C 
ATOM     10  C   UNL     1     141.311 137.666 143.649  1.00  0.00     0.005 C 
ATOM     11  C   UNL     1     140.448 138.516 142.660  1.00  0.00    -0.005 C 
ATOM     12  C   UNL     1     144.531 137.518 141.398  1.00  0.00     0.012 C 
ENDROOT
BRANCH  11  13
ATOM     13  C   UNL     1     139.654 139.634 143.411  1.00  0.00    -0.014 C 
ATOM     14  C   UNL     1     140.337 140.057 144.726  1.00  0.00     0.007 C 
ATOM     15  C   UNL     1     139.477 140.881 142.525  1.00  0.00     0.007 C 
ENDBRANCH  11  13
TORSDOF 1
ENDMDL
MODEL 4
REMARK VINA RESULT:     0.000     10.517     13.237
REMARK INTER + INTRA:          -0.438
REMARK INTER:                   0.000
REMARK INTRA:                  -0.438
REMARK UNBOUND:                -0.438
REMARK SMILES CC1=CC[C@@H]2[C@H]3[C@H](C(C)C)CC[C@]2(C)[C@@H]13
REMARK SMILES IDX 1 1 2 2 3 3 4 4 5 5 6 6 15 7 13 8 12 9 11 10 7 11 14 12 8 13
REMARK SMILES IDX 9 14 10 15
REMARK H PARENT
REMARK Flexibility Score: inf
ROOT
ATOM      1  C   UNL     1     134.416 131.580 139.100  1.00  0.00     0.039 C 
ATOM      2  C   UNL     1     134.940 130.176 139.169  1.00  0.00    -0.073 C 
ATOM      3  C   UNL     1     135.107 129.524 140.350  1.00  0.00    -0.027 C 
ATOM      4  C   UNL     1     135.654 128.091 140.333  1.00  0.00     0.031 C 
ATOM      5  C   UNL     1     135.976 127.649 138.867  1.00  0.00     0.003 C 
ATOM      6  C   UNL     1     136.747 128.806 138.191  1.00  0.00     0.004 C 
ATOM      7  C   UNL     1     135.365 129.438 137.899  1.00  0.00     0.024 C 
ATOM      8  C   UNL     1     134.810 127.990 137.909  1.00  0.00    -0.022 C 
ATOM      9  C   UNL     1     135.068 127.285 136.546  1.00  0.00     0.008 C 
ATOM     10  C   UNL     1     136.385 127.756 135.877  1.00  0.00     0.005 C 
ATOM     11  C   UNL     1     137.447 128.298 136.889  1.00  0.00    -0.005 C 
ATOM     12  C   UNL     1     133.359 127.748 138.387  1.00  0.00     0.012 C 
ENDROOT
BRANCH  11  13
ATOM     13  C   UNL     1     138.357 129.385 136.231  1.00  0.00    -0.014 C 
ATOM     14  C   UNL     1     137.659 130.109 135.065  1.00  0.00     0.007 C 
ATOM     15  C   UNL     1     138.804 130.436 137.266  1.00  0.00     0.007 C 
ENDBRANCH  11  13
TORSDOF 1
ENDMDL
MODEL 5
REMARK VINA RESULT:     0.000     12.045     13.617
REMARK INTER + INTRA:          -0.438
REMARK INTER:                   0.000
REMARK INTRA:                  -0.438
REMARK UNBOUND:                -0.438
REMARK SMILES CC1=CC[C@@H]2[C@H]3[C@H](C(C)C)CC[C@]2(C)[C@@H]13
REMARK SMILES IDX 1 1 2 2 3 3 4 4 5 5 6 6 15 7 13 8 12 9 11 10 7 11 14 12 8 13
REMARK SMILES IDX 9 14 10 15
REMARK H PARENT
REMARK Flexibility Score: inf
ROOT
ATOM      1  C   UNL     1     133.932 144.171 140.407  1.00  0.00     0.039 C 
ATOM      2  C   UNL     1     133.456 142.953 141.141  1.00  0.00    -0.073 C 
ATOM      3  C   UNL     1     133.610 141.698 140.638  1.00  0.00    -0.027 C 
ATOM      4  C   UNL     1     133.090 140.507 141.450  1.00  0.00     0.031 C 
ATOM      5  C   UNL     1     132.399 141.003 142.763  1.00  0.00     0.003 C 
ATOM      6  C   UNL     1     131.467 142.177 142.383  1.00  0.00     0.004 C 
ATOM      7  C   UNL     1     132.720 143.082 142.475  1.00  0.00     0.024 C 
ATOM      8  C   UNL     1     133.269 142.051 143.495  1.00  0.00    -0.022 C 
ATOM      9  C   UNL     1     132.669 142.292 144.910  1.00  0.00     0.008 C 
ATOM     10  C   UNL     1     131.219 142.837 144.851  1.00  0.00     0.005 C 
ATOM     11  C   UNL     1     130.454 142.457 143.540  1.00  0.00    -0.005 C 
ATOM     12  C   UNL     1     134.797 141.823 143.577  1.00  0.00     0.012 C 
ENDROOT
BRANCH  11  13
ATOM     13  C   UNL     1     129.395 143.542 143.163  1.00  0.00    -0.014 C 
ATOM     14  C   UNL     1     129.756 144.934 143.716  1.00  0.00     0.007 C 
ATOM     15  C   UNL     1     129.226 143.648 141.635  1.00  0.00     0.007 C 
ENDBRANCH  11  13
TORSDOF 1
ENDMDL
MODEL 6
REMARK VINA RESULT:     0.000     11.151     14.022
REMARK INTER + INTRA:          -0.438
REMARK INTER:                   0.000
REMARK INTRA:                  -0.438
REMARK UNBOUND:                -0.438
REMARK SMILES CC1=CC[C@@H]2[C@H]3[C@H](C(C)C)CC[C@]2(C)[C@@H]13
REMARK SMILES IDX 1 1 2 2 3 3 4 4 5 5 6 6 15 7 13 8 12 9 11 10 7 11 14 12 8 13
REMARK SMILES IDX 9 14 10 15
REMARK H PARENT
REMARK Flexibility Score: inf
ROOT
ATOM      1  C   UNL     1     143.979 141.809 145.786  1.00  0.00     0.039 C 
ATOM      2  C   UNL     1     142.857 142.795 145.650  1.00  0.00    -0.073 C 
ATOM      3  C   UNL     1     142.453 143.579 146.685  1.00  0.00    -0.027 C 
ATOM      4  C   UNL     1     141.293 144.557 146.463  1.00  0.00     0.031 C 
ATOM      5  C   UNL     1     140.735 144.419 145.009  1.00  0.00     0.003 C 
ATOM      6  C   UNL     1     140.575 142.910 144.713  1.00  0.00     0.004 C 
ATOM      7  C   UNL     1     142.077 142.915 144.340  1.00  0.00     0.024 C 
ATOM      8  C   UNL     1     141.879 144.407 143.967  1.00  0.00    -0.022 C 
ATOM      9  C   UNL     1     141.257 144.549 142.548  1.00  0.00     0.008 C 
ATOM     10  C   UNL     1     140.293 143.385 142.206  1.00  0.00     0.005 C 
ATOM     11  C   UNL     1     139.660 142.701 143.462  1.00  0.00    -0.005 C 
ATOM     12  C   UNL     1     143.062 145.387 144.150  1.00  0.00     0.012 C 
ENDROOT
BRANCH  11  13
ATOM     13  C   UNL     1     139.346 141.193 143.193  1.00  0.00    -0.014 C 
ATOM     14  C   UNL     1     140.251 140.590 142.102  1.00  0.00     0.007 C 
ATOM     15  C   UNL     1     139.497 140.355 144.476  1.00  0.00     0.007 C 
ENDBRANCH  11  13
TORSDOF 1
ENDMDL
MODEL 7
REMARK VINA RESULT:     0.000      8.579     11.306
REMARK INTER + INTRA:          -0.438
REMARK INTER:                   0.000
REMARK INTRA:                  -0.438
REMARK UNBOUND:                -0.438
REMARK SMILES CC1=CC[C@@H]2[C@H]3[C@H](C(C)C)CC[C@]2(C)[C@@H]13
REMARK SMILES IDX 1 1 2 2 3 3 4 4 5 5 6 6 15 7 13 8 12 9 11 10 7 11 14 12 8 13
REMARK SMILES IDX 9 14 10 15
REMARK H PARENT
REMARK Flexibility Score: inf
ROOT
ATOM      1  C   UNL     1     132.984 129.498 139.296  1.00  0.00     0.039 C 
ATOM      2  C   UNL     1     132.660 130.852 139.856  1.00  0.00    -0.073 C 
ATOM      3  C   UNL     1     131.389 131.220 140.169  1.00  0.00    -0.027 C 
ATOM      4  C   UNL     1     131.143 132.625 140.731  1.00  0.00     0.031 C 
ATOM      5  C   UNL     1     132.485 133.427 140.798  1.00  0.00     0.003 C 
ATOM      6  C   UNL     1     133.215 133.223 139.451  1.00  0.00     0.004 C 
ATOM      7  C   UNL     1     133.756 131.901 140.046  1.00  0.00     0.024 C 
ATOM      8  C   UNL     1     133.614 132.582 141.432  1.00  0.00    -0.022 C 
ATOM      9  C   UNL     1     134.826 133.513 141.723  1.00  0.00     0.008 C 
ATOM     10  C   UNL     1     135.390 134.168 140.435  1.00  0.00     0.005 C 
ATOM     11  C   UNL     1     134.341 134.295 139.282  1.00  0.00    -0.005 C 
ATOM     12  C   UNL     1     133.286 131.706 142.665  1.00  0.00     0.012 C 
ENDROOT
BRANCH  11  13
ATOM     13  C   UNL     1     135.027 134.230 137.879  1.00  0.00    -0.014 C 
ATOM     14  C   UNL     1     136.358 133.455 137.910  1.00  0.00     0.007 C 
ATOM     15  C   UNL     1     134.101 133.576 136.836  1.00  0.00     0.007 C 
ENDBRANCH  11  13
TORSDOF 1
ENDMDL
MODEL 8
REMARK VINA RESULT:     0.000      9.373     11.597
REMARK INTER + INTRA:          -0.438
REMARK INTER:                   0.000
REMARK INTRA:                  -0.438
REMARK UNBOUND:                -0.438
REMARK SMILES CC1=CC[C@@H]2[C@H]3[C@H](C(C)C)CC[C@]2(C)[C@@H]13
REMARK SMILES IDX 1 1 2 2 3 3 4 4 5 5 6 6 15 7 13 8 12 9 11 10 7 11 14 12 8 13
REMARK SMILES IDX 9 14 10 15
REMARK H PARENT
REMARK Flexibility Score: inf
ROOT
ATOM      1  C   UNL     1     138.796 133.632 139.579  1.00  0.00     0.039 C 
ATOM      2  C   UNL     1     139.745 134.589 140.238  1.00  0.00    -0.073 C 
ATOM      3  C   UNL     1     140.770 134.165 141.025  1.00  0.00    -0.027 C 
ATOM      4  C   UNL     1     141.691 135.209 141.665  1.00  0.00     0.031 C 
ATOM      5  C   UNL     1     141.214 136.653 141.301  1.00  0.00     0.003 C 
ATOM      6  C   UNL     1     139.683 136.703 141.511  1.00  0.00     0.004 C 
ATOM      7  C   UNL     1     139.559 136.099 140.092  1.00  0.00     0.024 C 
ATOM      8  C   UNL     1     140.917 136.782 139.789  1.00  0.00    -0.022 C 
ATOM      9  C   UNL     1     140.721 138.288 139.449  1.00  0.00     0.008 C 
ATOM     10  C   UNL     1     139.533 138.918 140.221  1.00  0.00     0.005 C 
ATOM     11  C   UNL     1     139.195 138.188 141.563  1.00  0.00    -0.005 C 
ATOM     12  C   UNL     1     141.882 136.113 138.781  1.00  0.00     0.012 C 
ENDROOT
BRANCH  11  13
ATOM     13  C   UNL     1     137.676 138.310 141.910  1.00  0.00    -0.014 C 
ATOM     14  C   UNL     1     136.800 138.512 140.659  1.00  0.00     0.007 C 
ATOM     15  C   UNL     1     137.176 137.063 142.665  1.00  0.00     0.007 C 
ENDBRANCH  11  13
TORSDOF 1
ENDMDL
MODEL 9
REMARK VINA RESULT:     0.000     11.935     13.713
REMARK INTER + INTRA:          -0.438
REMARK INTER:                   0.000
REMARK INTRA:                  -0.438
REMARK UNBOUND:                -0.438
REMARK SMILES CC1=CC[C@@H]2[C@H]3[C@H](C(C)C)CC[C@]2(C)[C@@H]13
REMARK SMILES IDX 1 1 2 2 3 3 4 4 5 5 6 6 15 7 13 8 12 9 11 10 7 11 14 12 8 13
REMARK SMILES IDX 9 14 10 15
REMARK H PARENT
REMARK Flexibility Score: inf
ROOT
ATOM      1  C   UNL     1     133.815 143.211 144.849  1.00  0.00     0.039 C 
ATOM      2  C   UNL     1     132.476 143.783 144.487  1.00  0.00    -0.073 C 
ATOM      3  C   UNL     1     132.262 145.123 144.398  1.00  0.00    -0.027 C 
ATOM      4  C   UNL     1     130.861 145.625 144.029  1.00  0.00     0.031 C 
ATOM      5  C   UNL     1     129.878 144.420 143.861  1.00  0.00     0.003 C 
ATOM      6  C   UNL     1     130.095 143.472 145.062  1.00  0.00     0.004 C 
ATOM      7  C   UNL     1     131.272 142.869 144.258  1.00  0.00     0.024 C 
ATOM      8  C   UNL     1     130.499 143.305 142.987  1.00  0.00    -0.022 C 
ATOM      9  C   UNL     1     129.387 142.278 142.630  1.00  0.00     0.008 C 
ATOM     10  C   UNL     1     128.775 141.609 143.888  1.00  0.00     0.005 C 
ATOM     11  C   UNL     1     128.896 142.475 145.185  1.00  0.00    -0.005 C 
ATOM     12  C   UNL     1     131.301 143.708 141.726  1.00  0.00     0.012 C 
ENDROOT
BRANCH  11  13
ATOM     13  C   UNL     1     128.987 141.579 146.462  1.00  0.00    -0.014 C 
ATOM     14  C   UNL     1     129.564 140.183 146.161  1.00  0.00     0.007 C 
ATOM     15  C   UNL     1     129.852 142.246 147.548  1.00  0.00     0.007 C 
ENDBRANCH  11  13
TORSDOF 1
ENDMDL
