MODEL 1
REMARK VINA RESULT:    -6.134      0.000      0.000
REMARK INTER + INTRA:          -6.589
REMARK INTER:                  -6.493
REMARK INTRA:                  -0.096
REMARK UNBOUND:                -0.096
REMARK SMILES C=C(C)[C@H]1CC=C(C)C(=O)C1
REMARK SMILES IDX 8 1 7 2 6 3 5 4 4 5 11 6 9 7 10 8 2 9 1 10 3 11
REMARK H PARENT
REMARK Flexibility Score: inf
ROOT
ATOM      1  C   UNL     1      27.699  20.223   3.817  1.00  0.00     0.048 C 
ATOM      2  C   UNL     1      28.704  20.524   4.896  1.00  0.00    -0.012 C 
ATOM      3  C   UNL     1      29.882  19.879   4.912  1.00  0.00    -0.019 C 
ATOM      4  C   UNL     1      30.915  20.129   5.978  1.00  0.00     0.036 C 
ATOM      5  C   UNL     1      30.873  21.592   6.458  1.00  0.00     0.025 C 
ATOM      6  C   UNL     1      29.452  21.960   6.926  1.00  0.00     0.089 C 
ATOM      7  C   UNL     1      28.442  21.619   5.865  1.00  0.00     0.158 C 
ATOM      8  O   UNL     1      27.352  22.250   5.829  1.00  0.00    -0.295 OA
ENDROOT
BRANCH   5   9
ATOM      9  C   UNL     1      31.908  21.860   7.540  1.00  0.00    -0.077 C 
ATOM     10  C   UNL     1      33.226  21.753   7.293  1.00  0.00     0.008 C 
ATOM     11  C   UNL     1      31.430  22.256   8.913  1.00  0.00     0.039 C 
ENDBRANCH   5   9
TORSDOF 1
ENDMDL
MODEL 2
REMARK VINA RESULT:    -6.092      1.987      4.420
REMARK INTER + INTRA:          -6.544
REMARK INTER:                  -6.444
REMARK INTRA:                  -0.099
REMARK UNBOUND:                -0.096
REMARK SMILES C=C(C)[C@H]1CC=C(C)C(=O)C1
REMARK SMILES IDX 8 1 7 2 6 3 5 4 4 5 11 6 9 7 10 8 2 9 1 10 3 11
REMARK H PARENT
REMARK Flexibility Score: inf
ROOT
ATOM      1  C   UNL     1      33.981  21.612   7.508  1.00  0.00     0.048 C 
ATOM      2  C   UNL     1      32.558  21.370   7.086  1.00  0.00    -0.012 C 
ATOM      3  C   UNL     1      32.301  20.628   5.996  1.00  0.00    -0.019 C 
ATOM      4  C   UNL     1      30.896  20.369   5.519  1.00  0.00     0.036 C 
ATOM      5  C   UNL     1      29.912  20.303   6.702  1.00  0.00     0.025 C 
ATOM      6  C   UNL     1      30.013  21.581   7.554  1.00  0.00     0.089 C 
ATOM      7  C   UNL     1      31.441  21.847   7.941  1.00  0.00     0.158 C 
ATOM      8  O   UNL     1      31.682  22.513   8.983  1.00  0.00    -0.295 OA
ENDROOT
BRANCH   5   9
ATOM      9  C   UNL     1      28.487  20.047   6.236  1.00  0.00    -0.077 C 
ATOM     10  C   UNL     1      27.482  19.875   7.113  1.00  0.00     0.008 C 
ATOM     11  C   UNL     1      28.212  19.990   4.756  1.00  0.00     0.039 C 
ENDBRANCH   5   9
TORSDOF 1
ENDMDL
MODEL 3
REMARK VINA RESULT:    -5.943      5.369      6.723
REMARK INTER + INTRA:          -6.386
REMARK INTER:                  -6.293
REMARK INTRA:                  -0.093
REMARK UNBOUND:                -0.096
REMARK SMILES C=C(C)[C@H]1CC=C(C)C(=O)C1
REMARK SMILES IDX 8 1 7 2 6 3 5 4 4 5 11 6 9 7 10 8 2 9 1 10 3 11
REMARK H PARENT
REMARK Flexibility Score: inf
ROOT
ATOM      1  C   UNL     1      25.555  20.033   4.621  1.00  0.00     0.048 C 
ATOM      2  C   UNL     1      25.394  21.522   4.474  1.00  0.00    -0.012 C 
ATOM      3  C   UNL     1      26.073  22.176   3.517  1.00  0.00    -0.019 C 
ATOM      4  C   UNL     1      25.963  23.667   3.337  1.00  0.00     0.036 C 
ATOM      5  C   UNL     1      24.556  24.169   3.714  1.00  0.00     0.025 C 
ATOM      6  C   UNL     1      24.195  23.725   5.144  1.00  0.00     0.089 C 
ATOM      7  C   UNL     1      24.397  22.244   5.304  1.00  0.00     0.158 C 
ATOM      8  O   UNL     1      23.733  21.624   6.178  1.00  0.00    -0.295 OA
ENDROOT
BRANCH   5   9
ATOM      9  C   UNL     1      24.430  25.675   3.543  1.00  0.00    -0.077 C 
ATOM     10  C   UNL     1      24.153  26.226   2.348  1.00  0.00     0.008 C 
ATOM     11  C   UNL     1      24.620  26.555   4.751  1.00  0.00     0.039 C 
ENDBRANCH   5   9
TORSDOF 1
ENDMDL
MODEL 4
REMARK VINA RESULT:    -5.790      2.086      4.502
REMARK INTER + INTRA:          -6.224
REMARK INTER:                  -6.132
REMARK INTRA:                  -0.092
REMARK UNBOUND:                -0.096
REMARK SMILES C=C(C)[C@H]1CC=C(C)C(=O)C1
REMARK SMILES IDX 8 1 7 2 6 3 5 4 4 5 11 6 9 7 10 8 2 9 1 10 3 11
REMARK H PARENT
REMARK Flexibility Score: inf
ROOT
ATOM      1  C   UNL     1      33.618  21.728   7.313  1.00  0.00     0.048 C 
ATOM      2  C   UNL     1      32.132  21.497   7.253  1.00  0.00    -0.012 C 
ATOM      3  C   UNL     1      31.331  22.063   8.171  1.00  0.00    -0.019 C 
ATOM      4  C   UNL     1      29.840  21.851   8.168  1.00  0.00     0.036 C 
ATOM      5  C   UNL     1      29.307  21.679   6.733  1.00  0.00     0.025 C 
ATOM      6  C   UNL     1      30.059  20.542   6.016  1.00  0.00     0.089 C 
ATOM      7  C   UNL     1      31.546  20.749   6.113  1.00  0.00     0.158 C 
ATOM      8  O   UNL     1      32.294  20.248   5.231  1.00  0.00    -0.295 OA
ENDROOT
BRANCH   5   9
ATOM      9  C   UNL     1      27.802  21.458   6.713  1.00  0.00    -0.077 C 
ATOM     10  C   UNL     1      26.952  22.447   6.387  1.00  0.00     0.008 C 
ATOM     11  C   UNL     1      27.269  20.094   7.068  1.00  0.00     0.039 C 
ENDBRANCH   5   9
TORSDOF 1
ENDMDL
MODEL 5
REMARK VINA RESULT:    -5.760      2.687      3.749
REMARK INTER + INTRA:          -6.192
REMARK INTER:                  -6.098
REMARK INTRA:                  -0.095
REMARK UNBOUND:                -0.096
REMARK SMILES C=C(C)[C@H]1CC=C(C)C(=O)C1
REMARK SMILES IDX 8 1 7 2 6 3 5 4 4 5 11 6 9 7 10 8 2 9 1 10 3 11
REMARK H PARENT
REMARK Flexibility Score: inf
ROOT
ATOM      1  C   UNL     1      28.166  24.599   8.608  1.00  0.00     0.048 C 
ATOM      2  C   UNL     1      29.283  23.665   8.230  1.00  0.00    -0.012 C 
ATOM      3  C   UNL     1      29.046  22.347   8.124  1.00  0.00    -0.019 C 
ATOM      4  C   UNL     1      30.131  21.366   7.766  1.00  0.00     0.036 C 
ATOM      5  C   UNL     1      31.165  22.005   6.820  1.00  0.00     0.025 C 
ATOM      6  C   UNL     1      31.728  23.299   7.437  1.00  0.00     0.089 C 
ATOM      7  C   UNL     1      30.611  24.214   7.855  1.00  0.00     0.158 C 
ATOM      8  O   UNL     1      30.824  25.454   7.920  1.00  0.00    -0.295 OA
ENDROOT
BRANCH   5   9
ATOM      9  C   UNL     1      32.271  21.029   6.452  1.00  0.00    -0.077 C 
ATOM     10  C   UNL     1      32.040  19.973   5.651  1.00  0.00     0.008 C 
ATOM     11  C   UNL     1      33.653  21.265   7.005  1.00  0.00     0.039 C 
ENDBRANCH   5   9
TORSDOF 1
ENDMDL
MODEL 6
REMARK VINA RESULT:    -5.499      5.157      6.670
REMARK INTER + INTRA:          -5.916
REMARK INTER:                  -5.823
REMARK INTRA:                  -0.093
REMARK UNBOUND:                -0.096
REMARK SMILES C=C(C)[C@H]1CC=C(C)C(=O)C1
REMARK SMILES IDX 8 1 7 2 6 3 5 4 4 5 11 6 9 7 10 8 2 9 1 10 3 11
REMARK H PARENT
REMARK Flexibility Score: inf
ROOT
ATOM      1  C   UNL     1      25.523  19.993   5.496  1.00  0.00     0.048 C 
ATOM      2  C   UNL     1      25.218  21.368   4.965  1.00  0.00    -0.012 C 
ATOM      3  C   UNL     1      24.242  22.100   5.528  1.00  0.00    -0.019 C 
ATOM      4  C   UNL     1      23.883  23.474   5.026  1.00  0.00     0.036 C 
ATOM      5  C   UNL     1      25.122  24.202   4.472  1.00  0.00     0.025 C 
ATOM      6  C   UNL     1      25.808  23.346   3.390  1.00  0.00     0.089 C 
ATOM      7  C   UNL     1      26.074  21.958   3.906  1.00  0.00     0.158 C 
ATOM      8  O   UNL     1      27.013  21.286   3.402  1.00  0.00    -0.295 OA
ENDROOT
BRANCH   5   9
ATOM      9  C   UNL     1      24.776  25.590   3.955  1.00  0.00    -0.077 C 
ATOM     10  C   UNL     1      24.655  26.640   4.787  1.00  0.00     0.008 C 
ATOM     11  C   UNL     1      24.568  25.776   2.474  1.00  0.00     0.039 C 
ENDBRANCH   5   9
TORSDOF 1
ENDMDL
MODEL 7
REMARK VINA RESULT:    -5.475      1.497      2.219
REMARK INTER + INTRA:          -5.891
REMARK INTER:                  -5.793
REMARK INTRA:                  -0.098
REMARK UNBOUND:                -0.096
REMARK SMILES C=C(C)[C@H]1CC=C(C)C(=O)C1
REMARK SMILES IDX 8 1 7 2 6 3 5 4 4 5 11 6 9 7 10 8 2 9 1 10 3 11
REMARK H PARENT
REMARK Flexibility Score: inf
ROOT
ATOM      1  C   UNL     1      26.512  22.751   6.335  1.00  0.00     0.048 C 
ATOM      2  C   UNL     1      27.892  22.185   6.531  1.00  0.00    -0.012 C 
ATOM      3  C   UNL     1      28.341  21.218   5.713  1.00  0.00    -0.019 C 
ATOM      4  C   UNL     1      29.707  20.606   5.875  1.00  0.00     0.036 C 
ATOM      5  C   UNL     1      30.716  21.635   6.418  1.00  0.00     0.025 C 
ATOM      6  C   UNL     1      30.195  22.255   7.728  1.00  0.00     0.089 C 
ATOM      7  C   UNL     1      28.798  22.782   7.545  1.00  0.00     0.158 C 
ATOM      8  O   UNL     1      28.391  23.713   8.289  1.00  0.00    -0.295 OA
ENDROOT
BRANCH   5   9
ATOM      9  C   UNL     1      32.100  21.030   6.593  1.00  0.00    -0.077 C 
ATOM     10  C   UNL     1      32.446  19.880   5.987  1.00  0.00     0.008 C 
ATOM     11  C   UNL     1      33.096  21.750   7.465  1.00  0.00     0.039 C 
ENDBRANCH   5   9
TORSDOF 1
ENDMDL
MODEL 8
REMARK VINA RESULT:    -5.473      1.938      4.738
REMARK INTER + INTRA:          -5.889
REMARK INTER:                  -5.792
REMARK INTRA:                  -0.097
REMARK UNBOUND:                -0.096
REMARK SMILES C=C(C)[C@H]1CC=C(C)C(=O)C1
REMARK SMILES IDX 8 1 7 2 6 3 5 4 4 5 11 6 9 7 10 8 2 9 1 10 3 11
REMARK H PARENT
REMARK Flexibility Score: inf
ROOT
ATOM      1  C   UNL     1      31.383  22.151   9.029  1.00  0.00     0.048 C 
ATOM      2  C   UNL     1      30.340  21.860   7.985  1.00  0.00    -0.012 C 
ATOM      3  C   UNL     1      29.128  22.435   8.071  1.00  0.00    -0.019 C 
ATOM      4  C   UNL     1      28.042  22.164   7.064  1.00  0.00     0.036 C 
ATOM      5  C   UNL     1      28.635  21.907   5.666  1.00  0.00     0.025 C 
ATOM      6  C   UNL     1      29.672  20.769   5.725  1.00  0.00     0.089 C 
ATOM      7  C   UNL     1      30.690  21.039   6.798  1.00  0.00     0.158 C 
ATOM      8  O   UNL     1      31.838  20.528   6.698  1.00  0.00    -0.295 OA
ENDROOT
BRANCH   5   9
ATOM      9  C   UNL     1      27.551  21.627   4.637  1.00  0.00    -0.077 C 
ATOM     10  C   UNL     1      27.341  20.388   4.156  1.00  0.00     0.008 C 
ATOM     11  C   UNL     1      26.699  22.774   4.157  1.00  0.00     0.039 C 
ENDBRANCH   5   9
TORSDOF 1
ENDMDL
MODEL 9
REMARK VINA RESULT:    -5.406      1.512      4.300
REMARK INTER + INTRA:          -5.817
REMARK INTER:                  -5.720
REMARK INTRA:                  -0.098
REMARK UNBOUND:                -0.096
REMARK SMILES C=C(C)[C@H]1CC=C(C)C(=O)C1
REMARK SMILES IDX 8 1 7 2 6 3 5 4 4 5 11 6 9 7 10 8 2 9 1 10 3 11
REMARK H PARENT
REMARK Flexibility Score: inf
ROOT
ATOM      1  C   UNL     1      31.380  22.120   8.969  1.00  0.00     0.048 C 
ATOM      2  C   UNL     1      30.544  21.901   7.738  1.00  0.00    -0.012 C 
ATOM      3  C   UNL     1      30.802  20.858   6.931  1.00  0.00    -0.019 C 
ATOM      4  C   UNL     1      30.008  20.603   5.677  1.00  0.00     0.036 C 
ATOM      5  C   UNL     1      28.546  21.059   5.845  1.00  0.00     0.025 C 
ATOM      6  C   UNL     1      28.492  22.536   6.279  1.00  0.00     0.089 C 
ATOM      7  C   UNL     1      29.362  22.764   7.484  1.00  0.00     0.158 C 
ATOM      8  O   UNL     1      29.098  23.720   8.260  1.00  0.00    -0.295 OA
ENDROOT
BRANCH   5   9
ATOM      9  C   UNL     1      27.731  20.813   4.584  1.00  0.00    -0.077 C 
ATOM     10  C   UNL     1      28.089  19.878   3.687  1.00  0.00     0.008 C 
ATOM     11  C   UNL     1      26.495  21.643   4.353  1.00  0.00     0.039 C 
ENDBRANCH   5   9
TORSDOF 1
ENDMDL
