MODEL 1
REMARK VINA RESULT:    24.493      0.000      0.000
REMARK INTER + INTRA:          48.865
REMARK INTER:                  42.391
REMARK INTRA:                   6.473
REMARK UNBOUND:                 6.473
REMARK SMILES OC[C@@H]1O[C@H](O[C@H]2[C@@H](O)[C@H](O)[C@@H](O)O[C@@H]2CO)[C@H](O)[C@@H](O)[C@@H]1O[C@H]1O[C@H](CO)[C@H](O)[C@@H](O)[C@@H]1O
REMARK SMILES IDX 22 1 3 2 4 3 5 4 18 5 20 6 23 7 24 8 26 9 29 10 25 11 31 12
REMARK SMILES IDX 33 13 27 14 28 15 30 17 32 19 34 21 2 23 1 24 21 26 19 28
REMARK SMILES IDX 6 30 7 31 15 32 8 33 14 34 10 35 12 36 16 37 17 38 9 40
REMARK SMILES IDX 11 42 13 44
REMARK H PARENT 28 16 30 18 32 20 34 22 1 25 21 27 19 29 17 39 9 41 11 43
REMARK H PARENT 13 45
REMARK Flexibility Score: inf
ROOT
ATOM      1  C   UNL     1       6.320   6.184  26.369  1.00  0.00     0.184 C 
ATOM      2  C   UNL     1       5.192   7.266  26.346  1.00  0.00     0.178 C 
ATOM      3  O   UNL     1       4.059   6.952  25.537  1.00  0.00    -0.341 OA
ATOM      4  C   UNL     1       4.128   5.711  24.857  1.00  0.00     0.282 C 
ATOM      5  C   UNL     1       4.401   4.562  25.855  1.00  0.00     0.202 C 
ATOM      6  C   UNL     1       5.720   4.788  26.640  1.00  0.00     0.180 C 
ENDROOT
BRANCH   1   7
ATOM      7  O   UNL     1       7.289   6.494  27.365  1.00  0.00    -0.341 OA
BRANCH   7   8
ATOM      8  C   UNL     1       7.746   7.836  27.256  1.00  0.00     0.282 C 
ATOM      9  C   UNL     1       9.514   7.274  25.818  1.00  0.00     0.178 C 
ATOM     10  C   UNL     1       8.948   8.069  24.620  1.00  0.00     0.177 C 
ATOM     11  O   UNL     1       9.149   7.894  27.040  1.00  0.00    -0.341 OA
ATOM     12  C   UNL     1       7.414   8.201  24.731  1.00  0.00     0.179 C 
ATOM     13  C   UNL     1       6.966   8.597  26.156  1.00  0.00     0.202 C 
BRANCH   9  14
ATOM     14  C   UNL     1      11.045   7.175  25.764  1.00  0.00     0.191 C 
BRANCH  14  15
ATOM     15  O   UNL     1      11.446   5.981  25.146  1.00  0.00    -0.394 OA
ATOM     16  H   UNL     1      10.633   5.578  24.744  1.00  0.00     0.210 HD
ENDBRANCH  14  15
ENDBRANCH   9  14
BRANCH  10  17
ATOM     17  O   UNL     1       9.518   9.355  24.596  1.00  0.00    -0.387 OA
ATOM     18  H   UNL     1       8.844   9.972  24.204  1.00  0.00     0.211 HD
ENDBRANCH  10  17
BRANCH  12  19
ATOM     19  O   UNL     1       6.760   7.037  24.288  1.00  0.00    -0.387 OA
ATOM     20  H   UNL     1       5.894   7.301  23.891  1.00  0.00     0.211 HD
ENDBRANCH  12  19
BRANCH  13  21
ATOM     21  O   UNL     1       7.160   9.980  26.322  1.00  0.00    -0.385 OA
ATOM     22  H   UNL     1       7.972  10.225  25.806  1.00  0.00     0.211 HD
ENDBRANCH  13  21
ENDBRANCH   7   8
ENDBRANCH   1   7
BRANCH   2  23
ATOM     23  C   UNL     1       4.672   7.621  27.752  1.00  0.00     0.191 C 
BRANCH  23  24
ATOM     24  O   UNL     1       3.302   7.352  27.855  1.00  0.00    -0.394 OA
ATOM     25  H   UNL     1       3.214   6.591  28.484  1.00  0.00     0.210 HD
ENDBRANCH  23  24
ENDBRANCH   2  23
BRANCH   6  26
ATOM     26  O   UNL     1       6.650   3.797  26.275  1.00  0.00    -0.387 OA
ATOM     27  H   UNL     1       6.858   3.930  25.313  1.00  0.00     0.211 HD
ENDBRANCH   6  26
BRANCH   5  28
ATOM     28  O   UNL     1       3.319   4.469  26.746  1.00  0.00    -0.385 OA
ATOM     29  H   UNL     1       3.672   4.078  27.587  1.00  0.00     0.211 HD
ENDBRANCH   5  28
BRANCH   4  30
ATOM     30  O   UNL     1       2.878   5.508  24.218  1.00  0.00    -0.341 OA
BRANCH  30  31
ATOM     31  C   UNL     1       3.008   5.207  22.834  1.00  0.00     0.184 C 
ATOM     32  C   UNL     1       3.862   3.926  22.658  1.00  0.00     0.178 C 
ATOM     33  C   UNL     1       3.700   6.391  22.128  1.00  0.00     0.180 C 
ATOM     34  O   UNL     1       4.073   3.640  21.284  1.00  0.00    -0.342 OA
ATOM     35  C   UNL     1       4.060   6.015  20.683  1.00  0.00     0.201 C 
ATOM     36  C   UNL     1       4.813   4.665  20.639  1.00  0.00     0.279 C 
BRANCH  32  37
ATOM     37  C   UNL     1       3.190   2.707  23.311  1.00  0.00     0.191 C 
BRANCH  37  38
ATOM     38  O   UNL     1       3.688   1.507  22.783  1.00  0.00    -0.394 OA
ATOM     39  H   UNL     1       3.254   0.769  23.286  1.00  0.00     0.210 HD
ENDBRANCH  37  38
ENDBRANCH  32  37
BRANCH  33  40
ATOM     40  O   UNL     1       4.868   6.765  22.817  1.00  0.00    -0.387 OA
ATOM     41  H   UNL     1       4.586   7.334  23.580  1.00  0.00     0.211 HD
ENDBRANCH  33  40
BRANCH  35  42
ATOM     42  O   UNL     1       2.881   5.927  19.922  1.00  0.00    -0.385 OA
ATOM     43  H   UNL     1       2.141   5.740  20.557  1.00  0.00     0.211 HD
ENDBRANCH  35  42
BRANCH  36  44
ATOM     44  O   UNL     1       6.100   4.774  21.198  1.00  0.00    -0.366 OA
ATOM     45  H   UNL     1       6.122   5.628  21.703  1.00  0.00     0.213 HD
ENDBRANCH  36  44
ENDBRANCH  30  31
ENDBRANCH   4  30
TORSDOF 18
ENDMDL
MODEL 2
REMARK VINA RESULT:    27.334     11.175     14.781
REMARK INTER + INTRA:          53.782
REMARK INTER:                  53.439
REMARK INTRA:                   0.343
REMARK UNBOUND:                 6.473
REMARK SMILES OC[C@@H]1O[C@H](O[C@H]2[C@@H](O)[C@H](O)[C@@H](O)O[C@@H]2CO)[C@H](O)[C@@H](O)[C@@H]1O[C@H]1O[C@H](CO)[C@H](O)[C@@H](O)[C@@H]1O
REMARK SMILES IDX 22 1 3 2 4 3 5 4 18 5 20 6 23 7 24 8 26 9 29 10 25 11 31 12
REMARK SMILES IDX 33 13 27 14 28 15 30 17 32 19 34 21 2 23 1 24 21 26 19 28
REMARK SMILES IDX 6 30 7 31 15 32 8 33 14 34 10 35 12 36 16 37 17 38 9 40
REMARK SMILES IDX 11 42 13 44
REMARK H PARENT 28 16 30 18 32 20 34 22 1 25 21 27 19 29 17 39 9 41 11 43
REMARK H PARENT 13 45
REMARK Flexibility Score: inf
ROOT
ATOM      1  C   UNL     1       7.843   6.460  11.248  1.00  0.00     0.184 C 
ATOM      2  C   UNL     1       8.154   5.591  12.508  1.00  0.00     0.178 C 
ATOM      3  O   UNL     1       9.445   4.982  12.529  1.00  0.00    -0.341 OA
ATOM      4  C   UNL     1      10.252   5.240  11.393  1.00  0.00     0.282 C 
ATOM      5  C   UNL     1      10.389   6.762  11.161  1.00  0.00     0.202 C 
ATOM      6  C   UNL     1       9.005   7.437  10.967  1.00  0.00     0.180 C 
ENDROOT
BRANCH   1   7
ATOM      7  O   UNL     1       6.634   7.189  11.429  1.00  0.00    -0.341 OA
BRANCH   7   8
ATOM      8  C   UNL     1       5.827   7.170  10.258  1.00  0.00     0.282 C 
ATOM      9  C   UNL     1       4.349   8.802  11.070  1.00  0.00     0.178 C 
ATOM     10  C   UNL     1       4.723   9.846   9.993  1.00  0.00     0.177 C 
ATOM     11  O   UNL     1       4.473   7.489  10.551  1.00  0.00    -0.341 OA
ATOM     12  C   UNL     1       6.153   9.596   9.469  1.00  0.00     0.179 C 
ATOM     13  C   UNL     1       6.411   8.102   9.169  1.00  0.00     0.202 C 
BRANCH   9  14
ATOM     14  C   UNL     1       2.909   8.990  11.570  1.00  0.00     0.191 C 
BRANCH  14  15
ATOM     15  O   UNL     1       2.875   9.840  12.686  1.00  0.00    -0.394 OA
ATOM     16  H   UNL     1       3.704  10.386  12.657  1.00  0.00     0.210 HD
ENDBRANCH  14  15
ENDBRANCH   9  14
BRANCH  10  17
ATOM     17  O   UNL     1       3.818   9.758   8.919  1.00  0.00    -0.387 OA
ATOM     18  H   UNL     1       4.354   9.687   8.084  1.00  0.00     0.211 HD
ENDBRANCH  10  17
BRANCH  12  19
ATOM     19  O   UNL     1       7.123  10.125  10.340  1.00  0.00    -0.387 OA
ATOM     20  H   UNL     1       6.657  10.560  11.096  1.00  0.00     0.211 HD
ENDBRANCH  12  19
BRANCH  13  21
ATOM     21  O   UNL     1       5.833   7.785   7.927  1.00  0.00    -0.385 OA
ATOM     22  H   UNL     1       6.344   7.019   7.555  1.00  0.00     0.211 HD
ENDBRANCH  13  21
ENDBRANCH   7   8
ENDBRANCH   1   7
BRANCH   2  23
ATOM     23  C   UNL     1       7.989   6.367  13.829  1.00  0.00     0.191 C 
BRANCH  23  24
ATOM     24  O   UNL     1       7.667   5.497  14.877  1.00  0.00    -0.394 OA
ATOM     25  H   UNL     1       8.489   5.406  15.425  1.00  0.00     0.210 HD
ENDBRANCH  23  24
ENDBRANCH   2  23
BRANCH   6  26
ATOM     26  O   UNL     1       8.908   7.920   9.650  1.00  0.00    -0.387 OA
ATOM     27  H   UNL     1       9.745   7.664   9.181  1.00  0.00     0.211 HD
ENDBRANCH   6  26
BRANCH   5  28
ATOM     28  O   UNL     1      11.054   7.330  12.260  1.00  0.00    -0.385 OA
ATOM     29  H   UNL     1      10.523   8.121  12.540  1.00  0.00     0.211 HD
ENDBRANCH   5  28
BRANCH   4  30
ATOM     30  O   UNL     1      11.529   4.673  11.644  1.00  0.00    -0.341 OA
BRANCH  30  31
ATOM     31  C   UNL     1      11.607   4.028  12.909  1.00  0.00     0.184 C 
ATOM     32  C   UNL     1      12.950   4.384  13.594  1.00  0.00     0.178 C 
ATOM     33  C   UNL     1      11.522   2.503  12.698  1.00  0.00     0.180 C 
ATOM     34  O   UNL     1      13.090   3.696  14.827  1.00  0.00    -0.342 OA
ATOM     35  C   UNL     1      11.825   1.764  14.010  1.00  0.00     0.201 C 
ATOM     36  C   UNL     1      13.134   2.290  14.645  1.00  0.00     0.279 C 
BRANCH  32  37
ATOM     37  C   UNL     1      13.061   5.894  13.863  1.00  0.00     0.191 C 
BRANCH  37  38
ATOM     38  O   UNL     1      11.832   6.431  14.272  1.00  0.00    -0.394 OA
ATOM     39  H   UNL     1      11.680   7.248  13.728  1.00  0.00     0.210 HD
ENDBRANCH  37  38
ENDBRANCH  32  37
BRANCH  33  40
ATOM     40  O   UNL     1      12.432   2.088  11.708  1.00  0.00    -0.387 OA
ATOM     41  H   UNL     1      12.391   2.758  10.976  1.00  0.00     0.211 HD
ENDBRANCH  33  40
BRANCH  35  42
ATOM     42  O   UNL     1      10.755   1.951  14.903  1.00  0.00    -0.385 OA
ATOM     43  H   UNL     1      10.023   2.382  14.388  1.00  0.00     0.211 HD
ENDBRANCH  35  42
BRANCH  36  44
ATOM     44  O   UNL     1      14.260   1.923  13.884  1.00  0.00    -0.366 OA
ATOM     45  H   UNL     1      14.499   2.710  13.328  1.00  0.00     0.213 HD
ENDBRANCH  36  44
ENDBRANCH  30  31
ENDBRANCH   4  30
TORSDOF 18
ENDMDL
