MODEL 1
REMARK VINA RESULT:    -5.781      0.000      0.000
REMARK INTER + INTRA:          -5.781
REMARK INTER:                  -5.781
REMARK INTRA:                   0.000
REMARK UNBOUND:                 0.000
REMARK SMILES C=C1CCCC(C)(C)[C@]12CC=C(C)CC2
REMARK SMILES IDX 13 1 12 2 11 3 10 4 9 5 15 6 14 7 2 8 1 9 3 10 4 11 5 12
REMARK SMILES IDX 6 13 7 14 8 15
REMARK H PARENT
REMARK Flexibility Score: inf
ROOT
ATOM      1  C   UNL     1     134.877 140.052 123.676  1.00  0.00     0.039 C 
ATOM      2  C   UNL     1     135.830 138.932 123.990  1.00  0.00    -0.077 C 
ATOM      3  C   UNL     1     137.146 139.086 123.781  1.00  0.00    -0.027 C 
ATOM      4  C   UNL     1     138.087 137.952 124.096  1.00  0.00     0.039 C 
ATOM      5  C   UNL     1     137.583 136.550 123.571  1.00  0.00    -0.000 C 
ATOM      6  C   UNL     1     135.992 136.508 123.558  1.00  0.00     0.017 C 
ATOM      7  C   UNL     1     135.336 137.582 124.440  1.00  0.00     0.031 C 
ATOM      8  C   UNL     1     138.165 135.500 124.555  1.00  0.00    -0.070 C 
ATOM      9  C   UNL     1     137.494 135.057 125.640  1.00  0.00     0.008 C 
ATOM     10  C   UNL     1     139.649 135.195 124.496  1.00  0.00     0.031 C 
ATOM     11  C   UNL     1     140.099 134.875 123.079  1.00  0.00     0.005 C 
ATOM     12  C   UNL     1     139.684 135.983 122.111  1.00  0.00     0.008 C 
ATOM     13  C   UNL     1     138.144 136.234 122.099  1.00  0.00    -0.026 C 
ATOM     14  C   UNL     1     137.894 137.407 121.112  1.00  0.00     0.012 C 
ATOM     15  C   UNL     1     137.459 134.968 121.500  1.00  0.00     0.012 C 
ENDROOT
TORSDOF 0
ENDMDL
MODEL 2
REMARK VINA RESULT:    -2.919     14.272     16.400
REMARK INTER + INTRA:          -2.919
REMARK INTER:                  -2.919
REMARK INTRA:                   0.000
REMARK UNBOUND:                 0.000
REMARK SMILES C=C1CCCC(C)(C)[C@]12CC=C(C)CC2
REMARK SMILES IDX 13 1 12 2 11 3 10 4 9 5 15 6 14 7 2 8 1 9 3 10 4 11 5 12
REMARK SMILES IDX 6 13 7 14 8 15
REMARK H PARENT
REMARK Flexibility Score: inf
ROOT
ATOM      1  C   UNL     1     140.360 155.125 124.500  1.00  0.00     0.039 C 
ATOM      2  C   UNL     1     139.181 154.192 124.504  1.00  0.00    -0.077 C 
ATOM      3  C   UNL     1     139.255 153.006 123.881  1.00  0.00    -0.027 C 
ATOM      4  C   UNL     1     138.062 152.085 123.891  1.00  0.00     0.039 C 
ATOM      5  C   UNL     1     136.698 152.816 123.573  1.00  0.00    -0.000 C 
ATOM      6  C   UNL     1     136.755 154.326 124.073  1.00  0.00     0.017 C 
ATOM      7  C   UNL     1     137.860 154.597 125.106  1.00  0.00     0.031 C 
ATOM      8  C   UNL     1     135.606 152.014 124.331  1.00  0.00    -0.070 C 
ATOM      9  C   UNL     1     135.197 152.326 125.580  1.00  0.00     0.008 C 
ATOM     10  C   UNL     1     135.211 150.649 123.802  1.00  0.00     0.031 C 
ATOM     11  C   UNL     1     134.875 150.699 122.319  1.00  0.00     0.005 C 
ATOM     12  C   UNL     1     136.015 151.335 121.522  1.00  0.00     0.008 C 
ATOM     13  C   UNL     1     136.360 152.779 122.003  1.00  0.00    -0.026 C 
ATOM     14  C   UNL     1     137.554 153.261 121.134  1.00  0.00     0.012 C 
ATOM     15  C   UNL     1     135.143 153.696 121.672  1.00  0.00     0.012 C 
ENDROOT
TORSDOF 0
ENDMDL
