MODEL 1
REMARK VINA RESULT:    -3.797      0.000      0.000
REMARK INTER + INTRA:          -9.002
REMARK INTER:                  -6.904
REMARK INTRA:                  -2.098
REMARK UNBOUND:                -2.098
REMARK SMILES CCCCCCCCCCCCCCCC(=O)[O-]
REMARK SMILES IDX 9 1 10 2 11 3 12 4 13 5 14 6 15 7 16 8 17 9 18 10 8 11 7 12
REMARK SMILES IDX 6 13 5 14 4 15 3 16 2 17 1 18
REMARK H PARENT
REMARK Flexibility Score: inf
ROOT
ATOM      1  C   UNL     1      51.755 -41.988 -31.004  1.00  0.00     0.000 C 
ENDROOT
BRANCH   1   2
ATOM      2  C   UNL     1      51.036 -43.310 -30.669  1.00  0.00     0.000 C 
BRANCH   2   3
ATOM      3  C   UNL     1      49.508 -43.200 -30.490  1.00  0.00     0.000 C 
BRANCH   3   4
ATOM      4  C   UNL     1      48.946 -43.948 -29.270  1.00  0.00     0.000 C 
BRANCH   4   5
ATOM      5  C   UNL     1      48.880 -43.067 -28.011  1.00  0.00     0.000 C 
BRANCH   5   6
ATOM      6  C   UNL     1      48.446 -41.626 -28.321  1.00  0.00     0.006 C 
BRANCH   6   7
ATOM      7  C   UNL     1      48.351 -40.755 -27.062  1.00  0.00     0.053 C 
BRANCH   7   8
ATOM      8  C   UNL     1      46.959 -40.233 -26.894  1.00  0.00     0.041 C 
ATOM      9  O   UNL     1      46.028 -41.008 -26.549  1.00  0.00    -0.550 OA
ATOM     10  O   UNL     1      46.678 -38.901 -27.168  1.00  0.00    -0.550 OA
ENDBRANCH   7   8
ENDBRANCH   6   7
ENDBRANCH   5   6
ENDBRANCH   4   5
ENDBRANCH   3   4
ENDBRANCH   2   3
ENDBRANCH   1   2
BRANCH   1  11
ATOM     11  C   UNL     1      51.425 -40.807 -30.072  1.00  0.00     0.000 C 
BRANCH  11  12
ATOM     12  C   UNL     1      52.468 -40.612 -28.961  1.00  0.00    -0.000 C 
BRANCH  12  13
ATOM     13  C   UNL     1      52.105 -41.356 -27.665  1.00  0.00    -0.000 C 
BRANCH  13  14
ATOM     14  C   UNL     1      52.706 -42.775 -27.576  1.00  0.00    -0.000 C 
BRANCH  14  15
ATOM     15  C   UNL     1      52.673 -43.329 -26.141  1.00  0.00    -0.000 C 
BRANCH  15  16
ATOM     16  C   UNL     1      51.710 -42.556 -25.221  1.00  0.00    -0.000 C 
BRANCH  16  17
ATOM     17  C   UNL     1      50.712 -43.437 -24.448  1.00  0.00    -0.003 C 
ATOM     18  C   UNL     1      50.196 -42.774 -23.171  1.00  0.00     0.004 C 
ENDBRANCH  16  17
ENDBRANCH  15  16
ENDBRANCH  14  15
ENDBRANCH  13  14
ENDBRANCH  12  13
ENDBRANCH  11  12
ENDBRANCH   1  11
TORSDOF 14
ENDMDL
MODEL 2
REMARK VINA RESULT:    -3.626      4.541      6.793
REMARK INTER + INTRA:          -8.691
REMARK INTER:                  -6.365
REMARK INTRA:                  -2.326
REMARK UNBOUND:                -2.098
REMARK SMILES CCCCCCCCCCCCCCCC(=O)[O-]
REMARK SMILES IDX 9 1 10 2 11 3 12 4 13 5 14 6 15 7 16 8 17 9 18 10 8 11 7 12
REMARK SMILES IDX 6 13 5 14 4 15 3 16 2 17 1 18
REMARK H PARENT
REMARK Flexibility Score: inf
ROOT
ATOM      1  C   UNL     1      52.288 -41.029 -27.869  1.00  0.00     0.000 C 
ENDROOT
BRANCH   1   2
ATOM      2  C   UNL     1      52.447 -42.557 -28.003  1.00  0.00     0.000 C 
BRANCH   2   3
ATOM      3  C   UNL     1      53.089 -43.260 -26.790  1.00  0.00     0.000 C 
BRANCH   3   4
ATOM      4  C   UNL     1      53.916 -42.340 -25.874  1.00  0.00     0.000 C 
BRANCH   4   5
ATOM      5  C   UNL     1      55.381 -42.792 -25.744  1.00  0.00     0.000 C 
BRANCH   5   6
ATOM      6  C   UNL     1      56.166 -41.959 -24.719  1.00  0.00     0.006 C 
BRANCH   6   7
ATOM      7  C   UNL     1      55.351 -40.785 -24.165  1.00  0.00     0.053 C 
BRANCH   7   8
ATOM      8  C   UNL     1      56.260 -39.703 -23.674  1.00  0.00     0.041 C 
ATOM      9  O   UNL     1      57.388 -39.532 -24.209  1.00  0.00    -0.550 OA
ATOM     10  O   UNL     1      55.887 -38.918 -22.591  1.00  0.00    -0.550 OA
ENDBRANCH   7   8
ENDBRANCH   6   7
ENDBRANCH   5   6
ENDBRANCH   4   5
ENDBRANCH   3   4
ENDBRANCH   2   3
ENDBRANCH   1   2
BRANCH   1  11
ATOM     11  C   UNL     1      52.502 -40.231 -29.169  1.00  0.00     0.000 C 
BRANCH  11  12
ATOM     12  C   UNL     1      51.810 -40.869 -30.383  1.00  0.00    -0.000 C 
BRANCH  12  13
ATOM     13  C   UNL     1      52.797 -41.246 -31.502  1.00  0.00    -0.000 C 
BRANCH  13  14
ATOM     14  C   UNL     1      54.273 -40.983 -31.139  1.00  0.00    -0.000 C 
BRANCH  14  15
ATOM     15  C   UNL     1      54.997 -42.266 -30.691  1.00  0.00    -0.000 C 
BRANCH  15  16
ATOM     16  C   UNL     1      55.819 -42.072 -29.404  1.00  0.00    -0.000 C 
BRANCH  16  17
ATOM     17  C   UNL     1      56.426 -40.668 -29.233  1.00  0.00    -0.003 C 
ATOM     18  C   UNL     1      55.962 -39.968 -27.956  1.00  0.00     0.004 C 
ENDBRANCH  16  17
ENDBRANCH  15  16
ENDBRANCH  14  15
ENDBRANCH  13  14
ENDBRANCH  12  13
ENDBRANCH  11  12
ENDBRANCH   1  11
TORSDOF 14
ENDMDL
MODEL 3
REMARK VINA RESULT:    -3.552      3.889      6.339
REMARK INTER + INTRA:          -8.557
REMARK INTER:                  -6.419
REMARK INTRA:                  -2.137
REMARK UNBOUND:                -2.098
REMARK SMILES CCCCCCCCCCCCCCCC(=O)[O-]
REMARK SMILES IDX 9 1 10 2 11 3 12 4 13 5 14 6 15 7 16 8 17 9 18 10 8 11 7 12
REMARK SMILES IDX 6 13 5 14 4 15 3 16 2 17 1 18
REMARK H PARENT
REMARK Flexibility Score: inf
ROOT
ATOM      1  C   UNL     1      52.183 -40.880 -27.791  1.00  0.00     0.000 C 
ENDROOT
BRANCH   1   2
ATOM      2  C   UNL     1      52.640 -42.313 -27.451  1.00  0.00     0.000 C 
BRANCH   2   3
ATOM      3  C   UNL     1      53.262 -42.489 -26.051  1.00  0.00     0.000 C 
BRANCH   3   4
ATOM      4  C   UNL     1      54.787 -42.689 -26.042  1.00  0.00     0.000 C 
BRANCH   4   5
ATOM      5  C   UNL     1      55.267 -43.650 -27.143  1.00  0.00     0.000 C 
BRANCH   5   6
ATOM      6  C   UNL     1      56.421 -43.068 -27.973  1.00  0.00     0.006 C 
BRANCH   6   7
ATOM      7  C   UNL     1      56.017 -41.800 -28.736  1.00  0.00     0.053 C 
BRANCH   7   8
ATOM      8  C   UNL     1      55.828 -42.102 -30.188  1.00  0.00     0.041 C 
ATOM      9  O   UNL     1      56.278 -41.316 -31.063  1.00  0.00    -0.550 OA
ATOM     10  O   UNL     1      55.109 -43.225 -30.577  1.00  0.00    -0.550 OA
ENDBRANCH   7   8
ENDBRANCH   6   7
ENDBRANCH   5   6
ENDBRANCH   4   5
ENDBRANCH   3   4
ENDBRANCH   2   3
ENDBRANCH   1   2
BRANCH   1  11
ATOM     11  C   UNL     1      52.532 -40.401 -29.213  1.00  0.00     0.000 C 
BRANCH  11  12
ATOM     12  C   UNL     1      51.439 -40.730 -30.241  1.00  0.00    -0.000 C 
BRANCH  12  13
ATOM     13  C   UNL     1      51.755 -41.991 -31.064  1.00  0.00    -0.000 C 
BRANCH  13  14
ATOM     14  C   UNL     1      50.926 -43.224 -30.649  1.00  0.00    -0.000 C 
BRANCH  14  15
ATOM     15  C   UNL     1      49.481 -42.853 -30.272  1.00  0.00    -0.000 C 
BRANCH  15  16
ATOM     16  C   UNL     1      49.037 -43.461 -28.929  1.00  0.00    -0.000 C 
BRANCH  16  17
ATOM     17  C   UNL     1      48.855 -42.442 -27.790  1.00  0.00    -0.003 C 
ATOM     18  C   UNL     1      48.372 -41.077 -28.282  1.00  0.00     0.004 C 
ENDBRANCH  16  17
ENDBRANCH  15  16
ENDBRANCH  14  15
ENDBRANCH  13  14
ENDBRANCH  12  13
ENDBRANCH  11  12
ENDBRANCH   1  11
TORSDOF 14
ENDMDL
MODEL 4
REMARK VINA RESULT:    -3.519      4.401      6.692
REMARK INTER + INTRA:          -8.497
REMARK INTER:                  -6.089
REMARK INTRA:                  -2.408
REMARK UNBOUND:                -2.098
REMARK SMILES CCCCCCCCCCCCCCCC(=O)[O-]
REMARK SMILES IDX 9 1 10 2 11 3 12 4 13 5 14 6 15 7 16 8 17 9 18 10 8 11 7 12
REMARK SMILES IDX 6 13 5 14 4 15 3 16 2 17 1 18
REMARK H PARENT
REMARK Flexibility Score: inf
ROOT
ATOM      1  C   UNL     1      55.853 -42.860 -29.773  1.00  0.00     0.000 C 
ENDROOT
BRANCH   1   2
ATOM      2  C   UNL     1      55.493 -43.870 -28.664  1.00  0.00     0.000 C 
BRANCH   2   3
ATOM      3  C   UNL     1      56.196 -43.639 -27.311  1.00  0.00     0.000 C 
BRANCH   3   4
ATOM      4  C   UNL     1      55.281 -43.120 -26.189  1.00  0.00     0.000 C 
BRANCH   4   5
ATOM      5  C   UNL     1      56.014 -42.191 -25.206  1.00  0.00     0.000 C 
BRANCH   5   6
ATOM      6  C   UNL     1      55.076 -41.161 -24.557  1.00  0.00     0.006 C 
BRANCH   6   7
ATOM      7  C   UNL     1      55.838 -40.027 -23.860  1.00  0.00     0.053 C 
BRANCH   7   8
ATOM      8  C   UNL     1      55.047 -39.500 -22.706  1.00  0.00     0.041 C 
ATOM      9  O   UNL     1      55.492 -38.544 -22.016  1.00  0.00    -0.550 OA
ATOM     10  O   UNL     1      53.842 -40.096 -22.357  1.00  0.00    -0.550 OA
ENDBRANCH   7   8
ENDBRANCH   6   7
ENDBRANCH   5   6
ENDBRANCH   4   5
ENDBRANCH   3   4
ENDBRANCH   2   3
ENDBRANCH   1   2
BRANCH   1  11
ATOM     11  C   UNL     1      56.611 -41.607 -29.297  1.00  0.00     0.000 C 
BRANCH  11  12
ATOM     12  C   UNL     1      55.767 -40.327 -29.387  1.00  0.00    -0.000 C 
BRANCH  12  13
ATOM     13  C   UNL     1      55.181 -39.902 -28.030  1.00  0.00    -0.000 C 
BRANCH  13  14
ATOM     14  C   UNL     1      53.678 -39.556 -28.085  1.00  0.00    -0.000 C 
BRANCH  14  15
ATOM     15  C   UNL     1      52.796 -40.734 -27.635  1.00  0.00    -0.000 C 
BRANCH  15  16
ATOM     16  C   UNL     1      52.458 -41.702 -28.785  1.00  0.00    -0.000 C 
BRANCH  16  17
ATOM     17  C   UNL     1      51.758 -41.049 -29.991  1.00  0.00    -0.003 C 
ATOM     18  C   UNL     1      52.590 -41.119 -31.272  1.00  0.00     0.004 C 
ENDBRANCH  16  17
ENDBRANCH  15  16
ENDBRANCH  14  15
ENDBRANCH  13  14
ENDBRANCH  12  13
ENDBRANCH  11  12
ENDBRANCH   1  11
TORSDOF 14
ENDMDL
MODEL 5
REMARK VINA RESULT:    -3.495      3.333      5.474
REMARK INTER + INTRA:          -8.452
REMARK INTER:                  -6.212
REMARK INTRA:                  -2.240
REMARK UNBOUND:                -2.098
REMARK SMILES CCCCCCCCCCCCCCCC(=O)[O-]
REMARK SMILES IDX 9 1 10 2 11 3 12 4 13 5 14 6 15 7 16 8 17 9 18 10 8 11 7 12
REMARK SMILES IDX 6 13 5 14 4 15 3 16 2 17 1 18
REMARK H PARENT
REMARK Flexibility Score: inf
ROOT
ATOM      1  C   UNL     1      49.658 -41.609 -27.189  1.00  0.00     0.000 C 
ENDROOT
BRANCH   1   2
ATOM      2  C   UNL     1      49.373 -43.014 -26.622  1.00  0.00     0.000 C 
BRANCH   2   3
ATOM      3  C   UNL     1      50.623 -43.857 -26.297  1.00  0.00     0.000 C 
BRANCH   3   4
ATOM      4  C   UNL     1      51.699 -43.125 -25.477  1.00  0.00     0.000 C 
BRANCH   4   5
ATOM      5  C   UNL     1      51.188 -42.663 -24.102  1.00  0.00     0.000 C 
BRANCH   5   6
ATOM      6  C   UNL     1      51.687 -41.259 -23.728  1.00  0.00     0.006 C 
BRANCH   6   7
ATOM      7  C   UNL     1      52.761 -40.739 -24.690  1.00  0.00     0.053 C 
BRANCH   7   8
ATOM      8  C   UNL     1      54.093 -40.692 -24.010  1.00  0.00     0.041 C 
ATOM      9  O   UNL     1      55.102 -41.212 -24.556  1.00  0.00    -0.550 OA
ATOM     10  O   UNL     1      54.210 -40.122 -22.749  1.00  0.00    -0.550 OA
ENDBRANCH   7   8
ENDBRANCH   6   7
ENDBRANCH   5   6
ENDBRANCH   4   5
ENDBRANCH   3   4
ENDBRANCH   2   3
ENDBRANCH   1   2
BRANCH   1  11
ATOM     11  C   UNL     1      48.770 -41.188 -28.375  1.00  0.00     0.000 C 
BRANCH  11  12
ATOM     12  C   UNL     1      49.483 -41.310 -29.729  1.00  0.00    -0.000 C 
BRANCH  12  13
ATOM     13  C   UNL     1      49.525 -42.756 -30.252  1.00  0.00    -0.000 C 
BRANCH  13  14
ATOM     14  C   UNL     1      50.955 -43.306 -30.440  1.00  0.00    -0.000 C 
BRANCH  14  15
ATOM     15  C   UNL     1      51.994 -42.180 -30.591  1.00  0.00    -0.000 C 
BRANCH  15  16
ATOM     16  C   UNL     1      53.224 -42.375 -29.685  1.00  0.00    -0.000 C 
BRANCH  16  17
ATOM     17  C   UNL     1      53.174 -41.601 -28.356  1.00  0.00    -0.003 C 
ATOM     18  C   UNL     1      52.792 -40.131 -28.535  1.00  0.00     0.004 C 
ENDBRANCH  16  17
ENDBRANCH  15  16
ENDBRANCH  14  15
ENDBRANCH  13  14
ENDBRANCH  12  13
ENDBRANCH  11  12
ENDBRANCH   1  11
TORSDOF 14
ENDMDL
MODEL 6
REMARK VINA RESULT:    -3.455      4.802      7.161
REMARK INTER + INTRA:          -8.381
REMARK INTER:                  -6.555
REMARK INTRA:                  -1.827
REMARK UNBOUND:                -2.098
REMARK SMILES CCCCCCCCCCCCCCCC(=O)[O-]
REMARK SMILES IDX 9 1 10 2 11 3 12 4 13 5 14 6 15 7 16 8 17 9 18 10 8 11 7 12
REMARK SMILES IDX 6 13 5 14 4 15 3 16 2 17 1 18
REMARK H PARENT
REMARK Flexibility Score: inf
ROOT
ATOM      1  C   UNL     1      56.354 -38.424 -23.579  1.00  0.00     0.000 C 
ENDROOT
BRANCH   1   2
ATOM      2  C   UNL     1      57.095 -39.590 -24.264  1.00  0.00     0.000 C 
BRANCH   2   3
ATOM      3  C   UNL     1      56.284 -40.345 -25.336  1.00  0.00     0.000 C 
BRANCH   3   4
ATOM      4  C   UNL     1      55.881 -41.779 -24.950  1.00  0.00     0.000 C 
BRANCH   4   5
ATOM      5  C   UNL     1      54.532 -42.201 -25.556  1.00  0.00     0.000 C 
BRANCH   5   6
ATOM      6  C   UNL     1      53.943 -41.131 -26.488  1.00  0.00     0.006 C 
BRANCH   6   7
ATOM      7  C   UNL     1      53.788 -41.627 -27.931  1.00  0.00     0.053 C 
BRANCH   7   8
ATOM      8  C   UNL     1      55.074 -41.469 -28.678  1.00  0.00     0.041 C 
ATOM      9  O   UNL     1      55.377 -40.359 -29.192  1.00  0.00    -0.550 OA
ATOM     10  O   UNL     1      55.916 -42.560 -28.854  1.00  0.00    -0.550 OA
ENDBRANCH   7   8
ENDBRANCH   6   7
ENDBRANCH   5   6
ENDBRANCH   4   5
ENDBRANCH   3   4
ENDBRANCH   2   3
ENDBRANCH   1   2
BRANCH   1  11
ATOM     11  C   UNL     1      55.498 -38.818 -22.361  1.00  0.00     0.000 C 
BRANCH  11  12
ATOM     12  C   UNL     1      53.997 -38.891 -22.683  1.00  0.00    -0.000 C 
BRANCH  12  13
ATOM     13  C   UNL     1      53.419 -40.306 -22.510  1.00  0.00    -0.000 C 
BRANCH  13  14
ATOM     14  C   UNL     1      52.094 -40.340 -21.720  1.00  0.00    -0.000 C 
BRANCH  14  15
ATOM     15  C   UNL     1      51.008 -41.158 -22.443  1.00  0.00    -0.000 C 
BRANCH  15  16
ATOM     16  C   UNL     1      51.411 -41.554 -23.875  1.00  0.00    -0.000 C 
BRANCH  16  17
ATOM     17  C   UNL     1      51.037 -42.992 -24.276  1.00  0.00    -0.003 C 
ATOM     18  C   UNL     1      49.920 -43.580 -23.413  1.00  0.00     0.004 C 
ENDBRANCH  16  17
ENDBRANCH  15  16
ENDBRANCH  14  15
ENDBRANCH  13  14
ENDBRANCH  12  13
ENDBRANCH  11  12
ENDBRANCH   1  11
TORSDOF 14
ENDMDL
MODEL 7
REMARK VINA RESULT:    -3.446      4.361      6.692
REMARK INTER + INTRA:          -8.365
REMARK INTER:                  -6.004
REMARK INTRA:                  -2.360
REMARK UNBOUND:                -2.098
REMARK SMILES CCCCCCCCCCCCCCCC(=O)[O-]
REMARK SMILES IDX 9 1 10 2 11 3 12 4 13 5 14 6 15 7 16 8 17 9 18 10 8 11 7 12
REMARK SMILES IDX 6 13 5 14 4 15 3 16 2 17 1 18
REMARK H PARENT
REMARK Flexibility Score: inf
ROOT
ATOM      1  C   UNL     1      54.378 -43.716 -28.464  1.00  0.00     0.000 C 
ENDROOT
BRANCH   1   2
ATOM      2  C   UNL     1      53.362 -42.961 -27.584  1.00  0.00     0.000 C 
BRANCH   2   3
ATOM      3  C   UNL     1      53.946 -41.798 -26.756  1.00  0.00     0.000 C 
BRANCH   3   4
ATOM      4  C   UNL     1      53.672 -40.396 -27.330  1.00  0.00     0.000 C 
BRANCH   4   5
ATOM      5  C   UNL     1      54.962 -39.624 -27.654  1.00  0.00     0.000 C 
BRANCH   5   6
ATOM      6  C   UNL     1      56.116 -39.978 -26.703  1.00  0.00     0.006 C 
BRANCH   6   7
ATOM      7  C   UNL     1      56.198 -39.032 -25.498  1.00  0.00     0.053 C 
BRANCH   7   8
ATOM      8  C   UNL     1      56.253 -39.814 -24.224  1.00  0.00     0.041 C 
ATOM      9  O   UNL     1      56.251 -39.219 -23.114  1.00  0.00    -0.550 OA
ATOM     10  O   UNL     1      56.360 -41.199 -24.261  1.00  0.00    -0.550 OA
ENDBRANCH   7   8
ENDBRANCH   6   7
ENDBRANCH   5   6
ENDBRANCH   4   5
ENDBRANCH   3   4
ENDBRANCH   2   3
ENDBRANCH   1   2
BRANCH   1  11
ATOM     11  C   UNL     1      54.253 -43.460 -29.977  1.00  0.00     0.000 C 
BRANCH  11  12
ATOM     12  C   UNL     1      55.151 -42.314 -30.467  1.00  0.00    -0.000 C 
BRANCH  12  13
ATOM     13  C   UNL     1      54.349 -41.090 -30.943  1.00  0.00    -0.000 C 
BRANCH  13  14
ATOM     14  C   UNL     1      52.881 -41.411 -31.296  1.00  0.00    -0.000 C 
BRANCH  14  15
ATOM     15  C   UNL     1      51.891 -40.520 -30.524  1.00  0.00    -0.000 C 
BRANCH  15  16
ATOM     16  C   UNL     1      50.793 -41.326 -29.808  1.00  0.00    -0.000 C 
BRANCH  16  17
ATOM     17  C   UNL     1      50.682 -42.796 -30.249  1.00  0.00    -0.003 C 
ATOM     18  C   UNL     1      49.244 -43.225 -30.540  1.00  0.00     0.004 C 
ENDBRANCH  16  17
ENDBRANCH  15  16
ENDBRANCH  14  15
ENDBRANCH  13  14
ENDBRANCH  12  13
ENDBRANCH  11  12
ENDBRANCH   1  11
TORSDOF 14
ENDMDL
MODEL 8
REMARK VINA RESULT:    -3.421      4.903      6.833
REMARK INTER + INTRA:          -8.319
REMARK INTER:                  -6.190
REMARK INTRA:                  -2.130
REMARK UNBOUND:                -2.098
REMARK SMILES CCCCCCCCCCCCCCCC(=O)[O-]
REMARK SMILES IDX 9 1 10 2 11 3 12 4 13 5 14 6 15 7 16 8 17 9 18 10 8 11 7 12
REMARK SMILES IDX 6 13 5 14 4 15 3 16 2 17 1 18
REMARK H PARENT
REMARK Flexibility Score: inf
ROOT
ATOM      1  C   UNL     1      52.516 -41.412 -31.349  1.00  0.00     0.000 C 
ENDROOT
BRANCH   1   2
ATOM      2  C   UNL     1      53.545 -40.749 -32.286  1.00  0.00     0.000 C 
BRANCH   2   3
ATOM      3  C   UNL     1      55.017 -41.122 -32.016  1.00  0.00     0.000 C 
BRANCH   3   4
ATOM      4  C   UNL     1      55.365 -41.342 -30.534  1.00  0.00     0.000 C 
BRANCH   4   5
ATOM      5  C   UNL     1      56.853 -41.663 -30.314  1.00  0.00     0.000 C 
BRANCH   5   6
ATOM      6  C   UNL     1      57.578 -40.575 -29.505  1.00  0.00     0.006 C 
BRANCH   6   7
ATOM      7  C   UNL     1      56.837 -39.233 -29.526  1.00  0.00     0.053 C 
BRANCH   7   8
ATOM      8  C   UNL     1      57.375 -38.323 -28.468  1.00  0.00     0.041 C 
ATOM      9  O   UNL     1      57.771 -38.793 -27.369  1.00  0.00    -0.550 OA
ATOM     10  O   UNL     1      57.391 -36.949 -28.674  1.00  0.00    -0.550 OA
ENDBRANCH   7   8
ENDBRANCH   6   7
ENDBRANCH   5   6
ENDBRANCH   4   5
ENDBRANCH   3   4
ENDBRANCH   2   3
ENDBRANCH   1   2
BRANCH   1  11
ATOM     11  C   UNL     1      51.729 -40.442 -30.448  1.00  0.00     0.000 C 
BRANCH  11  12
ATOM     12  C   UNL     1      51.381 -41.045 -29.079  1.00  0.00    -0.000 C 
BRANCH  12  13
ATOM     13  C   UNL     1      52.562 -41.009 -28.094  1.00  0.00    -0.000 C 
BRANCH  13  14
ATOM     14  C   UNL     1      53.277 -39.643 -28.034  1.00  0.00    -0.000 C 
BRANCH  14  15
ATOM     15  C   UNL     1      54.263 -39.555 -26.855  1.00  0.00    -0.000 C 
BRANCH  15  16
ATOM     16  C   UNL     1      54.394 -40.882 -26.085  1.00  0.00    -0.000 C 
BRANCH  16  17
ATOM     17  C   UNL     1      55.838 -41.391 -25.922  1.00  0.00    -0.003 C 
ATOM     18  C   UNL     1      56.128 -42.638 -26.757  1.00  0.00     0.004 C 
ENDBRANCH  16  17
ENDBRANCH  15  16
ENDBRANCH  14  15
ENDBRANCH  13  14
ENDBRANCH  12  13
ENDBRANCH  11  12
ENDBRANCH   1  11
TORSDOF 14
ENDMDL
MODEL 9
REMARK VINA RESULT:    -3.418      2.853      4.787
REMARK INTER + INTRA:          -8.312
REMARK INTER:                  -5.961
REMARK INTRA:                  -2.351
REMARK UNBOUND:                -2.098
REMARK SMILES CCCCCCCCCCCCCCCC(=O)[O-]
REMARK SMILES IDX 9 1 10 2 11 3 12 4 13 5 14 6 15 7 16 8 17 9 18 10 8 11 7 12
REMARK SMILES IDX 6 13 5 14 4 15 3 16 2 17 1 18
REMARK H PARENT
REMARK Flexibility Score: inf
ROOT
ATOM      1  C   UNL     1      53.784 -44.000 -28.034  1.00  0.00     0.000 C 
ENDROOT
BRANCH   1   2
ATOM      2  C   UNL     1      54.880 -43.090 -28.624  1.00  0.00     0.000 C 
BRANCH   2   3
ATOM      3  C   UNL     1      54.366 -41.883 -29.435  1.00  0.00     0.000 C 
BRANCH   3   4
ATOM      4  C   UNL     1      53.968 -40.660 -28.591  1.00  0.00     0.000 C 
BRANCH   4   5
ATOM      5  C   UNL     1      52.475 -40.312 -28.715  1.00  0.00     0.000 C 
BRANCH   5   6
ATOM      6  C   UNL     1      51.882 -40.732 -30.069  1.00  0.00     0.006 C 
BRANCH   6   7
ATOM      7  C   UNL     1      50.437 -41.232 -29.950  1.00  0.00     0.053 C 
BRANCH   7   8
ATOM      8  C   UNL     1      50.356 -42.682 -30.309  1.00  0.00     0.041 C 
ATOM      9  O   UNL     1      51.395 -43.313 -30.639  1.00  0.00    -0.550 OA
ATOM     10  O   UNL     1      49.125 -43.325 -30.332  1.00  0.00    -0.550 OA
ENDBRANCH   7   8
ENDBRANCH   6   7
ENDBRANCH   5   6
ENDBRANCH   4   5
ENDBRANCH   3   4
ENDBRANCH   2   3
ENDBRANCH   1   2
BRANCH   1  11
ATOM     11  C   UNL     1      53.549 -43.845 -26.520  1.00  0.00     0.000 C 
BRANCH  11  12
ATOM     12  C   UNL     1      52.064 -43.695 -26.157  1.00  0.00    -0.000 C 
BRANCH  12  13
ATOM     13  C   UNL     1      51.688 -42.255 -25.769  1.00  0.00    -0.000 C 
BRANCH  13  14
ATOM     14  C   UNL     1      51.715 -41.995 -24.248  1.00  0.00    -0.000 C 
BRANCH  14  15
ATOM     15  C   UNL     1      52.552 -40.755 -23.887  1.00  0.00    -0.000 C 
BRANCH  15  16
ATOM     16  C   UNL     1      53.704 -40.500 -24.876  1.00  0.00    -0.000 C 
BRANCH  16  17
ATOM     17  C   UNL     1      55.070 -41.048 -24.429  1.00  0.00    -0.003 C 
ATOM     18  C   UNL     1      56.044 -41.245 -25.591  1.00  0.00     0.004 C 
ENDBRANCH  16  17
ENDBRANCH  15  16
ENDBRANCH  14  15
ENDBRANCH  13  14
ENDBRANCH  12  13
ENDBRANCH  11  12
ENDBRANCH   1  11
TORSDOF 14
ENDMDL
