MODEL 1
REMARK VINA RESULT:    -2.842      0.000      0.000
REMARK INTER + INTRA:          -3.436
REMARK INTER:                  -3.340
REMARK INTRA:                  -0.095
REMARK UNBOUND:                -0.095
REMARK SMILES CCCCC(=O)[O-]
REMARK SMILES IDX 4 1 5 2 6 3 7 4 3 5 2 6 1 7
REMARK H PARENT
REMARK Flexibility Score: inf
ROOT
ATOM      1  C   UNL     1       5.388  -1.642  -1.114  1.00  0.00     0.053 C 
ENDROOT
BRANCH   1   2
ATOM      2  C   UNL     1       5.686  -0.369  -1.843  1.00  0.00     0.041 C 
ATOM      3  O   UNL     1       4.902   0.050  -2.735  1.00  0.00    -0.550 OA
ATOM      4  O   UNL     1       6.813   0.374  -1.515  1.00  0.00    -0.550 OA
ENDBRANCH   1   2
BRANCH   1   5
ATOM      5  C   UNL     1       5.262  -1.417   0.399  1.00  0.00     0.006 C 
BRANCH   5   6
ATOM      6  C   UNL     1       6.519  -1.867   1.159  1.00  0.00    -0.003 C 
ATOM      7  C   UNL     1       7.207  -0.683   1.834  1.00  0.00     0.004 C 
ENDBRANCH   5   6
ENDBRANCH   1   5
TORSDOF 3
ENDMDL
MODEL 2
REMARK VINA RESULT:    -2.834      2.522      3.440
REMARK INTER + INTRA:          -3.426
REMARK INTER:                  -3.325
REMARK INTRA:                  -0.101
REMARK UNBOUND:                -0.095
REMARK SMILES CCCCC(=O)[O-]
REMARK SMILES IDX 4 1 5 2 6 3 7 4 3 5 2 6 1 7
REMARK H PARENT
REMARK Flexibility Score: inf
ROOT
ATOM      1  C   UNL     1       5.889  -1.954  -1.658  1.00  0.00     0.053 C 
ENDROOT
BRANCH   1   2
ATOM      2  C   UNL     1       5.044  -2.283  -0.466  1.00  0.00     0.041 C 
ATOM      3  O   UNL     1       4.989  -1.491   0.511  1.00  0.00    -0.550 OA
ATOM      4  O   UNL     1       4.290  -3.450  -0.448  1.00  0.00    -0.550 OA
ENDBRANCH   1   2
BRANCH   1   5
ATOM      5  C   UNL     1       5.231  -0.892  -2.548  1.00  0.00     0.006 C 
BRANCH   5   6
ATOM      6  C   UNL     1       5.787   0.515  -2.282  1.00  0.00    -0.003 C 
ATOM      7  C   UNL     1       7.217   0.450  -1.753  1.00  0.00     0.004 C 
ENDBRANCH   5   6
ENDBRANCH   1   5
TORSDOF 3
ENDMDL
MODEL 3
REMARK VINA RESULT:    -2.754      1.250      2.011
REMARK INTER + INTRA:          -3.333
REMARK INTER:                  -3.301
REMARK INTRA:                  -0.032
REMARK UNBOUND:                -0.095
REMARK SMILES CCCCC(=O)[O-]
REMARK SMILES IDX 4 1 5 2 6 3 7 4 3 5 2 6 1 7
REMARK H PARENT
REMARK Flexibility Score: inf
ROOT
ATOM      1  C   UNL     1       5.281  -1.692  -1.165  1.00  0.00     0.053 C 
ENDROOT
BRANCH   1   2
ATOM      2  C   UNL     1       5.704  -0.375  -1.738  1.00  0.00     0.041 C 
ATOM      3  O   UNL     1       5.027   0.165  -2.653  1.00  0.00    -0.550 OA
ATOM      4  O   UNL     1       6.826   0.274  -1.239  1.00  0.00    -0.550 OA
ENDBRANCH   1   2
BRANCH   1   5
ATOM      5  C   UNL     1       5.155  -1.634   0.364  1.00  0.00     0.006 C 
BRANCH   5   6
ATOM      6  C   UNL     1       4.722  -2.981   0.962  1.00  0.00    -0.003 C 
ATOM      7  C   UNL     1       4.112  -3.885  -0.106  1.00  0.00     0.004 C 
ENDBRANCH   5   6
ENDBRANCH   1   5
TORSDOF 3
ENDMDL
MODEL 4
REMARK VINA RESULT:    -2.708      3.640      4.453
REMARK INTER + INTRA:          -3.278
REMARK INTER:                  -3.255
REMARK INTRA:                  -0.024
REMARK UNBOUND:                -0.095
REMARK SMILES CCCCC(=O)[O-]
REMARK SMILES IDX 4 1 5 2 6 3 7 4 3 5 2 6 1 7
REMARK H PARENT
REMARK Flexibility Score: inf
ROOT
ATOM      1  C   UNL     1       4.693  -3.309   0.785  1.00  0.00     0.053 C 
ENDROOT
BRANCH   1   2
ATOM      2  C   UNL     1       3.329  -3.917   0.891  1.00  0.00     0.041 C 
ATOM      3  O   UNL     1       2.879  -4.632  -0.043  1.00  0.00    -0.550 OA
ATOM      4  O   UNL     1       2.566  -3.721   2.035  1.00  0.00    -0.550 OA
ENDBRANCH   1   2
BRANCH   1   5
ATOM      5  C   UNL     1       4.953  -2.730  -0.612  1.00  0.00     0.006 C 
BRANCH   5   6
ATOM      6  C   UNL     1       5.222  -1.218  -0.573  1.00  0.00    -0.003 C 
ATOM      7  C   UNL     1       5.430  -0.660  -1.978  1.00  0.00     0.004 C 
ENDBRANCH   5   6
ENDBRANCH   1   5
TORSDOF 3
ENDMDL
MODEL 5
REMARK VINA RESULT:    -2.705     10.022     10.886
REMARK INTER + INTRA:          -3.275
REMARK INTER:                  -3.254
REMARK INTRA:                  -0.020
REMARK UNBOUND:                -0.095
REMARK SMILES CCCCC(=O)[O-]
REMARK SMILES IDX 4 1 5 2 6 3 7 4 3 5 2 6 1 7
REMARK H PARENT
REMARK Flexibility Score: inf
ROOT
ATOM      1  C   UNL     1      -4.785  -0.966  -1.839  1.00  0.00     0.053 C 
ENDROOT
BRANCH   1   2
ATOM      2  C   UNL     1      -4.909  -0.252  -0.529  1.00  0.00     0.041 C 
ATOM      3  O   UNL     1      -4.291  -0.674   0.484  1.00  0.00    -0.550 OA
ATOM      4  O   UNL     1      -5.680   0.900  -0.434  1.00  0.00    -0.550 OA
ENDBRANCH   1   2
BRANCH   1   5
ATOM      5  C   UNL     1      -4.148  -2.353  -1.675  1.00  0.00     0.006 C 
BRANCH   5   6
ATOM      6  C   UNL     1      -4.093  -3.127  -3.000  1.00  0.00    -0.003 C 
ATOM      7  C   UNL     1      -2.691  -3.672  -3.261  1.00  0.00     0.004 C 
ENDBRANCH   5   6
ENDBRANCH   1   5
TORSDOF 3
ENDMDL
MODEL 6
REMARK VINA RESULT:    -2.701      3.030      3.744
REMARK INTER + INTRA:          -3.270
REMARK INTER:                  -3.244
REMARK INTRA:                  -0.026
REMARK UNBOUND:                -0.095
REMARK SMILES CCCCC(=O)[O-]
REMARK SMILES IDX 4 1 5 2 6 3 7 4 3 5 2 6 1 7
REMARK H PARENT
REMARK Flexibility Score: inf
ROOT
ATOM      1  C   UNL     1       4.540  -3.225  -0.188  1.00  0.00     0.053 C 
ENDROOT
BRANCH   1   2
ATOM      2  C   UNL     1       5.086  -1.832  -0.151  1.00  0.00     0.041 C 
ATOM      3  O   UNL     1       5.666  -1.405   0.882  1.00  0.00    -0.550 OA
ATOM      4  O   UNL     1       4.985  -1.014  -1.270  1.00  0.00    -0.550 OA
ENDBRANCH   1   2
BRANCH   1   5
ATOM      5  C   UNL     1       4.118  -3.710   1.206  1.00  0.00     0.006 C 
BRANCH   5   6
ATOM      6  C   UNL     1       2.656  -4.182   1.239  1.00  0.00    -0.003 C 
ATOM      7  C   UNL     1       2.202  -4.465   2.668  1.00  0.00     0.004 C 
ENDBRANCH   5   6
ENDBRANCH   1   5
TORSDOF 3
ENDMDL
MODEL 7
REMARK VINA RESULT:    -2.648      3.442      3.987
REMARK INTER + INTRA:          -3.208
REMARK INTER:                  -3.175
REMARK INTRA:                  -0.032
REMARK UNBOUND:                -0.095
REMARK SMILES CCCCC(=O)[O-]
REMARK SMILES IDX 4 1 5 2 6 3 7 4 3 5 2 6 1 7
REMARK H PARENT
REMARK Flexibility Score: inf
ROOT
ATOM      1  C   UNL     1       4.179  -3.840  -0.086  1.00  0.00     0.053 C 
ENDROOT
BRANCH   1   2
ATOM      2  C   UNL     1       4.933  -2.608  -0.485  1.00  0.00     0.041 C 
ATOM      3  O   UNL     1       5.494  -2.545  -1.610  1.00  0.00    -0.550 OA
ATOM      4  O   UNL     1       4.987  -1.517   0.373  1.00  0.00    -0.550 OA
ENDBRANCH   1   2
BRANCH   1   5
ATOM      5  C   UNL     1       3.720  -3.778   1.378  1.00  0.00     0.006 C 
BRANCH   5   6
ATOM      6  C   UNL     1       2.251  -4.196   1.543  1.00  0.00    -0.003 C 
ATOM      7  C   UNL     1       1.993  -4.755   2.939  1.00  0.00     0.004 C 
ENDBRANCH   5   6
ENDBRANCH   1   5
TORSDOF 3
ENDMDL
MODEL 8
REMARK VINA RESULT:    -2.559      2.410      3.467
REMARK INTER + INTRA:          -3.103
REMARK INTER:                  -3.051
REMARK INTRA:                  -0.052
REMARK UNBOUND:                -0.095
REMARK SMILES CCCCC(=O)[O-]
REMARK SMILES IDX 4 1 5 2 6 3 7 4 3 5 2 6 1 7
REMARK H PARENT
REMARK Flexibility Score: inf
ROOT
ATOM      1  C   UNL     1       5.203  -1.301   0.231  1.00  0.00     0.053 C 
ENDROOT
BRANCH   1   2
ATOM      2  C   UNL     1       6.398  -1.600   1.083  1.00  0.00     0.041 C 
ATOM      3  O   UNL     1       6.913  -2.749   1.071  1.00  0.00    -0.550 OA
ATOM      4  O   UNL     1       6.963  -0.601   1.865  1.00  0.00    -0.550 OA
ENDBRANCH   1   2
BRANCH   1   5
ATOM      5  C   UNL     1       5.428  -1.710  -1.231  1.00  0.00     0.006 C 
BRANCH   5   6
ATOM      6  C   UNL     1       5.400  -0.504  -2.182  1.00  0.00    -0.003 C 
ATOM      7  C   UNL     1       6.592   0.417  -1.937  1.00  0.00     0.004 C 
ENDBRANCH   5   6
ENDBRANCH   1   5
TORSDOF 3
ENDMDL
MODEL 9
REMARK VINA RESULT:    -2.555      6.798      8.225
REMARK INTER + INTRA:          -3.098
REMARK INTER:                  -3.050
REMARK INTRA:                  -0.048
REMARK UNBOUND:                -0.095
REMARK SMILES CCCCC(=O)[O-]
REMARK SMILES IDX 4 1 5 2 6 3 7 4 3 5 2 6 1 7
REMARK H PARENT
REMARK Flexibility Score: inf
ROOT
ATOM      1  C   UNL     1       5.124   4.304  -7.268  1.00  0.00     0.053 C 
ENDROOT
BRANCH   1   2
ATOM      2  C   UNL     1       3.937   4.167  -8.171  1.00  0.00     0.041 C 
ATOM      3  O   UNL     1       3.418   3.036  -8.370  1.00  0.00    -0.550 OA
ATOM      4  O   UNL     1       3.382   5.292  -8.768  1.00  0.00    -0.550 OA
ENDBRANCH   1   2
BRANCH   1   5
ATOM      5  C   UNL     1       4.732   4.859  -5.892  1.00  0.00     0.006 C 
BRANCH   5   6
ATOM      6  C   UNL     1       4.514   3.745  -4.857  1.00  0.00    -0.003 C 
ATOM      7  C   UNL     1       5.502   3.867  -3.701  1.00  0.00     0.004 C 
ENDBRANCH   5   6
ENDBRANCH   1   5
TORSDOF 3
ENDMDL
