MODEL 1
REMARK VINA RESULT:    -6.931      0.000      0.000
REMARK INTER + INTRA:          -8.875
REMARK INTER:                  -8.552
REMARK INTRA:                  -0.324
REMARK UNBOUND:                -0.324
REMARK SMILES O=c1c(O)c(-c2cc(O)c(O)c(O)c2)oc2cc(O)cc(O)c12
REMARK SMILES IDX 5 1 3 2 2 3 1 4 23 5 21 6 20 7 18 8 17 9 16 10 15 11 6 12
REMARK SMILES IDX 7 13 8 14 14 15 10 16 12 17 9 18 11 20 13 22 4 24 22 26
REMARK SMILES IDX 19 28
REMARK H PARENT 9 19 11 21 13 23 4 25 22 27 19 29
REMARK Flexibility Score: inf
ROOT
ATOM      1  C   UNL     1      11.098 -17.404 -32.501  1.00  0.00     0.180 A 
ATOM      2  C   UNL     1      10.412 -16.510 -31.662  1.00  0.00     0.208 A 
ATOM      3  C   UNL     1      10.636 -16.567 -30.277  1.00  0.00     0.238 A 
ATOM      4  O   UNL     1      10.060 -15.727 -29.537  1.00  0.00    -0.285 OA
ATOM      5  C   UNL     1      11.531 -17.527 -29.748  1.00  0.00     0.111 A 
ATOM      6  C   UNL     1      11.803 -17.701 -28.357  1.00  0.00     0.134 A 
ATOM      7  C   UNL     1      12.804 -18.594 -27.956  1.00  0.00     0.093 A 
ATOM      8  C   UNL     1      13.496 -19.366 -28.887  1.00  0.00     0.123 A 
ATOM      9  C   UNL     1      13.196 -19.247 -30.246  1.00  0.00     0.094 A 
ATOM     10  C   UNL     1      12.228 -18.339 -30.680  1.00  0.00     0.146 A 
ATOM     11  O   UNL     1      11.981 -18.250 -31.980  1.00  0.00    -0.452 OA
ENDROOT
BRANCH   1  12
ATOM     12  C   UNL     1      10.896 -17.422 -33.968  1.00  0.00     0.029 A 
ATOM     13  C   UNL     1      10.028 -18.368 -34.535  1.00  0.00     0.062 A 
ATOM     14  C   UNL     1       9.803 -18.394 -35.915  1.00  0.00     0.162 A 
ATOM     15  C   UNL     1      11.510 -16.471 -34.802  1.00  0.00     0.062 A 
ATOM     16  C   UNL     1      10.437 -17.455 -36.747  1.00  0.00     0.200 A 
ATOM     17  C   UNL     1      11.289 -16.488 -36.185  1.00  0.00     0.162 A 
BRANCH  14  18
ATOM     18  O   UNL     1       8.946 -19.360 -36.441  1.00  0.00    -0.504 OA
ATOM     19  H   UNL     1       8.932 -19.590 -37.427  1.00  0.00     0.293 HD
ENDBRANCH  14  18
BRANCH  16  20
ATOM     20  O   UNL     1      10.208 -17.490 -38.124  1.00  0.00    -0.502 OA
ATOM     21  H   UNL     1      10.209 -18.356 -38.649  1.00  0.00     0.293 HD
ENDBRANCH  16  20
BRANCH  17  22
ATOM     22  O   UNL     1      11.909 -15.546 -37.004  1.00  0.00    -0.504 OA
ATOM     23  H   UNL     1      11.568 -15.349 -37.939  1.00  0.00     0.293 HD
ENDBRANCH  17  22
ENDBRANCH   1  12
BRANCH   2  24
ATOM     24  O   UNL     1       9.549 -15.555 -32.208  1.00  0.00    -0.502 OA
ATOM     25  H   UNL     1       8.938 -14.984 -31.637  1.00  0.00     0.293 HD
ENDBRANCH   2  24
BRANCH   6  26
ATOM     26  O   UNL     1      11.107 -17.046 -27.337  1.00  0.00    -0.507 OA
ATOM     27  H   UNL     1      10.221 -16.576 -27.456  1.00  0.00     0.293 HD
ENDBRANCH   6  26
BRANCH   8  28
ATOM     28  O   UNL     1      14.475 -20.257 -28.451  1.00  0.00    -0.508 OA
ATOM     29  H   UNL     1      15.157 -20.648 -29.090  1.00  0.00     0.293 HD
ENDBRANCH   8  28
TORSDOF 7
ENDMDL
MODEL 2
REMARK VINA RESULT:    -6.902      1.658      7.204
REMARK INTER + INTRA:          -8.840
REMARK INTER:                  -8.507
REMARK INTRA:                  -0.333
REMARK UNBOUND:                -0.324
REMARK SMILES O=c1c(O)c(-c2cc(O)c(O)c(O)c2)oc2cc(O)cc(O)c12
REMARK SMILES IDX 5 1 3 2 2 3 1 4 23 5 21 6 20 7 18 8 17 9 16 10 15 11 6 12
REMARK SMILES IDX 7 13 8 14 14 15 10 16 12 17 9 18 11 20 13 22 4 24 22 26
REMARK SMILES IDX 19 28
REMARK H PARENT 9 19 11 21 13 23 4 25 22 27 19 29
REMARK Flexibility Score: inf
ROOT
ATOM      1  C   UNL     1      11.145 -17.497 -33.332  1.00  0.00     0.180 A 
ATOM      2  C   UNL     1      10.365 -18.292 -34.189  1.00  0.00     0.208 A 
ATOM      3  C   UNL     1      10.034 -17.802 -35.462  1.00  0.00     0.238 A 
ATOM      4  O   UNL     1       9.381 -18.541 -36.244  1.00  0.00    -0.285 OA
ATOM      5  C   UNL     1      10.474 -16.515 -35.856  1.00  0.00     0.111 A 
ATOM      6  C   UNL     1      10.164 -15.902 -37.107  1.00  0.00     0.134 A 
ATOM      7  C   UNL     1      10.761 -14.680 -37.444  1.00  0.00     0.093 A 
ATOM      8  C   UNL     1      11.603 -14.020 -36.551  1.00  0.00     0.123 A 
ATOM      9  C   UNL     1      11.866 -14.583 -35.301  1.00  0.00     0.094 A 
ATOM     10  C   UNL     1      11.315 -15.818 -34.951  1.00  0.00     0.146 A 
ATOM     11  O   UNL     1      11.598 -16.322 -33.757  1.00  0.00    -0.452 OA
ENDROOT
BRANCH   1  12
ATOM     12  C   UNL     1      11.514 -17.936 -31.967  1.00  0.00     0.029 A 
ATOM     13  C   UNL     1      10.741 -17.515 -30.874  1.00  0.00     0.062 A 
ATOM     14  C   UNL     1      11.054 -17.931 -29.576  1.00  0.00     0.162 A 
ATOM     15  C   UNL     1      12.589 -18.814 -31.747  1.00  0.00     0.062 A 
ATOM     16  C   UNL     1      12.143 -18.792 -29.358  1.00  0.00     0.200 A 
ATOM     17  C   UNL     1      12.909 -19.237 -30.450  1.00  0.00     0.162 A 
BRANCH  14  18
ATOM     18  O   UNL     1      10.270 -17.479 -28.515  1.00  0.00    -0.504 OA
ATOM     19  H   UNL     1       9.295 -17.732 -28.418  1.00  0.00     0.293 HD
ENDBRANCH  14  18
BRANCH  16  20
ATOM     20  O   UNL     1      12.451 -19.200 -28.060  1.00  0.00    -0.502 OA
ATOM     21  H   UNL     1      13.396 -19.180 -27.697  1.00  0.00     0.293 HD
ENDBRANCH  16  20
BRANCH  17  22
ATOM     22  O   UNL     1      13.982 -20.103 -30.242  1.00  0.00    -0.504 OA
ATOM     23  H   UNL     1      14.934 -19.760 -30.167  1.00  0.00     0.293 HD
ENDBRANCH  17  22
ENDBRANCH   1  12
BRANCH   2  24
ATOM     24  O   UNL     1       9.959 -19.569 -33.787  1.00  0.00    -0.502 OA
ATOM     25  H   UNL     1       9.238 -19.717 -33.091  1.00  0.00     0.293 HD
ENDBRANCH   2  24
BRANCH   6  26
ATOM     26  O   UNL     1       9.263 -16.432 -38.035  1.00  0.00    -0.507 OA
ATOM     27  H   UNL     1       8.468 -17.008 -37.800  1.00  0.00     0.293 HD
ENDBRANCH   6  26
BRANCH   8  28
ATOM     28  O   UNL     1      12.167 -12.798 -36.914  1.00  0.00    -0.508 OA
ATOM     29  H   UNL     1      12.508 -12.146 -36.217  1.00  0.00     0.293 HD
ENDBRANCH   8  28
TORSDOF 7
ENDMDL
MODEL 3
REMARK VINA RESULT:    -6.886      1.901      2.701
REMARK INTER + INTRA:          -8.820
REMARK INTER:                  -8.911
REMARK INTRA:                   0.092
REMARK UNBOUND:                -0.324
REMARK SMILES O=c1c(O)c(-c2cc(O)c(O)c(O)c2)oc2cc(O)cc(O)c12
REMARK SMILES IDX 5 1 3 2 2 3 1 4 23 5 21 6 20 7 18 8 17 9 16 10 15 11 6 12
REMARK SMILES IDX 7 13 8 14 14 15 10 16 12 17 9 18 11 20 13 22 4 24 22 26
REMARK SMILES IDX 19 28
REMARK H PARENT 9 19 11 21 13 23 4 25 22 27 19 29
REMARK Flexibility Score: inf
ROOT
ATOM      1  C   UNL     1      11.083 -17.260 -31.539  1.00  0.00     0.180 A 
ATOM      2  C   UNL     1      10.002 -17.844 -30.857  1.00  0.00     0.208 A 
ATOM      3  C   UNL     1      10.057 -17.953 -29.459  1.00  0.00     0.238 A 
ATOM      4  O   UNL     1       9.062 -18.428 -28.850  1.00  0.00    -0.285 OA
ATOM      5  C   UNL     1      11.199 -17.491 -28.761  1.00  0.00     0.111 A 
ATOM      6  C   UNL     1      11.378 -17.588 -27.348  1.00  0.00     0.134 A 
ATOM      7  C   UNL     1      12.489 -16.980 -26.750  1.00  0.00     0.093 A 
ATOM      8  C   UNL     1      13.458 -16.337 -27.518  1.00  0.00     0.123 A 
ATOM      9  C   UNL     1      13.322 -16.288 -28.906  1.00  0.00     0.094 A 
ATOM     10  C   UNL     1      12.207 -16.853 -29.528  1.00  0.00     0.146 A 
ATOM     11  O   UNL     1      12.111 -16.776 -30.850  1.00  0.00    -0.452 OA
ENDROOT
BRANCH   1  12
ATOM     12  C   UNL     1      11.109 -17.132 -33.014  1.00  0.00     0.029 A 
ATOM     13  C   UNL     1      11.688 -15.996 -33.599  1.00  0.00     0.062 A 
ATOM     14  C   UNL     1      11.745 -15.858 -34.989  1.00  0.00     0.162 A 
ATOM     15  C   UNL     1      10.619 -18.154 -33.845  1.00  0.00     0.062 A 
ATOM     16  C   UNL     1      11.233 -16.873 -35.816  1.00  0.00     0.200 A 
ATOM     17  C   UNL     1      10.673 -18.027 -35.239  1.00  0.00     0.162 A 
BRANCH  14  18
ATOM     18  O   UNL     1      12.314 -14.707 -35.532  1.00  0.00    -0.504 OA
ATOM     19  H   UNL     1      12.887 -14.078 -34.983  1.00  0.00     0.293 HD
ENDBRANCH  14  18
BRANCH  16  20
ATOM     20  O   UNL     1      11.291 -16.728 -37.203  1.00  0.00    -0.502 OA
ATOM     21  H   UNL     1      10.458 -16.615 -37.769  1.00  0.00     0.293 HD
ENDBRANCH  16  20
BRANCH  17  22
ATOM     22  O   UNL     1      10.176 -19.043 -36.054  1.00  0.00    -0.504 OA
ATOM     23  H   UNL     1      10.680 -19.913 -36.183  1.00  0.00     0.293 HD
ENDBRANCH  17  22
ENDBRANCH   1  12
BRANCH   2  24
ATOM     24  O   UNL     1       8.875 -18.274 -31.565  1.00  0.00    -0.502 OA
ATOM     25  H   UNL     1       8.140 -17.641 -31.855  1.00  0.00     0.293 HD
ENDBRANCH   2  24
BRANCH   6  26
ATOM     26  O   UNL     1      10.517 -18.287 -26.497  1.00  0.00    -0.507 OA
ATOM     27  H   UNL     1      10.067 -19.160 -26.727  1.00  0.00     0.293 HD
ENDBRANCH   6  26
BRANCH   8  28
ATOM     28  O   UNL     1      14.559 -15.756 -26.890  1.00  0.00    -0.508 OA
ATOM     29  H   UNL     1      15.492 -16.137 -26.999  1.00  0.00     0.293 HD
ENDBRANCH   8  28
TORSDOF 7
ENDMDL
MODEL 4
REMARK VINA RESULT:    -6.833      1.975      3.025
REMARK INTER + INTRA:          -8.754
REMARK INTER:                  -8.555
REMARK INTRA:                  -0.199
REMARK UNBOUND:                -0.324
REMARK SMILES O=c1c(O)c(-c2cc(O)c(O)c(O)c2)oc2cc(O)cc(O)c12
REMARK SMILES IDX 5 1 3 2 2 3 1 4 23 5 21 6 20 7 18 8 17 9 16 10 15 11 6 12
REMARK SMILES IDX 7 13 8 14 14 15 10 16 12 17 9 18 11 20 13 22 4 24 22 26
REMARK SMILES IDX 19 28
REMARK H PARENT 9 19 11 21 13 23 4 25 22 27 19 29
REMARK Flexibility Score: inf
ROOT
ATOM      1  C   UNL     1      11.808 -17.300 -32.202  1.00  0.00     0.180 A 
ATOM      2  C   UNL     1      11.721 -18.692 -32.028  1.00  0.00     0.208 A 
ATOM      3  C   UNL     1      12.208 -19.262 -30.841  1.00  0.00     0.238 A 
ATOM      4  O   UNL     1      12.077 -20.502 -30.668  1.00  0.00    -0.285 OA
ATOM      5  C   UNL     1      12.790 -18.435 -29.850  1.00  0.00     0.111 A 
ATOM      6  C   UNL     1      13.352 -18.910 -28.627  1.00  0.00     0.134 A 
ATOM      7  C   UNL     1      13.783 -17.991 -27.663  1.00  0.00     0.093 A 
ATOM      8  C   UNL     1      13.733 -16.619 -27.903  1.00  0.00     0.123 A 
ATOM      9  C   UNL     1      13.240 -16.145 -29.120  1.00  0.00     0.094 A 
ATOM     10  C   UNL     1      12.769 -17.037 -30.087  1.00  0.00     0.146 A 
ATOM     11  O   UNL     1      12.300 -16.545 -31.227  1.00  0.00    -0.452 OA
ENDROOT
BRANCH   1  12
ATOM     12  C   UNL     1      11.338 -16.630 -33.436  1.00  0.00     0.029 A 
ATOM     13  C   UNL     1      10.334 -15.654 -33.352  1.00  0.00     0.062 A 
ATOM     14  C   UNL     1       9.886 -14.990 -34.499  1.00  0.00     0.162 A 
ATOM     15  C   UNL     1      11.920 -16.908 -34.685  1.00  0.00     0.062 A 
ATOM     16  C   UNL     1      10.455 -15.287 -35.749  1.00  0.00     0.200 A 
ATOM     17  C   UNL     1      11.479 -16.246 -35.839  1.00  0.00     0.162 A 
BRANCH  14  18
ATOM     18  O   UNL     1       8.875 -14.037 -34.376  1.00  0.00    -0.504 OA
ATOM     19  H   UNL     1       9.010 -13.070 -34.644  1.00  0.00     0.293 HD
ENDBRANCH  14  18
BRANCH  16  20
ATOM     20  O   UNL     1      10.001 -14.621 -36.889  1.00  0.00    -0.502 OA
ATOM     21  H   UNL     1       9.359 -15.051 -37.545  1.00  0.00     0.293 HD
ENDBRANCH  16  20
BRANCH  17  22
ATOM     22  O   UNL     1      12.057 -16.535 -37.075  1.00  0.00    -0.504 OA
ATOM     23  H   UNL     1      11.501 -16.865 -37.856  1.00  0.00     0.293 HD
ENDBRANCH  17  22
ENDBRANCH   1  12
BRANCH   2  24
ATOM     24  O   UNL     1      11.122 -19.488 -33.010  1.00  0.00    -0.502 OA
ATOM     25  H   UNL     1      11.616 -19.791 -33.840  1.00  0.00     0.293 HD
ENDBRANCH   2  24
BRANCH   6  26
ATOM     26  O   UNL     1      13.533 -20.263 -28.324  1.00  0.00    -0.507 OA
ATOM     27  H   UNL     1      12.801 -20.885 -28.016  1.00  0.00     0.293 HD
ENDBRANCH   6  26
BRANCH   8  28
ATOM     28  O   UNL     1      14.185 -15.733 -26.926  1.00  0.00    -0.508 OA
ATOM     29  H   UNL     1      13.540 -15.191 -26.364  1.00  0.00     0.293 HD
ENDBRANCH   8  28
TORSDOF 7
ENDMDL
MODEL 5
REMARK VINA RESULT:    -6.561      1.664      7.248
REMARK INTER + INTRA:          -8.419
REMARK INTER:                  -8.478
REMARK INTRA:                   0.059
REMARK UNBOUND:                -0.324
REMARK SMILES O=c1c(O)c(-c2cc(O)c(O)c(O)c2)oc2cc(O)cc(O)c12
REMARK SMILES IDX 5 1 3 2 2 3 1 4 23 5 21 6 20 7 18 8 17 9 16 10 15 11 6 12
REMARK SMILES IDX 7 13 8 14 14 15 10 16 12 17 9 18 11 20 13 22 4 24 22 26
REMARK SMILES IDX 19 28
REMARK H PARENT 9 19 11 21 13 23 4 25 22 27 19 29
REMARK Flexibility Score: inf
ROOT
ATOM      1  C   UNL     1      11.831 -17.713 -32.074  1.00  0.00     0.180 A 
ATOM      2  C   UNL     1      10.862 -18.672 -32.414  1.00  0.00     0.208 A 
ATOM      3  C   UNL     1      10.238 -18.595 -33.670  1.00  0.00     0.238 A 
ATOM      4  O   UNL     1       9.411 -19.488 -33.990  1.00  0.00    -0.285 OA
ATOM      5  C   UNL     1      10.580 -17.551 -34.563  1.00  0.00     0.111 A 
ATOM      6  C   UNL     1       9.982 -17.353 -35.844  1.00  0.00     0.134 A 
ATOM      7  C   UNL     1      10.490 -16.365 -36.697  1.00  0.00     0.093 A 
ATOM      8  C   UNL     1      11.527 -15.526 -36.291  1.00  0.00     0.123 A 
ATOM      9  C   UNL     1      12.079 -15.673 -35.017  1.00  0.00     0.094 A 
ATOM     10  C   UNL     1      11.618 -16.673 -34.157  1.00  0.00     0.146 A 
ATOM     11  O   UNL     1      12.177 -16.785 -32.958  1.00  0.00    -0.452 OA
ENDROOT
BRANCH   1  12
ATOM     12  C   UNL     1      12.513 -17.715 -30.759  1.00  0.00     0.029 A 
ATOM     13  C   UNL     1      12.618 -16.518 -30.035  1.00  0.00     0.062 A 
ATOM     14  C   UNL     1      13.240 -16.494 -28.782  1.00  0.00     0.162 A 
ATOM     15  C   UNL     1      13.007 -18.903 -30.194  1.00  0.00     0.062 A 
ATOM     16  C   UNL     1      13.752 -17.681 -28.230  1.00  0.00     0.200 A 
ATOM     17  C   UNL     1      13.630 -18.889 -28.939  1.00  0.00     0.162 A 
BRANCH  14  18
ATOM     18  O   UNL     1      13.338 -15.282 -28.100  1.00  0.00    -0.504 OA
ATOM     19  H   UNL     1      13.749 -15.214 -27.177  1.00  0.00     0.293 HD
ENDBRANCH  14  18
BRANCH  16  20
ATOM     20  O   UNL     1      14.373 -17.648 -26.981  1.00  0.00    -0.502 OA
ATOM     21  H   UNL     1      14.999 -16.900 -26.709  1.00  0.00     0.293 HD
ENDBRANCH  16  20
BRANCH  17  22
ATOM     22  O   UNL     1      14.123 -20.072 -28.390  1.00  0.00    -0.504 OA
ATOM     23  H   UNL     1      14.877 -20.587 -28.831  1.00  0.00     0.293 HD
ENDBRANCH  17  22
ENDBRANCH   1  12
BRANCH   2  24
ATOM     24  O   UNL     1      10.555 -19.708 -31.526  1.00  0.00    -0.502 OA
ATOM     25  H   UNL     1      10.986 -19.788 -30.613  1.00  0.00     0.293 HD
ENDBRANCH   2  24
BRANCH   6  26
ATOM     26  O   UNL     1       8.881 -18.074 -36.312  1.00  0.00    -0.507 OA
ATOM     27  H   UNL     1       7.918 -17.809 -36.169  1.00  0.00     0.293 HD
ENDBRANCH   6  26
BRANCH   8  28
ATOM     28  O   UNL     1      11.997 -14.543 -37.160  1.00  0.00    -0.508 OA
ATOM     29  H   UNL     1      12.800 -14.704 -37.757  1.00  0.00     0.293 HD
ENDBRANCH   8  28
TORSDOF 7
ENDMDL
MODEL 6
REMARK VINA RESULT:    -6.550      1.888      2.177
REMARK INTER + INTRA:          -8.405
REMARK INTER:                  -8.734
REMARK INTRA:                   0.329
REMARK UNBOUND:                -0.324
REMARK SMILES O=c1c(O)c(-c2cc(O)c(O)c(O)c2)oc2cc(O)cc(O)c12
REMARK SMILES IDX 5 1 3 2 2 3 1 4 23 5 21 6 20 7 18 8 17 9 16 10 15 11 6 12
REMARK SMILES IDX 7 13 8 14 14 15 10 16 12 17 9 18 11 20 13 22 4 24 22 26
REMARK SMILES IDX 19 28
REMARK H PARENT 9 19 11 21 13 23 4 25 22 27 19 29
REMARK Flexibility Score: inf
ROOT
ATOM      1  C   UNL     1      11.065 -17.449 -31.269  1.00  0.00     0.180 A 
ATOM      2  C   UNL     1      10.013 -18.024 -30.536  1.00  0.00     0.208 A 
ATOM      3  C   UNL     1      10.106 -18.076 -29.136  1.00  0.00     0.238 A 
ATOM      4  O   UNL     1       9.137 -18.543 -28.483  1.00  0.00    -0.285 OA
ATOM      5  C   UNL     1      11.257 -17.567 -28.488  1.00  0.00     0.111 A 
ATOM      6  C   UNL     1      11.475 -17.604 -27.078  1.00  0.00     0.134 A 
ATOM      7  C   UNL     1      12.590 -16.954 -26.534  1.00  0.00     0.093 A 
ATOM      8  C   UNL     1      13.527 -16.326 -27.353  1.00  0.00     0.123 A 
ATOM      9  C   UNL     1      13.354 -16.335 -28.738  1.00  0.00     0.094 A 
ATOM     10  C   UNL     1      12.233 -16.943 -29.307  1.00  0.00     0.146 A 
ATOM     11  O   UNL     1      12.102 -16.921 -30.627  1.00  0.00    -0.452 OA
ENDROOT
BRANCH   1  12
ATOM     12  C   UNL     1      11.051 -17.380 -32.748  1.00  0.00     0.029 A 
ATOM     13  C   UNL     1      10.301 -18.316 -33.476  1.00  0.00     0.062 A 
ATOM     14  C   UNL     1      10.252 -18.262 -34.872  1.00  0.00     0.162 A 
ATOM     15  C   UNL     1      11.726 -16.359 -33.439  1.00  0.00     0.062 A 
ATOM     16  C   UNL     1      10.947 -17.252 -35.560  1.00  0.00     0.200 A 
ATOM     17  C   UNL     1      11.682 -16.295 -34.838  1.00  0.00     0.162 A 
BRANCH  14  18
ATOM     18  O   UNL     1       9.508 -19.220 -35.560  1.00  0.00    -0.504 OA
ATOM     19  H   UNL     1       8.976 -18.996 -36.391  1.00  0.00     0.293 HD
ENDBRANCH  14  18
BRANCH  16  20
ATOM     20  O   UNL     1      10.896 -17.207 -36.954  1.00  0.00    -0.502 OA
ATOM     21  H   UNL     1      11.106 -18.014 -37.528  1.00  0.00     0.293 HD
ENDBRANCH  16  20
BRANCH  17  22
ATOM     22  O   UNL     1      12.361 -15.283 -35.514  1.00  0.00    -0.504 OA
ATOM     23  H   UNL     1      13.038 -15.491 -36.240  1.00  0.00     0.293 HD
ENDBRANCH  17  22
ENDBRANCH   1  12
BRANCH   2  24
ATOM     24  O   UNL     1       8.876 -18.501 -31.196  1.00  0.00    -0.502 OA
ATOM     25  H   UNL     1       8.930 -19.075 -32.028  1.00  0.00     0.293 HD
ENDBRANCH   2  24
BRANCH   6  26
ATOM     26  O   UNL     1      10.649 -18.283 -26.177  1.00  0.00    -0.507 OA
ATOM     27  H   UNL     1      10.580 -18.074 -25.192  1.00  0.00     0.293 HD
ENDBRANCH   6  26
BRANCH   8  28
ATOM     28  O   UNL     1      14.633 -15.702 -26.778  1.00  0.00    -0.508 OA
ATOM     29  H   UNL     1      14.841 -14.726 -26.954  1.00  0.00     0.293 HD
ENDBRANCH   8  28
TORSDOF 7
ENDMDL
MODEL 7
REMARK VINA RESULT:    -6.386      2.032      7.503
REMARK INTER + INTRA:          -8.203
REMARK INTER:                  -7.948
REMARK INTRA:                  -0.255
REMARK UNBOUND:                -0.324
REMARK SMILES O=c1c(O)c(-c2cc(O)c(O)c(O)c2)oc2cc(O)cc(O)c12
REMARK SMILES IDX 5 1 3 2 2 3 1 4 23 5 21 6 20 7 18 8 17 9 16 10 15 11 6 12
REMARK SMILES IDX 7 13 8 14 14 15 10 16 12 17 9 18 11 20 13 22 4 24 22 26
REMARK SMILES IDX 19 28
REMARK H PARENT 9 19 11 21 13 23 4 25 22 27 19 29
REMARK Flexibility Score: inf
ROOT
ATOM      1  C   UNL     1      10.881 -17.269 -31.475  1.00  0.00     0.180 A 
ATOM      2  C   UNL     1      10.855 -18.449 -32.238  1.00  0.00     0.208 A 
ATOM      3  C   UNL     1      10.378 -18.398 -33.557  1.00  0.00     0.238 A 
ATOM      4  O   UNL     1      10.408 -19.447 -34.252  1.00  0.00    -0.285 OA
ATOM      5  C   UNL     1       9.917 -17.170 -34.092  1.00  0.00     0.111 A 
ATOM      6  C   UNL     1       9.375 -17.011 -35.403  1.00  0.00     0.134 A 
ATOM      7  C   UNL     1       9.073 -15.727 -35.873  1.00  0.00     0.093 A 
ATOM      8  C   UNL     1       9.230 -14.606 -35.059  1.00  0.00     0.123 A 
ATOM      9  C   UNL     1       9.703 -14.758 -33.755  1.00  0.00     0.094 A 
ATOM     10  C   UNL     1      10.048 -16.021 -33.270  1.00  0.00     0.146 A 
ATOM     11  O   UNL     1      10.504 -16.120 -32.027  1.00  0.00    -0.452 OA
ENDROOT
BRANCH   1  12
ATOM     12  C   UNL     1      11.347 -17.248 -30.070  1.00  0.00     0.029 A 
ATOM     13  C   UNL     1      12.503 -16.525 -29.736  1.00  0.00     0.062 A 
ATOM     14  C   UNL     1      12.954 -16.472 -28.414  1.00  0.00     0.162 A 
ATOM     15  C   UNL     1      10.623 -17.889 -29.050  1.00  0.00     0.062 A 
ATOM     16  C   UNL     1      12.239 -17.133 -27.400  1.00  0.00     0.200 A 
ATOM     17  C   UNL     1      11.066 -17.839 -27.722  1.00  0.00     0.162 A 
BRANCH  14  18
ATOM     18  O   UNL     1      14.116 -15.756 -28.125  1.00  0.00    -0.504 OA
ATOM     19  H   UNL     1      14.757 -16.039 -27.394  1.00  0.00     0.293 HD
ENDBRANCH  14  18
BRANCH  16  20
ATOM     20  O   UNL     1      12.697 -17.077 -26.083  1.00  0.00    -0.502 OA
ATOM     21  H   UNL     1      12.065 -17.037 -25.293  1.00  0.00     0.293 HD
ENDBRANCH  16  20
BRANCH  17  22
ATOM     22  O   UNL     1      10.345 -18.485 -26.719  1.00  0.00    -0.504 OA
ATOM     23  H   UNL     1       9.411 -18.185 -26.460  1.00  0.00     0.293 HD
ENDBRANCH  17  22
ENDBRANCH   1  12
BRANCH   2  24
ATOM     24  O   UNL     1      11.335 -19.646 -31.697  1.00  0.00    -0.502 OA
ATOM     25  H   UNL     1      10.932 -20.069 -30.869  1.00  0.00     0.293 HD
ENDBRANCH   2  24
BRANCH   6  26
ATOM     26  O   UNL     1       9.092 -18.073 -36.266  1.00  0.00    -0.507 OA
ATOM     27  H   UNL     1       8.332 -18.087 -36.930  1.00  0.00     0.293 HD
ENDBRANCH   6  26
BRANCH   8  28
ATOM     28  O   UNL     1       8.904 -13.345 -35.555  1.00  0.00    -0.508 OA
ATOM     29  H   UNL     1       9.298 -12.999 -36.422  1.00  0.00     0.293 HD
ENDBRANCH   8  28
TORSDOF 7
ENDMDL
MODEL 8
REMARK VINA RESULT:    -6.375      1.698      6.878
REMARK INTER + INTRA:          -8.189
REMARK INTER:                  -7.975
REMARK INTRA:                  -0.214
REMARK UNBOUND:                -0.324
REMARK SMILES O=c1c(O)c(-c2cc(O)c(O)c(O)c2)oc2cc(O)cc(O)c12
REMARK SMILES IDX 5 1 3 2 2 3 1 4 23 5 21 6 20 7 18 8 17 9 16 10 15 11 6 12
REMARK SMILES IDX 7 13 8 14 14 15 10 16 12 17 9 18 11 20 13 22 4 24 22 26
REMARK SMILES IDX 19 28
REMARK H PARENT 9 19 11 21 13 23 4 25 22 27 19 29
REMARK Flexibility Score: inf
ROOT
ATOM      1  C   UNL     1      10.426 -16.818 -32.631  1.00  0.00     0.180 A 
ATOM      2  C   UNL     1       9.766 -15.622 -32.959  1.00  0.00     0.208 A 
ATOM      3  C   UNL     1       9.525 -15.324 -34.310  1.00  0.00     0.238 A 
ATOM      4  O   UNL     1       8.886 -14.277 -34.594  1.00  0.00    -0.285 OA
ATOM      5  C   UNL     1       9.962 -16.218 -35.317  1.00  0.00     0.111 A 
ATOM      6  C   UNL     1       9.808 -15.998 -36.719  1.00  0.00     0.134 A 
ATOM      7  C   UNL     1      10.160 -17.010 -37.620  1.00  0.00     0.093 A 
ATOM      8  C   UNL     1      10.721 -18.207 -37.175  1.00  0.00     0.123 A 
ATOM      9  C   UNL     1      10.931 -18.409 -35.810  1.00  0.00     0.094 A 
ATOM     10  C   UNL     1      10.556 -17.432 -34.884  1.00  0.00     0.146 A 
ATOM     11  O   UNL     1      10.765 -17.668 -33.595  1.00  0.00    -0.452 OA
ENDROOT
BRANCH   1  12
ATOM     12  C   UNL     1      10.736 -17.189 -31.232  1.00  0.00     0.029 A 
ATOM     13  C   UNL     1       9.690 -17.518 -30.356  1.00  0.00     0.062 A 
ATOM     14  C   UNL     1       9.956 -17.892 -29.035  1.00  0.00     0.162 A 
ATOM     15  C   UNL     1      12.063 -17.277 -30.776  1.00  0.00     0.062 A 
ATOM     16  C   UNL     1      11.283 -17.956 -28.577  1.00  0.00     0.200 A 
ATOM     17  C   UNL     1      12.339 -17.652 -29.455  1.00  0.00     0.162 A 
BRANCH  14  18
ATOM     18  O   UNL     1       8.888 -18.196 -28.191  1.00  0.00    -0.504 OA
ATOM     19  H   UNL     1       8.333 -19.035 -28.304  1.00  0.00     0.293 HD
ENDBRANCH  14  18
BRANCH  16  20
ATOM     20  O   UNL     1      11.540 -18.328 -27.257  1.00  0.00    -0.502 OA
ATOM     21  H   UNL     1      11.633 -17.647 -26.513  1.00  0.00     0.293 HD
ENDBRANCH  16  20
BRANCH  17  22
ATOM     22  O   UNL     1      13.658 -17.729 -29.011  1.00  0.00    -0.504 OA
ATOM     23  H   UNL     1      14.424 -17.344 -29.553  1.00  0.00     0.293 HD
ENDBRANCH  17  22
ENDBRANCH   1  12
BRANCH   2  24
ATOM     24  O   UNL     1       9.323 -14.763 -31.948  1.00  0.00    -0.502 OA
ATOM     25  H   UNL     1       9.756 -13.865 -31.769  1.00  0.00     0.293 HD
ENDBRANCH   2  24
BRANCH   6  26
ATOM     26  O   UNL     1       9.343 -14.803 -37.275  1.00  0.00    -0.507 OA
ATOM     27  H   UNL     1       9.480 -14.525 -38.236  1.00  0.00     0.293 HD
ENDBRANCH   6  26
BRANCH   8  28
ATOM     28  O   UNL     1      11.075 -19.186 -38.101  1.00  0.00    -0.508 OA
ATOM     29  H   UNL     1      11.787 -19.877 -37.895  1.00  0.00     0.293 HD
ENDBRANCH   8  28
TORSDOF 7
ENDMDL
MODEL 9
REMARK VINA RESULT:    -6.299      1.817      6.577
REMARK INTER + INTRA:          -8.096
REMARK INTER:                  -7.982
REMARK INTRA:                  -0.114
REMARK UNBOUND:                -0.324
REMARK SMILES O=c1c(O)c(-c2cc(O)c(O)c(O)c2)oc2cc(O)cc(O)c12
REMARK SMILES IDX 5 1 3 2 2 3 1 4 23 5 21 6 20 7 18 8 17 9 16 10 15 11 6 12
REMARK SMILES IDX 7 13 8 14 14 15 10 16 12 17 9 18 11 20 13 22 4 24 22 26
REMARK SMILES IDX 19 28
REMARK H PARENT 9 19 11 21 13 23 4 25 22 27 19 29
REMARK Flexibility Score: inf
ROOT
ATOM      1  C   UNL     1      11.346 -17.159 -31.940  1.00  0.00     0.180 A 
ATOM      2  C   UNL     1      10.327 -16.274 -31.550  1.00  0.00     0.208 A 
ATOM      3  C   UNL     1       9.825 -15.356 -32.486  1.00  0.00     0.238 A 
ATOM      4  O   UNL     1       8.875 -14.603 -32.146  1.00  0.00    -0.285 OA
ATOM      5  C   UNL     1      10.361 -15.323 -33.796  1.00  0.00     0.111 A 
ATOM      6  C   UNL     1       9.956 -14.407 -34.814  1.00  0.00     0.134 A 
ATOM      7  C   UNL     1      10.461 -14.551 -36.112  1.00  0.00     0.093 A 
ATOM      8  C   UNL     1      11.403 -15.534 -36.414  1.00  0.00     0.123 A 
ATOM      9  C   UNL     1      11.850 -16.397 -35.412  1.00  0.00     0.094 A 
ATOM     10  C   UNL     1      11.337 -16.302 -34.116  1.00  0.00     0.146 A 
ATOM     11  O   UNL     1      11.782 -17.148 -33.195  1.00  0.00    -0.452 OA
ENDROOT
BRANCH   1  12
ATOM     12  C   UNL     1      11.942 -18.138 -31.002  1.00  0.00     0.029 A 
ATOM     13  C   UNL     1      12.012 -19.490 -31.369  1.00  0.00     0.062 A 
ATOM     14  C   UNL     1      12.588 -20.433 -30.511  1.00  0.00     0.162 A 
ATOM     15  C   UNL     1      12.494 -17.732 -29.775  1.00  0.00     0.062 A 
ATOM     16  C   UNL     1      13.119 -20.026 -29.275  1.00  0.00     0.200 A 
ATOM     17  C   UNL     1      13.075 -18.669 -28.911  1.00  0.00     0.162 A 
BRANCH  14  18
ATOM     18  O   UNL     1      12.625 -21.770 -30.905  1.00  0.00    -0.504 OA
ATOM     19  H   UNL     1      11.958 -22.452 -30.564  1.00  0.00     0.293 HD
ENDBRANCH  14  18
BRANCH  16  20
ATOM     20  O   UNL     1      13.690 -20.973 -28.424  1.00  0.00    -0.502 OA
ATOM     21  H   UNL     1      13.207 -21.825 -28.163  1.00  0.00     0.293 HD
ENDBRANCH  16  20
BRANCH  17  22
ATOM     22  O   UNL     1      13.613 -18.257 -27.692  1.00  0.00    -0.504 OA
ATOM     23  H   UNL     1      14.248 -17.468 -27.632  1.00  0.00     0.293 HD
ENDBRANCH  17  22
ENDBRANCH   1  12
BRANCH   2  24
ATOM     24  O   UNL     1       9.797 -16.338 -30.257  1.00  0.00    -0.502 OA
ATOM     25  H   UNL     1       8.810 -16.217 -30.067  1.00  0.00     0.293 HD
ENDBRANCH   2  24
BRANCH   6  26
ATOM     26  O   UNL     1       9.090 -13.332 -34.598  1.00  0.00    -0.507 OA
ATOM     27  H   UNL     1       9.339 -12.483 -34.113  1.00  0.00     0.293 HD
ENDBRANCH   6  26
BRANCH   8  28
ATOM     28  O   UNL     1      11.896 -15.638 -37.714  1.00  0.00    -0.508 OA
ATOM     29  H   UNL     1      11.599 -16.382 -38.334  1.00  0.00     0.293 HD
ENDBRANCH   8  28
TORSDOF 7
ENDMDL
