MODEL 1
REMARK VINA RESULT:    -5.285      0.000      0.000
REMARK INTER + INTRA:         -16.916
REMARK INTER:                 -13.936
REMARK INTRA:                  -2.980
REMARK UNBOUND:                -2.980
REMARK SMILES CCCCCCCCCCCCCCCCCCCCCCCCCCCCCC(=O)[O-]
REMARK SMILES IDX 16 1 17 2 18 3 19 4 20 5 21 6 22 7 23 8 24 9 25 10 26 11
REMARK SMILES IDX 27 12 28 13 29 14 30 15 31 16 32 17 15 18 14 19 13 20 12 21
REMARK SMILES IDX 11 22 10 23 9 24 8 25 7 26 6 27 5 28 4 29 3 30 2 31 1 32
REMARK H PARENT
REMARK Flexibility Score: inf
ROOT
ATOM      1  C   UNL     1      16.042 -28.034  23.001  1.00  0.00     0.000 C 
ENDROOT
BRANCH   1   2
ATOM      2  C   UNL     1      16.483 -28.431  24.420  1.00  0.00     0.000 C 
BRANCH   2   3
ATOM      3  C   UNL     1      17.567 -29.522  24.431  1.00  0.00     0.000 C 
BRANCH   3   4
ATOM      4  C   UNL     1      18.943 -28.991  24.873  1.00  0.00     0.000 C 
BRANCH   4   5
ATOM      5  C   UNL     1      18.902 -27.849  25.910  1.00  0.00     0.000 C 
BRANCH   5   6
ATOM      6  C   UNL     1      19.759 -26.620  25.558  1.00  0.00     0.000 C 
BRANCH   6   7
ATOM      7  C   UNL     1      20.830 -26.930  24.501  1.00  0.00     0.000 C 
BRANCH   7   8
ATOM      8  C   UNL     1      22.245 -26.996  25.091  1.00  0.00     0.000 C 
BRANCH   8   9
ATOM      9  C   UNL     1      22.627 -25.706  25.837  1.00  0.00     0.000 C 
BRANCH   9  10
ATOM     10  C   UNL     1      23.764 -25.920  26.850  1.00  0.00     0.000 C 
BRANCH  10  11
ATOM     11  C   UNL     1      23.354 -26.809  28.044  1.00  0.00     0.000 C 
BRANCH  11  12
ATOM     12  C   UNL     1      22.440 -26.066  29.031  1.00  0.00     0.000 C 
BRANCH  12  13
ATOM     13  C   UNL     1      21.143 -26.846  29.278  1.00  0.00     0.006 C 
BRANCH  13  14
ATOM     14  C   UNL     1      21.211 -28.240  28.650  1.00  0.00     0.053 C 
BRANCH  14  15
ATOM     15  C   UNL     1      20.290 -29.179  29.362  1.00  0.00     0.041 C 
ATOM     16  O   UNL     1      20.747 -30.215  29.914  1.00  0.00    -0.550 OA
ATOM     17  O   UNL     1      18.921 -28.947  29.359  1.00  0.00    -0.550 OA
ENDBRANCH  14  15
ENDBRANCH  13  14
ENDBRANCH  12  13
ENDBRANCH  11  12
ENDBRANCH  10  11
ENDBRANCH   9  10
ENDBRANCH   8   9
ENDBRANCH   7   8
ENDBRANCH   6   7
ENDBRANCH   5   6
ENDBRANCH   4   5
ENDBRANCH   3   4
ENDBRANCH   2   3
ENDBRANCH   1   2
BRANCH   1  18
ATOM     18  C   UNL     1      16.704 -26.762  22.436  1.00  0.00     0.000 C 
BRANCH  18  19
ATOM     19  C   UNL     1      15.704 -25.708  21.903  1.00  0.00     0.000 C 
BRANCH  19  20
ATOM     20  C   UNL     1      15.108 -26.029  20.517  1.00  0.00     0.000 C 
BRANCH  20  21
ATOM     21  C   UNL     1      15.036 -24.844  19.529  1.00  0.00     0.000 C 
BRANCH  21  22
ATOM     22  C   UNL     1      14.821 -23.471  20.198  1.00  0.00     0.000 C 
BRANCH  22  23
ATOM     23  C   UNL     1      13.349 -23.022  20.194  1.00  0.00     0.000 C 
BRANCH  23  24
ATOM     24  C   UNL     1      12.904 -22.588  21.602  1.00  0.00    -0.000 C 
BRANCH  24  25
ATOM     25  C   UNL     1      14.043 -22.627  22.631  1.00  0.00    -0.000 C 
BRANCH  25  26
ATOM     26  C   UNL     1      13.759 -21.766  23.877  1.00  0.00    -0.000 C 
BRANCH  26  27
ATOM     27  C   UNL     1      12.303 -21.884  24.354  1.00  0.00    -0.000 C 
BRANCH  27  28
ATOM     28  C   UNL     1      11.958 -23.296  24.864  1.00  0.00    -0.000 C 
BRANCH  28  29
ATOM     29  C   UNL     1      10.681 -23.860  24.223  1.00  0.00    -0.000 C 
BRANCH  29  30
ATOM     30  C   UNL     1       9.496 -23.899  25.205  1.00  0.00    -0.000 C 
BRANCH  30  31
ATOM     31  C   UNL     1       9.889 -24.447  26.586  1.00  0.00    -0.003 C 
ATOM     32  C   UNL     1       9.536 -25.923  26.758  1.00  0.00     0.004 C 
ENDBRANCH  30  31
ENDBRANCH  29  30
ENDBRANCH  28  29
ENDBRANCH  27  28
ENDBRANCH  26  27
ENDBRANCH  25  26
ENDBRANCH  24  25
ENDBRANCH  23  24
ENDBRANCH  22  23
ENDBRANCH  21  22
ENDBRANCH  20  21
ENDBRANCH  19  20
ENDBRANCH  18  19
ENDBRANCH   1  18
TORSDOF 28
ENDMDL
MODEL 2
REMARK VINA RESULT:    -5.247      1.118      2.704
REMARK INTER + INTRA:         -16.816
REMARK INTER:                 -13.628
REMARK INTRA:                  -3.188
REMARK UNBOUND:                -2.980
REMARK SMILES CCCCCCCCCCCCCCCCCCCCCCCCCCCCCC(=O)[O-]
REMARK SMILES IDX 16 1 17 2 18 3 19 4 20 5 21 6 22 7 23 8 24 9 25 10 26 11
REMARK SMILES IDX 27 12 28 13 29 14 30 15 31 16 32 17 15 18 14 19 13 20 12 21
REMARK SMILES IDX 11 22 10 23 9 24 8 25 7 26 6 27 5 28 4 29 3 30 2 31 1 32
REMARK H PARENT
REMARK Flexibility Score: inf
ROOT
ATOM      1  C   UNL     1      16.648 -26.750  22.616  1.00  0.00     0.000 C 
ENDROOT
BRANCH   1   2
ATOM      2  C   UNL     1      15.967 -28.102  22.888  1.00  0.00     0.000 C 
BRANCH   2   3
ATOM      3  C   UNL     1      16.283 -28.666  24.283  1.00  0.00     0.000 C 
BRANCH   3   4
ATOM      4  C   UNL     1      17.401 -29.725  24.258  1.00  0.00     0.000 C 
BRANCH   4   5
ATOM      5  C   UNL     1      18.792 -29.219  24.696  1.00  0.00     0.000 C 
BRANCH   5   6
ATOM      6  C   UNL     1      18.791 -28.302  25.931  1.00  0.00     0.000 C 
BRANCH   6   7
ATOM      7  C   UNL     1      19.189 -26.857  25.592  1.00  0.00     0.000 C 
BRANCH   7   8
ATOM      8  C   UNL     1      19.968 -26.748  24.274  1.00  0.00     0.000 C 
BRANCH   8   9
ATOM      9  C   UNL     1      21.490 -26.808  24.489  1.00  0.00     0.000 C 
BRANCH   9  10
ATOM     10  C   UNL     1      21.923 -26.220  25.842  1.00  0.00     0.000 C 
BRANCH  10  11
ATOM     11  C   UNL     1      23.396 -26.525  26.192  1.00  0.00     0.000 C 
BRANCH  11  12
ATOM     12  C   UNL     1      23.561 -26.975  27.653  1.00  0.00     0.000 C 
BRANCH  12  13
ATOM     13  C   UNL     1      22.908 -25.977  28.616  1.00  0.00     0.006 C 
BRANCH  13  14
ATOM     14  C   UNL     1      22.112 -26.702  29.703  1.00  0.00     0.053 C 
BRANCH  14  15
ATOM     15  C   UNL     1      20.748 -27.057  29.202  1.00  0.00     0.041 C 
ATOM     16  O   UNL     1      20.400 -28.265  29.119  1.00  0.00    -0.550 OA
ATOM     17  O   UNL     1      19.886 -26.061  28.763  1.00  0.00    -0.550 OA
ENDBRANCH  14  15
ENDBRANCH  13  14
ENDBRANCH  12  13
ENDBRANCH  11  12
ENDBRANCH  10  11
ENDBRANCH   9  10
ENDBRANCH   8   9
ENDBRANCH   7   8
ENDBRANCH   6   7
ENDBRANCH   5   6
ENDBRANCH   4   5
ENDBRANCH   3   4
ENDBRANCH   2   3
ENDBRANCH   1   2
BRANCH   1  18
ATOM     18  C   UNL     1      15.742 -25.667  21.998  1.00  0.00     0.000 C 
BRANCH  18  19
ATOM     19  C   UNL     1      15.299 -25.963  20.545  1.00  0.00     0.000 C 
BRANCH  19  20
ATOM     20  C   UNL     1      14.953 -24.712  19.711  1.00  0.00     0.000 C 
BRANCH  20  21
ATOM     21  C   UNL     1      14.527 -23.466  20.517  1.00  0.00     0.000 C 
BRANCH  21  22
ATOM     22  C   UNL     1      13.039 -23.088  20.364  1.00  0.00     0.000 C 
BRANCH  22  23
ATOM     23  C   UNL     1      12.084 -24.237  20.733  1.00  0.00     0.000 C 
BRANCH  23  24
ATOM     24  C   UNL     1      11.392 -23.963  22.079  1.00  0.00    -0.000 C 
BRANCH  24  25
ATOM     25  C   UNL     1      10.112 -24.789  22.277  1.00  0.00    -0.000 C 
BRANCH  25  26
ATOM     26  C   UNL     1       9.407 -24.497  23.615  1.00  0.00    -0.000 C 
BRANCH  26  27
ATOM     27  C   UNL     1      10.004 -23.281  24.341  1.00  0.00    -0.000 C 
BRANCH  27  28
ATOM     28  C   UNL     1      10.340 -23.575  25.815  1.00  0.00    -0.000 C 
BRANCH  28  29
ATOM     29  C   UNL     1      11.794 -23.226  26.170  1.00  0.00    -0.000 C 
BRANCH  29  30
ATOM     30  C   UNL     1      12.781 -23.606  25.052  1.00  0.00    -0.000 C 
BRANCH  30  31
ATOM     31  C   UNL     1      13.935 -22.600  24.914  1.00  0.00    -0.003 C 
ATOM     32  C   UNL     1      13.713 -21.599  23.781  1.00  0.00     0.004 C 
ENDBRANCH  30  31
ENDBRANCH  29  30
ENDBRANCH  28  29
ENDBRANCH  27  28
ENDBRANCH  26  27
ENDBRANCH  25  26
ENDBRANCH  24  25
ENDBRANCH  23  24
ENDBRANCH  22  23
ENDBRANCH  21  22
ENDBRANCH  20  21
ENDBRANCH  19  20
ENDBRANCH  18  19
ENDBRANCH   1  18
TORSDOF 28
ENDMDL
MODEL 3
REMARK VINA RESULT:    -5.235      3.538     10.177
REMARK INTER + INTRA:         -16.784
REMARK INTER:                 -13.683
REMARK INTRA:                  -3.102
REMARK UNBOUND:                -2.980
REMARK SMILES CCCCCCCCCCCCCCCCCCCCCCCCCCCCCC(=O)[O-]
REMARK SMILES IDX 16 1 17 2 18 3 19 4 20 5 21 6 22 7 23 8 24 9 25 10 26 11
REMARK SMILES IDX 27 12 28 13 29 14 30 15 31 16 32 17 15 18 14 19 13 20 12 21
REMARK SMILES IDX 11 22 10 23 9 24 8 25 7 26 6 27 5 28 4 29 3 30 2 31 1 32
REMARK H PARENT
REMARK Flexibility Score: inf
ROOT
ATOM      1  C   UNL     1      16.938 -27.305  22.996  1.00  0.00     0.000 C 
ENDROOT
BRANCH   1   2
ATOM      2  C   UNL     1      15.750 -27.257  22.019  1.00  0.00     0.000 C 
BRANCH   2   3
ATOM      3  C   UNL     1      15.397 -25.829  21.571  1.00  0.00     0.000 C 
BRANCH   3   4
ATOM      4  C   UNL     1      14.993 -25.754  20.086  1.00  0.00     0.000 C 
BRANCH   4   5
ATOM      5  C   UNL     1      15.262 -24.398  19.402  1.00  0.00     0.000 C 
BRANCH   5   6
ATOM      6  C   UNL     1      14.891 -23.161  20.239  1.00  0.00     0.000 C 
BRANCH   6   7
ATOM      7  C   UNL     1      13.385 -22.861  20.213  1.00  0.00     0.000 C 
BRANCH   7   8
ATOM      8  C   UNL     1      12.810 -22.588  21.609  1.00  0.00     0.000 C 
BRANCH   8   9
ATOM      9  C   UNL     1      13.908 -22.468  22.680  1.00  0.00     0.000 C 
BRANCH   9  10
ATOM     10  C   UNL     1      13.374 -21.940  24.022  1.00  0.00     0.000 C 
BRANCH  10  11
ATOM     11  C   UNL     1      13.073 -23.063  25.039  1.00  0.00     0.000 C 
BRANCH  11  12
ATOM     12  C   UNL     1      11.630 -22.996  25.564  1.00  0.00     0.000 C 
BRANCH  12  13
ATOM     13  C   UNL     1      10.620 -23.058  24.412  1.00  0.00     0.006 C 
BRANCH  13  14
ATOM     14  C   UNL     1       9.694 -24.267  24.557  1.00  0.00     0.053 C 
BRANCH  14  15
ATOM     15  C   UNL     1       8.875 -24.448  23.318  1.00  0.00     0.041 C 
ATOM     16  O   UNL     1       7.827 -23.769  23.149  1.00  0.00    -0.550 OA
ATOM     17  O   UNL     1       9.229 -25.411  22.383  1.00  0.00    -0.550 OA
ENDBRANCH  14  15
ENDBRANCH  13  14
ENDBRANCH  12  13
ENDBRANCH  11  12
ENDBRANCH  10  11
ENDBRANCH   9  10
ENDBRANCH   8   9
ENDBRANCH   7   8
ENDBRANCH   6   7
ENDBRANCH   5   6
ENDBRANCH   4   5
ENDBRANCH   3   4
ENDBRANCH   2   3
ENDBRANCH   1   2
BRANCH   1  18
ATOM     18  C   UNL     1      16.818 -28.342  24.130  1.00  0.00     0.000 C 
BRANCH  18  19
ATOM     19  C   UNL     1      18.026 -28.369  25.097  1.00  0.00     0.000 C 
BRANCH  19  20
ATOM     20  C   UNL     1      18.915 -29.624  24.981  1.00  0.00     0.000 C 
BRANCH  20  21
ATOM     21  C   UNL     1      20.388 -29.367  24.594  1.00  0.00     0.000 C 
BRANCH  21  22
ATOM     22  C   UNL     1      21.110 -28.337  25.488  1.00  0.00     0.000 C 
BRANCH  22  23
ATOM     23  C   UNL     1      21.488 -27.048  24.737  1.00  0.00     0.000 C 
BRANCH  23  24
ATOM     24  C   UNL     1      22.323 -26.116  25.633  1.00  0.00    -0.000 C 
BRANCH  24  25
ATOM     25  C   UNL     1      23.676 -26.720  26.035  1.00  0.00    -0.000 C 
BRANCH  25  26
ATOM     26  C   UNL     1      23.878 -26.786  27.560  1.00  0.00    -0.000 C 
BRANCH  26  27
ATOM     27  C   UNL     1      23.163 -25.642  28.298  1.00  0.00    -0.000 C 
BRANCH  27  28
ATOM     28  C   UNL     1      22.313 -26.138  29.482  1.00  0.00    -0.000 C 
BRANCH  28  29
ATOM     29  C   UNL     1      21.254 -27.168  29.060  1.00  0.00    -0.000 C 
BRANCH  29  30
ATOM     30  C   UNL     1      19.980 -26.507  28.503  1.00  0.00    -0.000 C 
BRANCH  30  31
ATOM     31  C   UNL     1      18.784 -27.472  28.458  1.00  0.00    -0.003 C 
ATOM     32  C   UNL     1      19.162 -28.900  28.851  1.00  0.00     0.004 C 
ENDBRANCH  30  31
ENDBRANCH  29  30
ENDBRANCH  28  29
ENDBRANCH  27  28
ENDBRANCH  26  27
ENDBRANCH  25  26
ENDBRANCH  24  25
ENDBRANCH  23  24
ENDBRANCH  22  23
ENDBRANCH  21  22
ENDBRANCH  20  21
ENDBRANCH  19  20
ENDBRANCH  18  19
ENDBRANCH   1  18
TORSDOF 28
ENDMDL
MODEL 4
REMARK VINA RESULT:    -5.224      6.484     10.131
REMARK INTER + INTRA:         -16.756
REMARK INTER:                 -13.343
REMARK INTRA:                  -3.413
REMARK UNBOUND:                -2.980
REMARK SMILES CCCCCCCCCCCCCCCCCCCCCCCCCCCCCC(=O)[O-]
REMARK SMILES IDX 16 1 17 2 18 3 19 4 20 5 21 6 22 7 23 8 24 9 25 10 26 11
REMARK SMILES IDX 27 12 28 13 29 14 30 15 31 16 32 17 15 18 14 19 13 20 12 21
REMARK SMILES IDX 11 22 10 23 9 24 8 25 7 26 6 27 5 28 4 29 3 30 2 31 1 32
REMARK H PARENT
REMARK Flexibility Score: inf
ROOT
ATOM      1  C   UNL     1       9.980 -23.562  26.744  1.00  0.00     0.000 C 
ENDROOT
BRANCH   1   2
ATOM      2  C   UNL     1      10.266 -24.388  25.478  1.00  0.00     0.000 C 
BRANCH   2   3
ATOM      3  C   UNL     1       9.593 -23.814  24.219  1.00  0.00     0.000 C 
BRANCH   3   4
ATOM      4  C   UNL     1       8.912 -24.897  23.362  1.00  0.00     0.000 C 
BRANCH   4   5
ATOM      5  C   UNL     1       9.632 -25.233  22.039  1.00  0.00     0.000 C 
BRANCH   5   6
ATOM      6  C   UNL     1      10.953 -24.480  21.807  1.00  0.00     0.000 C 
BRANCH   6   7
ATOM      7  C   UNL     1      11.658 -24.911  20.512  1.00  0.00     0.000 C 
BRANCH   7   8
ATOM      8  C   UNL     1      12.660 -26.052  20.732  1.00  0.00     0.000 C 
BRANCH   8   9
ATOM      9  C   UNL     1      13.813 -26.023  19.714  1.00  0.00     0.000 C 
BRANCH   9  10
ATOM     10  C   UNL     1      15.012 -25.191  20.197  1.00  0.00     0.000 C 
BRANCH  10  11
ATOM     11  C   UNL     1      15.005 -23.744  19.656  1.00  0.00     0.000 C 
BRANCH  11  12
ATOM     12  C   UNL     1      14.587 -22.728  20.730  1.00  0.00     0.000 C 
BRANCH  12  13
ATOM     13  C   UNL     1      14.923 -23.239  22.136  1.00  0.00     0.006 C 
BRANCH  13  14
ATOM     14  C   UNL     1      13.706 -23.150  23.059  1.00  0.00     0.053 C 
BRANCH  14  15
ATOM     15  C   UNL     1      13.978 -22.213  24.192  1.00  0.00     0.041 C 
ATOM     16  O   UNL     1      14.313 -21.021  23.960  1.00  0.00    -0.550 OA
ATOM     17  O   UNL     1      13.928 -22.670  25.503  1.00  0.00    -0.550 OA
ENDBRANCH  14  15
ENDBRANCH  13  14
ENDBRANCH  12  13
ENDBRANCH  11  12
ENDBRANCH  10  11
ENDBRANCH   9  10
ENDBRANCH   8   9
ENDBRANCH   7   8
ENDBRANCH   6   7
ENDBRANCH   5   6
ENDBRANCH   4   5
ENDBRANCH   3   4
ENDBRANCH   2   3
ENDBRANCH   1   2
BRANCH   1  18
ATOM     18  C   UNL     1      10.849 -22.301  26.920  1.00  0.00     0.000 C 
BRANCH  18  19
ATOM     19  C   UNL     1      10.112 -20.975  26.619  1.00  0.00     0.000 C 
BRANCH  19  20
ATOM     20  C   UNL     1      10.366 -19.850  27.644  1.00  0.00     0.000 C 
BRANCH  20  21
ATOM     21  C   UNL     1       9.108 -19.271  28.328  1.00  0.00     0.000 C 
BRANCH  21  22
ATOM     22  C   UNL     1       8.168 -18.497  27.380  1.00  0.00     0.000 C 
BRANCH  22  23
ATOM     23  C   UNL     1       7.030 -17.771  28.120  1.00  0.00     0.000 C 
BRANCH  23  24
ATOM     24  C   UNL     1       7.470 -16.363  28.556  1.00  0.00    -0.000 C 
BRANCH  24  25
ATOM     25  C   UNL     1       7.576 -15.376  27.385  1.00  0.00    -0.000 C 
BRANCH  25  26
ATOM     26  C   UNL     1       9.028 -14.972  27.066  1.00  0.00    -0.000 C 
BRANCH  26  27
ATOM     27  C   UNL     1       9.960 -15.123  28.279  1.00  0.00    -0.000 C 
BRANCH  27  28
ATOM     28  C   UNL     1      11.097 -16.133  28.032  1.00  0.00    -0.000 C 
BRANCH  28  29
ATOM     29  C   UNL     1      11.654 -16.726  29.336  1.00  0.00    -0.000 C 
BRANCH  29  30
ATOM     30  C   UNL     1      10.654 -16.628  30.502  1.00  0.00    -0.000 C 
BRANCH  30  31
ATOM     31  C   UNL     1      10.501 -17.953  31.264  1.00  0.00    -0.003 C 
ATOM     32  C   UNL     1       9.796 -17.783  32.609  1.00  0.00     0.004 C 
ENDBRANCH  30  31
ENDBRANCH  29  30
ENDBRANCH  28  29
ENDBRANCH  27  28
ENDBRANCH  26  27
ENDBRANCH  25  26
ENDBRANCH  24  25
ENDBRANCH  23  24
ENDBRANCH  22  23
ENDBRANCH  21  22
ENDBRANCH  20  21
ENDBRANCH  19  20
ENDBRANCH  18  19
ENDBRANCH   1  18
TORSDOF 28
ENDMDL
MODEL 5
REMARK VINA RESULT:    -5.199      2.462      5.141
REMARK INTER + INTRA:         -16.688
REMARK INTER:                 -13.223
REMARK INTRA:                  -3.465
REMARK UNBOUND:                -2.980
REMARK SMILES CCCCCCCCCCCCCCCCCCCCCCCCCCCCCC(=O)[O-]
REMARK SMILES IDX 16 1 17 2 18 3 19 4 20 5 21 6 22 7 23 8 24 9 25 10 26 11
REMARK SMILES IDX 27 12 28 13 29 14 30 15 31 16 32 17 15 18 14 19 13 20 12 21
REMARK SMILES IDX 11 22 10 23 9 24 8 25 7 26 6 27 5 28 4 29 3 30 2 31 1 32
REMARK H PARENT
REMARK Flexibility Score: inf
ROOT
ATOM      1  C   UNL     1      15.049 -25.592  20.395  1.00  0.00     0.000 C 
ENDROOT
BRANCH   1   2
ATOM      2  C   UNL     1      15.355 -25.488  21.899  1.00  0.00     0.000 C 
BRANCH   2   3
ATOM      3  C   UNL     1      16.502 -26.409  22.346  1.00  0.00     0.000 C 
BRANCH   3   4
ATOM      4  C   UNL     1      16.058 -27.874  22.516  1.00  0.00     0.000 C 
BRANCH   4   5
ATOM      5  C   UNL     1      16.157 -28.426  23.953  1.00  0.00     0.000 C 
BRANCH   5   6
ATOM      6  C   UNL     1      15.578 -29.838  24.149  1.00  0.00     0.000 C 
BRANCH   6   7
ATOM      7  C   UNL     1      15.463 -30.617  22.829  1.00  0.00     0.000 C 
BRANCH   7   8
ATOM      8  C   UNL     1      16.160 -31.983  22.883  1.00  0.00     0.000 C 
BRANCH   8   9
ATOM      9  C   UNL     1      17.694 -31.856  22.873  1.00  0.00     0.000 C 
BRANCH   9  10
ATOM     10  C   UNL     1      18.348 -32.466  24.123  1.00  0.00     0.000 C 
BRANCH  10  11
ATOM     11  C   UNL     1      19.004 -31.411  25.041  1.00  0.00     0.000 C 
BRANCH  11  12
ATOM     12  C   UNL     1      19.991 -30.514  24.278  1.00  0.00     0.000 C 
BRANCH  12  13
ATOM     13  C   UNL     1      20.369 -29.280  25.105  1.00  0.00     0.006 C 
BRANCH  13  14
ATOM     14  C   UNL     1      19.652 -28.030  24.588  1.00  0.00     0.053 C 
BRANCH  14  15
ATOM     15  C   UNL     1      20.189 -26.806  25.259  1.00  0.00     0.041 C 
ATOM     16  O   UNL     1      19.572 -26.297  26.233  1.00  0.00    -0.550 OA
ATOM     17  O   UNL     1      21.332 -26.188  24.770  1.00  0.00    -0.550 OA
ENDBRANCH  14  15
ENDBRANCH  13  14
ENDBRANCH  12  13
ENDBRANCH  11  12
ENDBRANCH  10  11
ENDBRANCH   9  10
ENDBRANCH   8   9
ENDBRANCH   7   8
ENDBRANCH   6   7
ENDBRANCH   5   6
ENDBRANCH   4   5
ENDBRANCH   3   4
ENDBRANCH   2   3
ENDBRANCH   1   2
BRANCH   1  18
ATOM     18  C   UNL     1      15.009 -24.252  19.634  1.00  0.00     0.000 C 
BRANCH  18  19
ATOM     19  C   UNL     1      14.619 -23.037  20.510  1.00  0.00     0.000 C 
BRANCH  19  20
ATOM     20  C   UNL     1      13.134 -22.632  20.424  1.00  0.00     0.000 C 
BRANCH  20  21
ATOM     21  C   UNL     1      12.126 -23.798  20.328  1.00  0.00     0.000 C 
BRANCH  21  22
ATOM     22  C   UNL     1      11.621 -24.317  21.691  1.00  0.00     0.000 C 
BRANCH  22  23
ATOM     23  C   UNL     1      10.478 -25.339  21.561  1.00  0.00     0.000 C 
BRANCH  23  24
ATOM     24  C   UNL     1       9.559 -25.294  22.794  1.00  0.00    -0.000 C 
BRANCH  24  25
ATOM     25  C   UNL     1       9.345 -23.873  23.333  1.00  0.00    -0.000 C 
BRANCH  25  26
ATOM     26  C   UNL     1       9.361 -23.803  24.872  1.00  0.00    -0.000 C 
BRANCH  26  27
ATOM     27  C   UNL     1       9.654 -22.387  25.393  1.00  0.00    -0.000 C 
BRANCH  27  28
ATOM     28  C   UNL     1      10.948 -22.316  26.224  1.00  0.00    -0.000 C 
BRANCH  28  29
ATOM     29  C   UNL     1      11.868 -23.523  25.990  1.00  0.00    -0.000 C 
BRANCH  29  30
ATOM     30  C   UNL     1      13.151 -23.147  25.227  1.00  0.00    -0.000 C 
BRANCH  30  31
ATOM     31  C   UNL     1      12.936 -21.985  24.245  1.00  0.00    -0.003 C 
ATOM     32  C   UNL     1      14.246 -21.326  23.813  1.00  0.00     0.004 C 
ENDBRANCH  30  31
ENDBRANCH  29  30
ENDBRANCH  28  29
ENDBRANCH  27  28
ENDBRANCH  26  27
ENDBRANCH  25  26
ENDBRANCH  24  25
ENDBRANCH  23  24
ENDBRANCH  22  23
ENDBRANCH  21  22
ENDBRANCH  20  21
ENDBRANCH  19  20
ENDBRANCH  18  19
ENDBRANCH   1  18
TORSDOF 28
ENDMDL
MODEL 6
REMARK VINA RESULT:    -5.190      3.492     10.418
REMARK INTER + INTRA:         -16.665
REMARK INTER:                 -13.413
REMARK INTRA:                  -3.251
REMARK UNBOUND:                -2.980
REMARK SMILES CCCCCCCCCCCCCCCCCCCCCCCCCCCCCC(=O)[O-]
REMARK SMILES IDX 16 1 17 2 18 3 19 4 20 5 21 6 22 7 23 8 24 9 25 10 26 11
REMARK SMILES IDX 27 12 28 13 29 14 30 15 31 16 32 17 15 18 14 19 13 20 12 21
REMARK SMILES IDX 11 22 10 23 9 24 8 25 7 26 6 27 5 28 4 29 3 30 2 31 1 32
REMARK H PARENT
REMARK Flexibility Score: inf
ROOT
ATOM      1  C   UNL     1      15.869 -26.077  21.730  1.00  0.00     0.000 C 
ENDROOT
BRANCH   1   2
ATOM      2  C   UNL     1      14.804 -26.214  20.629  1.00  0.00     0.000 C 
BRANCH   2   3
ATOM      3  C   UNL     1      14.975 -25.189  19.494  1.00  0.00     0.000 C 
BRANCH   3   4
ATOM      4  C   UNL     1      15.094 -23.743  20.011  1.00  0.00     0.000 C 
BRANCH   4   5
ATOM      5  C   UNL     1      13.770 -22.951  20.054  1.00  0.00     0.000 C 
BRANCH   5   6
ATOM      6  C   UNL     1      12.611 -23.660  20.776  1.00  0.00     0.000 C 
BRANCH   6   7
ATOM      7  C   UNL     1      12.328 -23.065  22.164  1.00  0.00     0.000 C 
BRANCH   7   8
ATOM      8  C   UNL     1      13.516 -22.270  22.722  1.00  0.00     0.000 C 
BRANCH   8   9
ATOM      9  C   UNL     1      13.283 -21.815  24.174  1.00  0.00     0.000 C 
BRANCH   9  10
ATOM     10  C   UNL     1      11.799 -21.836  24.573  1.00  0.00     0.000 C 
BRANCH  10  11
ATOM     11  C   UNL     1      11.527 -22.655  25.854  1.00  0.00     0.000 C 
BRANCH  11  12
ATOM     12  C   UNL     1      10.095 -23.211  25.892  1.00  0.00     0.000 C 
BRANCH  12  13
ATOM     13  C   UNL     1       9.534 -23.389  24.476  1.00  0.00     0.006 C 
BRANCH  13  14
ATOM     14  C   UNL     1       9.341 -24.870  24.143  1.00  0.00     0.053 C 
BRANCH  14  15
ATOM     15  C   UNL     1       9.088 -25.047  22.680  1.00  0.00     0.041 C 
ATOM     16  O   UNL     1       9.924 -25.659  21.964  1.00  0.00    -0.550 OA
ATOM     17  O   UNL     1       7.964 -24.480  22.093  1.00  0.00    -0.550 OA
ENDBRANCH  14  15
ENDBRANCH  13  14
ENDBRANCH  12  13
ENDBRANCH  11  12
ENDBRANCH  10  11
ENDBRANCH   9  10
ENDBRANCH   8   9
ENDBRANCH   7   8
ENDBRANCH   6   7
ENDBRANCH   5   6
ENDBRANCH   4   5
ENDBRANCH   3   4
ENDBRANCH   2   3
ENDBRANCH   1   2
BRANCH   1  18
ATOM     18  C   UNL     1      16.117 -27.346  22.569  1.00  0.00     0.000 C 
BRANCH  18  19
ATOM     19  C   UNL     1      17.383 -27.283  23.456  1.00  0.00     0.000 C 
BRANCH  19  20
ATOM     20  C   UNL     1      18.517 -26.398  22.899  1.00  0.00     0.000 C 
BRANCH  20  21
ATOM     21  C   UNL     1      19.341 -25.624  23.950  1.00  0.00     0.000 C 
BRANCH  21  22
ATOM     22  C   UNL     1      19.927 -26.506  25.074  1.00  0.00     0.000 C 
BRANCH  22  23
ATOM     23  C   UNL     1      20.880 -27.595  24.550  1.00  0.00     0.000 C 
BRANCH  23  24
ATOM     24  C   UNL     1      20.869 -28.824  25.474  1.00  0.00    -0.000 C 
BRANCH  24  25
ATOM     25  C   UNL     1      19.530 -29.018  26.202  1.00  0.00    -0.000 C 
BRANCH  25  26
ATOM     26  C   UNL     1      19.681 -29.085  27.734  1.00  0.00    -0.000 C 
BRANCH  26  27
ATOM     27  C   UNL     1      19.149 -27.823  28.432  1.00  0.00    -0.000 C 
BRANCH  27  28
ATOM     28  C   UNL     1      20.250 -26.778  28.692  1.00  0.00    -0.000 C 
BRANCH  28  29
ATOM     29  C   UNL     1      21.471 -27.372  29.410  1.00  0.00    -0.000 C 
BRANCH  29  30
ATOM     30  C   UNL     1      22.757 -27.268  28.569  1.00  0.00    -0.000 C 
BRANCH  30  31
ATOM     31  C   UNL     1      23.042 -25.834  28.098  1.00  0.00    -0.003 C 
ATOM     32  C   UNL     1      23.292 -25.745  26.593  1.00  0.00     0.004 C 
ENDBRANCH  30  31
ENDBRANCH  29  30
ENDBRANCH  28  29
ENDBRANCH  27  28
ENDBRANCH  26  27
ENDBRANCH  25  26
ENDBRANCH  24  25
ENDBRANCH  23  24
ENDBRANCH  22  23
ENDBRANCH  21  22
ENDBRANCH  20  21
ENDBRANCH  19  20
ENDBRANCH  18  19
ENDBRANCH   1  18
TORSDOF 28
ENDMDL
MODEL 7
REMARK VINA RESULT:    -5.189      3.483     10.276
REMARK INTER + INTRA:         -16.663
REMARK INTER:                 -13.398
REMARK INTRA:                  -3.265
REMARK UNBOUND:                -2.980
REMARK SMILES CCCCCCCCCCCCCCCCCCCCCCCCCCCCCC(=O)[O-]
REMARK SMILES IDX 16 1 17 2 18 3 19 4 20 5 21 6 22 7 23 8 24 9 25 10 26 11
REMARK SMILES IDX 27 12 28 13 29 14 30 15 31 16 32 17 15 18 14 19 13 20 12 21
REMARK SMILES IDX 11 22 10 23 9 24 8 25 7 26 6 27 5 28 4 29 3 30 2 31 1 32
REMARK H PARENT
REMARK Flexibility Score: inf
ROOT
ATOM      1  C   UNL     1      16.125 -26.225  21.831  1.00  0.00     0.000 C 
ENDROOT
BRANCH   1   2
ATOM      2  C   UNL     1      14.814 -25.901  21.093  1.00  0.00     0.000 C 
BRANCH   2   3
ATOM      3  C   UNL     1      15.035 -25.108  19.794  1.00  0.00     0.000 C 
BRANCH   3   4
ATOM      4  C   UNL     1      14.608 -23.633  19.916  1.00  0.00     0.000 C 
BRANCH   4   5
ATOM      5  C   UNL     1      13.152 -23.409  20.375  1.00  0.00     0.000 C 
BRANCH   5   6
ATOM      6  C   UNL     1      13.000 -22.764  21.764  1.00  0.00     0.000 C 
BRANCH   6   7
ATOM      7  C   UNL     1      14.338 -22.273  22.336  1.00  0.00     0.000 C 
BRANCH   7   8
ATOM      8  C   UNL     1      14.281 -22.022  23.849  1.00  0.00     0.000 C 
BRANCH   8   9
ATOM      9  C   UNL     1      12.836 -21.919  24.370  1.00  0.00     0.000 C 
BRANCH   9  10
ATOM     10  C   UNL     1      12.551 -22.892  25.526  1.00  0.00     0.000 C 
BRANCH  10  11
ATOM     11  C   UNL     1      11.318 -23.788  25.274  1.00  0.00     0.000 C 
BRANCH  11  12
ATOM     12  C   UNL     1      10.006 -22.989  25.306  1.00  0.00     0.000 C 
BRANCH  12  13
ATOM     13  C   UNL     1       9.049 -23.456  24.203  1.00  0.00     0.006 C 
BRANCH  13  14
ATOM     14  C   UNL     1       9.323 -24.911  23.816  1.00  0.00     0.053 C 
BRANCH  14  15
ATOM     15  C   UNL     1       9.325 -25.063  22.328  1.00  0.00     0.041 C 
ATOM     16  O   UNL     1      10.369 -25.441  21.734  1.00  0.00    -0.550 OA
ATOM     17  O   UNL     1       8.197 -24.726  21.591  1.00  0.00    -0.550 OA
ENDBRANCH  14  15
ENDBRANCH  13  14
ENDBRANCH  12  13
ENDBRANCH  11  12
ENDBRANCH  10  11
ENDBRANCH   9  10
ENDBRANCH   8   9
ENDBRANCH   7   8
ENDBRANCH   6   7
ENDBRANCH   5   6
ENDBRANCH   4   5
ENDBRANCH   3   4
ENDBRANCH   2   3
ENDBRANCH   1   2
BRANCH   1  18
ATOM     18  C   UNL     1      16.132 -27.557  22.607  1.00  0.00     0.000 C 
BRANCH  18  19
ATOM     19  C   UNL     1      17.347 -27.736  23.549  1.00  0.00     0.000 C 
BRANCH  19  20
ATOM     20  C   UNL     1      18.460 -26.683  23.371  1.00  0.00     0.000 C 
BRANCH  20  21
ATOM     21  C   UNL     1      19.434 -26.531  24.559  1.00  0.00     0.000 C 
BRANCH  21  22
ATOM     22  C   UNL     1      20.852 -27.081  24.294  1.00  0.00     0.000 C 
BRANCH  22  23
ATOM     23  C   UNL     1      21.936 -26.384  25.135  1.00  0.00     0.000 C 
BRANCH  23  24
ATOM     24  C   UNL     1      23.041 -27.375  25.536  1.00  0.00    -0.000 C 
BRANCH  24  25
ATOM     25  C   UNL     1      23.530 -27.182  26.979  1.00  0.00    -0.000 C 
BRANCH  25  26
ATOM     26  C   UNL     1      22.978 -25.902  27.635  1.00  0.00    -0.000 C 
BRANCH  26  27
ATOM     27  C   UNL     1      22.666 -26.095  29.128  1.00  0.00    -0.000 C 
BRANCH  27  28
ATOM     28  C   UNL     1      21.440 -26.995  29.367  1.00  0.00    -0.000 C 
BRANCH  28  29
ATOM     29  C   UNL     1      20.172 -26.462  28.681  1.00  0.00    -0.000 C 
BRANCH  29  30
ATOM     30  C   UNL     1      19.429 -27.552  27.889  1.00  0.00    -0.000 C 
BRANCH  30  31
ATOM     31  C   UNL     1      20.287 -28.806  27.659  1.00  0.00    -0.003 C 
ATOM     32  C   UNL     1      19.454 -30.085  27.579  1.00  0.00     0.004 C 
ENDBRANCH  30  31
ENDBRANCH  29  30
ENDBRANCH  28  29
ENDBRANCH  27  28
ENDBRANCH  26  27
ENDBRANCH  25  26
ENDBRANCH  24  25
ENDBRANCH  23  24
ENDBRANCH  22  23
ENDBRANCH  21  22
ENDBRANCH  20  21
ENDBRANCH  19  20
ENDBRANCH  18  19
ENDBRANCH   1  18
TORSDOF 28
ENDMDL
MODEL 8
REMARK VINA RESULT:    -5.141      1.829      3.476
REMARK INTER + INTRA:         -16.536
REMARK INTER:                 -13.348
REMARK INTRA:                  -3.188
REMARK UNBOUND:                -2.980
REMARK SMILES CCCCCCCCCCCCCCCCCCCCCCCCCCCCCC(=O)[O-]
REMARK SMILES IDX 16 1 17 2 18 3 19 4 20 5 21 6 22 7 23 8 24 9 25 10 26 11
REMARK SMILES IDX 27 12 28 13 29 14 30 15 31 16 32 17 15 18 14 19 13 20 12 21
REMARK SMILES IDX 11 22 10 23 9 24 8 25 7 26 6 27 5 28 4 29 3 30 2 31 1 32
REMARK H PARENT
REMARK Flexibility Score: inf
ROOT
ATOM      1  C   UNL     1      15.862 -27.342  22.054  1.00  0.00     0.000 C 
ENDROOT
BRANCH   1   2
ATOM      2  C   UNL     1      16.609 -27.626  23.368  1.00  0.00     0.000 C 
BRANCH   2   3
ATOM      3  C   UNL     1      16.111 -28.894  24.082  1.00  0.00     0.000 C 
BRANCH   3   4
ATOM      4  C   UNL     1      15.277 -29.807  23.163  1.00  0.00     0.000 C 
BRANCH   4   5
ATOM      5  C   UNL     1      15.986 -31.098  22.704  1.00  0.00     0.000 C 
BRANCH   5   6
ATOM      6  C   UNL     1      17.038 -31.647  23.684  1.00  0.00     0.000 C 
BRANCH   6   7
ATOM      7  C   UNL     1      18.387 -31.929  23.005  1.00  0.00     0.000 C 
BRANCH   7   8
ATOM      8  C   UNL     1      19.555 -31.194  23.677  1.00  0.00     0.000 C 
BRANCH   8   9
ATOM      9  C   UNL     1      19.173 -30.628  25.056  1.00  0.00     0.000 C 
BRANCH   9  10
ATOM     10  C   UNL     1      19.686 -29.195  25.272  1.00  0.00     0.000 C 
BRANCH  10  11
ATOM     11  C   UNL     1      19.004 -28.478  26.457  1.00  0.00     0.000 C 
BRANCH  11  12
ATOM     12  C   UNL     1      19.187 -26.953  26.395  1.00  0.00     0.000 C 
BRANCH  12  13
ATOM     13  C   UNL     1      20.542 -26.536  26.978  1.00  0.00     0.006 C 
BRANCH  13  14
ATOM     14  C   UNL     1      20.524 -26.592  28.507  1.00  0.00     0.053 C 
BRANCH  14  15
ATOM     15  C   UNL     1      21.918 -26.531  29.047  1.00  0.00     0.041 C 
ATOM     16  O   UNL     1      22.140 -26.818  30.254  1.00  0.00    -0.550 OA
ATOM     17  O   UNL     1      22.960 -26.093  28.241  1.00  0.00    -0.550 OA
ENDBRANCH  14  15
ENDBRANCH  13  14
ENDBRANCH  12  13
ENDBRANCH  11  12
ENDBRANCH  10  11
ENDBRANCH   9  10
ENDBRANCH   8   9
ENDBRANCH   7   8
ENDBRANCH   6   7
ENDBRANCH   5   6
ENDBRANCH   4   5
ENDBRANCH   3   4
ENDBRANCH   2   3
ENDBRANCH   1   2
BRANCH   1  18
ATOM     18  C   UNL     1      15.674 -25.851  21.711  1.00  0.00     0.000 C 
BRANCH  18  19
ATOM     19  C   UNL     1      14.992 -25.594  20.346  1.00  0.00     0.000 C 
BRANCH  19  20
ATOM     20  C   UNL     1      13.450 -25.584  20.389  1.00  0.00     0.000 C 
BRANCH  20  21
ATOM     21  C   UNL     1      12.790 -24.189  20.415  1.00  0.00     0.000 C 
BRANCH  21  22
ATOM     22  C   UNL     1      13.788 -23.012  20.382  1.00  0.00     0.000 C 
BRANCH  22  23
ATOM     23  C   UNL     1      14.033 -22.390  21.768  1.00  0.00     0.000 C 
BRANCH  23  24
ATOM     24  C   UNL     1      12.763 -22.460  22.633  1.00  0.00    -0.000 C 
BRANCH  24  25
ATOM     25  C   UNL     1      12.946 -21.834  24.023  1.00  0.00    -0.000 C 
BRANCH  25  26
ATOM     26  C   UNL     1      13.315 -22.865  25.106  1.00  0.00    -0.000 C 
BRANCH  26  27
ATOM     27  C   UNL     1      12.129 -23.764  25.491  1.00  0.00    -0.000 C 
BRANCH  27  28
ATOM     28  C   UNL     1      10.978 -22.979  26.147  1.00  0.00    -0.000 C 
BRANCH  28  29
ATOM     29  C   UNL     1       9.710 -22.953  25.280  1.00  0.00    -0.000 C 
BRANCH  29  30
ATOM     30  C   UNL     1       9.417 -24.315  24.624  1.00  0.00    -0.000 C 
BRANCH  30  31
ATOM     31  C   UNL     1       9.113 -24.195  23.123  1.00  0.00    -0.003 C 
ATOM     32  C   UNL     1       9.806 -25.274  22.292  1.00  0.00     0.004 C 
ENDBRANCH  30  31
ENDBRANCH  29  30
ENDBRANCH  28  29
ENDBRANCH  27  28
ENDBRANCH  26  27
ENDBRANCH  25  26
ENDBRANCH  24  25
ENDBRANCH  23  24
ENDBRANCH  22  23
ENDBRANCH  21  22
ENDBRANCH  20  21
ENDBRANCH  19  20
ENDBRANCH  18  19
ENDBRANCH   1  18
TORSDOF 28
ENDMDL
MODEL 9
REMARK VINA RESULT:    -5.123      3.061      9.940
REMARK INTER + INTRA:         -16.489
REMARK INTER:                 -13.072
REMARK INTRA:                  -3.417
REMARK UNBOUND:                -2.980
REMARK SMILES CCCCCCCCCCCCCCCCCCCCCCCCCCCCCC(=O)[O-]
REMARK SMILES IDX 16 1 17 2 18 3 19 4 20 5 21 6 22 7 23 8 24 9 25 10 26 11
REMARK SMILES IDX 27 12 28 13 29 14 30 15 31 16 32 17 15 18 14 19 13 20 12 21
REMARK SMILES IDX 11 22 10 23 9 24 8 25 7 26 6 27 5 28 4 29 3 30 2 31 1 32
REMARK H PARENT
REMARK Flexibility Score: inf
ROOT
ATOM      1  C   UNL     1      16.040 -28.248  22.771  1.00  0.00     0.000 C 
ENDROOT
BRANCH   1   2
ATOM      2  C   UNL     1      16.727 -26.872  22.762  1.00  0.00     0.000 C 
BRANCH   2   3
ATOM      3  C   UNL     1      15.985 -25.833  21.904  1.00  0.00     0.000 C 
BRANCH   3   4
ATOM      4  C   UNL     1      14.916 -26.467  20.995  1.00  0.00     0.000 C 
BRANCH   4   5
ATOM      5  C   UNL     1      14.312 -25.521  19.935  1.00  0.00     0.000 C 
BRANCH   5   6
ATOM      6  C   UNL     1      15.079 -24.204  19.727  1.00  0.00     0.000 C 
BRANCH   6   7
ATOM      7  C   UNL     1      14.241 -22.969  20.091  1.00  0.00     0.000 C 
BRANCH   7   8
ATOM      8  C   UNL     1      12.818 -23.328  20.539  1.00  0.00     0.000 C 
BRANCH   8   9
ATOM      9  C   UNL     1      12.470 -22.730  21.914  1.00  0.00     0.000 C 
BRANCH   9  10
ATOM     10  C   UNL     1      13.656 -22.761  22.892  1.00  0.00     0.000 C 
BRANCH  10  11
ATOM     11  C   UNL     1      13.440 -21.870  24.135  1.00  0.00     0.000 C 
BRANCH  11  12
ATOM     12  C   UNL     1      12.052 -22.077  24.761  1.00  0.00     0.000 C 
BRANCH  12  13
ATOM     13  C   UNL     1      12.021 -23.339  25.631  1.00  0.00     0.006 C 
BRANCH  13  14
ATOM     14  C   UNL     1      10.723 -23.421  26.436  1.00  0.00     0.053 C 
BRANCH  14  15
ATOM     15  C   UNL     1       9.842 -24.503  25.898  1.00  0.00     0.041 C 
ATOM     16  O   UNL     1       9.417 -24.441  24.713  1.00  0.00    -0.550 OA
ATOM     17  O   UNL     1       9.435 -25.545  26.721  1.00  0.00    -0.550 OA
ENDBRANCH  14  15
ENDBRANCH  13  14
ENDBRANCH  12  13
ENDBRANCH  11  12
ENDBRANCH  10  11
ENDBRANCH   9  10
ENDBRANCH   8   9
ENDBRANCH   7   8
ENDBRANCH   6   7
ENDBRANCH   5   6
ENDBRANCH   4   5
ENDBRANCH   3   4
ENDBRANCH   2   3
ENDBRANCH   1   2
BRANCH   1  18
ATOM     18  C   UNL     1      16.245 -29.080  24.052  1.00  0.00     0.000 C 
BRANCH  18  19
ATOM     19  C   UNL     1      16.882 -30.470  23.812  1.00  0.00     0.000 C 
BRANCH  19  20
ATOM     20  C   UNL     1      17.995 -30.848  24.810  1.00  0.00     0.000 C 
BRANCH  20  21
ATOM     21  C   UNL     1      18.773 -29.665  25.426  1.00  0.00     0.000 C 
BRANCH  21  22
ATOM     22  C   UNL     1      19.799 -29.014  24.476  1.00  0.00     0.000 C 
BRANCH  22  23
ATOM     23  C   UNL     1      20.214 -27.598  24.915  1.00  0.00     0.000 C 
BRANCH  23  24
ATOM     24  C   UNL     1      19.087 -26.919  25.711  1.00  0.00    -0.000 C 
BRANCH  24  25
ATOM     25  C   UNL     1      19.603 -26.093  26.899  1.00  0.00    -0.000 C 
BRANCH  25  26
ATOM     26  C   UNL     1      19.365 -26.778  28.258  1.00  0.00    -0.000 C 
BRANCH  26  27
ATOM     27  C   UNL     1      20.648 -27.395  28.837  1.00  0.00    -0.000 C 
BRANCH  27  28
ATOM     28  C   UNL     1      21.638 -26.333  29.352  1.00  0.00    -0.000 C 
BRANCH  28  29
ATOM     29  C   UNL     1      23.038 -26.484  28.737  1.00  0.00    -0.000 C 
BRANCH  29  30
ATOM     30  C   UNL     1      23.198 -25.682  27.432  1.00  0.00    -0.000 C 
BRANCH  30  31
ATOM     31  C   UNL     1      23.806 -26.518  26.294  1.00  0.00    -0.003 C 
ATOM     32  C   UNL     1      23.454 -28.001  26.398  1.00  0.00     0.004 C 
ENDBRANCH  30  31
ENDBRANCH  29  30
ENDBRANCH  28  29
ENDBRANCH  27  28
ENDBRANCH  26  27
ENDBRANCH  25  26
ENDBRANCH  24  25
ENDBRANCH  23  24
ENDBRANCH  22  23
ENDBRANCH  21  22
ENDBRANCH  20  21
ENDBRANCH  19  20
ENDBRANCH  18  19
ENDBRANCH   1  18
TORSDOF 28
ENDMDL
