MODEL 1
REMARK VINA RESULT:    -5.208      0.000      0.000
REMARK INTER + INTRA:          -9.137
REMARK INTER:                  -8.100
REMARK INTRA:                  -1.037
REMARK UNBOUND:                -1.037
REMARK SMILES C[C@]12C[C@]3(O)O[C@H](O1)[C@@]1(COC(=O)c4ccccc4)[C@@H]3C[C@]12O[C@H]1O[C@@H](CO)[C@@H](O)[C@@H](O)[C@H]1O
REMARK SMILES IDX 1 1 2 2 3 3 4 4 20 5 21 6 22 7 9 8 7 9 8 10 6 11 23 12 24 13
REMARK SMILES IDX 33 14 25 15 31 16 26 17 29 18 34 19 32 21 27 23 28 24 30 26
REMARK SMILES IDX 5 28 10 30 11 31 12 32 13 33 14 34 15 35 19 36 16 37 18 38
REMARK SMILES IDX 17 39
REMARK H PARENT 34 20 32 22 28 25 30 27 5 29
REMARK Flexibility Score: inf
ROOT
ATOM      1  C   UNL     1      44.383  12.780  -4.817  1.00  0.00     0.046 C 
ATOM      2  C   UNL     1      43.778  14.131  -4.439  1.00  0.00     0.104 C 
ATOM      3  C   UNL     1      42.535  13.948  -3.494  1.00  0.00     0.104 C 
ATOM      4  C   UNL     1      42.101  15.420  -3.177  1.00  0.00     0.175 C 
ATOM      5  C   UNL     1      43.335  16.265  -2.735  1.00  0.00     0.070 C 
ATOM      6  C   UNL     1      44.537  15.400  -2.300  1.00  0.00     0.050 C 
ATOM      7  C   UNL     1      44.791  15.170  -3.809  1.00  0.00     0.115 C 
ATOM      8  C   UNL     1      43.983  16.444  -4.108  1.00  0.00     0.096 C 
ATOM      9  C   UNL     1      42.926  16.065  -5.132  1.00  0.00     0.267 C 
ATOM     10  O   UNL     1      43.281  14.775  -5.595  1.00  0.00    -0.342 OA
ATOM     11  O   UNL     1      41.706  15.986  -4.412  1.00  0.00    -0.320 OA
ENDROOT
BRANCH   7  12
ATOM     12  O   UNL     1      46.114  15.076  -4.353  1.00  0.00    -0.339 OA
BRANCH  12  13
ATOM     13  C   UNL     1      47.170  15.491  -3.495  1.00  0.00     0.282 C 
ATOM     14  C   UNL     1      48.323  16.102  -4.314  1.00  0.00     0.202 C 
ATOM     15  O   UNL     1      47.605  14.453  -2.622  1.00  0.00    -0.341 OA
ATOM     16  C   UNL     1      49.087  15.025  -5.093  1.00  0.00     0.179 C 
ATOM     17  C   UNL     1      48.355  13.413  -3.239  1.00  0.00     0.178 C 
ATOM     18  C   UNL     1      49.527  13.925  -4.120  1.00  0.00     0.177 C 
BRANCH  14  19
ATOM     19  O   UNL     1      47.818  17.078  -5.188  1.00  0.00    -0.385 OA
ATOM     20  H   UNL     1      48.565  17.700  -5.386  1.00  0.00     0.211 HD
ENDBRANCH  14  19
BRANCH  16  21
ATOM     21  O   UNL     1      48.298  14.488  -6.125  1.00  0.00    -0.387 OA
ATOM     22  H   UNL     1      47.507  14.068  -5.698  1.00  0.00     0.211 HD
ENDBRANCH  16  21
BRANCH  17  23
ATOM     23  C   UNL     1      47.436  12.379  -3.908  1.00  0.00     0.191 C 
BRANCH  23  24
ATOM     24  O   UNL     1      48.046  11.117  -3.916  1.00  0.00    -0.394 OA
ATOM     25  H   UNL     1      48.886  11.221  -4.434  1.00  0.00     0.210 HD
ENDBRANCH  23  24
ENDBRANCH  17  23
BRANCH  18  26
ATOM     26  O   UNL     1      50.126  12.861  -4.815  1.00  0.00    -0.387 OA
ATOM     27  H   UNL     1      49.468  12.552  -5.493  1.00  0.00     0.211 HD
ENDBRANCH  18  26
ENDBRANCH  12  13
ENDBRANCH   7  12
BRANCH   4  28
ATOM     28  O   UNL     1      41.070  15.484  -2.229  1.00  0.00    -0.365 OA
ATOM     29  H   UNL     1      40.228  15.627  -2.734  1.00  0.00     0.214 HD
ENDBRANCH   4  28
BRANCH   8  30
ATOM     30  C   UNL     1      44.672  17.806  -4.322  1.00  0.00     0.249 C 
BRANCH  30  31
ATOM     31  O   UNL     1      43.751  18.720  -4.911  1.00  0.00    -0.461 OA
BRANCH  31  32
ATOM     32  C   UNL     1      43.387  19.929  -4.308  1.00  0.00     0.338 C 
ATOM     33  O   UNL     1      43.766  21.024  -4.808  1.00  0.00    -0.246 OA
BRANCH  32  34
ATOM     34  C   UNL     1      42.554  19.915  -3.086  1.00  0.00     0.060 A 
ATOM     35  C   UNL     1      41.307  19.261  -3.073  1.00  0.00     0.015 A 
ATOM     36  C   UNL     1      43.002  20.552  -1.915  1.00  0.00     0.015 A 
ATOM     37  C   UNL     1      40.529  19.247  -1.911  1.00  0.00     0.001 A 
ATOM     38  C   UNL     1      42.220  20.535  -0.757  1.00  0.00     0.001 A 
ATOM     39  C   UNL     1      40.985  19.883  -0.754  1.00  0.00     0.000 A 
ENDBRANCH  32  34
ENDBRANCH  31  32
ENDBRANCH  30  31
ENDBRANCH   8  30
TORSDOF 12
ENDMDL
MODEL 2
REMARK VINA RESULT:    -4.973      1.878      7.309
REMARK INTER + INTRA:          -8.772
REMARK INTER:                  -7.737
REMARK INTRA:                  -1.035
REMARK UNBOUND:                -1.037
REMARK SMILES C[C@]12C[C@]3(O)O[C@H](O1)[C@@]1(COC(=O)c4ccccc4)[C@@H]3C[C@]12O[C@H]1O[C@@H](CO)[C@@H](O)[C@@H](O)[C@H]1O
REMARK SMILES IDX 1 1 2 2 3 3 4 4 20 5 21 6 22 7 9 8 7 9 8 10 6 11 23 12 24 13
REMARK SMILES IDX 33 14 25 15 31 16 26 17 29 18 34 19 32 21 27 23 28 24 30 26
REMARK SMILES IDX 5 28 10 30 11 31 12 32 13 33 14 34 15 35 19 36 16 37 18 38
REMARK SMILES IDX 17 39
REMARK H PARENT 34 20 32 22 28 25 30 27 5 29
REMARK Flexibility Score: inf
ROOT
ATOM      1  C   UNL     1      42.635  13.666  -3.200  1.00  0.00     0.046 C 
ATOM      2  C   UNL     1      44.072  13.842  -3.690  1.00  0.00     0.104 C 
ATOM      3  C   UNL     1      44.471  12.698  -4.692  1.00  0.00     0.104 C 
ATOM      4  C   UNL     1      45.930  13.083  -5.118  1.00  0.00     0.175 C 
ATOM      5  C   UNL     1      45.994  14.583  -5.536  1.00  0.00     0.070 C 
ATOM      6  C   UNL     1      44.608  15.184  -5.852  1.00  0.00     0.050 C 
ATOM      7  C   UNL     1      44.400  15.256  -4.320  1.00  0.00     0.115 C 
ATOM      8  C   UNL     1      45.927  15.205  -4.141  1.00  0.00     0.096 C 
ATOM      9  C   UNL     1      46.218  14.082  -3.160  1.00  0.00     0.267 C 
ATOM     10  O   UNL     1      44.968  13.721  -2.603  1.00  0.00    -0.342 OA
ATOM     11  O   UNL     1      46.712  13.007  -3.942  1.00  0.00    -0.320 OA
ENDROOT
BRANCH   7  12
ATOM     12  O   UNL     1      43.691  16.335  -3.697  1.00  0.00    -0.339 OA
BRANCH  12  13
ATOM     13  C   UNL     1      42.714  16.984  -4.502  1.00  0.00     0.282 C 
ATOM     14  C   UNL     1      43.028  18.486  -4.628  1.00  0.00     0.202 C 
ATOM     15  O   UNL     1      41.385  16.735  -4.054  1.00  0.00    -0.341 OA
ATOM     16  C   UNL     1      42.753  19.227  -3.315  1.00  0.00     0.179 C 
ATOM     17  C   UNL     1      41.012  17.403  -2.853  1.00  0.00     0.178 C 
ATOM     18  C   UNL     1      41.319  18.925  -2.863  1.00  0.00     0.177 C 
BRANCH  14  19
ATOM     19  O   UNL     1      44.365  18.659  -5.021  1.00  0.00    -0.385 OA
ATOM     20  H   UNL     1      44.914  18.625  -4.195  1.00  0.00     0.211 HD
ENDBRANCH  14  19
BRANCH  16  21
ATOM     21  O   UNL     1      43.674  18.856  -2.320  1.00  0.00    -0.387 OA
ATOM     22  H   UNL     1      44.279  18.179  -2.720  1.00  0.00     0.211 HD
ENDBRANCH  16  21
BRANCH  17  23
ATOM     23  C   UNL     1      41.505  16.643  -1.612  1.00  0.00     0.191 C 
BRANCH  23  24
ATOM     24  O   UNL     1      40.530  15.733  -1.179  1.00  0.00    -0.394 OA
ATOM     25  H   UNL     1      40.195  16.082  -0.312  1.00  0.00     0.210 HD
ENDBRANCH  23  24
ENDBRANCH  17  23
BRANCH  18  26
ATOM     26  O   UNL     1      41.069  19.489  -1.601  1.00  0.00    -0.387 OA
ATOM     27  H   UNL     1      41.602  18.970  -0.942  1.00  0.00     0.211 HD
ENDBRANCH  18  26
ENDBRANCH  12  13
ENDBRANCH   7  12
BRANCH   4  28
ATOM     28  O   UNL     1      46.432  12.248  -6.125  1.00  0.00    -0.365 OA
ATOM     29  H   UNL     1      47.373  12.044  -5.882  1.00  0.00     0.214 HD
ENDBRANCH   4  28
BRANCH   8  30
ATOM     30  C   UNL     1      46.763  16.488  -3.968  1.00  0.00     0.249 C 
BRANCH  30  31
ATOM     31  O   UNL     1      48.147  16.152  -3.915  1.00  0.00    -0.461 OA
BRANCH  31  32
ATOM     32  C   UNL     1      49.030  16.394  -4.973  1.00  0.00     0.338 C 
ATOM     33  O   UNL     1      48.899  17.431  -5.681  1.00  0.00    -0.246 OA
BRANCH  32  34
ATOM     34  C   UNL     1      50.118  15.433  -5.252  1.00  0.00     0.060 A 
ATOM     35  C   UNL     1      51.391  15.882  -5.650  1.00  0.00     0.015 A 
ATOM     36  C   UNL     1      49.894  14.050  -5.118  1.00  0.00     0.015 A 
ATOM     37  C   UNL     1      52.417  14.966  -5.905  1.00  0.00     0.001 A 
ATOM     38  C   UNL     1      50.923  13.139  -5.375  1.00  0.00     0.001 A 
ATOM     39  C   UNL     1      52.183  13.596  -5.768  1.00  0.00     0.000 A 
ENDBRANCH  32  34
ENDBRANCH  31  32
ENDBRANCH  30  31
ENDBRANCH   8  30
TORSDOF 12
ENDMDL
MODEL 3
REMARK VINA RESULT:    -4.907      2.105      7.645
REMARK INTER + INTRA:          -8.669
REMARK INTER:                  -7.015
REMARK INTRA:                  -1.654
REMARK UNBOUND:                -1.037
REMARK SMILES C[C@]12C[C@]3(O)O[C@H](O1)[C@@]1(COC(=O)c4ccccc4)[C@@H]3C[C@]12O[C@H]1O[C@@H](CO)[C@@H](O)[C@@H](O)[C@H]1O
REMARK SMILES IDX 1 1 2 2 3 3 4 4 20 5 21 6 22 7 9 8 7 9 8 10 6 11 23 12 24 13
REMARK SMILES IDX 33 14 25 15 31 16 26 17 29 18 34 19 32 21 27 23 28 24 30 26
REMARK SMILES IDX 5 28 10 30 11 31 12 32 13 33 14 34 15 35 19 36 16 37 18 38
REMARK SMILES IDX 17 39
REMARK H PARENT 34 20 32 22 28 25 30 27 5 29
REMARK Flexibility Score: inf
ROOT
ATOM      1  C   UNL     1      44.866  18.381  -5.377  1.00  0.00     0.046 C 
ATOM      2  C   UNL     1      45.134  16.953  -4.904  1.00  0.00     0.104 C 
ATOM      3  C   UNL     1      46.664  16.729  -4.623  1.00  0.00     0.104 C 
ATOM      4  C   UNL     1      46.725  15.253  -4.100  1.00  0.00     0.175 C 
ATOM      5  C   UNL     1      45.656  15.029  -2.986  1.00  0.00     0.070 C 
ATOM      6  C   UNL     1      45.133  16.346  -2.375  1.00  0.00     0.050 C 
ATOM      7  C   UNL     1      44.278  16.485  -3.657  1.00  0.00     0.115 C 
ATOM      8  C   UNL     1      44.416  14.970  -3.878  1.00  0.00     0.096 C 
ATOM      9  C   UNL     1      44.921  14.775  -5.298  1.00  0.00     0.267 C 
ATOM     10  O   UNL     1      44.801  16.037  -5.928  1.00  0.00    -0.342 OA
ATOM     11  O   UNL     1      46.294  14.440  -5.175  1.00  0.00    -0.320 OA
ENDROOT
BRANCH   7  12
ATOM     12  O   UNL     1      42.956  17.039  -3.635  1.00  0.00    -0.339 OA
BRANCH  12  13
ATOM     13  C   UNL     1      42.684  17.957  -2.583  1.00  0.00     0.282 C 
ATOM     14  C   UNL     1      41.500  17.464  -1.729  1.00  0.00     0.202 C 
ATOM     15  O   UNL     1      42.507  19.290  -3.053  1.00  0.00    -0.341 OA
ATOM     16  C   UNL     1      40.173  17.600  -2.483  1.00  0.00     0.179 C 
ATOM     17  C   UNL     1      41.286  19.535  -3.743  1.00  0.00     0.178 C 
ATOM     18  C   UNL     1      40.027  19.043  -2.980  1.00  0.00     0.177 C 
BRANCH  14  19
ATOM     19  O   UNL     1      41.715  16.131  -1.344  1.00  0.00    -0.385 OA
ATOM     20  H   UNL     1      42.676  15.939  -1.503  1.00  0.00     0.211 HD
ENDBRANCH  14  19
BRANCH  16  21
ATOM     21  O   UNL     1      40.105  16.696  -3.558  1.00  0.00    -0.387 OA
ATOM     22  H   UNL     1      40.820  16.949  -4.197  1.00  0.00     0.211 HD
ENDBRANCH  16  21
BRANCH  17  23
ATOM     23  C   UNL     1      41.375  19.095  -5.213  1.00  0.00     0.191 C 
BRANCH  23  24
ATOM     24  O   UNL     1      40.675  19.992  -6.033  1.00  0.00    -0.394 OA
ATOM     25  H   UNL     1      40.425  20.757  -5.452  1.00  0.00     0.210 HD
ENDBRANCH  23  24
ENDBRANCH  17  23
BRANCH  18  26
ATOM     26  O   UNL     1      38.879  19.177  -3.779  1.00  0.00    -0.387 OA
ATOM     27  H   UNL     1      38.242  19.749  -3.276  1.00  0.00     0.211 HD
ENDBRANCH  18  26
ENDBRANCH  12  13
ENDBRANCH   7  12
BRANCH   4  28
ATOM     28  O   UNL     1      48.006  14.890  -3.662  1.00  0.00    -0.365 OA
ATOM     29  H   UNL     1      48.579  15.694  -3.764  1.00  0.00     0.214 HD
ENDBRANCH   4  28
BRANCH   8  30
ATOM     30  C   UNL     1      43.331  13.982  -3.406  1.00  0.00     0.249 C 
BRANCH  30  31
ATOM     31  O   UNL     1      43.682  12.660  -3.803  1.00  0.00    -0.461 OA
BRANCH  31  32
ATOM     32  C   UNL     1      44.155  11.696  -2.906  1.00  0.00     0.338 C 
ATOM     33  O   UNL     1      43.353  10.879  -2.375  1.00  0.00    -0.246 OA
BRANCH  32  34
ATOM     34  C   UNL     1      45.598  11.638  -2.589  1.00  0.00     0.060 A 
ATOM     35  C   UNL     1      46.551  11.434  -3.604  1.00  0.00     0.015 A 
ATOM     36  C   UNL     1      46.039  11.792  -1.262  1.00  0.00     0.015 A 
ATOM     37  C   UNL     1      47.915  11.388  -3.297  1.00  0.00     0.001 A 
ATOM     38  C   UNL     1      47.403  11.744  -0.959  1.00  0.00     0.001 A 
ATOM     39  C   UNL     1      48.340  11.542  -1.975  1.00  0.00     0.000 A 
ENDBRANCH  32  34
ENDBRANCH  31  32
ENDBRANCH  30  31
ENDBRANCH   8  30
TORSDOF 12
ENDMDL
MODEL 4
REMARK VINA RESULT:    -4.612      2.152      7.583
REMARK INTER + INTRA:          -8.211
REMARK INTER:                  -7.834
REMARK INTRA:                  -0.377
REMARK UNBOUND:                -1.037
REMARK SMILES C[C@]12C[C@]3(O)O[C@H](O1)[C@@]1(COC(=O)c4ccccc4)[C@@H]3C[C@]12O[C@H]1O[C@@H](CO)[C@@H](O)[C@@H](O)[C@H]1O
REMARK SMILES IDX 1 1 2 2 3 3 4 4 20 5 21 6 22 7 9 8 7 9 8 10 6 11 23 12 24 13
REMARK SMILES IDX 33 14 25 15 31 16 26 17 29 18 34 19 32 21 27 23 28 24 30 26
REMARK SMILES IDX 5 28 10 30 11 31 12 32 13 33 14 34 15 35 19 36 16 37 18 38
REMARK SMILES IDX 17 39
REMARK H PARENT 34 20 32 22 28 25 30 27 5 29
REMARK Flexibility Score: inf
ROOT
ATOM      1  C   UNL     1      42.610  19.611  -5.348  1.00  0.00     0.046 C 
ATOM      2  C   UNL     1      43.255  18.243  -5.126  1.00  0.00     0.104 C 
ATOM      3  C   UNL     1      44.657  18.159  -5.833  1.00  0.00     0.104 C 
ATOM      4  C   UNL     1      45.173  16.731  -5.446  1.00  0.00     0.175 C 
ATOM      5  C   UNL     1      45.026  16.500  -3.911  1.00  0.00     0.070 C 
ATOM      6  C   UNL     1      44.847  17.810  -3.115  1.00  0.00     0.050 C 
ATOM      7  C   UNL     1      43.382  17.795  -3.613  1.00  0.00     0.115 C 
ATOM      8  C   UNL     1      43.514  16.284  -3.864  1.00  0.00     0.096 C 
ATOM      9  C   UNL     1      43.073  16.033  -5.296  1.00  0.00     0.267 C 
ATOM     10  O   UNL     1      42.467  17.237  -5.730  1.00  0.00    -0.342 OA
ATOM     11  O   UNL     1      44.266  15.816  -6.032  1.00  0.00    -0.320 OA
ENDROOT
BRANCH   7  12
ATOM     12  O   UNL     1      42.294  18.244  -2.795  1.00  0.00    -0.339 OA
BRANCH  12  13
ATOM     13  C   UNL     1      41.979  19.629  -2.884  1.00  0.00     0.282 C 
ATOM     14  C   UNL     1      42.308  20.345  -1.561  1.00  0.00     0.202 C 
ATOM     15  O   UNL     1      40.641  19.858  -3.316  1.00  0.00    -0.341 OA
ATOM     16  C   UNL     1      41.312  19.967  -0.459  1.00  0.00     0.179 C 
ATOM     17  C   UNL     1      39.633  19.569  -2.354  1.00  0.00     0.178 C 
ATOM     18  C   UNL     1      39.888  20.218  -0.967  1.00  0.00     0.177 C 
BRANCH  14  19
ATOM     19  O   UNL     1      43.620  20.035  -1.168  1.00  0.00    -0.385 OA
ATOM     20  H   UNL     1      44.138  20.880  -1.205  1.00  0.00     0.211 HD
ENDBRANCH  14  19
BRANCH  16  21
ATOM     21  O   UNL     1      41.470  18.626  -0.069  1.00  0.00    -0.387 OA
ATOM     22  H   UNL     1      41.182  18.064  -0.835  1.00  0.00     0.211 HD
ENDBRANCH  16  21
BRANCH  17  23
ATOM     23  C   UNL     1      39.299  18.069  -2.324  1.00  0.00     0.191 C 
BRANCH  23  24
ATOM     24  O   UNL     1      39.566  17.486  -3.571  1.00  0.00    -0.394 OA
ATOM     25  H   UNL     1      38.864  16.798  -3.708  1.00  0.00     0.210 HD
ENDBRANCH  23  24
ENDBRANCH  17  23
BRANCH  18  26
ATOM     26  O   UNL     1      38.942  19.771  -0.029  1.00  0.00    -0.387 OA
ATOM     27  H   UNL     1      39.445  19.298   0.685  1.00  0.00     0.211 HD
ENDBRANCH  18  26
ENDBRANCH  12  13
ENDBRANCH   7  12
BRANCH   4  28
ATOM     28  O   UNL     1      46.486  16.500  -5.877  1.00  0.00    -0.365 OA
ATOM     29  H   UNL     1      46.591  15.516  -5.954  1.00  0.00     0.214 HD
ENDBRANCH   4  28
BRANCH   8  30
ATOM     30  C   UNL     1      43.044  15.249  -2.822  1.00  0.00     0.249 C 
BRANCH  30  31
ATOM     31  O   UNL     1      42.945  13.966  -3.434  1.00  0.00    -0.461 OA
BRANCH  31  32
ATOM     32  C   UNL     1      43.818  12.913  -3.141  1.00  0.00     0.338 C 
ATOM     33  O   UNL     1      43.361  11.803  -2.750  1.00  0.00    -0.246 OA
BRANCH  32  34
ATOM     34  C   UNL     1      45.276  13.107  -3.296  1.00  0.00     0.060 A 
ATOM     35  C   UNL     1      46.092  13.355  -2.178  1.00  0.00     0.015 A 
ATOM     36  C   UNL     1      45.868  13.039  -4.571  1.00  0.00     0.015 A 
ATOM     37  C   UNL     1      47.471  13.530  -2.333  1.00  0.00     0.001 A 
ATOM     38  C   UNL     1      47.246  13.215  -4.721  1.00  0.00     0.001 A 
ATOM     39  C   UNL     1      48.047  13.460  -3.603  1.00  0.00     0.000 A 
ENDBRANCH  32  34
ENDBRANCH  31  32
ENDBRANCH  30  31
ENDBRANCH   8  30
TORSDOF 12
ENDMDL
MODEL 5
REMARK VINA RESULT:    -4.549      1.863      5.059
REMARK INTER + INTRA:          -8.113
REMARK INTER:                  -6.750
REMARK INTRA:                  -1.363
REMARK UNBOUND:                -1.037
REMARK SMILES C[C@]12C[C@]3(O)O[C@H](O1)[C@@]1(COC(=O)c4ccccc4)[C@@H]3C[C@]12O[C@H]1O[C@@H](CO)[C@@H](O)[C@@H](O)[C@H]1O
REMARK SMILES IDX 1 1 2 2 3 3 4 4 20 5 21 6 22 7 9 8 7 9 8 10 6 11 23 12 24 13
REMARK SMILES IDX 33 14 25 15 31 16 26 17 29 18 34 19 32 21 27 23 28 24 30 26
REMARK SMILES IDX 5 28 10 30 11 31 12 32 13 33 14 34 15 35 19 36 16 37 18 38
REMARK SMILES IDX 17 39
REMARK H PARENT 34 20 32 22 28 25 30 27 5 29
REMARK Flexibility Score: inf
ROOT
ATOM      1  C   UNL     1      48.200  12.661  -2.803  1.00  0.00     0.046 C 
ATOM      2  C   UNL     1      48.223  13.936  -3.645  1.00  0.00     0.104 C 
ATOM      3  C   UNL     1      49.586  14.078  -4.416  1.00  0.00     0.104 C 
ATOM      4  C   UNL     1      49.394  15.390  -5.252  1.00  0.00     0.175 C 
ATOM      5  C   UNL     1      48.033  15.353  -6.013  1.00  0.00     0.070 C 
ATOM      6  C   UNL     1      47.440  13.932  -6.125  1.00  0.00     0.050 C 
ATOM      7  C   UNL     1      47.011  14.103  -4.648  1.00  0.00     0.115 C 
ATOM      8  C   UNL     1      47.109  15.627  -4.827  1.00  0.00     0.096 C 
ATOM      9  C   UNL     1      47.994  16.147  -3.707  1.00  0.00     0.267 C 
ATOM     10  O   UNL     1      48.147  15.069  -2.803  1.00  0.00    -0.342 OA
ATOM     11  O   UNL     1      49.246  16.435  -4.310  1.00  0.00    -0.320 OA
ENDROOT
BRANCH   7  12
ATOM     12  O   UNL     1      45.780  13.568  -4.145  1.00  0.00    -0.339 OA
BRANCH  12  13
ATOM     13  C   UNL     1      45.259  12.443  -4.844  1.00  0.00     0.282 C 
ATOM     14  C   UNL     1      43.787  12.679  -5.228  1.00  0.00     0.202 C 
ATOM     15  O   UNL     1      45.455  11.223  -4.136  1.00  0.00    -0.341 OA
ATOM     16  C   UNL     1      42.871  12.614  -4.001  1.00  0.00     0.179 C 
ATOM     17  C   UNL     1      44.628  11.043  -2.991  1.00  0.00     0.178 C 
ATOM     18  C   UNL     1      43.120  11.293  -3.264  1.00  0.00     0.177 C 
BRANCH  14  19
ATOM     19  O   UNL     1      43.659  13.919  -5.874  1.00  0.00    -0.385 OA
ATOM     20  H   UNL     1      43.957  13.787  -6.811  1.00  0.00     0.211 HD
ENDBRANCH  14  19
BRANCH  16  21
ATOM     21  O   UNL     1      43.090  13.708  -3.145  1.00  0.00    -0.387 OA
ATOM     22  H   UNL     1      44.016  14.024  -3.308  1.00  0.00     0.211 HD
ENDBRANCH  16  21
BRANCH  17  23
ATOM     23  C   UNL     1      45.201  11.773  -1.766  1.00  0.00     0.191 C 
BRANCH  23  24
ATOM     24  O   UNL     1      45.909  10.876  -0.952  1.00  0.00    -0.394 OA
ATOM     25  H   UNL     1      46.863  11.144  -1.014  1.00  0.00     0.210 HD
ENDBRANCH  23  24
ENDBRANCH  17  23
BRANCH  18  26
ATOM     26  O   UNL     1      42.386  11.249  -2.067  1.00  0.00    -0.387 OA
ATOM     27  H   UNL     1      41.658  11.920  -2.150  1.00  0.00     0.211 HD
ENDBRANCH  18  26
ENDBRANCH  12  13
ENDBRANCH   7  12
BRANCH   4  28
ATOM     28  O   UNL     1      50.463  15.632  -6.125  1.00  0.00    -0.365 OA
ATOM     29  H   UNL     1      50.796  16.544  -5.921  1.00  0.00     0.214 HD
ENDBRANCH   4  28
BRANCH   8  30
ATOM     30  C   UNL     1      45.871  16.482  -5.161  1.00  0.00     0.249 C 
BRANCH  30  31
ATOM     31  O   UNL     1      45.127  16.732  -3.972  1.00  0.00    -0.461 OA
BRANCH  31  32
ATOM     32  C   UNL     1      43.781  17.113  -3.982  1.00  0.00     0.338 C 
ATOM     33  O   UNL     1      42.881  16.253  -4.196  1.00  0.00    -0.246 OA
BRANCH  32  34
ATOM     34  C   UNL     1      43.419  18.526  -3.737  1.00  0.00     0.060 A 
ATOM     35  C   UNL     1      43.622  19.503  -4.728  1.00  0.00     0.015 A 
ATOM     36  C   UNL     1      42.858  18.910  -2.505  1.00  0.00     0.015 A 
ATOM     37  C   UNL     1      43.270  20.836  -4.491  1.00  0.00     0.001 A 
ATOM     38  C   UNL     1      42.508  20.244  -2.272  1.00  0.00     0.001 A 
ATOM     39  C   UNL     1      42.714  21.205  -3.264  1.00  0.00     0.000 A 
ENDBRANCH  32  34
ENDBRANCH  31  32
ENDBRANCH  30  31
ENDBRANCH   8  30
TORSDOF 12
ENDMDL
MODEL 6
REMARK VINA RESULT:    -4.410      2.370      6.843
REMARK INTER + INTRA:          -7.897
REMARK INTER:                  -6.344
REMARK INTRA:                  -1.553
REMARK UNBOUND:                -1.037
REMARK SMILES C[C@]12C[C@]3(O)O[C@H](O1)[C@@]1(COC(=O)c4ccccc4)[C@@H]3C[C@]12O[C@H]1O[C@@H](CO)[C@@H](O)[C@@H](O)[C@H]1O
REMARK SMILES IDX 1 1 2 2 3 3 4 4 20 5 21 6 22 7 9 8 7 9 8 10 6 11 23 12 24 13
REMARK SMILES IDX 33 14 25 15 31 16 26 17 29 18 34 19 32 21 27 23 28 24 30 26
REMARK SMILES IDX 5 28 10 30 11 31 12 32 13 33 14 34 15 35 19 36 16 37 18 38
REMARK SMILES IDX 17 39
REMARK H PARENT 34 20 32 22 28 25 30 27 5 29
REMARK Flexibility Score: inf
ROOT
ATOM      1  C   UNL     1      38.941  15.979  -2.604  1.00  0.00     0.046 C 
ATOM      2  C   UNL     1      39.792  15.097  -3.517  1.00  0.00     0.104 C 
ATOM      3  C   UNL     1      38.896  14.083  -4.317  1.00  0.00     0.104 C 
ATOM      4  C   UNL     1      39.927  13.325  -5.223  1.00  0.00     0.175 C 
ATOM      5  C   UNL     1      40.851  14.343  -5.959  1.00  0.00     0.070 C 
ATOM      6  C   UNL     1      40.279  15.776  -5.980  1.00  0.00     0.050 C 
ATOM      7  C   UNL     1      40.747  15.878  -4.509  1.00  0.00     0.115 C 
ATOM      8  C   UNL     1      41.737  14.732  -4.776  1.00  0.00     0.096 C 
ATOM      9  C   UNL     1      41.500  13.684  -3.702  1.00  0.00     0.267 C 
ATOM     10  O   UNL     1      40.663  14.300  -2.740  1.00  0.00    -0.342 OA
ATOM     11  O   UNL     1      40.790  12.635  -4.340  1.00  0.00    -0.320 OA
ENDROOT
BRANCH   7  12
ATOM     12  O   UNL     1      41.267  17.095  -3.957  1.00  0.00    -0.339 OA
BRANCH  12  13
ATOM     13  C   UNL     1      40.779  18.299  -4.537  1.00  0.00     0.282 C 
ATOM     14  C   UNL     1      41.922  19.070  -5.224  1.00  0.00     0.202 C 
ATOM     15  O   UNL     1      40.057  19.099  -3.606  1.00  0.00    -0.341 OA
ATOM     16  C   UNL     1      42.872  19.694  -4.197  1.00  0.00     0.179 C 
ATOM     17  C   UNL     1      40.849  19.755  -2.622  1.00  0.00     0.178 C 
ATOM     18  C   UNL     1      42.055  20.537  -3.211  1.00  0.00     0.177 C 
BRANCH  14  19
ATOM     19  O   UNL     1      42.622  18.210  -6.086  1.00  0.00    -0.385 OA
ATOM     20  H   UNL     1      42.182  17.323  -6.026  1.00  0.00     0.211 HD
ENDBRANCH  14  19
BRANCH  16  21
ATOM     21  O   UNL     1      43.604  18.706  -3.516  1.00  0.00    -0.387 OA
ATOM     22  H   UNL     1      44.184  19.173  -2.861  1.00  0.00     0.211 HD
ENDBRANCH  16  21
BRANCH  17  23
ATOM     23  C   UNL     1      41.186  18.814  -1.455  1.00  0.00     0.191 C 
BRANCH  23  24
ATOM     24  O   UNL     1      40.984  19.465  -0.230  1.00  0.00    -0.394 OA
ATOM     25  H   UNL     1      40.072  19.853  -0.272  1.00  0.00     0.210 HD
ENDBRANCH  23  24
ENDBRANCH  17  23
BRANCH  18  26
ATOM     26  O   UNL     1      42.876  21.029  -2.182  1.00  0.00    -0.387 OA
ATOM     27  H   UNL     1      42.660  21.992  -2.076  1.00  0.00     0.211 HD
ENDBRANCH  18  26
ENDBRANCH  12  13
ENDBRANCH   7  12
BRANCH   4  28
ATOM     28  O   UNL     1      39.307  12.450  -6.125  1.00  0.00    -0.365 OA
ATOM     29  H   UNL     1      40.015  12.131  -6.744  1.00  0.00     0.214 HD
ENDBRANCH   4  28
BRANCH   8  30
ATOM     30  C   UNL     1      43.210  15.006  -5.138  1.00  0.00     0.249 C 
BRANCH  30  31
ATOM     31  O   UNL     1      44.057  14.510  -4.105  1.00  0.00    -0.461 OA
BRANCH  31  32
ATOM     32  C   UNL     1      44.895  15.334  -3.347  1.00  0.00     0.338 C 
ATOM     33  O   UNL     1      44.417  16.029  -2.407  1.00  0.00    -0.246 OA
BRANCH  32  34
ATOM     34  C   UNL     1      46.342  15.382  -3.648  1.00  0.00     0.060 A 
ATOM     35  C   UNL     1      47.201  14.351  -3.224  1.00  0.00     0.015 A 
ATOM     36  C   UNL     1      46.879  16.462  -4.373  1.00  0.00     0.015 A 
ATOM     37  C   UNL     1      48.567  14.401  -3.520  1.00  0.00     0.001 A 
ATOM     38  C   UNL     1      48.246  16.507  -4.666  1.00  0.00     0.001 A 
ATOM     39  C   UNL     1      49.088  15.478  -4.240  1.00  0.00     0.000 A 
ENDBRANCH  32  34
ENDBRANCH  31  32
ENDBRANCH  30  31
ENDBRANCH   8  30
TORSDOF 12
ENDMDL
MODEL 7
REMARK VINA RESULT:    -4.370      2.025      7.159
REMARK INTER + INTRA:          -7.834
REMARK INTER:                  -6.918
REMARK INTRA:                  -0.915
REMARK UNBOUND:                -1.037
REMARK SMILES C[C@]12C[C@]3(O)O[C@H](O1)[C@@]1(COC(=O)c4ccccc4)[C@@H]3C[C@]12O[C@H]1O[C@@H](CO)[C@@H](O)[C@@H](O)[C@H]1O
REMARK SMILES IDX 1 1 2 2 3 3 4 4 20 5 21 6 22 7 9 8 7 9 8 10 6 11 23 12 24 13
REMARK SMILES IDX 33 14 25 15 31 16 26 17 29 18 34 19 32 21 27 23 28 24 30 26
REMARK SMILES IDX 5 28 10 30 11 31 12 32 13 33 14 34 15 35 19 36 16 37 18 38
REMARK SMILES IDX 17 39
REMARK H PARENT 34 20 32 22 28 25 30 27 5 29
REMARK Flexibility Score: inf
ROOT
ATOM      1  C   UNL     1      39.809  15.347  -4.097  1.00  0.00     0.046 C 
ATOM      2  C   UNL     1      41.144  14.604  -4.143  1.00  0.00     0.104 C 
ATOM      3  C   UNL     1      41.109  13.446  -5.205  1.00  0.00     0.104 C 
ATOM      4  C   UNL     1      42.560  12.855  -5.145  1.00  0.00     0.175 C 
ATOM      5  C   UNL     1      43.615  14.001  -5.232  1.00  0.00     0.070 C 
ATOM      6  C   UNL     1      43.033  15.320  -5.782  1.00  0.00     0.050 C 
ATOM      7  C   UNL     1      42.416  15.518  -4.376  1.00  0.00     0.115 C 
ATOM      8  C   UNL     1      43.465  14.546  -3.812  1.00  0.00     0.096 C 
ATOM      9  C   UNL     1      42.710  13.488  -3.025  1.00  0.00     0.267 C 
ATOM     10  O   UNL     1      41.384  13.971  -2.902  1.00  0.00    -0.342 OA
ATOM     11  O   UNL     1      42.713  12.328  -3.842  1.00  0.00    -0.320 OA
ENDROOT
BRANCH   7  12
ATOM     12  O   UNL     1      42.306  16.810  -3.767  1.00  0.00    -0.339 OA
BRANCH  12  13
ATOM     13  C   UNL     1      42.126  17.905  -4.658  1.00  0.00     0.282 C 
ATOM     14  C   UNL     1      43.267  18.927  -4.496  1.00  0.00     0.202 C 
ATOM     15  O   UNL     1      40.835  18.496  -4.543  1.00  0.00    -0.341 OA
ATOM     16  C   UNL     1      43.142  19.699  -3.178  1.00  0.00     0.179 C 
ATOM     17  C   UNL     1      40.622  19.267  -3.365  1.00  0.00     0.178 C 
ATOM     18  C   UNL     1      41.738  20.310  -3.089  1.00  0.00     0.177 C 
BRANCH  14  19
ATOM     19  O   UNL     1      44.505  18.271  -4.568  1.00  0.00    -0.385 OA
ATOM     20  H   UNL     1      45.203  18.955  -4.400  1.00  0.00     0.211 HD
ENDBRANCH  14  19
BRANCH  16  21
ATOM     21  O   UNL     1      43.389  18.864  -2.075  1.00  0.00    -0.387 OA
ATOM     22  H   UNL     1      44.340  18.585  -2.128  1.00  0.00     0.211 HD
ENDBRANCH  16  21
BRANCH  17  23
ATOM     23  C   UNL     1      40.250  18.374  -2.171  1.00  0.00     0.191 C 
BRANCH  23  24
ATOM     24  O   UNL     1      39.478  19.093  -1.247  1.00  0.00    -0.394 OA
ATOM     25  H   UNL     1      39.365  18.497  -0.461  1.00  0.00     0.210 HD
ENDBRANCH  23  24
ENDBRANCH  17  23
BRANCH  18  26
ATOM     26  O   UNL     1      41.545  20.925  -1.841  1.00  0.00    -0.387 OA
ATOM     27  H   UNL     1      42.285  20.621  -1.252  1.00  0.00     0.211 HD
ENDBRANCH  18  26
ENDBRANCH  12  13
ENDBRANCH   7  12
BRANCH   4  28
ATOM     28  O   UNL     1      42.782  11.878  -6.125  1.00  0.00    -0.365 OA
ATOM     29  H   UNL     1      41.983  11.878  -6.714  1.00  0.00     0.214 HD
ENDBRANCH   4  28
BRANCH   8  30
ATOM     30  C   UNL     1      44.775  15.053  -3.177  1.00  0.00     0.249 C 
BRANCH  30  31
ATOM     31  O   UNL     1      45.628  13.947  -2.894  1.00  0.00    -0.461 OA
BRANCH  31  32
ATOM     32  C   UNL     1      46.900  14.092  -2.329  1.00  0.00     0.338 C 
ATOM     33  O   UNL     1      47.053  13.991  -1.080  1.00  0.00    -0.246 OA
BRANCH  32  34
ATOM     34  C   UNL     1      48.062  14.359  -3.204  1.00  0.00     0.060 A 
ATOM     35  C   UNL     1      48.252  15.627  -3.782  1.00  0.00     0.015 A 
ATOM     36  C   UNL     1      49.001  13.343  -3.464  1.00  0.00     0.015 A 
ATOM     37  C   UNL     1      49.358  15.874  -4.601  1.00  0.00     0.001 A 
ATOM     38  C   UNL     1      50.105  13.594  -4.285  1.00  0.00     0.001 A 
ATOM     39  C   UNL     1      50.283  14.858  -4.853  1.00  0.00     0.000 A 
ENDBRANCH  32  34
ENDBRANCH  31  32
ENDBRANCH  30  31
ENDBRANCH   8  30
TORSDOF 12
ENDMDL
MODEL 8
REMARK VINA RESULT:    -4.358      1.803      7.202
REMARK INTER + INTRA:          -7.815
REMARK INTER:                  -6.497
REMARK INTRA:                  -1.318
REMARK UNBOUND:                -1.037
REMARK SMILES C[C@]12C[C@]3(O)O[C@H](O1)[C@@]1(COC(=O)c4ccccc4)[C@@H]3C[C@]12O[C@H]1O[C@@H](CO)[C@@H](O)[C@@H](O)[C@H]1O
REMARK SMILES IDX 1 1 2 2 3 3 4 4 20 5 21 6 22 7 9 8 7 9 8 10 6 11 23 12 24 13
REMARK SMILES IDX 33 14 25 15 31 16 26 17 29 18 34 19 32 21 27 23 28 24 30 26
REMARK SMILES IDX 5 28 10 30 11 31 12 32 13 33 14 34 15 35 19 36 16 37 18 38
REMARK SMILES IDX 17 39
REMARK H PARENT 34 20 32 22 28 25 30 27 5 29
REMARK Flexibility Score: inf
ROOT
ATOM      1  C   UNL     1      40.715  15.268  -3.483  1.00  0.00     0.046 C 
ATOM      2  C   UNL     1      42.121  14.831  -3.892  1.00  0.00     0.104 C 
ATOM      3  C   UNL     1      42.071  13.569  -4.828  1.00  0.00     0.104 C 
ATOM      4  C   UNL     1      43.578  13.318  -5.179  1.00  0.00     0.175 C 
ATOM      5  C   UNL     1      44.254  14.644  -5.644  1.00  0.00     0.070 C 
ATOM      6  C   UNL     1      43.238  15.728  -6.062  1.00  0.00     0.050 C 
ATOM      7  C   UNL     1      43.013  15.961  -4.549  1.00  0.00     0.115 C 
ATOM      8  C   UNL     1      44.383  15.317  -4.277  1.00  0.00     0.096 C 
ATOM      9  C   UNL     1      44.161  14.227  -3.242  1.00  0.00     0.267 C 
ATOM     10  O   UNL     1      42.848  14.424  -2.750  1.00  0.00    -0.342 OA
ATOM     11  O   UNL     1      44.216  13.003  -3.956  1.00  0.00    -0.320 OA
ENDROOT
BRANCH   7  12
ATOM     12  O   UNL     1      42.769  17.265  -4.006  1.00  0.00    -0.339 OA
BRANCH  12  13
ATOM     13  C   UNL     1      42.245  18.228  -4.914  1.00  0.00     0.282 C 
ATOM     14  C   UNL     1      43.166  19.460  -4.985  1.00  0.00     0.202 C 
ATOM     15  O   UNL     1      40.892  18.567  -4.628  1.00  0.00    -0.341 OA
ATOM     16  C   UNL     1      43.078  20.299  -3.705  1.00  0.00     0.179 C 
ATOM     17  C   UNL     1      40.697  19.376  -3.473  1.00  0.00     0.178 C 
ATOM     18  C   UNL     1      41.607  20.633  -3.430  1.00  0.00     0.177 C 
BRANCH  14  19
ATOM     19  O   UNL     1      44.489  19.051  -5.216  1.00  0.00    -0.385 OA
ATOM     20  H   UNL     1      45.051  19.869  -5.195  1.00  0.00     0.211 HD
ENDBRANCH  14  19
BRANCH  16  21
ATOM     21  O   UNL     1      43.645  19.620  -2.613  1.00  0.00    -0.387 OA
ATOM     22  H   UNL     1      43.827  18.691  -2.910  1.00  0.00     0.211 HD
ENDBRANCH  16  21
BRANCH  17  23
ATOM     23  C   UNL     1      40.689  18.528  -2.191  1.00  0.00     0.191 C 
BRANCH  23  24
ATOM     24  O   UNL     1      39.838  19.100  -1.235  1.00  0.00    -0.394 OA
ATOM     25  H   UNL     1      39.332  19.812  -1.707  1.00  0.00     0.210 HD
ENDBRANCH  23  24
ENDBRANCH  17  23
BRANCH  18  26
ATOM     26  O   UNL     1      41.474  21.299  -2.199  1.00  0.00    -0.387 OA
ATOM     27  H   UNL     1      40.501  21.400  -2.030  1.00  0.00     0.211 HD
ENDBRANCH  18  26
ENDBRANCH  12  13
ENDBRANCH   7  12
BRANCH   4  28
ATOM     28  O   UNL     1      43.745  12.298  -6.125  1.00  0.00    -0.365 OA
ATOM     29  H   UNL     1      43.114  11.573  -5.877  1.00  0.00     0.214 HD
ENDBRANCH   4  28
BRANCH   8  30
ATOM     30  C   UNL     1      45.655  16.169  -4.098  1.00  0.00     0.249 C 
BRANCH  30  31
ATOM     31  O   UNL     1      46.497  15.570  -3.117  1.00  0.00    -0.461 OA
BRANCH  31  32
ATOM     32  C   UNL     1      47.750  15.028  -3.419  1.00  0.00     0.338 C 
ATOM     33  O   UNL     1      48.626  15.736  -3.991  1.00  0.00    -0.246 OA
BRANCH  32  34
ATOM     34  C   UNL     1      48.045  13.623  -3.062  1.00  0.00     0.060 A 
ATOM     35  C   UNL     1      48.871  12.830  -3.879  1.00  0.00     0.015 A 
ATOM     36  C   UNL     1      47.504  13.062  -1.890  1.00  0.00     0.015 A 
ATOM     37  C   UNL     1      49.151  11.505  -3.530  1.00  0.00     0.001 A 
ATOM     38  C   UNL     1      47.786  11.737  -1.546  1.00  0.00     0.001 A 
ATOM     39  C   UNL     1      48.609  10.959  -2.364  1.00  0.00     0.000 A 
ENDBRANCH  32  34
ENDBRANCH  31  32
ENDBRANCH  30  31
ENDBRANCH   8  30
TORSDOF 12
ENDMDL
MODEL 9
REMARK VINA RESULT:    -4.289      2.615      7.159
REMARK INTER + INTRA:          -7.708
REMARK INTER:                  -6.427
REMARK INTRA:                  -1.280
REMARK UNBOUND:                -1.037
REMARK SMILES C[C@]12C[C@]3(O)O[C@H](O1)[C@@]1(COC(=O)c4ccccc4)[C@@H]3C[C@]12O[C@H]1O[C@@H](CO)[C@@H](O)[C@@H](O)[C@H]1O
REMARK SMILES IDX 1 1 2 2 3 3 4 4 20 5 21 6 22 7 9 8 7 9 8 10 6 11 23 12 24 13
REMARK SMILES IDX 33 14 25 15 31 16 26 17 29 18 34 19 32 21 27 23 28 24 30 26
REMARK SMILES IDX 5 28 10 30 11 31 12 32 13 33 14 34 15 35 19 36 16 37 18 38
REMARK SMILES IDX 17 39
REMARK H PARENT 34 20 32 22 28 25 30 27 5 29
REMARK Flexibility Score: inf
ROOT
ATOM      1  C   UNL     1      40.510  17.959  -6.032  1.00  0.00     0.046 C 
ATOM      2  C   UNL     1      41.728  18.301  -5.174  1.00  0.00     0.104 C 
ATOM      3  C   UNL     1      41.923  19.857  -5.066  1.00  0.00     0.104 C 
ATOM      4  C   UNL     1      43.161  20.002  -4.117  1.00  0.00     0.175 C 
ATOM      5  C   UNL     1      42.974  19.120  -2.844  1.00  0.00     0.070 C 
ATOM      6  C   UNL     1      41.508  18.694  -2.613  1.00  0.00     0.050 C 
ATOM      7  C   UNL     1      41.739  17.650  -3.731  1.00  0.00     0.115 C 
ATOM      8  C   UNL     1      43.252  17.756  -3.477  1.00  0.00     0.096 C 
ATOM      9  C   UNL     1      43.907  18.035  -4.820  1.00  0.00     0.267 C 
ATOM     10  O   UNL     1      42.902  17.815  -5.793  1.00  0.00    -0.342 OA
ATOM     11  O   UNL     1      44.250  19.411  -4.801  1.00  0.00    -0.320 OA
ENDROOT
BRANCH   7  12
ATOM     12  O   UNL     1      41.146  16.346  -3.691  1.00  0.00    -0.339 OA
BRANCH  12  13
ATOM     13  C   UNL     1      39.808  16.286  -3.210  1.00  0.00     0.282 C 
ATOM     14  C   UNL     1      39.721  15.383  -1.965  1.00  0.00     0.202 C 
ATOM     15  O   UNL     1      38.879  15.917  -4.225  1.00  0.00    -0.341 OA
ATOM     16  C   UNL     1      39.884  13.905  -2.335  1.00  0.00     0.179 C 
ATOM     17  C   UNL     1      38.923  14.551  -4.622  1.00  0.00     0.178 C 
ATOM     18  C   UNL     1      38.875  13.552  -3.434  1.00  0.00     0.177 C 
BRANCH  14  19
ATOM     19  O   UNL     1      40.696  15.769  -1.031  1.00  0.00    -0.385 OA
ATOM     20  H   UNL     1      40.301  16.501  -0.490  1.00  0.00     0.211 HD
ENDBRANCH  14  19
BRANCH  16  21
ATOM     21  O   UNL     1      41.196  13.629  -2.759  1.00  0.00    -0.387 OA
ATOM     22  H   UNL     1      41.146  13.388  -3.720  1.00  0.00     0.211 HD
ENDBRANCH  16  21
BRANCH  17  23
ATOM     23  C   UNL     1      40.042  14.300  -5.644  1.00  0.00     0.191 C 
BRANCH  23  24
ATOM     24  O   UNL     1      40.715  13.106  -5.347  1.00  0.00    -0.394 OA
ATOM     25  H   UNL     1      40.031  12.491  -4.974  1.00  0.00     0.210 HD
ENDBRANCH  23  24
ENDBRANCH  17  23
BRANCH  18  26
ATOM     26  O   UNL     1      39.075  12.236  -3.884  1.00  0.00    -0.387 OA
ATOM     27  H   UNL     1      40.047  12.049  -3.807  1.00  0.00     0.211 HD
ENDBRANCH  18  26
ENDBRANCH  12  13
ENDBRANCH   7  12
BRANCH   4  28
ATOM     28  O   UNL     1      43.428  21.336  -3.781  1.00  0.00    -0.365 OA
ATOM     29  H   UNL     1      42.605  21.852  -3.990  1.00  0.00     0.214 HD
ENDBRANCH   4  28
BRANCH   8  30
ATOM     30  C   UNL     1      43.989  16.761  -2.560  1.00  0.00     0.249 C 
BRANCH  30  31
ATOM     31  O   UNL     1      44.790  15.886  -3.350  1.00  0.00    -0.461 OA
BRANCH  31  32
ATOM     32  C   UNL     1      44.489  14.531  -3.527  1.00  0.00     0.338 C 
ATOM     33  O   UNL     1      43.471  14.190  -4.190  1.00  0.00    -0.246 OA
BRANCH  32  34
ATOM     34  C   UNL     1      45.374  13.502  -2.938  1.00  0.00     0.060 A 
ATOM     35  C   UNL     1      46.380  13.858  -2.021  1.00  0.00     0.015 A 
ATOM     36  C   UNL     1      45.215  12.148  -3.285  1.00  0.00     0.015 A 
ATOM     37  C   UNL     1      47.207  12.877  -1.463  1.00  0.00     0.001 A 
ATOM     38  C   UNL     1      46.044  11.172  -2.725  1.00  0.00     0.001 A 
ATOM     39  C   UNL     1      47.039  11.536  -1.815  1.00  0.00     0.000 A 
ENDBRANCH  32  34
ENDBRANCH  31  32
ENDBRANCH  30  31
ENDBRANCH   8  30
TORSDOF 12
ENDMDL
