MODEL 1
REMARK VINA RESULT:    -7.095      0.000      0.000
REMARK INTER + INTRA:          -9.459
REMARK INTER:                  -8.961
REMARK INTRA:                  -0.497
REMARK UNBOUND:                -0.497
REMARK SMILES Oc1cc(O)cc(CCc2ccccc2O)c1
REMARK SMILES IDX 9 1 10 2 12 3 13 4 11 5 14 6 15 7 16 8 8 10 7 11 6 12 17 13
REMARK SMILES IDX 4 14 2 15 3 16 5 17 1 19
REMARK H PARENT 16 9 5 18 1 20
REMARK Flexibility Score: inf
ROOT
ATOM      1  C   UNL     1       7.560   0.716  35.610  1.00  0.00     0.044 C 
ENDROOT
BRANCH   1   2
ATOM      2  C   UNL     1       6.668  -0.449  35.961  1.00  0.00    -0.006 A 
ATOM      3  C   UNL     1       6.371  -2.845  36.249  1.00  0.00     0.001 A 
ATOM      4  C   UNL     1       5.058  -2.636  36.676  1.00  0.00     0.004 A 
ATOM      5  C   UNL     1       7.175  -1.758  35.898  1.00  0.00     0.007 A 
ATOM      6  C   UNL     1       4.548  -1.338  36.758  1.00  0.00     0.046 A 
ATOM      7  C   UNL     1       5.347  -0.240  36.409  1.00  0.00     0.118 A 
BRANCH   7   8
ATOM      8  O   UNL     1       4.835   1.054  36.507  1.00  0.00    -0.508 OA
ATOM      9  H   UNL     1       4.913   1.715  35.744  1.00  0.00     0.293 HD
ENDBRANCH   7   8
ENDBRANCH   1   2
BRANCH   1  10
ATOM     10  C   UNL     1       8.396   0.399  34.367  1.00  0.00     0.040 C 
BRANCH  10  11
ATOM     11  C   UNL     1       9.827   0.817  34.572  1.00  0.00    -0.040 A 
ATOM     12  C   UNL     1      10.875  -0.053  34.226  1.00  0.00     0.050 A 
ATOM     13  C   UNL     1      10.125   2.055  35.165  1.00  0.00     0.050 A 
ATOM     14  C   UNL     1      12.208   0.322  34.448  1.00  0.00     0.119 A 
ATOM     15  C   UNL     1      11.454   2.431  35.386  1.00  0.00     0.119 A 
ATOM     16  C   UNL     1      12.495   1.564  35.025  1.00  0.00     0.092 A 
BRANCH  14  17
ATOM     17  O   UNL     1      13.252  -0.531  34.101  1.00  0.00    -0.508 OA
ATOM     18  H   UNL     1      13.151  -1.220  33.365  1.00  0.00     0.293 HD
ENDBRANCH  14  17
BRANCH  15  19
ATOM     19  O   UNL     1      11.731   3.666  35.968  1.00  0.00    -0.508 OA
ATOM     20  H   UNL     1      11.021   4.185  36.472  1.00  0.00     0.293 HD
ENDBRANCH  15  19
ENDBRANCH  10  11
ENDBRANCH   1  10
TORSDOF 6
ENDMDL
MODEL 2
REMARK VINA RESULT:    -7.057      0.094      2.037
REMARK INTER + INTRA:          -9.411
REMARK INTER:                  -8.921
REMARK INTRA:                  -0.490
REMARK UNBOUND:                -0.497
REMARK SMILES Oc1cc(O)cc(CCc2ccccc2O)c1
REMARK SMILES IDX 9 1 10 2 12 3 13 4 11 5 14 6 15 7 16 8 8 10 7 11 6 12 17 13
REMARK SMILES IDX 4 14 2 15 3 16 5 17 1 19
REMARK H PARENT 16 9 5 18 1 20
REMARK Flexibility Score: inf
ROOT
ATOM      1  C   UNL     1       7.620   0.706  35.592  1.00  0.00     0.044 C 
ENDROOT
BRANCH   1   2
ATOM      2  C   UNL     1       6.721  -0.455  35.934  1.00  0.00    -0.006 A 
ATOM      3  C   UNL     1       6.407  -2.851  36.207  1.00  0.00     0.001 A 
ATOM      4  C   UNL     1       5.094  -2.636  36.632  1.00  0.00     0.004 A 
ATOM      5  C   UNL     1       7.219  -1.767  35.864  1.00  0.00     0.007 A 
ATOM      6  C   UNL     1       4.592  -1.335  36.720  1.00  0.00     0.046 A 
ATOM      7  C   UNL     1       5.400  -0.241  36.379  1.00  0.00     0.118 A 
BRANCH   7   8
ATOM      8  O   UNL     1       4.895   1.056  36.484  1.00  0.00    -0.508 OA
ATOM      9  H   UNL     1       4.180   1.400  35.855  1.00  0.00     0.293 HD
ENDBRANCH   7   8
ENDBRANCH   1   2
BRANCH   1  10
ATOM     10  C   UNL     1       8.506   0.366  34.390  1.00  0.00     0.040 C 
BRANCH  10  11
ATOM     11  C   UNL     1       9.930   0.778  34.649  1.00  0.00    -0.040 A 
ATOM     12  C   UNL     1      10.211   2.022  35.239  1.00  0.00     0.050 A 
ATOM     13  C   UNL     1      10.991  -0.051  34.249  1.00  0.00     0.050 A 
ATOM     14  C   UNL     1      11.538   2.421  35.450  1.00  0.00     0.119 A 
ATOM     15  C   UNL     1      12.316   0.346  34.459  1.00  0.00     0.119 A 
ATOM     16  C   UNL     1      12.588   1.581  35.062  1.00  0.00     0.092 A 
BRANCH  14  17
ATOM     17  O   UNL     1      11.825   3.649  36.041  1.00  0.00    -0.508 OA
ATOM     18  H   UNL     1      11.954   4.486  35.486  1.00  0.00     0.293 HD
ENDBRANCH  14  17
BRANCH  15  19
ATOM     19  O   UNL     1      13.355  -0.494  34.062  1.00  0.00    -0.508 OA
ATOM     20  H   UNL     1      13.360  -0.935  33.150  1.00  0.00     0.293 HD
ENDBRANCH  15  19
ENDBRANCH  10  11
ENDBRANCH   1  10
TORSDOF 6
ENDMDL
MODEL 3
REMARK VINA RESULT:    -6.919      1.622      6.771
REMARK INTER + INTRA:          -9.236
REMARK INTER:                  -8.768
REMARK INTRA:                  -0.468
REMARK UNBOUND:                -0.497
REMARK SMILES Oc1cc(O)cc(CCc2ccccc2O)c1
REMARK SMILES IDX 9 1 10 2 12 3 13 4 11 5 14 6 15 7 16 8 8 10 7 11 6 12 17 13
REMARK SMILES IDX 4 14 2 15 3 16 5 17 1 19
REMARK H PARENT 16 9 5 18 1 20
REMARK Flexibility Score: inf
ROOT
ATOM      1  C   UNL     1       8.921   0.613  34.334  1.00  0.00     0.044 C 
ENDROOT
BRANCH   1   2
ATOM      2  C   UNL     1      10.373   0.888  34.632  1.00  0.00    -0.006 A 
ATOM      3  C   UNL     1      12.064   2.253  35.723  1.00  0.00     0.001 A 
ATOM      4  C   UNL     1      13.063   1.391  35.265  1.00  0.00     0.004 A 
ATOM      5  C   UNL     1      10.725   2.002  35.413  1.00  0.00     0.007 A 
ATOM      6  C   UNL     1      12.724   0.272  34.500  1.00  0.00     0.046 A 
ATOM      7  C   UNL     1      11.383   0.010  34.185  1.00  0.00     0.118 A 
BRANCH   7   8
ATOM      8  O   UNL     1      11.051  -1.117  33.433  1.00  0.00    -0.508 OA
ATOM      9  H   UNL     1      11.747  -1.622  32.898  1.00  0.00     0.293 HD
ENDBRANCH   7   8
ENDBRANCH   1   2
BRANCH   1  10
ATOM     10  C   UNL     1       8.036   1.064  35.500  1.00  0.00     0.040 C 
BRANCH  10  11
ATOM     11  C   UNL     1       7.027   0.001  35.841  1.00  0.00    -0.040 A 
ATOM     12  C   UNL     1       5.804   0.352  36.436  1.00  0.00     0.050 A 
ATOM     13  C   UNL     1       7.324  -1.353  35.621  1.00  0.00     0.050 A 
ATOM     14  C   UNL     1       4.877  -0.641  36.785  1.00  0.00     0.119 A 
ATOM     15  C   UNL     1       6.400  -2.345  35.967  1.00  0.00     0.119 A 
ATOM     16  C   UNL     1       5.175  -1.987  36.547  1.00  0.00     0.092 A 
BRANCH  14  17
ATOM     17  O   UNL     1       3.659  -0.301  37.369  1.00  0.00    -0.508 OA
ATOM     18  H   UNL     1       3.519   0.597  37.817  1.00  0.00     0.293 HD
ENDBRANCH  14  17
BRANCH  15  19
ATOM     19  O   UNL     1       6.709  -3.684  35.734  1.00  0.00    -0.508 OA
ATOM     20  H   UNL     1       7.540  -4.111  36.125  1.00  0.00     0.293 HD
ENDBRANCH  15  19
ENDBRANCH  10  11
ENDBRANCH   1  10
TORSDOF 6
ENDMDL
MODEL 4
REMARK VINA RESULT:    -6.898      1.614      6.498
REMARK INTER + INTRA:          -9.211
REMARK INTER:                  -8.742
REMARK INTRA:                  -0.468
REMARK UNBOUND:                -0.497
REMARK SMILES Oc1cc(O)cc(CCc2ccccc2O)c1
REMARK SMILES IDX 9 1 10 2 12 3 13 4 11 5 14 6 15 7 16 8 8 10 7 11 6 12 17 13
REMARK SMILES IDX 4 14 2 15 3 16 5 17 1 19
REMARK H PARENT 16 9 5 18 1 20
REMARK Flexibility Score: inf
ROOT
ATOM      1  C   UNL     1       8.978   0.466  34.308  1.00  0.00     0.044 C 
ENDROOT
BRANCH   1   2
ATOM      2  C   UNL     1      10.413   0.814  34.611  1.00  0.00    -0.006 A 
ATOM      3  C   UNL     1      12.029   2.279  35.686  1.00  0.00     0.001 A 
ATOM      4  C   UNL     1      13.071   1.454  35.253  1.00  0.00     0.004 A 
ATOM      5  C   UNL     1      10.707   1.959  35.372  1.00  0.00     0.007 A 
ATOM      6  C   UNL     1      12.791   0.306  34.509  1.00  0.00     0.046 A 
ATOM      7  C   UNL     1      11.466  -0.024  34.190  1.00  0.00     0.118 A 
BRANCH   7   8
ATOM      8  O   UNL     1      11.194  -1.180  33.458  1.00  0.00    -0.508 OA
ATOM      9  H   UNL     1      11.757  -1.449  32.660  1.00  0.00     0.293 HD
ENDBRANCH   7   8
ENDBRANCH   1   2
BRANCH   1  10
ATOM     10  C   UNL     1       8.046   1.035  35.382  1.00  0.00     0.040 C 
BRANCH  10  11
ATOM     11  C   UNL     1       7.044  -0.001  35.815  1.00  0.00    -0.040 A 
ATOM     12  C   UNL     1       7.300  -1.366  35.604  1.00  0.00     0.050 A 
ATOM     13  C   UNL     1       5.820   0.392  36.381  1.00  0.00     0.050 A 
ATOM     14  C   UNL     1       6.352  -2.329  35.977  1.00  0.00     0.119 A 
ATOM     15  C   UNL     1       4.873  -0.567  36.754  1.00  0.00     0.119 A 
ATOM     16  C   UNL     1       5.142  -1.928  36.553  1.00  0.00     0.092 A 
BRANCH  14  17
ATOM     17  O   UNL     1       6.601  -3.684  35.777  1.00  0.00    -0.508 OA
ATOM     18  H   UNL     1       6.411  -4.370  36.499  1.00  0.00     0.293 HD
ENDBRANCH  14  17
BRANCH  15  19
ATOM     19  O   UNL     1       3.667  -0.159  37.320  1.00  0.00    -0.508 OA
ATOM     20  H   UNL     1       3.623   0.620  37.966  1.00  0.00     0.293 HD
ENDBRANCH  15  19
ENDBRANCH  10  11
ENDBRANCH   1  10
TORSDOF 6
ENDMDL
MODEL 5
REMARK VINA RESULT:    -6.872      4.235      8.654
REMARK INTER + INTRA:          -9.178
REMARK INTER:                  -8.677
REMARK INTRA:                  -0.501
REMARK UNBOUND:                -0.497
REMARK SMILES Oc1cc(O)cc(CCc2ccccc2O)c1
REMARK SMILES IDX 9 1 10 2 12 3 13 4 11 5 14 6 15 7 16 8 8 10 7 11 6 12 17 13
REMARK SMILES IDX 4 14 2 15 3 16 5 17 1 19
REMARK H PARENT 16 9 5 18 1 20
REMARK Flexibility Score: inf
ROOT
ATOM      1  C   UNL     1       4.222  -3.097  37.249  1.00  0.00     0.044 C 
ENDROOT
BRANCH   1   2
ATOM      2  C   UNL     1       5.128  -2.027  36.695  1.00  0.00    -0.006 A 
ATOM      3  C   UNL     1       5.629   0.331  36.371  1.00  0.00     0.001 A 
ATOM      4  C   UNL     1       6.828  -0.005  35.740  1.00  0.00     0.004 A 
ATOM      5  C   UNL     1       4.785  -0.673  36.852  1.00  0.00     0.007 A 
ATOM      6  C   UNL     1       7.189  -1.347  35.592  1.00  0.00     0.046 A 
ATOM      7  C   UNL     1       6.348  -2.362  36.072  1.00  0.00     0.118 A 
BRANCH   7   8
ATOM      8  O   UNL     1       6.722  -3.699  35.932  1.00  0.00    -0.508 OA
ATOM      9  H   UNL     1       6.435  -4.250  35.133  1.00  0.00     0.293 HD
ENDBRANCH   7   8
ENDBRANCH   1   2
BRANCH   1  10
ATOM     10  C   UNL     1       2.817  -2.540  37.495  1.00  0.00     0.040 C 
BRANCH  10  11
ATOM     11  C   UNL     1       2.504  -2.524  38.967  1.00  0.00    -0.040 A 
ATOM     12  C   UNL     1       1.899  -3.637  39.574  1.00  0.00     0.050 A 
ATOM     13  C   UNL     1       2.762  -1.376  39.733  1.00  0.00     0.050 A 
ATOM     14  C   UNL     1       1.577  -3.610  40.938  1.00  0.00     0.119 A 
ATOM     15  C   UNL     1       2.441  -1.348  41.094  1.00  0.00     0.119 A 
ATOM     16  C   UNL     1       1.851  -2.467  41.696  1.00  0.00     0.092 A 
BRANCH  14  17
ATOM     17  O   UNL     1       0.982  -4.712  41.548  1.00  0.00    -0.508 OA
ATOM     18  H   UNL     1       0.647  -4.672  42.504  1.00  0.00     0.293 HD
ENDBRANCH  14  17
BRANCH  15  19
ATOM     19  O   UNL     1       2.711  -0.202  41.840  1.00  0.00    -0.508 OA
ATOM     20  H   UNL     1       3.416   0.465  41.549  1.00  0.00     0.293 HD
ENDBRANCH  15  19
ENDBRANCH  10  11
ENDBRANCH   1  10
TORSDOF 6
ENDMDL
MODEL 6
REMARK VINA RESULT:    -6.859      4.219      8.806
REMARK INTER + INTRA:          -9.161
REMARK INTER:                  -8.627
REMARK INTRA:                  -0.534
REMARK UNBOUND:                -0.497
REMARK SMILES Oc1cc(O)cc(CCc2ccccc2O)c1
REMARK SMILES IDX 9 1 10 2 12 3 13 4 11 5 14 6 15 7 16 8 8 10 7 11 6 12 17 13
REMARK SMILES IDX 4 14 2 15 3 16 5 17 1 19
REMARK H PARENT 16 9 5 18 1 20
REMARK Flexibility Score: inf
ROOT
ATOM      1  C   UNL     1       4.205  -3.025  37.243  1.00  0.00     0.044 C 
ENDROOT
BRANCH   1   2
ATOM      2  C   UNL     1       5.139  -1.980  36.686  1.00  0.00    -0.006 A 
ATOM      3  C   UNL     1       5.692   0.363  36.342  1.00  0.00     0.001 A 
ATOM      4  C   UNL     1       6.890  -0.006  35.724  1.00  0.00     0.004 A 
ATOM      5  C   UNL     1       4.823  -0.618  36.826  1.00  0.00     0.007 A 
ATOM      6  C   UNL     1       7.222  -1.357  35.593  1.00  0.00     0.046 A 
ATOM      7  C   UNL     1       6.356  -2.348  36.077  1.00  0.00     0.118 A 
BRANCH   7   8
ATOM      8  O   UNL     1       6.702  -3.695  35.955  1.00  0.00    -0.508 OA
ATOM      9  H   UNL     1       5.999  -4.416  35.849  1.00  0.00     0.293 HD
ENDBRANCH   7   8
ENDBRANCH   1   2
BRANCH   1  10
ATOM     10  C   UNL     1       2.808  -2.438  37.463  1.00  0.00     0.040 C 
BRANCH  10  11
ATOM     11  C   UNL     1       2.457  -2.440  38.927  1.00  0.00    -0.040 A 
ATOM     12  C   UNL     1       2.732  -1.315  39.722  1.00  0.00     0.050 A 
ATOM     13  C   UNL     1       1.908  -3.587  39.521  1.00  0.00     0.050 A 
ATOM     14  C   UNL     1       2.437  -1.328  41.092  1.00  0.00     0.119 A 
ATOM     15  C   UNL     1       1.612  -3.602  40.888  1.00  0.00     0.119 A 
ATOM     16  C   UNL     1       1.875  -2.470  41.672  1.00  0.00     0.092 A 
BRANCH  14  17
ATOM     17  O   UNL     1       2.700  -0.214  41.886  1.00  0.00    -0.508 OA
ATOM     18  H   UNL     1       3.633   0.172  41.963  1.00  0.00     0.293 HD
ENDBRANCH  14  17
BRANCH  15  19
ATOM     19  O   UNL     1       1.060  -4.747  41.459  1.00  0.00    -0.508 OA
ATOM     20  H   UNL     1       0.379  -4.690  42.208  1.00  0.00     0.293 HD
ENDBRANCH  15  19
ENDBRANCH  10  11
ENDBRANCH   1  10
TORSDOF 6
ENDMDL
MODEL 7
REMARK VINA RESULT:    -6.852      3.507      6.051
REMARK INTER + INTRA:          -9.153
REMARK INTER:                  -8.604
REMARK INTRA:                  -0.549
REMARK UNBOUND:                -0.497
REMARK SMILES Oc1cc(O)cc(CCc2ccccc2O)c1
REMARK SMILES IDX 9 1 10 2 12 3 13 4 11 5 14 6 15 7 16 8 8 10 7 11 6 12 17 13
REMARK SMILES IDX 4 14 2 15 3 16 5 17 1 19
REMARK H PARENT 16 9 5 18 1 20
REMARK Flexibility Score: inf
ROOT
ATOM      1  C   UNL     1       3.368  -0.072  38.809  1.00  0.00     0.044 C 
ENDROOT
BRANCH   1   2
ATOM      2  C   UNL     1       2.651  -1.181  39.537  1.00  0.00    -0.006 A 
ATOM      3  C   UNL     1       1.558  -3.353  39.488  1.00  0.00     0.001 A 
ATOM      4  C   UNL     1       1.374  -3.297  40.872  1.00  0.00     0.004 A 
ATOM      5  C   UNL     1       2.198  -2.304  38.824  1.00  0.00     0.007 A 
ATOM      6  C   UNL     1       1.833  -2.193  41.594  1.00  0.00     0.046 A 
ATOM      7  C   UNL     1       2.477  -1.135  40.936  1.00  0.00     0.118 A 
BRANCH   7   8
ATOM      8  O   UNL     1       2.946  -0.042  41.667  1.00  0.00    -0.508 OA
ATOM      9  H   UNL     1       3.120   0.854  41.229  1.00  0.00     0.293 HD
ENDBRANCH   7   8
ENDBRANCH   1   2
BRANCH   1  10
ATOM     10  C   UNL     1       3.324  -0.304  37.296  1.00  0.00     0.040 C 
BRANCH  10  11
ATOM     11  C   UNL     1       4.698  -0.624  36.770  1.00  0.00    -0.040 A 
ATOM     12  C   UNL     1       5.579   0.411  36.417  1.00  0.00     0.050 A 
ATOM     13  C   UNL     1       5.086  -1.959  36.573  1.00  0.00     0.050 A 
ATOM     14  C   UNL     1       6.846   0.114  35.895  1.00  0.00     0.119 A 
ATOM     15  C   UNL     1       6.350  -2.258  36.053  1.00  0.00     0.119 A 
ATOM     16  C   UNL     1       7.230  -1.220  35.717  1.00  0.00     0.092 A 
BRANCH  14  17
ATOM     17  O   UNL     1       7.728   1.134  35.549  1.00  0.00    -0.508 OA
ATOM     18  H   UNL     1       7.396   2.030  35.213  1.00  0.00     0.293 HD
ENDBRANCH  14  17
BRANCH  15  19
ATOM     19  O   UNL     1       6.721  -3.588  35.872  1.00  0.00    -0.508 OA
ATOM     20  H   UNL     1       7.624  -3.933  36.177  1.00  0.00     0.293 HD
ENDBRANCH  15  19
ENDBRANCH  10  11
ENDBRANCH   1  10
TORSDOF 6
ENDMDL
MODEL 8
REMARK VINA RESULT:    -6.826      1.827      6.737
REMARK INTER + INTRA:          -9.119
REMARK INTER:                  -8.715
REMARK INTRA:                  -0.403
REMARK UNBOUND:                -0.497
REMARK SMILES Oc1cc(O)cc(CCc2ccccc2O)c1
REMARK SMILES IDX 9 1 10 2 12 3 13 4 11 5 14 6 15 7 16 8 8 10 7 11 6 12 17 13
REMARK SMILES IDX 4 14 2 15 3 16 5 17 1 19
REMARK H PARENT 16 9 5 18 1 20
REMARK Flexibility Score: inf
ROOT
ATOM      1  C   UNL     1       7.565   0.367  35.661  1.00  0.00     0.044 C 
ENDROOT
BRANCH   1   2
ATOM      2  C   UNL     1       9.026   0.427  35.293  1.00  0.00    -0.006 A 
ATOM      3  C   UNL     1      10.824  -0.153  33.762  1.00  0.00     0.001 A 
ATOM      4  C   UNL     1      11.727   0.578  34.538  1.00  0.00     0.004 A 
ATOM      5  C   UNL     1       9.479  -0.224  34.133  1.00  0.00     0.007 A 
ATOM      6  C   UNL     1      11.285   1.243  35.684  1.00  0.00     0.046 A 
ATOM      7  C   UNL     1       9.937   1.178  36.064  1.00  0.00     0.118 A 
BRANCH   7   8
ATOM      8  O   UNL     1       9.501   1.857  37.203  1.00  0.00    -0.508 OA
ATOM      9  H   UNL     1      10.153   2.219  37.887  1.00  0.00     0.293 HD
ENDBRANCH   7   8
ENDBRANCH   1   2
BRANCH   1  10
ATOM     10  C   UNL     1       7.045  -1.070  35.572  1.00  0.00     0.040 C 
BRANCH  10  11
ATOM     11  C   UNL     1       5.767  -1.220  36.353  1.00  0.00    -0.040 A 
ATOM     12  C   UNL     1       5.255  -2.498  36.633  1.00  0.00     0.050 A 
ATOM     13  C   UNL     1       5.047  -0.084  36.757  1.00  0.00     0.050 A 
ATOM     14  C   UNL     1       4.047  -2.638  37.332  1.00  0.00     0.119 A 
ATOM     15  C   UNL     1       3.842  -0.222  37.454  1.00  0.00     0.119 A 
ATOM     16  C   UNL     1       3.345  -1.500  37.743  1.00  0.00     0.092 A 
BRANCH  14  17
ATOM     17  O   UNL     1       3.537  -3.901  37.620  1.00  0.00    -0.508 OA
ATOM     18  H   UNL     1       2.910  -4.054  38.402  1.00  0.00     0.293 HD
ENDBRANCH  14  17
BRANCH  15  19
ATOM     19  O   UNL     1       3.145   0.916  37.853  1.00  0.00    -0.508 OA
ATOM     20  H   UNL     1       3.324   1.362  38.745  1.00  0.00     0.293 HD
ENDBRANCH  15  19
ENDBRANCH  10  11
ENDBRANCH   1  10
TORSDOF 6
ENDMDL
MODEL 9
REMARK VINA RESULT:    -6.822      1.849      7.022
REMARK INTER + INTRA:          -9.114
REMARK INTER:                  -8.709
REMARK INTRA:                  -0.405
REMARK UNBOUND:                -0.497
REMARK SMILES Oc1cc(O)cc(CCc2ccccc2O)c1
REMARK SMILES IDX 9 1 10 2 12 3 13 4 11 5 14 6 15 7 16 8 8 10 7 11 6 12 17 13
REMARK SMILES IDX 4 14 2 15 3 16 5 17 1 19
REMARK H PARENT 16 9 5 18 1 20
REMARK Flexibility Score: inf
ROOT
ATOM      1  C   UNL     1       7.472   0.334  35.622  1.00  0.00     0.044 C 
ENDROOT
BRANCH   1   2
ATOM      2  C   UNL     1       8.934   0.390  35.258  1.00  0.00    -0.006 A 
ATOM      3  C   UNL     1      10.740  -0.218  33.747  1.00  0.00     0.001 A 
ATOM      4  C   UNL     1      11.638   0.532  34.510  1.00  0.00     0.004 A 
ATOM      5  C   UNL     1       9.394  -0.285  34.114  1.00  0.00     0.007 A 
ATOM      6  C   UNL     1      11.190   1.220  35.640  1.00  0.00     0.046 A 
ATOM      7  C   UNL     1       9.841   1.159  36.017  1.00  0.00     0.118 A 
BRANCH   7   8
ATOM      8  O   UNL     1       9.398   1.861  37.139  1.00  0.00    -0.508 OA
ATOM      9  H   UNL     1       8.695   2.585  37.069  1.00  0.00     0.293 HD
ENDBRANCH   7   8
ENDBRANCH   1   2
BRANCH   1  10
ATOM     10  C   UNL     1       6.965  -1.111  35.594  1.00  0.00     0.040 C 
BRANCH  10  11
ATOM     11  C   UNL     1       5.659  -1.227  36.333  1.00  0.00    -0.040 A 
ATOM     12  C   UNL     1       4.962  -0.072  36.725  1.00  0.00     0.050 A 
ATOM     13  C   UNL     1       5.157  -2.490  36.689  1.00  0.00     0.050 A 
ATOM     14  C   UNL     1       3.762  -0.179  37.443  1.00  0.00     0.119 A 
ATOM     15  C   UNL     1       3.960  -2.598  37.405  1.00  0.00     0.119 A 
ATOM     16  C   UNL     1       3.263  -1.442  37.780  1.00  0.00     0.092 A 
BRANCH  14  17
ATOM     17  O   UNL     1       3.062   0.961  37.829  1.00  0.00    -0.508 OA
ATOM     18  H   UNL     1       2.461   1.458  37.181  1.00  0.00     0.293 HD
ENDBRANCH  14  17
BRANCH  15  19
ATOM     19  O   UNL     1       3.474  -3.860  37.743  1.00  0.00    -0.508 OA
ATOM     20  H   UNL     1       3.225  -4.539  37.034  1.00  0.00     0.293 HD
ENDBRANCH  15  19
ENDBRANCH  10  11
ENDBRANCH   1  10
TORSDOF 6
ENDMDL
