MODEL 1
REMARK VINA RESULT:     0.200      0.000      0.000
REMARK INTER + INTRA:          -0.038
REMARK INTER:                   0.235
REMARK INTRA:                  -0.272
REMARK UNBOUND:                -0.272
REMARK SMILES O=c1cc(-c2ccc(O)c(O)c2)oc2cc(O)cc(O)c12
REMARK SMILES IDX 4 1 3 2 2 3 1 4 21 5 19 6 18 7 16 8 15 9 14 10 13 11 5 12
REMARK SMILES IDX 6 13 7 14 8 15 12 16 10 17 9 18 11 20 20 22 17 24
REMARK H PARENT 9 19 11 21 20 23 17 25
REMARK Flexibility Score: inf
ROOT
ATOM      1  C   UNL     1      29.623  37.967  27.182  1.00  0.00     0.138 A 
ATOM      2  C   UNL     1      28.342  38.210  26.666  1.00  0.00     0.100 A 
ATOM      3  C   UNL     1      27.613  37.161  26.105  1.00  0.00     0.197 A 
ATOM      4  O   UNL     1      26.493  37.422  25.595  1.00  0.00    -0.289 OA
ATOM      5  C   UNL     1      28.158  35.854  26.090  1.00  0.00     0.107 A 
ATOM      6  C   UNL     1      27.489  34.702  25.580  1.00  0.00     0.134 A 
ATOM      7  C   UNL     1      28.174  33.482  25.512  1.00  0.00     0.093 A 
ATOM      8  C   UNL     1      29.479  33.359  25.987  1.00  0.00     0.123 A 
ATOM      9  C   UNL     1      30.124  34.469  26.536  1.00  0.00     0.094 A 
ATOM     10  C   UNL     1      29.481  35.707  26.588  1.00  0.00     0.146 A 
ATOM     11  O   UNL     1      30.134  36.743  27.105  1.00  0.00    -0.456 OA
ENDROOT
BRANCH   1  12
ATOM     12  C   UNL     1      30.441  39.046  27.790  1.00  0.00     0.021 A 
ATOM     13  C   UNL     1      30.113  39.609  29.037  1.00  0.00     0.016 A 
ATOM     14  C   UNL     1      30.907  40.617  29.591  1.00  0.00     0.051 A 
ATOM     15  C   UNL     1      32.046  41.073  28.915  1.00  0.00     0.157 A 
ATOM     16  C   UNL     1      31.594  39.500  27.124  1.00  0.00     0.062 A 
ATOM     17  C   UNL     1      32.390  40.509  27.676  1.00  0.00     0.158 A 
BRANCH  15  18
ATOM     18  O   UNL     1      32.834  42.079  29.470  1.00  0.00    -0.504 OA
ATOM     19  H   UNL     1      32.461  42.733  30.149  1.00  0.00     0.293 HD
ENDBRANCH  15  18
BRANCH  17  20
ATOM     20  O   UNL     1      33.519  40.939  26.979  1.00  0.00    -0.504 OA
ATOM     21  H   UNL     1      34.454  40.852  27.361  1.00  0.00     0.293 HD
ENDBRANCH  17  20
ENDBRANCH   1  12
BRANCH   6  22
ATOM     22  O   UNL     1      26.157  34.694  25.158  1.00  0.00    -0.507 OA
ATOM     23  H   UNL     1      25.487  35.423  25.349  1.00  0.00     0.293 HD
ENDBRANCH   6  22
BRANCH   8  24
ATOM     24  O   UNL     1      30.123  32.126  25.916  1.00  0.00    -0.508 OA
ATOM     25  H   UNL     1      29.719  31.345  25.412  1.00  0.00     0.293 HD
ENDBRANCH   8  24
TORSDOF 5
ENDMDL
MODEL 2
REMARK VINA RESULT:     1.482      3.260      5.586
REMARK INTER + INTRA:           1.470
REMARK INTER:                   1.734
REMARK INTRA:                  -0.264
REMARK UNBOUND:                -0.272
REMARK SMILES O=c1cc(-c2ccc(O)c(O)c2)oc2cc(O)cc(O)c12
REMARK SMILES IDX 4 1 3 2 2 3 1 4 21 5 19 6 18 7 16 8 15 9 14 10 13 11 5 12
REMARK SMILES IDX 6 13 7 14 8 15 12 16 10 17 9 18 11 20 20 22 17 24
REMARK H PARENT 9 19 11 21 20 23 17 25
REMARK Flexibility Score: inf
ROOT
ATOM      1  C   UNL     1      29.736  37.665  26.404  1.00  0.00     0.138 A 
ATOM      2  C   UNL     1      28.455  37.116  26.550  1.00  0.00     0.100 A 
ATOM      3  C   UNL     1      27.801  37.205  27.779  1.00  0.00     0.197 A 
ATOM      4  O   UNL     1      26.678  36.649  27.896  1.00  0.00    -0.289 OA
ATOM      5  C   UNL     1      28.422  37.877  28.860  1.00  0.00     0.107 A 
ATOM      6  C   UNL     1      27.833  38.064  30.146  1.00  0.00     0.134 A 
ATOM      7  C   UNL     1      28.589  38.643  31.173  1.00  0.00     0.093 A 
ATOM      8  C   UNL     1      29.889  39.093  30.945  1.00  0.00     0.123 A 
ATOM      9  C   UNL     1      30.456  38.963  29.676  1.00  0.00     0.094 A 
ATOM     10  C   UNL     1      29.740  38.359  28.640  1.00  0.00     0.146 A 
ATOM     11  O   UNL     1      30.320  38.241  27.450  1.00  0.00    -0.456 OA
ENDROOT
BRANCH   1  12
ATOM     12  C   UNL     1      30.477  37.599  25.119  1.00  0.00     0.021 A 
ATOM     13  C   UNL     1      30.285  38.556  24.106  1.00  0.00     0.016 A 
ATOM     14  C   UNL     1      31.004  38.475  22.909  1.00  0.00     0.051 A 
ATOM     15  C   UNL     1      31.930  37.444  22.708  1.00  0.00     0.157 A 
ATOM     16  C   UNL     1      31.420  36.575  24.916  1.00  0.00     0.062 A 
ATOM     17  C   UNL     1      32.140  36.491  23.719  1.00  0.00     0.158 A 
BRANCH  15  18
ATOM     18  O   UNL     1      32.644  37.366  21.514  1.00  0.00    -0.504 OA
ATOM     19  H   UNL     1      32.781  38.178  20.923  1.00  0.00     0.293 HD
ENDBRANCH  15  18
BRANCH  17  20
ATOM     20  O   UNL     1      33.057  35.454  23.551  1.00  0.00    -0.504 OA
ATOM     21  H   UNL     1      34.052  35.589  23.686  1.00  0.00     0.293 HD
ENDBRANCH  17  20
ENDBRANCH   1  12
BRANCH   6  22
ATOM     22  O   UNL     1      26.513  37.728  30.457  1.00  0.00    -0.507 OA
ATOM     23  H   UNL     1      25.739  38.375  30.468  1.00  0.00     0.293 HD
ENDBRANCH   6  22
BRANCH   8  24
ATOM     24  O   UNL     1      30.606  39.676  31.987  1.00  0.00    -0.508 OA
ATOM     25  H   UNL     1      30.833  40.665  31.987  1.00  0.00     0.293 HD
ENDBRANCH   8  24
TORSDOF 5
ENDMDL
MODEL 3
REMARK VINA RESULT:     1.725      3.267      5.454
REMARK INTER + INTRA:           1.756
REMARK INTER:                   2.025
REMARK INTRA:                  -0.269
REMARK UNBOUND:                -0.272
REMARK SMILES O=c1cc(-c2ccc(O)c(O)c2)oc2cc(O)cc(O)c12
REMARK SMILES IDX 4 1 3 2 2 3 1 4 21 5 19 6 18 7 16 8 15 9 14 10 13 11 5 12
REMARK SMILES IDX 6 13 7 14 8 15 12 16 10 17 9 18 11 20 20 22 17 24
REMARK H PARENT 9 19 11 21 20 23 17 25
REMARK Flexibility Score: inf
ROOT
ATOM      1  C   UNL     1      29.656  37.306  26.864  1.00  0.00     0.138 A 
ATOM      2  C   UNL     1      28.394  37.689  27.339  1.00  0.00     0.100 A 
ATOM      3  C   UNL     1      27.692  38.707  26.692  1.00  0.00     0.197 A 
ATOM      4  O   UNL     1      26.590  39.070  27.179  1.00  0.00    -0.289 OA
ATOM      5  C   UNL     1      28.244  39.322  25.543  1.00  0.00     0.107 A 
ATOM      6  C   UNL     1      27.601  40.341  24.779  1.00  0.00     0.134 A 
ATOM      7  C   UNL     1      28.294  40.957  23.729  1.00  0.00     0.093 A 
ATOM      8  C   UNL     1      29.581  40.551  23.379  1.00  0.00     0.123 A 
ATOM      9  C   UNL     1      30.199  39.519  24.086  1.00  0.00     0.094 A 
ATOM     10  C   UNL     1      29.548  38.908  25.160  1.00  0.00     0.146 A 
ATOM     11  O   UNL     1      30.176  37.938  25.817  1.00  0.00    -0.456 OA
ENDROOT
BRANCH   1  12
ATOM     12  C   UNL     1      30.446  36.230  27.514  1.00  0.00     0.021 A 
ATOM     13  C   UNL     1      30.115  34.872  27.356  1.00  0.00     0.016 A 
ATOM     14  C   UNL     1      30.882  33.879  27.971  1.00  0.00     0.051 A 
ATOM     15  C   UNL     1      31.996  34.223  28.746  1.00  0.00     0.157 A 
ATOM     16  C   UNL     1      31.574  36.568  28.283  1.00  0.00     0.062 A 
ATOM     17  C   UNL     1      32.344  35.575  28.900  1.00  0.00     0.158 A 
BRANCH  15  18
ATOM     18  O   UNL     1      32.758  33.230  29.360  1.00  0.00    -0.504 OA
ATOM     19  H   UNL     1      32.324  32.452  29.844  1.00  0.00     0.293 HD
ENDBRANCH  15  18
BRANCH  17  20
ATOM     20  O   UNL     1      33.449  35.952  29.664  1.00  0.00    -0.504 OA
ATOM     21  H   UNL     1      34.379  35.596  29.476  1.00  0.00     0.293 HD
ENDBRANCH  17  20
ENDBRANCH   1  12
BRANCH   6  22
ATOM     22  O   UNL     1      26.285  40.762  24.990  1.00  0.00    -0.507 OA
ATOM     23  H   UNL     1      25.718  41.245  24.310  1.00  0.00     0.293 HD
ENDBRANCH   6  22
BRANCH   8  24
ATOM     24  O   UNL     1      30.234  41.177  22.320  1.00  0.00    -0.508 OA
ATOM     25  H   UNL     1      29.720  41.606  21.559  1.00  0.00     0.293 HD
ENDBRANCH   8  24
TORSDOF 5
ENDMDL
MODEL 4
REMARK VINA RESULT:     1.887      1.037      2.625
REMARK INTER + INTRA:           1.946
REMARK INTER:                   2.208
REMARK INTRA:                  -0.262
REMARK UNBOUND:                -0.272
REMARK SMILES O=c1cc(-c2ccc(O)c(O)c2)oc2cc(O)cc(O)c12
REMARK SMILES IDX 4 1 3 2 2 3 1 4 21 5 19 6 18 7 16 8 15 9 14 10 13 11 5 12
REMARK SMILES IDX 6 13 7 14 8 15 12 16 10 17 9 18 11 20 20 22 17 24
REMARK H PARENT 9 19 11 21 20 23 17 25
REMARK Flexibility Score: inf
ROOT
ATOM      1  C   UNL     1      30.474  37.393  27.573  1.00  0.00     0.138 A 
ATOM      2  C   UNL     1      31.136  36.213  27.936  1.00  0.00     0.100 A 
ATOM      3  C   UNL     1      30.640  34.981  27.503  1.00  0.00     0.197 A 
ATOM      4  O   UNL     1      31.220  33.936  27.896  1.00  0.00    -0.289 OA
ATOM      5  C   UNL     1      29.493  34.937  26.675  1.00  0.00     0.107 A 
ATOM      6  C   UNL     1      28.923  33.743  26.141  1.00  0.00     0.134 A 
ATOM      7  C   UNL     1      27.719  33.812  25.429  1.00  0.00     0.093 A 
ATOM      8  C   UNL     1      27.097  35.035  25.182  1.00  0.00     0.123 A 
ATOM      9  C   UNL     1      27.674  36.215  25.655  1.00  0.00     0.094 A 
ATOM     10  C   UNL     1      28.856  36.176  26.397  1.00  0.00     0.146 A 
ATOM     11  O   UNL     1      29.366  37.320  26.842  1.00  0.00    -0.456 OA
ENDROOT
BRANCH   1  12
ATOM     12  C   UNL     1      30.957  38.728  28.006  1.00  0.00     0.021 A 
ATOM     13  C   UNL     1      30.415  39.384  29.126  1.00  0.00     0.016 A 
ATOM     14  C   UNL     1      30.896  40.636  29.518  1.00  0.00     0.051 A 
ATOM     15  C   UNL     1      31.933  41.251  28.804  1.00  0.00     0.157 A 
ATOM     16  C   UNL     1      32.007  39.346  27.302  1.00  0.00     0.062 A 
ATOM     17  C   UNL     1      32.491  40.600  27.692  1.00  0.00     0.158 A 
BRANCH  15  18
ATOM     18  O   UNL     1      32.409  42.500  29.195  1.00  0.00    -0.504 OA
ATOM     19  H   UNL     1      33.400  42.714  29.198  1.00  0.00     0.293 HD
ENDBRANCH  15  18
BRANCH  17  20
ATOM     20  O   UNL     1      33.526  41.183  26.960  1.00  0.00    -0.504 OA
ATOM     21  H   UNL     1      33.355  41.711  26.113  1.00  0.00     0.293 HD
ENDBRANCH  17  20
ENDBRANCH   1  12
BRANCH   6  22
ATOM     22  O   UNL     1      29.507  32.479  26.256  1.00  0.00    -0.507 OA
ATOM     23  H   UNL     1      30.094  32.048  25.558  1.00  0.00     0.293 HD
ENDBRANCH   6  22
BRANCH   8  24
ATOM     24  O   UNL     1      25.907  35.067  24.458  1.00  0.00    -0.508 OA
ATOM     25  H   UNL     1      25.763  35.728  23.703  1.00  0.00     0.293 HD
ENDBRANCH   8  24
TORSDOF 5
ENDMDL
MODEL 5
REMARK VINA RESULT:     2.400      3.325      5.862
REMARK INTER + INTRA:           2.549
REMARK INTER:                   2.812
REMARK INTRA:                  -0.263
REMARK UNBOUND:                -0.272
REMARK SMILES O=c1cc(-c2ccc(O)c(O)c2)oc2cc(O)cc(O)c12
REMARK SMILES IDX 4 1 3 2 2 3 1 4 21 5 19 6 18 7 16 8 15 9 14 10 13 11 5 12
REMARK SMILES IDX 6 13 7 14 8 15 12 16 10 17 9 18 11 20 20 22 17 24
REMARK H PARENT 9 19 11 21 20 23 17 25
REMARK Flexibility Score: inf
ROOT
ATOM      1  C   UNL     1      30.494  38.312  26.653  1.00  0.00     0.138 A 
ATOM      2  C   UNL     1      31.230  39.199  27.451  1.00  0.00     0.100 A 
ATOM      3  C   UNL     1      30.811  39.465  28.756  1.00  0.00     0.197 A 
ATOM      4  O   UNL     1      31.457  40.312  29.425  1.00  0.00    -0.289 OA
ATOM      5  C   UNL     1      29.667  38.813  29.274  1.00  0.00     0.107 A 
ATOM      6  C   UNL     1      29.171  38.976  30.602  1.00  0.00     0.134 A 
ATOM      7  C   UNL     1      27.963  38.368  30.966  1.00  0.00     0.093 A 
ATOM      8  C   UNL     1      27.265  37.558  30.071  1.00  0.00     0.123 A 
ATOM      9  C   UNL     1      27.768  37.349  28.786  1.00  0.00     0.094 A 
ATOM     10  C   UNL     1      28.953  37.968  28.382  1.00  0.00     0.146 A 
ATOM     11  O   UNL     1      29.391  37.756  27.145  1.00  0.00    -0.456 OA
ENDROOT
BRANCH   1  12
ATOM     12  C   UNL     1      30.895  37.993  25.260  1.00  0.00     0.021 A 
ATOM     13  C   UNL     1      30.416  38.736  24.165  1.00  0.00     0.016 A 
ATOM     14  C   UNL     1      30.818  38.421  22.864  1.00  0.00     0.051 A 
ATOM     15  C   UNL     1      31.710  37.366  22.635  1.00  0.00     0.157 A 
ATOM     16  C   UNL     1      31.801  36.944  25.023  1.00  0.00     0.062 A 
ATOM     17  C   UNL     1      32.204  36.626  23.721  1.00  0.00     0.158 A 
BRANCH  15  18
ATOM     18  O   UNL     1      32.107  37.053  21.336  1.00  0.00    -0.504 OA
ATOM     19  H   UNL     1      32.926  36.484  21.154  1.00  0.00     0.293 HD
ENDBRANCH  15  18
BRANCH  17  20
ATOM     20  O   UNL     1      33.096  35.570  23.527  1.00  0.00    -0.504 OA
ATOM     21  H   UNL     1      34.052  35.606  23.861  1.00  0.00     0.293 HD
ENDBRANCH  17  20
ENDBRANCH   1  12
BRANCH   6  22
ATOM     22  O   UNL     1      29.834  39.694  31.600  1.00  0.00    -0.507 OA
ATOM     23  H   UNL     1      29.457  40.498  32.080  1.00  0.00     0.293 HD
ENDBRANCH   6  22
BRANCH   8  24
ATOM     24  O   UNL     1      26.073  36.959  30.473  1.00  0.00    -0.508 OA
ATOM     25  H   UNL     1      25.284  37.509  30.793  1.00  0.00     0.293 HD
ENDBRANCH   8  24
TORSDOF 5
ENDMDL
