MODEL 1
REMARK VINA RESULT:    -3.689      0.000      0.000
REMARK INTER + INTRA:          -5.291
REMARK INTER:                  -4.660
REMARK INTRA:                  -0.632
REMARK UNBOUND:                -0.632
REMARK SMILES CC(C)=CCCC(C)=CCO
REMARK SMILES IDX 7 1 9 2 8 3 6 4 5 5 4 6 1 7 2 8 3 9 10 10 11 11
REMARK H PARENT 11 12
REMARK Flexibility Score: inf
ROOT
ATOM      1  C   UNL     1     -13.400  -8.426   4.840  1.00  0.00    -0.075 C 
ATOM      2  C   UNL     1     -14.403  -7.565   4.564  1.00  0.00    -0.000 C 
ATOM      3  C   UNL     1     -12.363  -8.786   3.802  1.00  0.00     0.039 C 
ENDROOT
BRANCH   1   4
ATOM      4  C   UNL     1     -13.310  -9.043   6.222  1.00  0.00     0.034 C 
BRANCH   4   5
ATOM      5  C   UNL     1     -14.586  -9.815   6.588  1.00  0.00     0.032 C 
BRANCH   5   6
ATOM      6  C   UNL     1     -14.685 -11.121   5.835  1.00  0.00    -0.028 C 
ATOM      7  C   UNL     1     -15.633 -12.779   4.290  1.00  0.00     0.039 C 
ATOM      8  C   UNL     1     -15.637 -11.410   4.921  1.00  0.00    -0.080 C 
ATOM      9  C   UNL     1     -16.683 -10.402   4.508  1.00  0.00     0.039 C 
ENDBRANCH   5   6
ENDBRANCH   4   5
ENDBRANCH   1   4
BRANCH   2  10
ATOM     10  C   UNL     1     -14.578  -6.906   3.220  1.00  0.00     0.183 C 
BRANCH  10  11
ATOM     11  O   UNL     1     -15.318  -5.722   3.351  1.00  0.00    -0.392 OA
ATOM     12  H   UNL     1     -14.696  -5.037   3.712  1.00  0.00     0.210 HD
ENDBRANCH  10  11
ENDBRANCH   2  10
TORSDOF 5
ENDMDL
MODEL 2
REMARK VINA RESULT:    -3.640     13.988     15.388
REMARK INTER + INTRA:          -5.229
REMARK INTER:                  -4.731
REMARK INTRA:                  -0.498
REMARK UNBOUND:                -0.632
REMARK SMILES CC(C)=CCCC(C)=CCO
REMARK SMILES IDX 7 1 9 2 8 3 6 4 5 5 4 6 1 7 2 8 3 9 10 10 11 11
REMARK H PARENT 11 12
REMARK Flexibility Score: inf
ROOT
ATOM      1  C   UNL     1      -9.550 -13.615  18.455  1.00  0.00    -0.075 C 
ATOM      2  C   UNL     1      -8.779 -12.583  18.051  1.00  0.00    -0.000 C 
ATOM      3  C   UNL     1      -9.918 -14.738  17.514  1.00  0.00     0.039 C 
ENDROOT
BRANCH   1   4
ATOM      4  C   UNL     1     -10.056 -13.650  19.883  1.00  0.00     0.034 C 
BRANCH   4   5
ATOM      5  C   UNL     1     -10.943 -14.875  20.147  1.00  0.00     0.032 C 
BRANCH   5   6
ATOM      6  C   UNL     1     -12.273 -14.483  20.747  1.00  0.00    -0.028 C 
ATOM      7  C   UNL     1     -14.657 -13.892  20.780  1.00  0.00     0.039 C 
ATOM      8  C   UNL     1     -13.419 -14.338  20.046  1.00  0.00    -0.080 C 
ATOM      9  C   UNL     1     -13.493 -14.625  18.565  1.00  0.00     0.039 C 
ENDBRANCH   5   6
ENDBRANCH   4   5
ENDBRANCH   1   4
BRANCH   2  10
ATOM     10  C   UNL     1      -8.234 -12.458  16.651  1.00  0.00     0.183 C 
BRANCH  10  11
ATOM     11  O   UNL     1      -8.738 -11.304  16.034  1.00  0.00    -0.392 OA
ATOM     12  H   UNL     1      -8.426 -10.532  16.576  1.00  0.00     0.210 HD
ENDBRANCH  10  11
ENDBRANCH   2  10
TORSDOF 5
ENDMDL
MODEL 3
REMARK VINA RESULT:    -3.608      2.141      2.918
REMARK INTER + INTRA:          -5.189
REMARK INTER:                  -4.626
REMARK INTRA:                  -0.563
REMARK UNBOUND:                -0.632
REMARK SMILES CC(C)=CCCC(C)=CCO
REMARK SMILES IDX 7 1 9 2 8 3 6 4 5 5 4 6 1 7 2 8 3 9 10 10 11 11
REMARK H PARENT 11 12
REMARK Flexibility Score: inf
ROOT
ATOM      1  C   UNL     1     -13.946  -8.032   4.306  1.00  0.00    -0.075 C 
ATOM      2  C   UNL     1     -13.513  -8.410   5.528  1.00  0.00    -0.000 C 
ATOM      3  C   UNL     1     -13.021  -8.021   3.112  1.00  0.00     0.039 C 
ENDROOT
BRANCH   1   4
ATOM      4  C   UNL     1     -15.391  -7.611   4.128  1.00  0.00     0.034 C 
BRANCH   4   5
ATOM      5  C   UNL     1     -16.346  -8.467   4.973  1.00  0.00     0.032 C 
BRANCH   5   6
ATOM      6  C   UNL     1     -16.918  -9.617   4.178  1.00  0.00    -0.028 C 
ATOM      7  C   UNL     1     -17.197 -11.942   3.438  1.00  0.00     0.039 C 
ATOM      8  C   UNL     1     -16.574 -10.912   4.345  1.00  0.00    -0.080 C 
ATOM      9  C   UNL     1     -15.605 -11.352   5.417  1.00  0.00     0.039 C 
ENDBRANCH   5   6
ENDBRANCH   4   5
ENDBRANCH   1   4
BRANCH   2  10
ATOM     10  C   UNL     1     -12.094  -8.838   5.805  1.00  0.00     0.183 C 
BRANCH  10  11
ATOM     11  O   UNL     1     -11.806  -8.713   7.172  1.00  0.00    -0.392 OA
ATOM     12  H   UNL     1     -12.639  -8.395   7.610  1.00  0.00     0.210 HD
ENDBRANCH  10  11
ENDBRANCH   2  10
TORSDOF 5
ENDMDL
MODEL 4
REMARK VINA RESULT:    -3.576     14.268     15.838
REMARK INTER + INTRA:          -5.148
REMARK INTER:                  -4.681
REMARK INTRA:                  -0.467
REMARK UNBOUND:                -0.632
REMARK SMILES CC(C)=CCCC(C)=CCO
REMARK SMILES IDX 7 1 9 2 8 3 6 4 5 5 4 6 1 7 2 8 3 9 10 10 11 11
REMARK H PARENT 11 12
REMARK Flexibility Score: inf
ROOT
ATOM      1  C   UNL     1     -12.527 -14.506  19.383  1.00  0.00    -0.075 C 
ATOM      2  C   UNL     1     -13.864 -14.332  19.447  1.00  0.00    -0.000 C 
ATOM      3  C   UNL     1     -11.664 -14.434  20.621  1.00  0.00     0.039 C 
ENDROOT
BRANCH   1   4
ATOM      4  C   UNL     1     -11.877 -14.780  18.041  1.00  0.00     0.034 C 
BRANCH   4   5
ATOM      5  C   UNL     1     -10.375 -15.066  18.180  1.00  0.00     0.032 C 
BRANCH   5   6
ATOM      6  C   UNL     1      -9.555 -14.226  17.229  1.00  0.00    -0.028 C 
ATOM      7  C   UNL     1      -8.197 -12.320  16.486  1.00  0.00     0.039 C 
ATOM      8  C   UNL     1      -8.937 -13.073  17.561  1.00  0.00    -0.080 C 
ATOM      9  C   UNL     1      -8.952 -12.533  18.972  1.00  0.00     0.039 C 
ENDBRANCH   5   6
ENDBRANCH   4   5
ENDBRANCH   1   4
BRANCH   2  10
ATOM     10  C   UNL     1     -14.600 -14.048  20.732  1.00  0.00     0.183 C 
BRANCH  10  11
ATOM     11  O   UNL     1     -15.984 -14.043  20.509  1.00  0.00    -0.392 OA
ATOM     12  H   UNL     1     -16.114 -14.094  19.526  1.00  0.00     0.210 HD
ENDBRANCH  10  11
ENDBRANCH   2  10
TORSDOF 5
ENDMDL
MODEL 5
REMARK VINA RESULT:    -3.539      2.848      4.916
REMARK INTER + INTRA:          -5.101
REMARK INTER:                  -4.566
REMARK INTRA:                  -0.535
REMARK UNBOUND:                -0.632
REMARK SMILES CC(C)=CCCC(C)=CCO
REMARK SMILES IDX 7 1 9 2 8 3 6 4 5 5 4 6 1 7 2 8 3 9 10 10 11 11
REMARK H PARENT 11 12
REMARK Flexibility Score: inf
ROOT
ATOM      1  C   UNL     1     -16.084 -10.885   4.616  1.00  0.00    -0.075 C 
ATOM      2  C   UNL     1     -16.442 -12.083   5.126  1.00  0.00    -0.000 C 
ATOM      3  C   UNL     1     -15.653 -10.740   3.175  1.00  0.00     0.039 C 
ENDROOT
BRANCH   1   4
ATOM      4  C   UNL     1     -16.116  -9.659   5.507  1.00  0.00     0.034 C 
BRANCH   4   5
ATOM      5  C   UNL     1     -15.134  -8.579   5.031  1.00  0.00     0.032 C 
BRANCH   5   6
ATOM      6  C   UNL     1     -13.896  -8.528   5.895  1.00  0.00    -0.028 C 
ATOM      7  C   UNL     1     -11.513  -8.734   6.453  1.00  0.00     0.039 C 
ATOM      8  C   UNL     1     -12.643  -8.773   5.456  1.00  0.00    -0.080 C 
ATOM      9  C   UNL     1     -12.345  -9.064   4.004  1.00  0.00     0.039 C 
ENDBRANCH   5   6
ENDBRANCH   4   5
ENDBRANCH   1   4
BRANCH   2  10
ATOM     10  C   UNL     1     -16.437 -13.358   4.321  1.00  0.00     0.183 C 
BRANCH  10  11
ATOM     11  O   UNL     1     -15.239 -14.058   4.527  1.00  0.00    -0.392 OA
ATOM     12  H   UNL     1     -15.099 -14.099   5.509  1.00  0.00     0.210 HD
ENDBRANCH  10  11
ENDBRANCH   2  10
TORSDOF 5
ENDMDL
MODEL 6
REMARK VINA RESULT:    -3.477     15.202     16.928
REMARK INTER + INTRA:          -5.024
REMARK INTER:                  -4.617
REMARK INTRA:                  -0.407
REMARK UNBOUND:                -0.632
REMARK SMILES CC(C)=CCCC(C)=CCO
REMARK SMILES IDX 7 1 9 2 8 3 6 4 5 5 4 6 1 7 2 8 3 9 10 10 11 11
REMARK H PARENT 11 12
REMARK Flexibility Score: inf
ROOT
ATOM      1  C   UNL     1      -9.081 -13.250  18.667  1.00  0.00    -0.075 C 
ATOM      2  C   UNL     1      -8.133 -12.657  17.909  1.00  0.00    -0.000 C 
ATOM      3  C   UNL     1     -10.321 -13.852  18.048  1.00  0.00     0.039 C 
ENDROOT
BRANCH   1   4
ATOM      4  C   UNL     1      -8.897 -13.314  20.170  1.00  0.00     0.034 C 
BRANCH   4   5
ATOM      5  C   UNL     1      -7.415 -13.279  20.568  1.00  0.00     0.032 C 
BRANCH   5   6
ATOM      6  C   UNL     1      -7.073 -12.029  21.345  1.00  0.00    -0.028 C 
ATOM      7  C   UNL     1      -5.705 -10.135  22.101  1.00  0.00     0.039 C 
ATOM      8  C   UNL     1      -5.922 -11.336  21.217  1.00  0.00    -0.080 C 
ATOM      9  C   UNL     1      -4.864 -11.719  20.209  1.00  0.00     0.039 C 
ENDBRANCH   5   6
ENDBRANCH   4   5
ENDBRANCH   1   4
BRANCH   2  10
ATOM     10  C   UNL     1      -8.230 -12.539  16.410  1.00  0.00     0.183 C 
BRANCH  10  11
ATOM     11  O   UNL     1      -8.707 -11.271  16.051  1.00  0.00    -0.392 OA
ATOM     12  H   UNL     1      -9.644 -11.217  16.376  1.00  0.00     0.210 HD
ENDBRANCH  10  11
ENDBRANCH   2  10
TORSDOF 5
ENDMDL
MODEL 7
REMARK VINA RESULT:    -3.471      2.228      2.993
REMARK INTER + INTRA:          -5.016
REMARK INTER:                  -4.375
REMARK INTRA:                  -0.641
REMARK UNBOUND:                -0.632
REMARK SMILES CC(C)=CCCC(C)=CCO
REMARK SMILES IDX 7 1 9 2 8 3 6 4 5 5 4 6 1 7 2 8 3 9 10 10 11 11
REMARK H PARENT 11 12
REMARK Flexibility Score: inf
ROOT
ATOM      1  C   UNL     1     -13.451  -8.516   4.626  1.00  0.00    -0.075 C 
ATOM      2  C   UNL     1     -13.262  -9.084   3.416  1.00  0.00    -0.000 C 
ATOM      3  C   UNL     1     -12.576  -8.868   5.806  1.00  0.00     0.039 C 
ENDROOT
BRANCH   1   4
ATOM      4  C   UNL     1     -14.565  -7.504   4.805  1.00  0.00     0.034 C 
BRANCH   4   5
ATOM      5  C   UNL     1     -15.795  -8.120   5.486  1.00  0.00     0.032 C 
BRANCH   5   6
ATOM      6  C   UNL     1     -16.640  -8.904   4.510  1.00  0.00    -0.028 C 
ATOM      7  C   UNL     1     -17.525 -10.889   3.365  1.00  0.00     0.039 C 
ATOM      8  C   UNL     1     -16.667 -10.252   4.428  1.00  0.00    -0.080 C 
ATOM      9  C   UNL     1     -15.882 -11.129   5.375  1.00  0.00     0.039 C 
ENDBRANCH   5   6
ENDBRANCH   4   5
ENDBRANCH   1   4
BRANCH   2  10
ATOM     10  C   UNL     1     -12.186 -10.104   3.141  1.00  0.00     0.183 C 
BRANCH  10  11
ATOM     11  O   UNL     1     -12.727 -11.397   3.154  1.00  0.00    -0.392 OA
ATOM     12  H   UNL     1     -13.249 -11.495   2.315  1.00  0.00     0.210 HD
ENDBRANCH  10  11
ENDBRANCH   2  10
TORSDOF 5
ENDMDL
MODEL 8
REMARK VINA RESULT:    -3.465      2.669      4.644
REMARK INTER + INTRA:          -5.008
REMARK INTER:                  -4.306
REMARK INTRA:                  -0.701
REMARK UNBOUND:                -0.632
REMARK SMILES CC(C)=CCCC(C)=CCO
REMARK SMILES IDX 7 1 9 2 8 3 6 4 5 5 4 6 1 7 2 8 3 9 10 10 11 11
REMARK H PARENT 11 12
REMARK Flexibility Score: inf
ROOT
ATOM      1  C   UNL     1     -16.125 -10.289   5.232  1.00  0.00    -0.075 C 
ATOM      2  C   UNL     1     -15.919 -11.622   5.296  1.00  0.00    -0.000 C 
ATOM      3  C   UNL     1     -16.975  -9.676   4.144  1.00  0.00     0.039 C 
ENDROOT
BRANCH   1   4
ATOM      4  C   UNL     1     -15.490  -9.388   6.273  1.00  0.00     0.034 C 
BRANCH   4   5
ATOM      5  C   UNL     1     -13.959  -9.375   6.163  1.00  0.00     0.032 C 
BRANCH   5   6
ATOM      6  C   UNL     1     -13.485  -8.465   5.055  1.00  0.00    -0.028 C 
ATOM      7  C   UNL     1     -12.449  -7.853   2.914  1.00  0.00     0.039 C 
ATOM      8  C   UNL     1     -12.918  -8.887   3.904  1.00  0.00    -0.080 C 
ATOM      9  C   UNL     1     -12.758 -10.354   3.581  1.00  0.00     0.039 C 
ENDBRANCH   5   6
ENDBRANCH   4   5
ENDBRANCH   1   4
BRANCH   2  10
ATOM     10  C   UNL     1     -16.501 -12.596   4.304  1.00  0.00     0.183 C 
BRANCH  10  11
ATOM     11  O   UNL     1     -17.524 -13.346   4.902  1.00  0.00    -0.392 OA
ATOM     12  H   UNL     1     -18.344 -13.187   4.365  1.00  0.00     0.210 HD
ENDBRANCH  10  11
ENDBRANCH   2  10
TORSDOF 5
ENDMDL
