MODEL 1
REMARK VINA RESULT:    -5.453      0.000      0.000
REMARK INTER + INTRA:         -12.621
REMARK INTER:                 -10.553
REMARK INTRA:                  -2.068
REMARK UNBOUND:                -2.068
REMARK SMILES CCCCCCCCCCCCCCCCCC(=O)[O-]
REMARK SMILES IDX 10 1 11 2 12 3 13 4 14 5 15 6 16 7 17 8 18 9 19 10 20 11
REMARK SMILES IDX 9 12 8 13 7 14 6 15 5 16 4 17 3 18 2 19 1 20
REMARK H PARENT
REMARK Flexibility Score: inf
ROOT
ATOM      1  C   UNL     1     -29.532  -2.002  21.898  1.00  0.00     0.000 C 
ENDROOT
BRANCH   1   2
ATOM      2  C   UNL     1     -28.434  -2.221  20.849  1.00  0.00     0.000 C 
BRANCH   2   3
ATOM      3  C   UNL     1     -28.423  -1.136  19.761  1.00  0.00     0.000 C 
BRANCH   3   4
ATOM      4  C   UNL     1     -28.110  -1.678  18.350  1.00  0.00     0.000 C 
BRANCH   4   5
ATOM      5  C   UNL     1     -29.019  -2.860  17.969  1.00  0.00     0.000 C 
BRANCH   5   6
ATOM      6  C   UNL     1     -28.629  -3.503  16.630  1.00  0.00     0.000 C 
BRANCH   6   7
ATOM      7  C   UNL     1     -29.199  -2.748  15.420  1.00  0.00     0.006 C 
BRANCH   7   8
ATOM      8  C   UNL     1     -28.467  -3.139  14.131  1.00  0.00     0.053 C 
BRANCH   8   9
ATOM      9  C   UNL     1     -27.067  -2.617  14.149  1.00  0.00     0.041 C 
ATOM     10  O   UNL     1     -26.853  -1.378  14.226  1.00  0.00    -0.550 OA
ATOM     11  O   UNL     1     -25.996  -3.502  14.147  1.00  0.00    -0.550 OA
ENDBRANCH   8   9
ENDBRANCH   7   8
ENDBRANCH   6   7
ENDBRANCH   5   6
ENDBRANCH   4   5
ENDBRANCH   3   4
ENDBRANCH   2   3
ENDBRANCH   1   2
BRANCH   1  12
ATOM     12  C   UNL     1     -30.485  -0.875  21.472  1.00  0.00     0.000 C 
BRANCH  12  13
ATOM     13  C   UNL     1     -31.204  -0.220  22.665  1.00  0.00    -0.000 C 
BRANCH  13  14
ATOM     14  C   UNL     1     -30.965  -0.901  24.030  1.00  0.00    -0.000 C 
BRANCH  14  15
ATOM     15  C   UNL     1     -30.354   0.007  25.112  1.00  0.00    -0.000 C 
BRANCH  15  16
ATOM     16  C   UNL     1     -29.268  -0.703  25.938  1.00  0.00    -0.000 C 
BRANCH  16  17
ATOM     17  C   UNL     1     -27.854  -0.197  25.607  1.00  0.00    -0.000 C 
BRANCH  17  18
ATOM     18  C   UNL     1     -27.133  -1.096  24.589  1.00  0.00    -0.000 C 
BRANCH  18  19
ATOM     19  C   UNL     1     -26.491  -0.292  23.446  1.00  0.00    -0.003 C 
ATOM     20  C   UNL     1     -27.359   0.883  22.991  1.00  0.00     0.004 C 
ENDBRANCH  18  19
ENDBRANCH  17  18
ENDBRANCH  16  17
ENDBRANCH  15  16
ENDBRANCH  14  15
ENDBRANCH  13  14
ENDBRANCH  12  13
ENDBRANCH   1  12
TORSDOF 16
ENDMDL
MODEL 2
REMARK VINA RESULT:    -5.433      1.797      3.095
REMARK INTER + INTRA:         -12.583
REMARK INTER:                 -10.785
REMARK INTRA:                  -1.798
REMARK UNBOUND:                -2.068
REMARK SMILES CCCCCCCCCCCCCCCCCC(=O)[O-]
REMARK SMILES IDX 10 1 11 2 12 3 13 4 14 5 15 6 16 7 17 8 18 9 19 10 20 11
REMARK SMILES IDX 9 12 8 13 7 14 6 15 5 16 4 17 3 18 2 19 1 20
REMARK H PARENT
REMARK Flexibility Score: inf
ROOT
ATOM      1  C   UNL     1     -27.332  -1.419  21.298  1.00  0.00     0.000 C 
ENDROOT
BRANCH   1   2
ATOM      2  C   UNL     1     -28.603  -2.235  21.030  1.00  0.00     0.000 C 
BRANCH   2   3
ATOM      3  C   UNL     1     -29.255  -1.899  19.679  1.00  0.00     0.000 C 
BRANCH   3   4
ATOM      4  C   UNL     1     -28.253  -1.843  18.505  1.00  0.00     0.000 C 
BRANCH   4   5
ATOM      5  C   UNL     1     -28.718  -2.689  17.307  1.00  0.00     0.000 C 
BRANCH   5   6
ATOM      6  C   UNL     1     -27.785  -2.561  16.093  1.00  0.00     0.000 C 
BRANCH   6   7
ATOM      7  C   UNL     1     -28.539  -2.627  14.756  1.00  0.00     0.006 C 
BRANCH   7   8
ATOM      8  C   UNL     1     -28.495  -4.042  14.168  1.00  0.00     0.053 C 
BRANCH   8   9
ATOM      9  C   UNL     1     -29.710  -4.812  14.571  1.00  0.00     0.041 C 
ATOM     10  O   UNL     1     -29.648  -5.652  15.507  1.00  0.00    -0.550 OA
ATOM     11  O   UNL     1     -30.930  -4.553  13.958  1.00  0.00    -0.550 OA
ENDBRANCH   8   9
ENDBRANCH   7   8
ENDBRANCH   6   7
ENDBRANCH   5   6
ENDBRANCH   4   5
ENDBRANCH   3   4
ENDBRANCH   2   3
ENDBRANCH   1   2
BRANCH   1  12
ATOM     12  C   UNL     1     -27.632  -0.209  22.194  1.00  0.00     0.000 C 
BRANCH  12  13
ATOM     13  C   UNL     1     -26.742  -0.160  23.449  1.00  0.00    -0.000 C 
BRANCH  13  14
ATOM     14  C   UNL     1     -26.738  -1.448  24.299  1.00  0.00    -0.000 C 
BRANCH  14  15
ATOM     15  C   UNL     1     -28.128  -1.952  24.725  1.00  0.00    -0.000 C 
BRANCH  15  16
ATOM     16  C   UNL     1     -28.830  -1.000  25.708  1.00  0.00    -0.000 C 
BRANCH  16  17
ATOM     17  C   UNL     1     -30.290  -0.722  25.315  1.00  0.00    -0.000 C 
BRANCH  17  18
ATOM     18  C   UNL     1     -30.766  -1.616  24.158  1.00  0.00    -0.000 C 
BRANCH  18  19
ATOM     19  C   UNL     1     -31.445  -0.814  23.036  1.00  0.00    -0.003 C 
ATOM     20  C   UNL     1     -30.991   0.647  22.997  1.00  0.00     0.004 C 
ENDBRANCH  18  19
ENDBRANCH  17  18
ENDBRANCH  16  17
ENDBRANCH  15  16
ENDBRANCH  14  15
ENDBRANCH  13  14
ENDBRANCH  12  13
ENDBRANCH   1  12
TORSDOF 16
ENDMDL
MODEL 3
REMARK VINA RESULT:    -5.391      7.532     12.088
REMARK INTER + INTRA:         -12.502
REMARK INTER:                 -10.672
REMARK INTRA:                  -1.831
REMARK UNBOUND:                -2.068
REMARK SMILES CCCCCCCCCCCCCCCCCC(=O)[O-]
REMARK SMILES IDX 10 1 11 2 12 3 13 4 14 5 15 6 16 7 17 8 18 9 19 10 20 11
REMARK SMILES IDX 9 12 8 13 7 14 6 15 5 16 4 17 3 18 2 19 1 20
REMARK H PARENT
REMARK Flexibility Score: inf
ROOT
ATOM      1  C   UNL     1     -29.993   0.132  26.585  1.00  0.00     0.000 C 
ENDROOT
BRANCH   1   2
ATOM      2  C   UNL     1     -30.142   1.133  27.737  1.00  0.00     0.000 C 
BRANCH   2   3
ATOM      3  C   UNL     1     -29.272   0.778  28.954  1.00  0.00     0.000 C 
BRANCH   3   4
ATOM      4  C   UNL     1     -29.709   1.487  30.254  1.00  0.00     0.000 C 
BRANCH   4   5
ATOM      5  C   UNL     1     -28.968   0.941  31.487  1.00  0.00     0.000 C 
BRANCH   5   6
ATOM      6  C   UNL     1     -29.047   1.888  32.695  1.00  0.00     0.000 C 
BRANCH   6   7
ATOM      7  C   UNL     1     -29.944   3.107  32.435  1.00  0.00     0.006 C 
BRANCH   7   8
ATOM      8  C   UNL     1     -31.097   3.168  33.444  1.00  0.00     0.053 C 
BRANCH   8   9
ATOM      9  C   UNL     1     -32.139   2.153  33.105  1.00  0.00     0.041 C 
ATOM     10  O   UNL     1     -32.847   2.291  32.072  1.00  0.00    -0.550 OA
ATOM     11  O   UNL     1     -32.284   1.017  33.893  1.00  0.00    -0.550 OA
ENDBRANCH   8   9
ENDBRANCH   7   8
ENDBRANCH   6   7
ENDBRANCH   5   6
ENDBRANCH   4   5
ENDBRANCH   3   4
ENDBRANCH   2   3
ENDBRANCH   1   2
BRANCH   1  12
ATOM     12  C   UNL     1     -28.623  -0.562  26.631  1.00  0.00     0.000 C 
BRANCH  12  13
ATOM     13  C   UNL     1     -27.627   0.015  25.608  1.00  0.00    -0.000 C 
BRANCH  13  14
ATOM     14  C   UNL     1     -27.134  -0.982  24.538  1.00  0.00    -0.000 C 
BRANCH  14  15
ATOM     15  C   UNL     1     -27.943  -2.289  24.445  1.00  0.00    -0.000 C 
BRANCH  15  16
ATOM     16  C   UNL     1     -28.830  -2.350  23.190  1.00  0.00    -0.000 C 
BRANCH  16  17
ATOM     17  C   UNL     1     -30.259  -1.850  23.456  1.00  0.00    -0.000 C 
BRANCH  17  18
ATOM     18  C   UNL     1     -30.727  -0.826  22.409  1.00  0.00    -0.000 C 
BRANCH  18  19
ATOM     19  C   UNL     1     -29.620   0.169  22.024  1.00  0.00    -0.003 C 
ATOM     20  C   UNL     1     -29.600   1.407  22.923  1.00  0.00     0.004 C 
ENDBRANCH  18  19
ENDBRANCH  17  18
ENDBRANCH  16  17
ENDBRANCH  15  16
ENDBRANCH  14  15
ENDBRANCH  13  14
ENDBRANCH  12  13
ENDBRANCH   1  12
TORSDOF 16
ENDMDL
MODEL 4
REMARK VINA RESULT:    -5.331      4.337      8.247
REMARK INTER + INTRA:         -12.386
REMARK INTER:                 -10.239
REMARK INTRA:                  -2.147
REMARK UNBOUND:                -2.068
REMARK SMILES CCCCCCCCCCCCCCCCCC(=O)[O-]
REMARK SMILES IDX 10 1 11 2 12 3 13 4 14 5 15 6 16 7 17 8 18 9 19 10 20 11
REMARK SMILES IDX 9 12 8 13 7 14 6 15 5 16 4 17 3 18 2 19 1 20
REMARK H PARENT
REMARK Flexibility Score: inf
ROOT
ATOM      1  C   UNL     1     -30.677   0.380  22.980  1.00  0.00     0.000 C 
ENDROOT
BRANCH   1   2
ATOM      2  C   UNL     1     -29.489   1.055  22.284  1.00  0.00     0.000 C 
BRANCH   2   3
ATOM      3  C   UNL     1     -28.277   1.238  23.212  1.00  0.00     0.000 C 
BRANCH   3   4
ATOM      4  C   UNL     1     -27.123   0.255  22.924  1.00  0.00     0.000 C 
BRANCH   4   5
ATOM      5  C   UNL     1     -26.721  -0.548  24.174  1.00  0.00     0.000 C 
BRANCH   5   6
ATOM      6  C   UNL     1     -27.492  -1.871  24.304  1.00  0.00     0.000 C 
BRANCH   6   7
ATOM      7  C   UNL     1     -28.788  -1.726  25.115  1.00  0.00     0.006 C 
BRANCH   7   8
ATOM      8  C   UNL     1     -28.590  -0.779  26.305  1.00  0.00     0.053 C 
BRANCH   8   9
ATOM      9  C   UNL     1     -29.812   0.055  26.514  1.00  0.00     0.041 C 
ATOM     10  O   UNL     1     -29.709   1.300  26.678  1.00  0.00    -0.550 OA
ATOM     11  O   UNL     1     -31.070  -0.532  26.463  1.00  0.00    -0.550 OA
ENDBRANCH   8   9
ENDBRANCH   7   8
ENDBRANCH   6   7
ENDBRANCH   5   6
ENDBRANCH   4   5
ENDBRANCH   3   4
ENDBRANCH   2   3
ENDBRANCH   1   2
BRANCH   1  12
ATOM     12  C   UNL     1     -31.021  -0.958  22.311  1.00  0.00     0.000 C 
BRANCH  12  13
ATOM     13  C   UNL     1     -30.250  -1.184  20.997  1.00  0.00    -0.000 C 
BRANCH  13  14
ATOM     14  C   UNL     1     -29.112  -2.223  21.076  1.00  0.00    -0.000 C 
BRANCH  14  15
ATOM     15  C   UNL     1     -27.861  -1.883  20.246  1.00  0.00    -0.000 C 
BRANCH  15  16
ATOM     16  C   UNL     1     -28.204  -1.409  18.823  1.00  0.00    -0.000 C 
BRANCH  16  17
ATOM     17  C   UNL     1     -28.636  -2.567  17.908  1.00  0.00    -0.000 C 
BRANCH  17  18
ATOM     18  C   UNL     1     -28.216  -2.345  16.445  1.00  0.00    -0.000 C 
BRANCH  18  19
ATOM     19  C   UNL     1     -28.173  -3.655  15.641  1.00  0.00    -0.003 C 
ATOM     20  C   UNL     1     -29.357  -3.799  14.683  1.00  0.00     0.004 C 
ENDBRANCH  18  19
ENDBRANCH  17  18
ENDBRANCH  16  17
ENDBRANCH  15  16
ENDBRANCH  14  15
ENDBRANCH  13  14
ENDBRANCH  12  13
ENDBRANCH   1  12
TORSDOF 16
ENDMDL
MODEL 5
REMARK VINA RESULT:    -5.330      1.168      2.641
REMARK INTER + INTRA:         -12.383
REMARK INTER:                 -10.606
REMARK INTRA:                  -1.777
REMARK UNBOUND:                -2.068
REMARK SMILES CCCCCCCCCCCCCCCCCC(=O)[O-]
REMARK SMILES IDX 10 1 11 2 12 3 13 4 14 5 15 6 16 7 17 8 18 9 19 10 20 11
REMARK SMILES IDX 9 12 8 13 7 14 6 15 5 16 4 17 3 18 2 19 1 20
REMARK H PARENT
REMARK Flexibility Score: inf
ROOT
ATOM      1  C   UNL     1     -30.777  -1.086  22.757  1.00  0.00     0.000 C 
ENDROOT
BRANCH   1   2
ATOM      2  C   UNL     1     -30.315  -1.393  21.327  1.00  0.00     0.000 C 
BRANCH   2   3
ATOM      3  C   UNL     1     -29.132  -0.518  20.881  1.00  0.00     0.000 C 
BRANCH   3   4
ATOM      4  C   UNL     1     -27.981  -1.318  20.234  1.00  0.00     0.000 C 
BRANCH   4   5
ATOM      5  C   UNL     1     -28.151  -1.448  18.710  1.00  0.00     0.000 C 
BRANCH   5   6
ATOM      6  C   UNL     1     -28.936  -2.704  18.304  1.00  0.00     0.000 C 
BRANCH   6   7
ATOM      7  C   UNL     1     -28.674  -3.124  16.850  1.00  0.00     0.006 C 
BRANCH   7   8
ATOM      8  C   UNL     1     -28.174  -1.939  16.016  1.00  0.00     0.053 C 
BRANCH   8   9
ATOM      9  C   UNL     1     -27.611  -2.418  14.718  1.00  0.00     0.041 C 
ATOM     10  O   UNL     1     -26.859  -1.670  14.038  1.00  0.00    -0.550 OA
ATOM     11  O   UNL     1     -27.862  -3.715  14.289  1.00  0.00    -0.550 OA
ENDBRANCH   8   9
ENDBRANCH   7   8
ENDBRANCH   6   7
ENDBRANCH   5   6
ENDBRANCH   4   5
ENDBRANCH   3   4
ENDBRANCH   2   3
ENDBRANCH   1   2
BRANCH   1  12
ATOM     12  C   UNL     1     -30.437  -2.243  23.708  1.00  0.00     0.000 C 
BRANCH  12  13
ATOM     13  C   UNL     1     -29.005  -2.774  23.514  1.00  0.00    -0.000 C 
BRANCH  13  14
ATOM     14  C   UNL     1     -27.946  -2.162  24.455  1.00  0.00    -0.000 C 
BRANCH  14  15
ATOM     15  C   UNL     1     -26.858  -1.326  23.756  1.00  0.00    -0.000 C 
BRANCH  15  16
ATOM     16  C   UNL     1     -27.036   0.185  23.979  1.00  0.00    -0.000 C 
BRANCH  16  17
ATOM     17  C   UNL     1     -28.262   0.510  24.848  1.00  0.00    -0.000 C 
BRANCH  17  18
ATOM     18  C   UNL     1     -27.911   0.605  26.343  1.00  0.00    -0.000 C 
BRANCH  18  19
ATOM     19  C   UNL     1     -29.146   0.455  27.247  1.00  0.00    -0.003 C 
ATOM     20  C   UNL     1     -30.372  -0.061  26.490  1.00  0.00     0.004 C 
ENDBRANCH  18  19
ENDBRANCH  17  18
ENDBRANCH  16  17
ENDBRANCH  15  16
ENDBRANCH  14  15
ENDBRANCH  13  14
ENDBRANCH  12  13
ENDBRANCH   1  12
TORSDOF 16
ENDMDL
MODEL 6
REMARK VINA RESULT:    -5.307      0.927      2.109
REMARK INTER + INTRA:         -12.338
REMARK INTER:                 -10.466
REMARK INTRA:                  -1.872
REMARK UNBOUND:                -2.068
REMARK SMILES CCCCCCCCCCCCCCCCCC(=O)[O-]
REMARK SMILES IDX 10 1 11 2 12 3 13 4 14 5 15 6 16 7 17 8 18 9 19 10 20 11
REMARK SMILES IDX 9 12 8 13 7 14 6 15 5 16 4 17 3 18 2 19 1 20
REMARK H PARENT
REMARK Flexibility Score: inf
ROOT
ATOM      1  C   UNL     1     -30.407  -1.532  22.099  1.00  0.00     0.000 C 
ENDROOT
BRANCH   1   2
ATOM      2  C   UNL     1     -30.163  -1.524  20.585  1.00  0.00     0.000 C 
BRANCH   2   3
ATOM      3  C   UNL     1     -28.917  -2.326  20.177  1.00  0.00     0.000 C 
BRANCH   3   4
ATOM      4  C   UNL     1     -27.908  -1.516  19.335  1.00  0.00     0.000 C 
BRANCH   4   5
ATOM      5  C   UNL     1     -28.226  -1.580  17.831  1.00  0.00     0.000 C 
BRANCH   5   6
ATOM      6  C   UNL     1     -28.603  -2.994  17.363  1.00  0.00     0.000 C 
BRANCH   6   7
ATOM      7  C   UNL     1     -29.112  -3.023  15.915  1.00  0.00     0.006 C 
BRANCH   7   8
ATOM      8  C   UNL     1     -28.157  -3.809  15.010  1.00  0.00     0.053 C 
BRANCH   8   9
ATOM      9  C   UNL     1     -26.941  -2.995  14.705  1.00  0.00     0.041 C 
ATOM     10  O   UNL     1     -27.054  -1.873  14.143  1.00  0.00    -0.550 OA
ATOM     11  O   UNL     1     -25.688  -3.444  15.102  1.00  0.00    -0.550 OA
ENDBRANCH   8   9
ENDBRANCH   7   8
ENDBRANCH   6   7
ENDBRANCH   5   6
ENDBRANCH   4   5
ENDBRANCH   3   4
ENDBRANCH   2   3
ENDBRANCH   1   2
BRANCH   1  12
ATOM     12  C   UNL     1     -31.091  -0.234  22.554  1.00  0.00     0.000 C 
BRANCH  12  13
ATOM     13  C   UNL     1     -30.085   0.866  22.940  1.00  0.00    -0.000 C 
BRANCH  13  14
ATOM     14  C   UNL     1     -28.781   0.881  22.115  1.00  0.00    -0.000 C 
BRANCH  14  15
ATOM     15  C   UNL     1     -27.486   0.791  22.942  1.00  0.00    -0.000 C 
BRANCH  15  16
ATOM     16  C   UNL     1     -27.016  -0.658  23.152  1.00  0.00    -0.000 C 
BRANCH  16  17
ATOM     17  C   UNL     1     -27.020  -1.067  24.634  1.00  0.00    -0.000 C 
BRANCH  17  18
ATOM     18  C   UNL     1     -28.377  -1.639  25.080  1.00  0.00    -0.000 C 
BRANCH  18  19
ATOM     19  C   UNL     1     -29.115  -0.707  26.056  1.00  0.00    -0.003 C 
ATOM     20  C   UNL     1     -28.209   0.387  26.626  1.00  0.00     0.004 C 
ENDBRANCH  18  19
ENDBRANCH  17  18
ENDBRANCH  16  17
ENDBRANCH  15  16
ENDBRANCH  14  15
ENDBRANCH  13  14
ENDBRANCH  12  13
ENDBRANCH   1  12
TORSDOF 16
ENDMDL
MODEL 7
REMARK VINA RESULT:    -5.292      7.206     11.544
REMARK INTER + INTRA:         -12.310
REMARK INTER:                 -10.289
REMARK INTRA:                  -2.021
REMARK UNBOUND:                -2.068
REMARK SMILES CCCCCCCCCCCCCCCCCC(=O)[O-]
REMARK SMILES IDX 10 1 11 2 12 3 13 4 14 5 15 6 16 7 17 8 18 9 19 10 20 11
REMARK SMILES IDX 9 12 8 13 7 14 6 15 5 16 4 17 3 18 2 19 1 20
REMARK H PARENT
REMARK Flexibility Score: inf
ROOT
ATOM      1  C   UNL     1     -28.035   0.044  25.495  1.00  0.00     0.000 C 
ENDROOT
BRANCH   1   2
ATOM      2  C   UNL     1     -28.920  -0.268  26.708  1.00  0.00     0.000 C 
BRANCH   2   3
ATOM      3  C   UNL     1     -30.014   0.788  26.936  1.00  0.00     0.000 C 
BRANCH   3   4
ATOM      4  C   UNL     1     -30.151   1.229  28.409  1.00  0.00     0.000 C 
BRANCH   4   5
ATOM      5  C   UNL     1     -28.967   0.752  29.268  1.00  0.00     0.000 C 
BRANCH   5   6
ATOM      6  C   UNL     1     -29.189   0.988  30.770  1.00  0.00     0.000 C 
BRANCH   6   7
ATOM      7  C   UNL     1     -30.373   1.923  31.055  1.00  0.00     0.006 C 
BRANCH   7   8
ATOM      8  C   UNL     1     -30.761   1.886  32.537  1.00  0.00     0.053 C 
BRANCH   8   9
ATOM      9  C   UNL     1     -30.309   3.132  33.225  1.00  0.00     0.041 C 
ATOM     10  O   UNL     1     -31.085   3.743  34.007  1.00  0.00    -0.550 OA
ATOM     11  O   UNL     1     -29.006   3.584  33.055  1.00  0.00    -0.550 OA
ENDBRANCH   8   9
ENDBRANCH   7   8
ENDBRANCH   6   7
ENDBRANCH   5   6
ENDBRANCH   4   5
ENDBRANCH   3   4
ENDBRANCH   2   3
ENDBRANCH   1   2
BRANCH   1  12
ATOM     12  C   UNL     1     -27.387  -1.234  24.942  1.00  0.00     0.000 C 
BRANCH  12  13
ATOM     13  C   UNL     1     -26.669  -1.007  23.599  1.00  0.00    -0.000 C 
BRANCH  13  14
ATOM     14  C   UNL     1     -27.389  -0.050  22.625  1.00  0.00    -0.000 C 
BRANCH  14  15
ATOM     15  C   UNL     1     -27.772  -0.668  21.269  1.00  0.00    -0.000 C 
BRANCH  15  16
ATOM     16  C   UNL     1     -28.581  -1.968  21.416  1.00  0.00    -0.000 C 
BRANCH  16  17
ATOM     17  C   UNL     1     -30.072  -1.704  21.683  1.00  0.00    -0.000 C 
BRANCH  17  18
ATOM     18  C   UNL     1     -30.495  -2.115  23.104  1.00  0.00    -0.000 C 
BRANCH  18  19
ATOM     19  C   UNL     1     -31.255  -0.998  23.837  1.00  0.00    -0.003 C 
ATOM     20  C   UNL     1     -31.079   0.370  23.174  1.00  0.00     0.004 C 
ENDBRANCH  18  19
ENDBRANCH  17  18
ENDBRANCH  16  17
ENDBRANCH  15  16
ENDBRANCH  14  15
ENDBRANCH  13  14
ENDBRANCH  12  13
ENDBRANCH   1  12
TORSDOF 16
ENDMDL
MODEL 8
REMARK VINA RESULT:    -5.273      7.527     12.127
REMARK INTER + INTRA:         -12.274
REMARK INTER:                 -10.428
REMARK INTRA:                  -1.846
REMARK UNBOUND:                -2.068
REMARK SMILES CCCCCCCCCCCCCCCCCC(=O)[O-]
REMARK SMILES IDX 10 1 11 2 12 3 13 4 14 5 15 6 16 7 17 8 18 9 19 10 20 11
REMARK SMILES IDX 9 12 8 13 7 14 6 15 5 16 4 17 3 18 2 19 1 20
REMARK H PARENT
REMARK Flexibility Score: inf
ROOT
ATOM      1  C   UNL     1     -29.736   0.017  27.005  1.00  0.00     0.000 C 
ENDROOT
BRANCH   1   2
ATOM      2  C   UNL     1     -30.115   1.166  27.948  1.00  0.00     0.000 C 
BRANCH   2   3
ATOM      3  C   UNL     1     -29.399   1.085  29.306  1.00  0.00     0.000 C 
BRANCH   3   4
ATOM      4  C   UNL     1     -30.325   1.366  30.509  1.00  0.00     0.000 C 
BRANCH   4   5
ATOM      5  C   UNL     1     -30.582   2.870  30.704  1.00  0.00     0.000 C 
BRANCH   5   6
ATOM      6  C   UNL     1     -31.236   3.191  32.056  1.00  0.00     0.000 C 
BRANCH   6   7
ATOM      7  C   UNL     1     -30.439   2.640  33.247  1.00  0.00     0.006 C 
BRANCH   7   8
ATOM      8  C   UNL     1     -29.106   3.380  33.408  1.00  0.00     0.053 C 
BRANCH   8   9
ATOM      9  C   UNL     1     -27.965   2.417  33.348  1.00  0.00     0.041 C 
ATOM     10  O   UNL     1     -28.183   1.177  33.310  1.00  0.00    -0.550 OA
ATOM     11  O   UNL     1     -26.661   2.890  33.266  1.00  0.00    -0.550 OA
ENDBRANCH   8   9
ENDBRANCH   7   8
ENDBRANCH   6   7
ENDBRANCH   5   6
ENDBRANCH   4   5
ENDBRANCH   3   4
ENDBRANCH   2   3
ENDBRANCH   1   2
BRANCH   1  12
ATOM     12  C   UNL     1     -28.467   0.352  26.207  1.00  0.00     0.000 C 
BRANCH  12  13
ATOM     13  C   UNL     1     -27.886  -0.868  25.470  1.00  0.00    -0.000 C 
BRANCH  13  14
ATOM     14  C   UNL     1     -27.078  -0.540  24.196  1.00  0.00    -0.000 C 
BRANCH  14  15
ATOM     15  C   UNL     1     -27.477   0.769  23.491  1.00  0.00    -0.000 C 
BRANCH  15  16
ATOM     16  C   UNL     1     -28.640   0.580  22.503  1.00  0.00    -0.000 C 
BRANCH  16  17
ATOM     17  C   UNL     1     -29.923   1.290  22.963  1.00  0.00    -0.000 C 
BRANCH  17  18
ATOM     18  C   UNL     1     -31.060   0.302  23.277  1.00  0.00    -0.000 C 
BRANCH  18  19
ATOM     19  C   UNL     1     -30.687  -1.150  22.936  1.00  0.00    -0.003 C 
ATOM     20  C   UNL     1     -31.119  -2.140  24.019  1.00  0.00     0.004 C 
ENDBRANCH  18  19
ENDBRANCH  17  18
ENDBRANCH  16  17
ENDBRANCH  15  16
ENDBRANCH  14  15
ENDBRANCH  13  14
ENDBRANCH  12  13
ENDBRANCH   1  12
TORSDOF 16
ENDMDL
MODEL 9
REMARK VINA RESULT:    -5.237      3.070      8.280
REMARK INTER + INTRA:         -12.204
REMARK INTER:                 -10.530
REMARK INTRA:                  -1.674
REMARK UNBOUND:                -2.068
REMARK SMILES CCCCCCCCCCCCCCCCCC(=O)[O-]
REMARK SMILES IDX 10 1 11 2 12 3 13 4 14 5 15 6 16 7 17 8 18 9 19 10 20 11
REMARK SMILES IDX 9 12 8 13 7 14 6 15 5 16 4 17 3 18 2 19 1 20
REMARK H PARENT
REMARK Flexibility Score: inf
ROOT
ATOM      1  C   UNL     1     -29.547  -1.862  21.724  1.00  0.00     0.000 C 
ENDROOT
BRANCH   1   2
ATOM      2  C   UNL     1     -29.578  -0.334  21.591  1.00  0.00     0.000 C 
BRANCH   2   3
ATOM      3  C   UNL     1     -30.383   0.347  22.709  1.00  0.00     0.000 C 
BRANCH   3   4
ATOM      4  C   UNL     1     -31.134  -0.645  23.623  1.00  0.00     0.000 C 
BRANCH   4   5
ATOM      5  C   UNL     1     -30.492  -0.747  25.018  1.00  0.00     0.000 C 
BRANCH   5   6
ATOM      6  C   UNL     1     -29.758   0.539  25.430  1.00  0.00     0.000 C 
BRANCH   6   7
ATOM      7  C   UNL     1     -28.292   0.289  25.813  1.00  0.00     0.006 C 
BRANCH   7   8
ATOM      8  C   UNL     1     -27.734  -0.939  25.084  1.00  0.00     0.053 C 
BRANCH   8   9
ATOM      9  C   UNL     1     -26.831  -0.516  23.970  1.00  0.00     0.041 C 
ATOM     10  O   UNL     1     -26.740   0.700  23.654  1.00  0.00    -0.550 OA
ATOM     11  O   UNL     1     -26.039  -1.457  23.324  1.00  0.00    -0.550 OA
ENDBRANCH   8   9
ENDBRANCH   7   8
ENDBRANCH   6   7
ENDBRANCH   5   6
ENDBRANCH   4   5
ENDBRANCH   3   4
ENDBRANCH   2   3
ENDBRANCH   1   2
BRANCH   1  12
ATOM     12  C   UNL     1     -28.598  -2.487  20.691  1.00  0.00     0.000 C 
BRANCH  12  13
ATOM     13  C   UNL     1     -27.864  -1.433  19.842  1.00  0.00    -0.000 C 
BRANCH  13  14
ATOM     14  C   UNL     1     -28.090  -1.545  18.319  1.00  0.00    -0.000 C 
BRANCH  14  15
ATOM     15  C   UNL     1     -28.852  -2.803  17.864  1.00  0.00    -0.000 C 
BRANCH  15  16
ATOM     16  C   UNL     1     -28.413  -3.294  16.475  1.00  0.00    -0.000 C 
BRANCH  16  17
ATOM     17  C   UNL     1     -28.482  -2.185  15.412  1.00  0.00    -0.000 C 
BRANCH  17  18
ATOM     18  C   UNL     1     -27.729  -2.560  14.124  1.00  0.00    -0.000 C 
BRANCH  18  19
ATOM     19  C   UNL     1     -26.288  -2.024  14.109  1.00  0.00    -0.003 C 
ATOM     20  C   UNL     1     -25.244  -3.133  14.257  1.00  0.00     0.004 C 
ENDBRANCH  18  19
ENDBRANCH  17  18
ENDBRANCH  16  17
ENDBRANCH  15  16
ENDBRANCH  14  15
ENDBRANCH  13  14
ENDBRANCH  12  13
ENDBRANCH   1  12
TORSDOF 16
ENDMDL
