MODEL 1
REMARK VINA RESULT:     3.797      0.000      0.000
REMARK INTER + INTRA:           5.679
REMARK INTER:                   5.128
REMARK INTRA:                   0.551
REMARK UNBOUND:                 0.551
REMARK SMILES COc1ccc(-c2cc(=O)c3c(OC)c(OC)c(OC)c(OC)c3o2)cc1
REMARK SMILES IDX 7 1 8 2 9 3 10 4 11 5 24 6 25 7 21 8 18 9 15 10 12 11 6 12
REMARK SMILES IDX 3 13 4 14 27 15 5 16 26 17 2 18 1 19 22 20 23 21 13 22 14 23
REMARK SMILES IDX 19 24 20 25 16 26 17 27
REMARK H PARENT
REMARK Flexibility Score: inf
ROOT
ATOM      1  C   UNL     1      -1.834  13.895 -19.445  1.00  0.00     0.138 A 
ATOM      2  C   UNL     1      -0.793  13.472 -20.284  1.00  0.00     0.100 A 
ATOM      3  C   UNL     1       0.225  14.363 -20.614  1.00  0.00     0.197 A 
ATOM      4  O   UNL     1       1.168  13.961 -21.350  1.00  0.00    -0.289 OA
ATOM      5  C   UNL     1       0.194  15.681 -20.110  1.00  0.00     0.115 A 
ATOM      6  C   UNL     1      -0.862  16.019 -19.236  1.00  0.00     0.188 A 
ATOM      7  O   UNL     1      -1.814  15.132 -18.954  1.00  0.00    -0.452 OA
ATOM      8  C   UNL     1      -0.929  17.300 -18.674  1.00  0.00     0.209 A 
ATOM      9  C   UNL     1       0.039  18.266 -18.973  1.00  0.00     0.211 A 
ATOM     10  C   UNL     1       1.119  17.939 -19.832  1.00  0.00     0.208 A 
ATOM     11  C   UNL     1       1.159  16.661 -20.444  1.00  0.00     0.179 A 
ENDROOT
BRANCH   1  12
ATOM     12  C   UNL     1      -2.956  12.994 -19.077  1.00  0.00     0.018 A 
ATOM     13  C   UNL     1      -5.121  11.298 -18.430  1.00  0.00     0.118 A 
ATOM     14  C   UNL     1      -3.815  10.972 -18.021  1.00  0.00     0.047 A 
ATOM     15  C   UNL     1      -5.332  12.466 -19.167  1.00  0.00     0.047 A 
ATOM     16  C   UNL     1      -2.744  11.809 -18.347  1.00  0.00     0.016 A 
ATOM     17  C   UNL     1      -4.263  13.306 -19.493  1.00  0.00     0.016 A 
BRANCH  13  18
ATOM     18  O   UNL     1      -6.228  10.491 -18.127  1.00  0.00    -0.497 OA
ATOM     19  C   UNL     1      -7.565  10.778 -18.523  1.00  0.00     0.278 C 
ENDBRANCH  13  18
ENDBRANCH   1  12
BRANCH   8  20
ATOM     20  O   UNL     1      -1.975  17.640 -17.811  1.00  0.00    -0.490 OA
ATOM     21  C   UNL     1      -2.490  18.964 -17.738  1.00  0.00     0.278 C 
ENDBRANCH   8  20
BRANCH  11  22
ATOM     22  O   UNL     1       2.125  16.383 -21.413  1.00  0.00    -0.492 OA
ATOM     23  C   UNL     1       1.991  16.870 -22.744  1.00  0.00     0.278 C 
ENDBRANCH  11  22
BRANCH   9  24
ATOM     24  O   UNL     1      -0.126  19.526 -18.364  1.00  0.00    -0.490 OA
ATOM     25  C   UNL     1       0.707  20.108 -17.368  1.00  0.00     0.279 C 
ENDBRANCH   9  24
BRANCH  10  26
ATOM     26  O   UNL     1       2.123  18.897 -20.054  1.00  0.00    -0.490 OA
ATOM     27  C   UNL     1       2.049  19.989 -20.965  1.00  0.00     0.278 C 
ENDBRANCH  10  26
TORSDOF 6
ENDMDL
MODEL 2
REMARK VINA RESULT:     5.565      1.401      3.820
REMARK INTER + INTRA:           8.067
REMARK INTER:                   7.331
REMARK INTRA:                   0.736
REMARK UNBOUND:                 0.551
REMARK SMILES COc1ccc(-c2cc(=O)c3c(OC)c(OC)c(OC)c(OC)c3o2)cc1
REMARK SMILES IDX 7 1 8 2 9 3 10 4 11 5 24 6 25 7 21 8 18 9 15 10 12 11 6 12
REMARK SMILES IDX 3 13 4 14 27 15 5 16 26 17 2 18 1 19 22 20 23 21 13 22 14 23
REMARK SMILES IDX 19 24 20 25 16 26 17 27
REMARK H PARENT
REMARK Flexibility Score: inf
ROOT
ATOM      1  C   UNL     1      -1.942  14.187 -18.661  1.00  0.00     0.138 A 
ATOM      2  C   UNL     1      -2.377  15.254 -17.862  1.00  0.00     0.100 A 
ATOM      3  C   UNL     1      -1.810  16.515 -18.035  1.00  0.00     0.197 A 
ATOM      4  O   UNL     1      -2.228  17.470 -17.326  1.00  0.00    -0.289 OA
ATOM      5  C   UNL     1      -0.801  16.702 -19.005  1.00  0.00     0.115 A 
ATOM      6  C   UNL     1      -0.449  15.591 -19.801  1.00  0.00     0.188 A 
ATOM      7  O   UNL     1      -1.018  14.405 -19.594  1.00  0.00    -0.452 OA
ATOM      8  C   UNL     1       0.520  15.721 -20.804  1.00  0.00     0.209 A 
ATOM      9  C   UNL     1       1.159  16.947 -21.029  1.00  0.00     0.211 A 
ATOM     10  C   UNL     1       0.804  18.080 -20.253  1.00  0.00     0.208 A 
ATOM     11  C   UNL     1      -0.137  17.936 -19.203  1.00  0.00     0.179 A 
ENDROOT
BRANCH   1  12
ATOM     12  C   UNL     1      -2.496  12.818 -18.505  1.00  0.00     0.018 A 
ATOM     13  C   UNL     1      -3.533  10.214 -18.147  1.00  0.00     0.118 A 
ATOM     14  C   UNL     1      -4.113  11.088 -19.084  1.00  0.00     0.047 A 
ATOM     15  C   UNL     1      -2.443  10.653 -17.390  1.00  0.00     0.047 A 
ATOM     16  C   UNL     1      -3.603  12.378 -19.257  1.00  0.00     0.016 A 
ATOM     17  C   UNL     1      -1.931  11.943 -17.561  1.00  0.00     0.016 A 
BRANCH  13  18
ATOM     18  O   UNL     1      -4.007   8.911 -17.939  1.00  0.00    -0.497 OA
ATOM     19  C   UNL     1      -3.200   7.819 -17.509  1.00  0.00     0.278 C 
ENDBRANCH  13  18
ENDBRANCH   1  12
BRANCH   8  20
ATOM     20  O   UNL     1       0.875  14.622 -21.592  1.00  0.00    -0.490 OA
ATOM     21  C   UNL     1       2.119  13.953 -21.433  1.00  0.00     0.278 C 
ENDBRANCH   8  20
BRANCH  11  22
ATOM     22  O   UNL     1      -0.375  19.001 -18.332  1.00  0.00    -0.492 OA
ATOM     23  C   UNL     1      -1.293  20.035 -18.669  1.00  0.00     0.278 C 
ENDBRANCH  11  22
BRANCH   9  24
ATOM     24  O   UNL     1       2.125  16.968 -22.054  1.00  0.00    -0.490 OA
ATOM     25  C   UNL     1       1.954  16.528 -23.397  1.00  0.00     0.279 C 
ENDBRANCH   9  24
BRANCH  10  26
ATOM     26  O   UNL     1       1.398  19.318 -20.551  1.00  0.00    -0.490 OA
ATOM     27  C   UNL     1       1.342  19.992 -21.804  1.00  0.00     0.278 C 
ENDBRANCH  10  26
TORSDOF 6
ENDMDL
MODEL 3
REMARK VINA RESULT:     6.247      6.264      9.144
REMARK INTER + INTRA:           8.989
REMARK INTER:                   8.097
REMARK INTRA:                   0.891
REMARK UNBOUND:                 0.551
REMARK SMILES COc1ccc(-c2cc(=O)c3c(OC)c(OC)c(OC)c(OC)c3o2)cc1
REMARK SMILES IDX 7 1 8 2 9 3 10 4 11 5 24 6 25 7 21 8 18 9 15 10 12 11 6 12
REMARK SMILES IDX 3 13 4 14 27 15 5 16 26 17 2 18 1 19 22 20 23 21 13 22 14 23
REMARK SMILES IDX 19 24 20 25 16 26 17 27
REMARK H PARENT
REMARK Flexibility Score: inf
ROOT
ATOM      1  C   UNL     1      -3.875   9.799 -17.803  1.00  0.00     0.138 A 
ATOM      2  C   UNL     1      -2.880  10.572 -18.420  1.00  0.00     0.100 A 
ATOM      3  C   UNL     1      -1.658   9.985 -18.741  1.00  0.00     0.197 A 
ATOM      4  O   UNL     1      -0.783  10.686 -19.318  1.00  0.00    -0.289 OA
ATOM      5  C   UNL     1      -1.431   8.626 -18.435  1.00  0.00     0.115 A 
ATOM      6  C   UNL     1      -2.496   7.903 -17.855  1.00  0.00     0.188 A 
ATOM      7  O   UNL     1      -3.644   8.510 -17.564  1.00  0.00    -0.452 OA
ATOM      8  C   UNL     1      -2.346   6.542 -17.561  1.00  0.00     0.209 A 
ATOM      9  C   UNL     1      -1.141   5.879 -17.827  1.00  0.00     0.211 A 
ATOM     10  C   UNL     1      -0.067   6.584 -18.429  1.00  0.00     0.208 A 
ATOM     11  C   UNL     1      -0.200   7.973 -18.678  1.00  0.00     0.179 A 
ENDROOT
BRANCH   1  12
ATOM     12  C   UNL     1      -5.188  10.378 -17.419  1.00  0.00     0.018 A 
ATOM     13  C   UNL     1      -7.666  11.480 -16.630  1.00  0.00     0.118 A 
ATOM     14  C   UNL     1      -7.145  11.746 -17.908  1.00  0.00     0.047 A 
ATOM     15  C   UNL     1      -6.939  10.671 -15.753  1.00  0.00     0.047 A 
ATOM     16  C   UNL     1      -5.916  11.205 -18.296  1.00  0.00     0.016 A 
ATOM     17  C   UNL     1      -5.710  10.127 -16.138  1.00  0.00     0.016 A 
BRANCH  13  18
ATOM     18  O   UNL     1      -8.895  11.999 -16.195  1.00  0.00    -0.497 OA
ATOM     19  C   UNL     1      -9.124  12.547 -14.901  1.00  0.00     0.278 C 
ENDBRANCH  13  18
ENDBRANCH   1  12
BRANCH   8  20
ATOM     20  O   UNL     1      -3.396   5.823 -16.983  1.00  0.00    -0.490 OA
ATOM     21  C   UNL     1      -3.394   5.463 -15.607  1.00  0.00     0.278 C 
ENDBRANCH   8  20
BRANCH  11  22
ATOM     22  O   UNL     1       0.902   8.709 -19.119  1.00  0.00    -0.492 OA
ATOM     23  C   UNL     1       1.559   9.635 -18.260  1.00  0.00     0.278 C 
ENDBRANCH  11  22
BRANCH   9  24
ATOM     24  O   UNL     1      -1.090   4.514 -17.484  1.00  0.00    -0.490 OA
ATOM     25  C   UNL     1      -1.682   3.432 -18.194  1.00  0.00     0.279 C 
ENDBRANCH   9  24
BRANCH  10  26
ATOM     26  O   UNL     1       1.103   5.880 -18.762  1.00  0.00    -0.490 OA
ATOM     27  C   UNL     1       1.160   4.635 -19.452  1.00  0.00     0.278 C 
ENDBRANCH  10  26
TORSDOF 6
ENDMDL
