MODEL 1
REMARK VINA RESULT:    -3.911      0.000      0.000
REMARK INTER + INTRA:          -5.490
REMARK INTER:                  -6.083
REMARK INTRA:                   0.593
REMARK UNBOUND:                 0.593
REMARK SMILES C[C@@]12C[C@@]3(O)O[C@@H](O1)[C@]1(COC(=O)c4ccccc4)[C@H]3C[C@@]12O[C@@H]1O[C@@H](CO)[C@@H](O)[C@@H](O)[C@H]1O
REMARK SMILES IDX 1 1 2 2 3 3 4 4 20 5 21 6 22 7 9 8 7 9 8 10 6 11 23 12 24 13
REMARK SMILES IDX 33 14 25 15 31 16 26 17 29 18 34 19 32 21 27 23 28 24 30 26
REMARK SMILES IDX 5 28 10 30 11 31 12 32 13 33 14 34 15 35 19 36 16 37 18 38
REMARK SMILES IDX 17 39
REMARK H PARENT 34 20 32 22 28 25 30 27 5 29
REMARK Flexibility Score: inf
ROOT
ATOM      1  C   UNL     1      70.008  -1.013   1.855  1.00  0.00     0.046 C 
ATOM      2  C   UNL     1      71.074   0.076   1.966  1.00  0.00     0.104 C 
ATOM      3  C   UNL     1      70.716   1.131   3.076  1.00  0.00     0.104 C 
ATOM      4  C   UNL     1      71.876   2.188   2.969  1.00  0.00     0.175 C 
ATOM      5  C   UNL     1      72.090   2.628   1.481  1.00  0.00     0.070 C 
ATOM      6  C   UNL     1      70.890   2.298   0.585  1.00  0.00     0.050 C 
ATOM      7  C   UNL     1      71.382   0.834   0.620  1.00  0.00     0.115 C 
ATOM      8  C   UNL     1      72.769   1.362   0.982  1.00  0.00     0.096 C 
ATOM      9  C   UNL     1      73.226   0.598   2.211  1.00  0.00     0.267 C 
ATOM     10  O   UNL     1      72.317  -0.481   2.353  1.00  0.00    -0.342 OA
ATOM     11  O   UNL     1      73.060   1.493   3.302  1.00  0.00    -0.320 OA
ENDROOT
BRANCH   7  12
ATOM     12  O   UNL     1      71.386   0.074  -0.577  1.00  0.00    -0.339 OA
BRANCH  12  13
ATOM     13  C   UNL     1      70.605   0.667  -1.609  1.00  0.00     0.282 C 
ATOM     14  C   UNL     1      71.424   1.757  -2.330  1.00  0.00     0.202 C 
ATOM     15  O   UNL     1      70.163  -0.321  -2.531  1.00  0.00    -0.341 OA
ATOM     16  C   UNL     1      72.598   1.119  -3.101  1.00  0.00     0.179 C 
ATOM     17  C   UNL     1      71.250  -1.005  -3.136  1.00  0.00     0.178 C 
ATOM     18  C   UNL     1      72.105  -0.036  -3.986  1.00  0.00     0.177 C 
BRANCH  14  19
ATOM     19  O   UNL     1      70.581   2.460  -3.210  1.00  0.00    -0.385 OA
ATOM     20  H   UNL     1      69.968   3.006  -2.653  1.00  0.00     0.211 HD
ENDBRANCH  14  19
BRANCH  16  21
ATOM     21  O   UNL     1      73.254   2.076  -3.891  1.00  0.00    -0.387 OA
ATOM     22  H   UNL     1      73.461   2.845  -3.299  1.00  0.00     0.211 HD
ENDBRANCH  16  21
BRANCH  17  23
ATOM     23  C   UNL     1      70.701  -2.154  -3.997  1.00  0.00     0.191 C 
BRANCH  23  24
ATOM     24  O   UNL     1      71.670  -3.155  -4.154  1.00  0.00    -0.394 OA
ATOM     25  H   UNL     1      71.251  -4.007  -3.863  1.00  0.00     0.210 HD
ENDBRANCH  23  24
ENDBRANCH  17  23
BRANCH  18  26
ATOM     26  O   UNL     1      71.348   0.478  -5.056  1.00  0.00    -0.387 OA
ATOM     27  H   UNL     1      70.889   1.295  -4.725  1.00  0.00     0.211 HD
ENDBRANCH  18  26
ENDBRANCH  12  13
ENDBRANCH   7  12
BRANCH   4  28
ATOM     28  O   UNL     1      71.685   3.278   3.829  1.00  0.00    -0.365 OA
ATOM     29  H   UNL     1      71.042   2.981   4.525  1.00  0.00     0.214 HD
ENDBRANCH   4  28
BRANCH   8  30
ATOM     30  C   UNL     1      73.787   1.512  -0.169  1.00  0.00     0.249 C 
BRANCH  30  31
ATOM     31  O   UNL     1      75.115   1.619   0.343  1.00  0.00    -0.461 OA
BRANCH  31  32
ATOM     32  C   UNL     1      76.176   0.796  -0.051  1.00  0.00     0.338 C 
ATOM     33  O   UNL     1      75.959  -0.396  -0.404  1.00  0.00    -0.246 OA
BRANCH  32  34
ATOM     34  C   UNL     1      77.557   1.324  -0.035  1.00  0.00     0.060 A 
ATOM     35  C   UNL     1      77.814   2.655   0.349  1.00  0.00     0.015 A 
ATOM     36  C   UNL     1      78.636   0.500  -0.404  1.00  0.00     0.015 A 
ATOM     37  C   UNL     1      79.123   3.148   0.360  1.00  0.00     0.001 A 
ATOM     38  C   UNL     1      79.943   0.999  -0.392  1.00  0.00     0.001 A 
ATOM     39  C   UNL     1      80.186   2.321  -0.011  1.00  0.00     0.000 A 
ENDBRANCH  32  34
ENDBRANCH  31  32
ENDBRANCH  30  31
ENDBRANCH   8  30
TORSDOF 12
ENDMDL
MODEL 2
REMARK VINA RESULT:    -2.797      1.697      5.281
REMARK INTER + INTRA:          -3.758
REMARK INTER:                  -3.821
REMARK INTRA:                   0.063
REMARK UNBOUND:                 0.593
REMARK SMILES C[C@@]12C[C@@]3(O)O[C@@H](O1)[C@]1(COC(=O)c4ccccc4)[C@H]3C[C@@]12O[C@@H]1O[C@@H](CO)[C@@H](O)[C@@H](O)[C@H]1O
REMARK SMILES IDX 1 1 2 2 3 3 4 4 20 5 21 6 22 7 9 8 7 9 8 10 6 11 23 12 24 13
REMARK SMILES IDX 33 14 25 15 31 16 26 17 29 18 34 19 32 21 27 23 28 24 30 26
REMARK SMILES IDX 5 28 10 30 11 31 12 32 13 33 14 34 15 35 19 36 16 37 18 38
REMARK SMILES IDX 17 39
REMARK H PARENT 34 20 32 22 28 25 30 27 5 29
REMARK Flexibility Score: inf
ROOT
ATOM      1  C   UNL     1      69.083   2.763  -1.502  1.00  0.00     0.046 C 
ATOM      2  C   UNL     1      70.491   2.268  -1.828  1.00  0.00     0.104 C 
ATOM      3  C   UNL     1      70.552   1.570  -3.237  1.00  0.00     0.104 C 
ATOM      4  C   UNL     1      72.039   1.070  -3.336  1.00  0.00     0.175 C 
ATOM      5  C   UNL     1      72.454   0.297  -2.038  1.00  0.00     0.070 C 
ATOM      6  C   UNL     1      71.248  -0.167  -1.212  1.00  0.00     0.050 C 
ATOM      7  C   UNL     1      71.114   1.302  -0.752  1.00  0.00     0.115 C 
ATOM      8  C   UNL     1      72.586   1.497  -1.113  1.00  0.00     0.096 C 
ATOM      9  C   UNL     1      72.664   2.726  -1.999  1.00  0.00     0.267 C 
ATOM     10  O   UNL     1      71.396   3.354  -1.899  1.00  0.00    -0.342 OA
ATOM     11  O   UNL     1      72.838   2.235  -3.320  1.00  0.00    -0.320 OA
ENDROOT
BRANCH   7  12
ATOM     12  O   UNL     1      70.849   1.580   0.614  1.00  0.00    -0.339 OA
BRANCH  12  13
ATOM     13  C   UNL     1      69.975   0.628   1.211  1.00  0.00     0.282 C 
ATOM     14  C   UNL     1      70.719  -0.706   1.429  1.00  0.00     0.202 C 
ATOM     15  O   UNL     1      69.461   1.124   2.441  1.00  0.00    -0.341 OA
ATOM     16  C   UNL     1      71.825  -0.531   2.489  1.00  0.00     0.179 C 
ATOM     17  C   UNL     1      70.497   1.416   3.366  1.00  0.00     0.178 C 
ATOM     18  C   UNL     1      71.266   0.132   3.756  1.00  0.00     0.177 C 
BRANCH  14  19
ATOM     19  O   UNL     1      69.795  -1.685   1.837  1.00  0.00    -0.385 OA
ATOM     20  H   UNL     1      69.419  -2.092   1.013  1.00  0.00     0.211 HD
ENDBRANCH  14  19
BRANCH  16  21
ATOM     21  O   UNL     1      72.401  -1.769   2.816  1.00  0.00    -0.387 OA
ATOM     22  H   UNL     1      71.686  -2.318   3.232  1.00  0.00     0.211 HD
ENDBRANCH  16  21
BRANCH  17  23
ATOM     23  C   UNL     1      69.884   2.088   4.606  1.00  0.00     0.191 C 
BRANCH  23  24
ATOM     24  O   UNL     1      68.768   1.366   5.054  1.00  0.00    -0.394 OA
ATOM     25  H   UNL     1      68.168   2.016   5.504  1.00  0.00     0.210 HD
ENDBRANCH  23  24
ENDBRANCH  17  23
BRANCH  18  26
ATOM     26  O   UNL     1      70.413  -0.767   4.425  1.00  0.00    -0.387 OA
ATOM     27  H   UNL     1      70.053  -1.392   3.742  1.00  0.00     0.211 HD
ENDBRANCH  18  26
ENDBRANCH  12  13
ENDBRANCH   7  12
BRANCH   4  28
ATOM     28  O   UNL     1      72.275   0.327  -4.501  1.00  0.00    -0.365 OA
ATOM     29  H   UNL     1      71.496   0.479  -5.097  1.00  0.00     0.214 HD
ENDBRANCH   4  28
BRANCH   8  30
ATOM     30  C   UNL     1      73.611   1.394   0.037  1.00  0.00     0.249 C 
BRANCH  30  31
ATOM     31  O   UNL     1      74.938   1.582  -0.453  1.00  0.00    -0.461 OA
BRANCH  31  32
ATOM     32  C   UNL     1      75.985   0.676  -0.250  1.00  0.00     0.338 C 
ATOM     33  O   UNL     1      75.744  -0.557  -0.130  1.00  0.00    -0.246 OA
BRANCH  32  34
ATOM     34  C   UNL     1      77.375   1.172  -0.158  1.00  0.00     0.060 A 
ATOM     35  C   UNL     1      77.646   2.475   0.304  1.00  0.00     0.015 A 
ATOM     36  C   UNL     1      78.450   0.344  -0.531  1.00  0.00     0.015 A 
ATOM     37  C   UNL     1      78.963   2.937   0.386  1.00  0.00     0.001 A 
ATOM     38  C   UNL     1      79.765   0.813  -0.447  1.00  0.00     0.001 A 
ATOM     39  C   UNL     1      80.021   2.107   0.011  1.00  0.00     0.000 A 
ENDBRANCH  32  34
ENDBRANCH  31  32
ENDBRANCH  30  31
ENDBRANCH   8  30
TORSDOF 12
ENDMDL
MODEL 3
REMARK VINA RESULT:    -2.140      1.017      2.237
REMARK INTER + INTRA:          -2.735
REMARK INTER:                  -6.354
REMARK INTRA:                   3.619
REMARK UNBOUND:                 0.593
REMARK SMILES C[C@@]12C[C@@]3(O)O[C@@H](O1)[C@]1(COC(=O)c4ccccc4)[C@H]3C[C@@]12O[C@@H]1O[C@@H](CO)[C@@H](O)[C@@H](O)[C@H]1O
REMARK SMILES IDX 1 1 2 2 3 3 4 4 20 5 21 6 22 7 9 8 7 9 8 10 6 11 23 12 24 13
REMARK SMILES IDX 33 14 25 15 31 16 26 17 29 18 34 19 32 21 27 23 28 24 30 26
REMARK SMILES IDX 5 28 10 30 11 31 12 32 13 33 14 34 15 35 19 36 16 37 18 38
REMARK SMILES IDX 17 39
REMARK H PARENT 34 20 32 22 28 25 30 27 5 29
REMARK Flexibility Score: inf
ROOT
ATOM      1  C   UNL     1      69.891  -0.944   1.713  1.00  0.00     0.046 C 
ATOM      2  C   UNL     1      71.055   0.038   1.835  1.00  0.00     0.104 C 
ATOM      3  C   UNL     1      70.785   1.129   2.936  1.00  0.00     0.104 C 
ATOM      4  C   UNL     1      72.042   2.068   2.841  1.00  0.00     0.175 C 
ATOM      5  C   UNL     1      72.319   2.478   1.354  1.00  0.00     0.070 C 
ATOM      6  C   UNL     1      71.105   2.260   0.442  1.00  0.00     0.050 C 
ATOM      7  C   UNL     1      71.453   0.755   0.491  1.00  0.00     0.115 C 
ATOM      8  C   UNL     1      72.880   1.150   0.871  1.00  0.00     0.096 C 
ATOM      9  C   UNL     1      73.244   0.352   2.110  1.00  0.00     0.267 C 
ATOM     10  O   UNL     1      72.233  -0.634   2.243  1.00  0.00    -0.342 OA
ATOM     11  O   UNL     1      73.149   1.265   3.194  1.00  0.00    -0.320 OA
ENDROOT
BRANCH   7  12
ATOM     12  O   UNL     1      71.402  -0.008  -0.703  1.00  0.00    -0.339 OA
BRANCH  12  13
ATOM     13  C   UNL     1      71.869   0.712  -1.839  1.00  0.00     0.282 C 
ATOM     14  C   UNL     1      71.670  -0.131  -3.115  1.00  0.00     0.202 C 
ATOM     15  O   UNL     1      71.195   1.960  -1.950  1.00  0.00    -0.341 OA
ATOM     16  C   UNL     1      70.166  -0.310  -3.406  1.00  0.00     0.179 C 
ATOM     17  C   UNL     1      69.791   1.793  -2.077  1.00  0.00     0.178 C 
ATOM     18  C   UNL     1      69.442   1.045  -3.385  1.00  0.00     0.177 C 
BRANCH  14  19
ATOM     19  O   UNL     1      72.308   0.511  -4.193  1.00  0.00    -0.385 OA
ATOM     20  H   UNL     1      72.679   1.364  -3.847  1.00  0.00     0.211 HD
ENDBRANCH  14  19
BRANCH  16  21
ATOM     21  O   UNL     1      69.970  -0.933  -4.649  1.00  0.00    -0.387 OA
ATOM     22  H   UNL     1      70.553  -1.736  -4.663  1.00  0.00     0.211 HD
ENDBRANCH  16  21
BRANCH  17  23
ATOM     23  C   UNL     1      69.118   3.175  -2.037  1.00  0.00     0.191 C 
BRANCH  23  24
ATOM     24  O   UNL     1      70.082   4.187  -1.925  1.00  0.00    -0.394 OA
ATOM     25  H   UNL     1      70.137   4.424  -0.963  1.00  0.00     0.210 HD
ENDBRANCH  23  24
ENDBRANCH  17  23
BRANCH  18  26
ATOM     26  O   UNL     1      69.828   1.806  -4.505  1.00  0.00    -0.387 OA
ATOM     27  H   UNL     1      70.493   1.268  -5.010  1.00  0.00     0.211 HD
ENDBRANCH  18  26
ENDBRANCH  12  13
ENDBRANCH   7  12
BRANCH   4  28
ATOM     28  O   UNL     1      71.945   3.177   3.693  1.00  0.00    -0.365 OA
ATOM     29  H   UNL     1      71.462   2.869   4.504  1.00  0.00     0.214 HD
ENDBRANCH   4  28
BRANCH   8  30
ATOM     30  C   UNL     1      73.923   1.194  -0.266  1.00  0.00     0.249 C 
BRANCH  30  31
ATOM     31  O   UNL     1      75.229   1.439   0.257  1.00  0.00    -0.461 OA
BRANCH  31  32
ATOM     32  C   UNL     1      76.364   0.697  -0.089  1.00  0.00     0.338 C 
ATOM     33  O   UNL     1      76.253  -0.512  -0.432  1.00  0.00    -0.246 OA
BRANCH  32  34
ATOM     34  C   UNL     1      77.698   1.333  -0.034  1.00  0.00     0.060 A 
ATOM     35  C   UNL     1      77.840   2.676   0.366  1.00  0.00     0.015 A 
ATOM     36  C   UNL     1      78.849   0.600  -0.380  1.00  0.00     0.015 A 
ATOM     37  C   UNL     1      79.105   3.271   0.414  1.00  0.00     0.001 A 
ATOM     38  C   UNL     1      80.111   1.200  -0.331  1.00  0.00     0.001 A 
ATOM     39  C   UNL     1      80.239   2.533   0.066  1.00  0.00     0.000 A 
ENDBRANCH  32  34
ENDBRANCH  31  32
ENDBRANCH  30  31
ENDBRANCH   8  30
TORSDOF 12
ENDMDL
MODEL 4
REMARK VINA RESULT:    -1.842      1.534      5.528
REMARK INTER + INTRA:          -2.272
REMARK INTER:                  -2.012
REMARK INTRA:                  -0.260
REMARK UNBOUND:                 0.593
REMARK SMILES C[C@@]12C[C@@]3(O)O[C@@H](O1)[C@]1(COC(=O)c4ccccc4)[C@H]3C[C@@]12O[C@@H]1O[C@@H](CO)[C@@H](O)[C@@H](O)[C@H]1O
REMARK SMILES IDX 1 1 2 2 3 3 4 4 20 5 21 6 22 7 9 8 7 9 8 10 6 11 23 12 24 13
REMARK SMILES IDX 33 14 25 15 31 16 26 17 29 18 34 19 32 21 27 23 28 24 30 26
REMARK SMILES IDX 5 28 10 30 11 31 12 32 13 33 14 34 15 35 19 36 16 37 18 38
REMARK SMILES IDX 17 39
REMARK H PARENT 34 20 32 22 28 25 30 27 5 29
REMARK Flexibility Score: inf
ROOT
ATOM      1  C   UNL     1      70.242   3.578  -1.875  1.00  0.00     0.046 C 
ATOM      2  C   UNL     1      71.281   2.484  -2.115  1.00  0.00     0.104 C 
ATOM      3  C   UNL     1      70.846   1.512  -3.273  1.00  0.00     0.104 C 
ATOM      4  C   UNL     1      71.990   0.434  -3.298  1.00  0.00     0.175 C 
ATOM      5  C   UNL     1      72.275  -0.110  -1.857  1.00  0.00     0.070 C 
ATOM      6  C   UNL     1      71.128   0.176  -0.878  1.00  0.00     0.050 C 
ATOM      7  C   UNL     1      71.644   1.632  -0.842  1.00  0.00     0.115 C 
ATOM      8  C   UNL     1      73.001   1.109  -1.311  1.00  0.00     0.096 C 
ATOM      9  C   UNL     1      73.407   1.948  -2.509  1.00  0.00     0.267 C 
ATOM     10  O   UNL     1      72.511   3.048  -2.529  1.00  0.00    -0.342 OA
ATOM     11  O   UNL     1      73.168   1.133  -3.647  1.00  0.00    -0.320 OA
ENDROOT
BRANCH   7  12
ATOM     12  O   UNL     1      71.725   2.309   0.402  1.00  0.00    -0.339 OA
BRANCH  12  13
ATOM     13  C   UNL     1      70.489   2.314   1.109  1.00  0.00     0.282 C 
ATOM     14  C   UNL     1      70.260   0.943   1.779  1.00  0.00     0.202 C 
ATOM     15  O   UNL     1      70.471   3.355   2.076  1.00  0.00    -0.341 OA
ATOM     16  C   UNL     1      71.301   0.715   2.894  1.00  0.00     0.179 C 
ATOM     17  C   UNL     1      71.521   3.217   3.021  1.00  0.00     0.178 C 
ATOM     18  C   UNL     1      71.353   1.919   3.845  1.00  0.00     0.177 C 
BRANCH  14  19
ATOM     19  O   UNL     1      68.956   0.902   2.306  1.00  0.00    -0.385 OA
ATOM     20  H   UNL     1      68.365   1.367   1.658  1.00  0.00     0.211 HD
ENDBRANCH  14  19
BRANCH  16  21
ATOM     21  O   UNL     1      71.006  -0.451   3.619  1.00  0.00    -0.387 OA
ATOM     22  H   UNL     1      70.161  -0.815   3.247  1.00  0.00     0.211 HD
ENDBRANCH  16  21
BRANCH  17  23
ATOM     23  C   UNL     1      71.534   4.452   3.937  1.00  0.00     0.191 C 
BRANCH  23  24
ATOM     24  O   UNL     1      70.232   4.937   4.126  1.00  0.00    -0.394 OA
ATOM     25  H   UNL     1      69.898   5.215   3.234  1.00  0.00     0.210 HD
ENDBRANCH  23  24
ENDBRANCH  17  23
BRANCH  18  26
ATOM     26  O   UNL     1      70.171   1.971   4.608  1.00  0.00    -0.387 OA
ATOM     27  H   UNL     1      69.839   2.907   4.572  1.00  0.00     0.211 HD
ENDBRANCH  18  26
ENDBRANCH  12  13
ENDBRANCH   7  12
BRANCH   4  28
ATOM     28  O   UNL     1      71.736  -0.593  -4.218  1.00  0.00    -0.365 OA
ATOM     29  H   UNL     1      70.937  -1.080  -3.886  1.00  0.00     0.214 HD
ENDBRANCH   4  28
BRANCH   8  30
ATOM     30  C   UNL     1      74.074   0.867  -0.228  1.00  0.00     0.249 C 
BRANCH  30  31
ATOM     31  O   UNL     1      75.381   1.101  -0.753  1.00  0.00    -0.461 OA
BRANCH  31  32
ATOM     32  C   UNL     1      76.522   0.391  -0.362  1.00  0.00     0.338 C 
ATOM     33  O   UNL     1      76.453  -0.849  -0.139  1.00  0.00    -0.246 OA
BRANCH  32  34
ATOM     34  C   UNL     1      77.807   1.103  -0.196  1.00  0.00     0.060 A 
ATOM     35  C   UNL     1      77.837   2.439   0.249  1.00  0.00     0.015 A 
ATOM     36  C   UNL     1      79.022   0.452  -0.480  1.00  0.00     0.015 A 
ATOM     37  C   UNL     1      79.056   3.107   0.402  1.00  0.00     0.001 A 
ATOM     38  C   UNL     1      80.238   1.125  -0.326  1.00  0.00     0.001 A 
ATOM     39  C   UNL     1      80.255   2.451   0.114  1.00  0.00     0.000 A 
ENDBRANCH  32  34
ENDBRANCH  31  32
ENDBRANCH  30  31
ENDBRANCH   8  30
TORSDOF 12
ENDMDL
MODEL 5
REMARK VINA RESULT:    -1.492      1.372      5.043
REMARK INTER + INTRA:          -1.728
REMARK INTER:                  -4.115
REMARK INTRA:                   2.387
REMARK UNBOUND:                 0.593
REMARK SMILES C[C@@]12C[C@@]3(O)O[C@@H](O1)[C@]1(COC(=O)c4ccccc4)[C@H]3C[C@@]12O[C@@H]1O[C@@H](CO)[C@@H](O)[C@@H](O)[C@H]1O
REMARK SMILES IDX 1 1 2 2 3 3 4 4 20 5 21 6 22 7 9 8 7 9 8 10 6 11 23 12 24 13
REMARK SMILES IDX 33 14 25 15 31 16 26 17 29 18 34 19 32 21 27 23 28 24 30 26
REMARK SMILES IDX 5 28 10 30 11 31 12 32 13 33 14 34 15 35 19 36 16 37 18 38
REMARK SMILES IDX 17 39
REMARK H PARENT 34 20 32 22 28 25 30 27 5 29
REMARK Flexibility Score: inf
ROOT
ATOM      1  C   UNL     1      69.820   3.558  -1.551  1.00  0.00     0.046 C 
ATOM      2  C   UNL     1      70.999   2.648  -1.894  1.00  0.00     0.104 C 
ATOM      3  C   UNL     1      70.691   1.744  -3.144  1.00  0.00     0.104 C 
ATOM      4  C   UNL     1      71.975   0.843  -3.272  1.00  0.00     0.175 C 
ATOM      5  C   UNL     1      72.347   0.206  -1.890  1.00  0.00     0.070 C 
ATOM      6  C   UNL     1      71.182   0.232  -0.891  1.00  0.00     0.050 C 
ATOM      7  C   UNL     1      71.491   1.735  -0.710  1.00  0.00     0.115 C 
ATOM      8  C   UNL     1      72.902   1.456  -1.225  1.00  0.00     0.096 C 
ATOM      9  C   UNL     1      73.174   2.456  -2.333  1.00  0.00     0.267 C 
ATOM     10  O   UNL     1      72.134   3.417  -2.248  1.00  0.00    -0.342 OA
ATOM     11  O   UNL     1      73.040   1.731  -3.546  1.00  0.00    -0.320 OA
ENDROOT
BRANCH   7  12
ATOM     12  O   UNL     1      71.490   2.291   0.595  1.00  0.00    -0.339 OA
BRANCH  12  13
ATOM     13  C   UNL     1      72.039   1.411   1.570  1.00  0.00     0.282 C 
ATOM     14  C   UNL     1      72.118   2.122   2.936  1.00  0.00     0.202 C 
ATOM     15  O   UNL     1      71.261   0.224   1.665  1.00  0.00    -0.341 OA
ATOM     16  C   UNL     1      70.699   2.402   3.474  1.00  0.00     0.179 C 
ATOM     17  C   UNL     1      69.916   0.501   2.024  1.00  0.00     0.178 C 
ATOM     18  C   UNL     1      69.841   1.129   3.436  1.00  0.00     0.177 C 
BRANCH  14  19
ATOM     19  O   UNL     1      72.834   1.311   3.835  1.00  0.00    -0.385 OA
ATOM     20  H   UNL     1      72.818   1.768   4.717  1.00  0.00     0.211 HD
ENDBRANCH  14  19
BRANCH  16  21
ATOM     21  O   UNL     1      70.753   2.900   4.786  1.00  0.00    -0.387 OA
ATOM     22  H   UNL     1      71.705   2.870   5.065  1.00  0.00     0.211 HD
ENDBRANCH  16  21
BRANCH  17  23
ATOM     23  C   UNL     1      69.102  -0.801   1.958  1.00  0.00     0.191 C 
BRANCH  23  24
ATOM     24  O   UNL     1      69.896  -1.852   1.474  1.00  0.00    -0.394 OA
ATOM     25  H   UNL     1      70.808  -1.483   1.341  1.00  0.00     0.210 HD
ENDBRANCH  23  24
ENDBRANCH  17  23
BRANCH  18  26
ATOM     26  O   UNL     1      70.304   0.217   4.404  1.00  0.00    -0.387 OA
ATOM     27  H   UNL     1      69.825   0.419   5.251  1.00  0.00     0.211 HD
ENDBRANCH  18  26
ENDBRANCH  12  13
ENDBRANCH   7  12
BRANCH   4  28
ATOM     28  O   UNL     1      71.856  -0.113  -4.289  1.00  0.00    -0.365 OA
ATOM     29  H   UNL     1      71.712   0.388  -5.134  1.00  0.00     0.214 HD
ENDBRANCH   4  28
BRANCH   8  30
ATOM     30  C   UNL     1      74.010   1.261  -0.168  1.00  0.00     0.249 C 
BRANCH  30  31
ATOM     31  O   UNL     1      75.301   1.313  -0.775  1.00  0.00    -0.461 OA
BRANCH  31  32
ATOM     32  C   UNL     1      76.396   0.547  -0.358  1.00  0.00     0.338 C 
ATOM     33  O   UNL     1      76.255  -0.684  -0.117  1.00  0.00    -0.246 OA
BRANCH  32  34
ATOM     34  C   UNL     1      77.716   1.190  -0.185  1.00  0.00     0.060 A 
ATOM     35  C   UNL     1      77.815   2.526   0.250  1.00  0.00     0.015 A 
ATOM     36  C   UNL     1      78.896   0.471  -0.452  1.00  0.00     0.015 A 
ATOM     37  C   UNL     1      79.067   3.128   0.410  1.00  0.00     0.001 A 
ATOM     38  C   UNL     1      80.145   1.079  -0.291  1.00  0.00     0.001 A 
ATOM     39  C   UNL     1      80.231   2.405   0.139  1.00  0.00     0.000 A 
ENDBRANCH  32  34
ENDBRANCH  31  32
ENDBRANCH  30  31
ENDBRANCH   8  30
TORSDOF 12
ENDMDL
