MODEL 1
REMARK VINA RESULT:    -6.460      0.000      0.000
REMARK INTER + INTRA:          -8.109
REMARK INTER:                  -7.781
REMARK INTRA:                  -0.327
REMARK UNBOUND:                -0.327
REMARK SMILES O=c1c(O)c(-c2ccc(O)c(O)c2)oc2cc(O)cc(O)c12
REMARK SMILES IDX 5 1 3 2 2 3 1 4 22 5 20 6 19 7 17 8 16 9 15 10 14 11 6 12
REMARK SMILES IDX 7 13 8 14 9 15 13 16 11 17 10 18 12 20 4 22 21 24 18 26
REMARK H PARENT 10 19 12 21 4 23 21 25 18 27
REMARK Flexibility Score: inf
ROOT
ATOM      1  C   UNL     1      11.361  16.349  12.391  1.00  0.00     0.180 A 
ATOM      2  C   UNL     1      11.748  16.888  11.152  1.00  0.00     0.208 A 
ATOM      3  C   UNL     1      13.048  17.397  11.007  1.00  0.00     0.238 A 
ATOM      4  O   UNL     1      13.412  17.809   9.875  1.00  0.00    -0.285 OA
ATOM      5  C   UNL     1      13.928  17.412  12.117  1.00  0.00     0.111 A 
ATOM      6  C   UNL     1      15.253  17.945  12.097  1.00  0.00     0.134 A 
ATOM      7  C   UNL     1      16.069  17.808  13.226  1.00  0.00     0.093 A 
ATOM      8  C   UNL     1      15.588  17.217  14.397  1.00  0.00     0.123 A 
ATOM      9  C   UNL     1      14.278  16.744  14.444  1.00  0.00     0.094 A 
ATOM     10  C   UNL     1      13.452  16.830  13.322  1.00  0.00     0.146 A 
ATOM     11  O   UNL     1      12.218  16.346  13.404  1.00  0.00    -0.452 OA
ENDROOT
BRANCH   1  12
ATOM     12  C   UNL     1      10.013  15.781  12.617  1.00  0.00     0.025 A 
ATOM     13  C   UNL     1       9.714  14.448  12.284  1.00  0.00     0.016 A 
ATOM     14  C   UNL     1       8.442  13.926  12.529  1.00  0.00     0.051 A 
ATOM     15  C   UNL     1       7.454  14.723  13.122  1.00  0.00     0.157 A 
ATOM     16  C   UNL     1       9.025  16.569  13.230  1.00  0.00     0.062 A 
ATOM     17  C   UNL     1       7.749  16.049  13.477  1.00  0.00     0.158 A 
BRANCH  15  18
ATOM     18  O   UNL     1       6.184  14.200  13.363  1.00  0.00    -0.504 OA
ATOM     19  H   UNL     1       5.445  14.263  12.673  1.00  0.00     0.293 HD
ENDBRANCH  15  18
BRANCH  17  20
ATOM     20  O   UNL     1       6.790  16.866  14.075  1.00  0.00    -0.504 OA
ATOM     21  H   UNL     1       6.201  16.539  14.832  1.00  0.00     0.293 HD
ENDBRANCH  17  20
ENDBRANCH   1  12
BRANCH   2  22
ATOM     22  O   UNL     1      10.840  16.934  10.091  1.00  0.00    -0.502 OA
ATOM     23  H   UNL     1      10.595  16.113   9.549  1.00  0.00     0.293 HD
ENDBRANCH   2  22
BRANCH   6  24
ATOM     24  O   UNL     1      15.804  18.633  11.012  1.00  0.00    -0.507 OA
ATOM     25  H   UNL     1      16.791  18.728  10.829  1.00  0.00     0.293 HD
ENDBRANCH   6  24
BRANCH   8  26
ATOM     26  O   UNL     1      16.401  17.101  15.522  1.00  0.00    -0.508 OA
ATOM     27  H   UNL     1      16.009  16.976  16.448  1.00  0.00     0.293 HD
ENDBRANCH   8  26
TORSDOF 6
ENDMDL
MODEL 2
REMARK VINA RESULT:    -6.459      2.566      7.014
REMARK INTER + INTRA:          -8.107
REMARK INTER:                  -7.847
REMARK INTRA:                  -0.260
REMARK UNBOUND:                -0.327
REMARK SMILES O=c1c(O)c(-c2ccc(O)c(O)c2)oc2cc(O)cc(O)c12
REMARK SMILES IDX 5 1 3 2 2 3 1 4 22 5 20 6 19 7 17 8 16 9 15 10 14 11 6 12
REMARK SMILES IDX 7 13 8 14 9 15 13 16 11 17 10 18 12 20 4 22 21 24 18 26
REMARK H PARENT 10 19 12 21 4 23 21 25 18 27
REMARK Flexibility Score: inf
ROOT
ATOM      1  C   UNL     1      14.001  18.774  12.290  1.00  0.00     0.180 A 
ATOM      2  C   UNL     1      13.406  18.446  11.060  1.00  0.00     0.208 A 
ATOM      3  C   UNL     1      12.347  17.526  11.039  1.00  0.00     0.238 A 
ATOM      4  O   UNL     1      11.770  17.294   9.945  1.00  0.00    -0.285 OA
ATOM      5  C   UNL     1      11.931  16.902  12.241  1.00  0.00     0.111 A 
ATOM      6  C   UNL     1      10.898  15.920  12.331  1.00  0.00     0.134 A 
ATOM      7  C   UNL     1      10.500  15.450  13.588  1.00  0.00     0.093 A 
ATOM      8  C   UNL     1      11.141  15.878  14.754  1.00  0.00     0.123 A 
ATOM      9  C   UNL     1      12.187  16.794  14.671  1.00  0.00     0.094 A 
ATOM     10  C   UNL     1      12.581  17.310  13.435  1.00  0.00     0.146 A 
ATOM     11  O   UNL     1      13.568  18.198  13.405  1.00  0.00    -0.452 OA
ENDROOT
BRANCH   1  12
ATOM     12  C   UNL     1      15.112  19.746  12.395  1.00  0.00     0.025 A 
ATOM     13  C   UNL     1      16.441  19.324  12.574  1.00  0.00     0.016 A 
ATOM     14  C   UNL     1      17.476  20.259  12.646  1.00  0.00     0.051 A 
ATOM     15  C   UNL     1      17.202  21.628  12.527  1.00  0.00     0.157 A 
ATOM     16  C   UNL     1      14.845  21.118  12.256  1.00  0.00     0.062 A 
ATOM     17  C   UNL     1      15.880  22.058  12.329  1.00  0.00     0.158 A 
BRANCH  15  18
ATOM     18  O   UNL     1      18.237  22.559  12.603  1.00  0.00    -0.504 OA
ATOM     19  H   UNL     1      19.209  22.274  12.584  1.00  0.00     0.293 HD
ENDBRANCH  15  18
BRANCH  17  20
ATOM     20  O   UNL     1      15.575  23.413  12.200  1.00  0.00    -0.504 OA
ATOM     21  H   UNL     1      15.569  23.880  11.301  1.00  0.00     0.293 HD
ENDBRANCH  17  20
ENDBRANCH   1  12
BRANCH   2  22
ATOM     22  O   UNL     1      13.882  19.016   9.875  1.00  0.00    -0.502 OA
ATOM     23  H   UNL     1      14.696  18.659   9.389  1.00  0.00     0.293 HD
ENDBRANCH   2  22
BRANCH   6  24
ATOM     24  O   UNL     1      10.251  15.359  11.225  1.00  0.00    -0.507 OA
ATOM     25  H   UNL     1      10.397  14.421  10.886  1.00  0.00     0.293 HD
ENDBRANCH   6  24
BRANCH   8  26
ATOM     26  O   UNL     1      10.751  15.392  16.000  1.00  0.00    -0.508 OA
ATOM     27  H   UNL     1      11.431  15.155  16.712  1.00  0.00     0.293 HD
ENDBRANCH   8  26
TORSDOF 6
ENDMDL
MODEL 3
REMARK VINA RESULT:    -6.401     10.020     11.055
REMARK INTER + INTRA:          -8.038
REMARK INTER:                  -8.160
REMARK INTRA:                   0.122
REMARK UNBOUND:                -0.327
REMARK SMILES O=c1c(O)c(-c2ccc(O)c(O)c2)oc2cc(O)cc(O)c12
REMARK SMILES IDX 5 1 3 2 2 3 1 4 22 5 20 6 19 7 17 8 16 9 15 10 14 11 6 12
REMARK SMILES IDX 7 13 8 14 9 15 13 16 11 17 10 18 12 20 4 22 21 24 18 26
REMARK H PARENT 10 19 12 21 4 23 21 25 18 27
REMARK Flexibility Score: inf
ROOT
ATOM      1  C   UNL     1       8.120  26.123  15.581  1.00  0.00     0.180 A 
ATOM      2  C   UNL     1       8.590  26.276  16.897  1.00  0.00     0.208 A 
ATOM      3  C   UNL     1       9.779  25.633  17.275  1.00  0.00     0.238 A 
ATOM      4  O   UNL     1      10.232  25.834  18.431  1.00  0.00    -0.285 OA
ATOM      5  C   UNL     1      10.455  24.799  16.350  1.00  0.00     0.111 A 
ATOM      6  C   UNL     1      11.643  24.062  16.639  1.00  0.00     0.134 A 
ATOM      7  C   UNL     1      12.283  23.354  15.615  1.00  0.00     0.093 A 
ATOM      8  C   UNL     1      11.742  23.303  14.327  1.00  0.00     0.123 A 
ATOM      9  C   UNL     1      10.553  23.974  14.050  1.00  0.00     0.094 A 
ATOM     10  C   UNL     1       9.913  24.720  15.041  1.00  0.00     0.146 A 
ATOM     11  O   UNL     1       8.793  25.362  14.726  1.00  0.00    -0.452 OA
ENDROOT
BRANCH   1  12
ATOM     12  C   UNL     1       6.884  26.781  15.103  1.00  0.00     0.025 A 
ATOM     13  C   UNL     1       5.921  26.079  14.357  1.00  0.00     0.016 A 
ATOM     14  C   UNL     1       4.750  26.714  13.937  1.00  0.00     0.051 A 
ATOM     15  C   UNL     1       4.517  28.056  14.266  1.00  0.00     0.157 A 
ATOM     16  C   UNL     1       6.636  28.120  15.448  1.00  0.00     0.062 A 
ATOM     17  C   UNL     1       5.464  28.760  15.028  1.00  0.00     0.158 A 
BRANCH  15  18
ATOM     18  O   UNL     1       3.349  28.688  13.843  1.00  0.00    -0.504 OA
ATOM     19  H   UNL     1       3.180  28.892  12.866  1.00  0.00     0.293 HD
ENDBRANCH  15  18
BRANCH  17  20
ATOM     20  O   UNL     1       5.259  30.094  15.378  1.00  0.00    -0.504 OA
ATOM     21  H   UNL     1       5.958  30.808  15.210  1.00  0.00     0.293 HD
ENDBRANCH  17  20
ENDBRANCH   1  12
BRANCH   2  22
ATOM     22  O   UNL     1       7.867  27.042  17.816  1.00  0.00    -0.502 OA
ATOM     23  H   UNL     1       7.198  27.746  17.529  1.00  0.00     0.293 HD
ENDBRANCH   2  22
BRANCH   6  24
ATOM     24  O   UNL     1      12.220  23.972  17.910  1.00  0.00    -0.507 OA
ATOM     25  H   UNL     1      11.710  23.819  18.766  1.00  0.00     0.293 HD
ENDBRANCH   6  24
BRANCH   8  26
ATOM     26  O   UNL     1      12.376  22.583  13.318  1.00  0.00    -0.508 OA
ATOM     27  H   UNL     1      12.130  22.709  12.343  1.00  0.00     0.293 HD
ENDBRANCH   8  26
TORSDOF 6
ENDMDL
MODEL 4
REMARK VINA RESULT:    -6.357      9.222     11.736
REMARK INTER + INTRA:          -7.985
REMARK INTER:                  -7.654
REMARK INTRA:                  -0.331
REMARK UNBOUND:                -0.327
REMARK SMILES O=c1c(O)c(-c2ccc(O)c(O)c2)oc2cc(O)cc(O)c12
REMARK SMILES IDX 5 1 3 2 2 3 1 4 22 5 20 6 19 7 17 8 16 9 15 10 14 11 6 12
REMARK SMILES IDX 7 13 8 14 9 15 13 16 11 17 10 18 12 20 4 22 21 24 18 26
REMARK H PARENT 10 19 12 21 4 23 21 25 18 27
REMARK Flexibility Score: inf
ROOT
ATOM      1  C   UNL     1       7.503  20.762  20.469  1.00  0.00     0.180 A 
ATOM      2  C   UNL     1       6.191  20.306  20.677  1.00  0.00     0.208 A 
ATOM      3  C   UNL     1       5.120  21.047  20.153  1.00  0.00     0.238 A 
ATOM      4  O   UNL     1       3.953  20.593  20.279  1.00  0.00    -0.285 OA
ATOM      5  C   UNL     1       5.371  22.265  19.474  1.00  0.00     0.111 A 
ATOM      6  C   UNL     1       4.359  23.121  18.941  1.00  0.00     0.134 A 
ATOM      7  C   UNL     1       4.730  24.247  18.196  1.00  0.00     0.093 A 
ATOM      8  C   UNL     1       6.074  24.585  18.021  1.00  0.00     0.123 A 
ATOM      9  C   UNL     1       7.067  23.786  18.584  1.00  0.00     0.094 A 
ATOM     10  C   UNL     1       6.730  22.635  19.299  1.00  0.00     0.146 A 
ATOM     11  O   UNL     1       7.709  21.891  19.800  1.00  0.00    -0.452 OA
ENDROOT
BRANCH   1  12
ATOM     12  C   UNL     1       8.684  20.029  20.977  1.00  0.00     0.025 A 
ATOM     13  C   UNL     1       9.328  19.049  20.202  1.00  0.00     0.016 A 
ATOM     14  C   UNL     1      10.456  18.387  20.693  1.00  0.00     0.051 A 
ATOM     15  C   UNL     1      10.964  18.702  21.960  1.00  0.00     0.157 A 
ATOM     16  C   UNL     1       9.209  20.355  22.238  1.00  0.00     0.062 A 
ATOM     17  C   UNL     1      10.339  19.693  22.734  1.00  0.00     0.158 A 
BRANCH  15  18
ATOM     18  O   UNL     1      12.087  18.037  22.449  1.00  0.00    -0.504 OA
ATOM     19  H   UNL     1      12.016  17.130  22.895  1.00  0.00     0.293 HD
ENDBRANCH  15  18
BRANCH  17  20
ATOM     20  O   UNL     1      10.823  20.034  23.996  1.00  0.00    -0.504 OA
ATOM     21  H   UNL     1      11.181  19.340  24.642  1.00  0.00     0.293 HD
ENDBRANCH  17  20
ENDBRANCH   1  12
BRANCH   2  22
ATOM     22  O   UNL     1       5.961  19.142  21.415  1.00  0.00    -0.502 OA
ATOM     23  H   UNL     1       6.108  19.095  22.417  1.00  0.00     0.293 HD
ENDBRANCH   2  22
BRANCH   6  24
ATOM     24  O   UNL     1       2.988  22.927  19.132  1.00  0.00    -0.507 OA
ATOM     25  H   UNL     1       2.523  22.933  20.027  1.00  0.00     0.293 HD
ENDBRANCH   6  24
BRANCH   8  26
ATOM     26  O   UNL     1       6.435  25.716  17.293  1.00  0.00    -0.508 OA
ATOM     27  H   UNL     1       6.068  26.633  17.524  1.00  0.00     0.293 HD
ENDBRANCH   8  26
TORSDOF 6
ENDMDL
MODEL 5
REMARK VINA RESULT:    -6.271     11.737     13.866
REMARK INTER + INTRA:          -7.881
REMARK INTER:                  -7.780
REMARK INTRA:                  -0.101
REMARK UNBOUND:                -0.327
REMARK SMILES O=c1c(O)c(-c2ccc(O)c(O)c2)oc2cc(O)cc(O)c12
REMARK SMILES IDX 5 1 3 2 2 3 1 4 22 5 20 6 19 7 17 8 16 9 15 10 14 11 6 12
REMARK SMILES IDX 7 13 8 14 9 15 13 16 11 17 10 18 12 20 4 22 21 24 18 26
REMARK H PARENT 10 19 12 21 4 23 21 25 18 27
REMARK Flexibility Score: inf
ROOT
ATOM      1  C   UNL     1      10.440  25.712  20.902  1.00  0.00     0.180 A 
ATOM      2  C   UNL     1       9.941  24.401  20.975  1.00  0.00     0.208 A 
ATOM      3  C   UNL     1       9.133  23.919  19.934  1.00  0.00     0.238 A 
ATOM      4  O   UNL     1       8.752  22.720  19.971  1.00  0.00    -0.285 OA
ATOM      5  C   UNL     1       8.788  24.772  18.857  1.00  0.00     0.111 A 
ATOM      6  C   UNL     1       7.938  24.404  17.770  1.00  0.00     0.134 A 
ATOM      7  C   UNL     1       7.752  25.296  16.707  1.00  0.00     0.093 A 
ATOM      8  C   UNL     1       8.331  26.567  16.722  1.00  0.00     0.123 A 
ATOM      9  C   UNL     1       9.117  26.956  17.805  1.00  0.00     0.094 A 
ATOM     10  C   UNL     1       9.353  26.074  18.862  1.00  0.00     0.146 A 
ATOM     11  O   UNL     1      10.126  26.478  19.864  1.00  0.00    -0.452 OA
ENDROOT
BRANCH   1  12
ATOM     12  C   UNL     1      11.310  26.286  21.952  1.00  0.00     0.025 A 
ATOM     13  C   UNL     1      12.519  25.671  22.320  1.00  0.00     0.016 A 
ATOM     14  C   UNL     1      13.336  26.244  23.298  1.00  0.00     0.051 A 
ATOM     15  C   UNL     1      12.963  27.446  23.914  1.00  0.00     0.157 A 
ATOM     16  C   UNL     1      10.951  27.501  22.558  1.00  0.00     0.062 A 
ATOM     17  C   UNL     1      11.766  28.078  23.539  1.00  0.00     0.158 A 
BRANCH  15  18
ATOM     18  O   UNL     1      13.779  28.014  24.891  1.00  0.00    -0.504 OA
ATOM     19  H   UNL     1      14.724  28.315  24.685  1.00  0.00     0.293 HD
ENDBRANCH  15  18
BRANCH  17  20
ATOM     20  O   UNL     1      11.370  29.279  24.128  1.00  0.00    -0.504 OA
ATOM     21  H   UNL     1      11.650  30.179  23.756  1.00  0.00     0.293 HD
ENDBRANCH  17  20
ENDBRANCH   1  12
BRANCH   2  22
ATOM     22  O   UNL     1      10.232  23.600  22.084  1.00  0.00    -0.502 OA
ATOM     23  H   UNL     1       9.749  22.728  22.266  1.00  0.00     0.293 HD
ENDBRANCH   2  22
BRANCH   6  24
ATOM     24  O   UNL     1       7.239  23.195  17.695  1.00  0.00    -0.507 OA
ATOM     25  H   UNL     1       6.816  22.723  18.480  1.00  0.00     0.293 HD
ENDBRANCH   6  24
BRANCH   8  26
ATOM     26  O   UNL     1       8.127  27.455  15.669  1.00  0.00    -0.508 OA
ATOM     27  H   UNL     1       8.853  27.645  14.988  1.00  0.00     0.293 HD
ENDBRANCH   8  26
TORSDOF 6
ENDMDL
MODEL 6
REMARK VINA RESULT:    -6.267      3.326      6.243
REMARK INTER + INTRA:          -7.876
REMARK INTER:                  -7.553
REMARK INTRA:                  -0.323
REMARK UNBOUND:                -0.327
REMARK SMILES O=c1c(O)c(-c2ccc(O)c(O)c2)oc2cc(O)cc(O)c12
REMARK SMILES IDX 5 1 3 2 2 3 1 4 22 5 20 6 19 7 17 8 16 9 15 10 14 11 6 12
REMARK SMILES IDX 7 13 8 14 9 15 13 16 11 17 10 18 12 20 4 22 21 24 18 26
REMARK H PARENT 10 19 12 21 4 23 21 25 18 27
REMARK Flexibility Score: inf
ROOT
ATOM      1  C   UNL     1      16.436  17.413  14.146  1.00  0.00     0.180 A 
ATOM      2  C   UNL     1      17.151  18.622  14.199  1.00  0.00     0.208 A 
ATOM      3  C   UNL     1      18.326  18.685  14.964  1.00  0.00     0.238 A 
ATOM      4  O   UNL     1      19.000  19.747  14.946  1.00  0.00    -0.285 OA
ATOM      5  C   UNL     1      18.743  17.557  15.711  1.00  0.00     0.111 A 
ATOM      6  C   UNL     1      19.894  17.522  16.557  1.00  0.00     0.134 A 
ATOM      7  C   UNL     1      20.268  16.318  17.164  1.00  0.00     0.093 A 
ATOM      8  C   UNL     1      19.498  15.162  17.010  1.00  0.00     0.123 A 
ATOM      9  C   UNL     1      18.343  15.200  16.231  1.00  0.00     0.094 A 
ATOM     10  C   UNL     1      17.965  16.376  15.581  1.00  0.00     0.146 A 
ATOM     11  O   UNL     1      16.869  16.362  14.831  1.00  0.00    -0.452 OA
ENDROOT
BRANCH   1  12
ATOM     12  C   UNL     1      15.196  17.264  13.351  1.00  0.00     0.025 A 
ATOM     13  C   UNL     1      13.932  17.526  13.907  1.00  0.00     0.016 A 
ATOM     14  C   UNL     1      12.778  17.401  13.130  1.00  0.00     0.051 A 
ATOM     15  C   UNL     1      12.870  17.025  11.783  1.00  0.00     0.157 A 
ATOM     16  C   UNL     1      15.285  16.907  11.995  1.00  0.00     0.062 A 
ATOM     17  C   UNL     1      14.130  16.780  11.214  1.00  0.00     0.158 A 
BRANCH  15  18
ATOM     18  O   UNL     1      11.716  16.899  11.011  1.00  0.00    -0.504 OA
ATOM     19  H   UNL     1      11.502  16.043  10.513  1.00  0.00     0.293 HD
ENDBRANCH  15  18
BRANCH  17  20
ATOM     20  O   UNL     1      14.257  16.411   9.875  1.00  0.00    -0.504 OA
ATOM     21  H   UNL     1      15.137  16.095   9.485  1.00  0.00     0.293 HD
ENDBRANCH  17  20
ENDBRANCH   1  12
BRANCH   2  22
ATOM     22  O   UNL     1      16.681  19.747  13.515  1.00  0.00    -0.502 OA
ATOM     23  H   UNL     1      17.207  20.188  12.770  1.00  0.00     0.293 HD
ENDBRANCH   2  22
BRANCH   6  24
ATOM     24  O   UNL     1      20.683  18.638  16.851  1.00  0.00    -0.507 OA
ATOM     25  H   UNL     1      20.690  19.124  17.735  1.00  0.00     0.293 HD
ENDBRANCH   6  24
BRANCH   8  26
ATOM     26  O   UNL     1      19.868  13.972  17.631  1.00  0.00    -0.508 OA
ATOM     27  H   UNL     1      19.221  13.196  17.718  1.00  0.00     0.293 HD
ENDBRANCH   8  26
TORSDOF 6
ENDMDL
MODEL 7
REMARK VINA RESULT:    -6.229     15.006     16.480
REMARK INTER + INTRA:          -7.831
REMARK INTER:                  -7.757
REMARK INTRA:                  -0.074
REMARK UNBOUND:                -0.327
REMARK SMILES O=c1c(O)c(-c2ccc(O)c(O)c2)oc2cc(O)cc(O)c12
REMARK SMILES IDX 5 1 3 2 2 3 1 4 22 5 20 6 19 7 17 8 16 9 15 10 14 11 6 12
REMARK SMILES IDX 7 13 8 14 9 15 13 16 11 17 10 18 12 20 4 22 21 24 18 26
REMARK H PARENT 10 19 12 21 4 23 21 25 18 27
REMARK Flexibility Score: inf
ROOT
ATOM      1  C   UNL     1      13.842  25.072  25.469  1.00  0.00     0.180 A 
ATOM      2  C   UNL     1      14.988  24.483  24.906  1.00  0.00     0.208 A 
ATOM      3  C   UNL     1      15.527  23.333  25.505  1.00  0.00     0.238 A 
ATOM      4  O   UNL     1      16.507  22.769  24.953  1.00  0.00    -0.285 OA
ATOM      5  C   UNL     1      14.949  22.818  26.690  1.00  0.00     0.111 A 
ATOM      6  C   UNL     1      15.440  21.685  27.408  1.00  0.00     0.134 A 
ATOM      7  C   UNL     1      14.723  21.202  28.510  1.00  0.00     0.093 A 
ATOM      8  C   UNL     1      13.570  21.849  28.960  1.00  0.00     0.123 A 
ATOM      9  C   UNL     1      13.114  22.988  28.299  1.00  0.00     0.094 A 
ATOM     10  C   UNL     1      13.784  23.471  27.174  1.00  0.00     0.146 A 
ATOM     11  O   UNL     1      13.302  24.547  26.562  1.00  0.00    -0.452 OA
ENDROOT
BRANCH   1  12
ATOM     12  C   UNL     1      13.207  26.275  24.887  1.00  0.00     0.025 A 
ATOM     13  C   UNL     1      12.809  26.315  23.540  1.00  0.00     0.016 A 
ATOM     14  C   UNL     1      12.189  27.454  23.019  1.00  0.00     0.051 A 
ATOM     15  C   UNL     1      11.946  28.564  23.839  1.00  0.00     0.157 A 
ATOM     16  C   UNL     1      12.943  27.382  25.710  1.00  0.00     0.062 A 
ATOM     17  C   UNL     1      12.323  28.525  25.191  1.00  0.00     0.158 A 
BRANCH  15  18
ATOM     18  O   UNL     1      11.330  29.699  23.316  1.00  0.00    -0.504 OA
ATOM     19  H   UNL     1      11.765  30.612  23.371  1.00  0.00     0.293 HD
ENDBRANCH  15  18
BRANCH  17  20
ATOM     20  O   UNL     1      12.089  29.610  26.036  1.00  0.00    -0.504 OA
ATOM     21  H   UNL     1      11.948  30.549  25.680  1.00  0.00     0.293 HD
ENDBRANCH  17  20
ENDBRANCH   1  12
BRANCH   2  22
ATOM     22  O   UNL     1      15.588  25.051  23.779  1.00  0.00    -0.502 OA
ATOM     23  H   UNL     1      16.090  25.931  23.816  1.00  0.00     0.293 HD
ENDBRANCH   2  22
BRANCH   6  24
ATOM     24  O   UNL     1      16.629  21.017  27.099  1.00  0.00    -0.507 OA
ATOM     25  H   UNL     1      16.703  20.030  26.906  1.00  0.00     0.293 HD
ENDBRANCH   6  24
BRANCH   8  26
ATOM     26  O   UNL     1      12.872  21.372  30.067  1.00  0.00    -0.508 OA
ATOM     27  H   UNL     1      12.307  20.532  30.016  1.00  0.00     0.293 HD
ENDBRANCH   8  26
TORSDOF 6
ENDMDL
MODEL 8
REMARK VINA RESULT:    -6.226      3.713      7.180
REMARK INTER + INTRA:          -7.827
REMARK INTER:                  -7.496
REMARK INTRA:                  -0.331
REMARK UNBOUND:                -0.327
REMARK SMILES O=c1c(O)c(-c2ccc(O)c(O)c2)oc2cc(O)cc(O)c12
REMARK SMILES IDX 5 1 3 2 2 3 1 4 22 5 20 6 19 7 17 8 16 9 15 10 14 11 6 12
REMARK SMILES IDX 7 13 8 14 9 15 13 16 11 17 10 18 12 20 4 22 21 24 18 26
REMARK H PARENT 10 19 12 21 4 23 21 25 18 27
REMARK Flexibility Score: inf
ROOT
ATOM      1  C   UNL     1      17.150  16.819  14.852  1.00  0.00     0.180 A 
ATOM      2  C   UNL     1      17.732  15.600  15.236  1.00  0.00     0.208 A 
ATOM      3  C   UNL     1      18.840  15.615  16.098  1.00  0.00     0.238 A 
ATOM      4  O   UNL     1      19.309  14.518  16.496  1.00  0.00    -0.285 OA
ATOM      5  C   UNL     1      19.387  16.851  16.521  1.00  0.00     0.111 A 
ATOM      6  C   UNL     1      20.536  16.986  17.358  1.00  0.00     0.134 A 
ATOM      7  C   UNL     1      20.923  18.258  17.800  1.00  0.00     0.093 A 
ATOM      8  C   UNL     1      20.242  19.404  17.381  1.00  0.00     0.123 A 
ATOM      9  C   UNL     1      19.153  19.286  16.520  1.00  0.00     0.094 A 
ATOM     10  C   UNL     1      18.720  18.029  16.095  1.00  0.00     0.146 A 
ATOM     11  O   UNL     1      17.664  17.962  15.291  1.00  0.00    -0.452 OA
ENDROOT
BRANCH   1  12
ATOM     12  C   UNL     1      15.971  16.885  13.958  1.00  0.00     0.025 A 
ATOM     13  C   UNL     1      14.662  16.849  14.469  1.00  0.00     0.016 A 
ATOM     14  C   UNL     1      13.565  16.936  13.608  1.00  0.00     0.051 A 
ATOM     15  C   UNL     1      13.759  17.073  12.227  1.00  0.00     0.157 A 
ATOM     16  C   UNL     1      16.161  17.043  12.576  1.00  0.00     0.062 A 
ATOM     17  C   UNL     1      15.064  17.130  11.710  1.00  0.00     0.158 A 
BRANCH  15  18
ATOM     18  O   UNL     1      12.663  17.157  11.370  1.00  0.00    -0.504 OA
ATOM     19  H   UNL     1      11.799  16.666  11.565  1.00  0.00     0.293 HD
ENDBRANCH  15  18
BRANCH  17  20
ATOM     20  O   UNL     1      15.292  17.273  10.342  1.00  0.00    -0.504 OA
ATOM     21  H   UNL     1      16.149  16.957   9.903  1.00  0.00     0.293 HD
ENDBRANCH  17  20
ENDBRANCH   1  12
BRANCH   2  22
ATOM     22  O   UNL     1      17.224  14.393  14.746  1.00  0.00    -0.502 OA
ATOM     23  H   UNL     1      16.804  13.696  15.349  1.00  0.00     0.293 HD
ENDBRANCH   2  22
BRANCH   6  24
ATOM     24  O   UNL     1      21.341  15.917  17.763  1.00  0.00    -0.507 OA
ATOM     25  H   UNL     1      21.010  15.093  18.240  1.00  0.00     0.293 HD
ENDBRANCH   6  24
BRANCH   8  26
ATOM     26  O   UNL     1      20.644  20.666  17.811  1.00  0.00    -0.508 OA
ATOM     27  H   UNL     1      20.081  21.490  17.634  1.00  0.00     0.293 HD
ENDBRANCH   8  26
TORSDOF 6
ENDMDL
MODEL 9
REMARK VINA RESULT:    -6.167     12.855     14.271
REMARK INTER + INTRA:          -7.756
REMARK INTER:                  -7.506
REMARK INTRA:                  -0.250
REMARK UNBOUND:                -0.327
REMARK SMILES O=c1c(O)c(-c2ccc(O)c(O)c2)oc2cc(O)cc(O)c12
REMARK SMILES IDX 5 1 3 2 2 3 1 4 22 5 20 6 19 7 17 8 16 9 15 10 14 11 6 12
REMARK SMILES IDX 7 13 8 14 9 15 13 16 11 17 10 18 12 20 4 22 21 24 18 26
REMARK H PARENT 10 19 12 21 4 23 21 25 18 27
REMARK Flexibility Score: inf
ROOT
ATOM      1  C   UNL     1      11.870  26.051  22.307  1.00  0.00     0.180 A 
ATOM      2  C   UNL     1      11.326  27.243  22.815  1.00  0.00     0.208 A 
ATOM      3  C   UNL     1      11.960  27.877  23.894  1.00  0.00     0.238 A 
ATOM      4  O   UNL     1      11.510  28.982  24.294  1.00  0.00    -0.285 OA
ATOM      5  C   UNL     1      13.100  27.283  24.490  1.00  0.00     0.111 A 
ATOM      6  C   UNL     1      13.796  27.814  25.618  1.00  0.00     0.134 A 
ATOM      7  C   UNL     1      14.974  27.196  26.056  1.00  0.00     0.093 A 
ATOM      8  C   UNL     1      15.445  26.030  25.448  1.00  0.00     0.123 A 
ATOM      9  C   UNL     1      14.742  25.473  24.382  1.00  0.00     0.094 A 
ATOM     10  C   UNL     1      13.585  26.088  23.898  1.00  0.00     0.146 A 
ATOM     11  O   UNL     1      12.959  25.535  22.866  1.00  0.00    -0.452 OA
ENDROOT
BRANCH   1  12
ATOM     12  C   UNL     1      11.267  25.333  21.163  1.00  0.00     0.025 A 
ATOM     13  C   UNL     1      10.523  24.154  21.347  1.00  0.00     0.016 A 
ATOM     14  C   UNL     1       9.943  23.506  20.253  1.00  0.00     0.051 A 
ATOM     15  C   UNL     1      10.086  24.032  18.962  1.00  0.00     0.157 A 
ATOM     16  C   UNL     1      11.391  25.867  19.869  1.00  0.00     0.062 A 
ATOM     17  C   UNL     1      10.811  25.220  18.771  1.00  0.00     0.158 A 
BRANCH  15  18
ATOM     18  O   UNL     1       9.509  23.382  17.873  1.00  0.00    -0.504 OA
ATOM     19  H   UNL     1      10.071  23.015  17.115  1.00  0.00     0.293 HD
ENDBRANCH  15  18
BRANCH  17  20
ATOM     20  O   UNL     1      10.967  25.773  17.501  1.00  0.00    -0.504 OA
ATOM     21  H   UNL     1      10.465  25.418  16.694  1.00  0.00     0.293 HD
ENDBRANCH  17  20
ENDBRANCH   1  12
BRANCH   2  22
ATOM     22  O   UNL     1      10.157  27.773  22.261  1.00  0.00    -0.502 OA
ATOM     23  H   UNL     1       9.246  27.640  22.684  1.00  0.00     0.293 HD
ENDBRANCH   2  22
BRANCH   6  24
ATOM     24  O   UNL     1      13.366  28.922  26.354  1.00  0.00    -0.507 OA
ATOM     25  H   UNL     1      12.554  28.939  26.952  1.00  0.00     0.293 HD
ENDBRANCH   6  24
BRANCH   8  26
ATOM     26  O   UNL     1      16.608  25.412  25.900  1.00  0.00    -0.508 OA
ATOM     27  H   UNL     1      16.982  24.587  25.444  1.00  0.00     0.293 HD
ENDBRANCH   8  26
TORSDOF 6
ENDMDL
