MODEL 1
REMARK VINA RESULT:    -3.993      0.000      0.000
REMARK INTER + INTRA:          -8.963
REMARK INTER:                  -7.261
REMARK INTRA:                  -1.702
REMARK UNBOUND:                -1.702
REMARK SMILES CCCCCC=CCC=CCCCCCCCC(=O)[O-]
REMARK SMILES IDX 11 1 12 2 13 3 14 4 15 5 16 6 17 7 18 8 19 9 20 10 10 11
REMARK SMILES IDX 9 12 8 13 7 14 6 15 5 16 4 17 3 18 2 19 1 20
REMARK H PARENT
REMARK Flexibility Score: inf
ROOT
ATOM      1  C   UNL     1     -22.412  19.106  -1.213  1.00  0.00     0.027 C 
ENDROOT
BRANCH   1   2
ATOM      2  C   UNL     1     -22.524  19.247  -2.735  1.00  0.00     0.004 C 
BRANCH   2   3
ATOM      3  C   UNL     1     -21.146  19.163  -3.399  1.00  0.00     0.000 C 
BRANCH   3   4
ATOM      4  C   UNL     1     -20.460  17.828  -3.074  1.00  0.00     0.000 C 
BRANCH   4   5
ATOM      5  C   UNL     1     -20.484  16.847  -4.256  1.00  0.00     0.000 C 
BRANCH   5   6
ATOM      6  C   UNL     1     -21.689  15.891  -4.208  1.00  0.00     0.006 C 
BRANCH   6   7
ATOM      7  C   UNL     1     -22.875  16.411  -5.032  1.00  0.00     0.053 C 
BRANCH   7   8
ATOM      8  C   UNL     1     -22.864  15.864  -6.427  1.00  0.00     0.041 C 
ATOM      9  O   UNL     1     -22.094  14.913  -6.728  1.00  0.00    -0.550 OA
ATOM     10  O   UNL     1     -23.729  16.379  -7.383  1.00  0.00    -0.550 OA
ENDBRANCH   7   8
ENDBRANCH   6   7
ENDBRANCH   5   6
ENDBRANCH   4   5
ENDBRANCH   3   4
ENDBRANCH   2   3
ENDBRANCH   1   2
BRANCH   1  11
ATOM     11  C   UNL     1     -23.556  18.283  -0.678  1.00  0.00    -0.031 C 
ATOM     12  C   UNL     1     -23.463  17.000  -0.280  1.00  0.00    -0.027 C 
BRANCH  12  13
ATOM     13  C   UNL     1     -22.215  16.155  -0.368  1.00  0.00     0.054 C 
BRANCH  13  14
ATOM     14  C   UNL     1     -21.309  16.360   0.821  1.00  0.00    -0.027 C 
ATOM     15  C   UNL     1     -21.553  15.897   2.060  1.00  0.00    -0.031 C 
BRANCH  15  16
ATOM     16  C   UNL     1     -22.733  15.035   2.438  1.00  0.00     0.027 C 
BRANCH  16  17
ATOM     17  C   UNL     1     -23.831  15.842   3.146  1.00  0.00     0.004 C 
BRANCH  17  18
ATOM     18  C   UNL     1     -23.931  15.496   4.642  1.00  0.00     0.000 C 
BRANCH  18  19
ATOM     19  C   UNL     1     -23.871  16.741   5.541  1.00  0.00    -0.003 C 
ATOM     20  C   UNL     1     -22.443  17.228   5.783  1.00  0.00     0.004 C 
ENDBRANCH  18  19
ENDBRANCH  17  18
ENDBRANCH  16  17
ENDBRANCH  15  16
ENDBRANCH  13  14
ENDBRANCH  12  13
ENDBRANCH   1  11
TORSDOF 14
ENDMDL
MODEL 2
REMARK VINA RESULT:    -3.988      1.115      2.060
REMARK INTER + INTRA:          -8.954
REMARK INTER:                  -7.388
REMARK INTRA:                  -1.565
REMARK UNBOUND:                -1.702
REMARK SMILES CCCCCC=CCC=CCCCCCCCC(=O)[O-]
REMARK SMILES IDX 11 1 12 2 13 3 14 4 15 5 16 6 17 7 18 8 19 9 20 10 10 11
REMARK SMILES IDX 9 12 8 13 7 14 6 15 5 16 4 17 3 18 2 19 1 20
REMARK H PARENT
REMARK Flexibility Score: inf
ROOT
ATOM      1  C   UNL     1     -20.344  18.097  -1.830  1.00  0.00     0.027 C 
ENDROOT
BRANCH   1   2
ATOM      2  C   UNL     1     -20.687  18.949  -3.057  1.00  0.00     0.004 C 
BRANCH   2   3
ATOM      3  C   UNL     1     -21.995  19.719  -2.845  1.00  0.00     0.000 C 
BRANCH   3   4
ATOM      4  C   UNL     1     -22.808  19.112  -1.691  1.00  0.00     0.000 C 
BRANCH   4   5
ATOM      5  C   UNL     1     -24.117  18.464  -2.167  1.00  0.00     0.000 C 
BRANCH   5   6
ATOM      6  C   UNL     1     -24.106  18.142  -3.672  1.00  0.00     0.006 C 
BRANCH   6   7
ATOM      7  C   UNL     1     -23.890  16.647  -3.943  1.00  0.00     0.053 C 
BRANCH   7   8
ATOM      8  C   UNL     1     -23.062  16.418  -5.170  1.00  0.00     0.041 C 
ATOM      9  O   UNL     1     -21.897  15.951  -5.070  1.00  0.00    -0.550 OA
ATOM     10  O   UNL     1     -23.591  16.687  -6.426  1.00  0.00    -0.550 OA
ENDBRANCH   7   8
ENDBRANCH   6   7
ENDBRANCH   5   6
ENDBRANCH   4   5
ENDBRANCH   3   4
ENDBRANCH   2   3
ENDBRANCH   1   2
BRANCH   1  11
ATOM     11  C   UNL     1     -20.559  16.635  -2.131  1.00  0.00    -0.031 C 
ATOM     12  C   UNL     1     -21.335  15.806  -1.407  1.00  0.00    -0.027 C 
BRANCH  12  13
ATOM     13  C   UNL     1     -22.061  16.186  -0.139  1.00  0.00     0.054 C 
BRANCH  13  14
ATOM     14  C   UNL     1     -21.297  15.773   1.094  1.00  0.00    -0.027 C 
ATOM     15  C   UNL     1     -21.832  15.654   2.324  1.00  0.00    -0.031 C 
BRANCH  15  16
ATOM     16  C   UNL     1     -23.294  15.841   2.646  1.00  0.00     0.027 C 
BRANCH  16  17
ATOM     17  C   UNL     1     -23.839  14.707   3.526  1.00  0.00     0.004 C 
BRANCH  17  18
ATOM     18  C   UNL     1     -24.112  15.172   4.967  1.00  0.00     0.000 C 
BRANCH  18  19
ATOM     19  C   UNL     1     -24.049  16.700   5.115  1.00  0.00    -0.003 C 
ATOM     20  C   UNL     1     -22.752  17.179   5.766  1.00  0.00     0.004 C 
ENDBRANCH  18  19
ENDBRANCH  17  18
ENDBRANCH  16  17
ENDBRANCH  15  16
ENDBRANCH  13  14
ENDBRANCH  12  13
ENDBRANCH   1  11
TORSDOF 14
ENDMDL
MODEL 3
REMARK VINA RESULT:    -3.929      2.073      3.974
REMARK INTER + INTRA:          -8.846
REMARK INTER:                  -7.142
REMARK INTRA:                  -1.704
REMARK UNBOUND:                -1.702
REMARK SMILES CCCCCC=CCC=CCCCCCCCC(=O)[O-]
REMARK SMILES IDX 11 1 12 2 13 3 14 4 15 5 16 6 17 7 18 8 19 9 20 10 10 11
REMARK SMILES IDX 9 12 8 13 7 14 6 15 5 16 4 17 3 18 2 19 1 20
REMARK H PARENT
REMARK Flexibility Score: inf
ROOT
ATOM      1  C   UNL     1     -20.407  17.492  -3.886  1.00  0.00     0.027 C 
ENDROOT
BRANCH   1   2
ATOM      2  C   UNL     1     -21.040  16.130  -4.193  1.00  0.00     0.004 C 
BRANCH   2   3
ATOM      3  C   UNL     1     -22.231  15.855  -3.268  1.00  0.00     0.000 C 
BRANCH   3   4
ATOM      4  C   UNL     1     -23.560  16.054  -4.011  1.00  0.00     0.000 C 
BRANCH   4   5
ATOM      5  C   UNL     1     -23.366  16.575  -5.443  1.00  0.00     0.000 C 
BRANCH   5   6
ATOM      6  C   UNL     1     -23.697  15.515  -6.509  1.00  0.00     0.006 C 
BRANCH   6   7
ATOM      7  C   UNL     1     -23.205  15.923  -7.904  1.00  0.00     0.053 C 
BRANCH   7   8
ATOM      8  C   UNL     1     -21.927  15.230  -8.267  1.00  0.00     0.041 C 
ATOM      9  O   UNL     1     -21.238  14.665  -7.377  1.00  0.00    -0.550 OA
ATOM     10  O   UNL     1     -21.516  15.178  -9.593  1.00  0.00    -0.550 OA
ENDBRANCH   7   8
ENDBRANCH   6   7
ENDBRANCH   5   6
ENDBRANCH   4   5
ENDBRANCH   3   4
ENDBRANCH   2   3
ENDBRANCH   1   2
BRANCH   1  11
ATOM     11  C   UNL     1     -20.163  17.635  -2.406  1.00  0.00    -0.031 C 
ATOM     12  C   UNL     1     -20.539  18.692  -1.661  1.00  0.00    -0.027 C 
BRANCH  12  13
ATOM     13  C   UNL     1     -21.204  19.936  -2.198  1.00  0.00     0.054 C 
BRANCH  13  14
ATOM     14  C   UNL     1     -22.476  19.619  -2.946  1.00  0.00    -0.027 C 
ATOM     15  C   UNL     1     -23.574  19.069  -2.394  1.00  0.00    -0.031 C 
BRANCH  15  16
ATOM     16  C   UNL     1     -23.732  18.755  -0.927  1.00  0.00     0.027 C 
BRANCH  16  17
ATOM     17  C   UNL     1     -24.022  17.266  -0.686  1.00  0.00     0.004 C 
BRANCH  17  18
ATOM     18  C   UNL     1     -23.412  16.764   0.635  1.00  0.00     0.000 C 
BRANCH  18  19
ATOM     19  C   UNL     1     -22.024  16.135   0.442  1.00  0.00    -0.003 C 
ATOM     20  C   UNL     1     -21.381  15.702   1.759  1.00  0.00     0.004 C 
ENDBRANCH  18  19
ENDBRANCH  17  18
ENDBRANCH  16  17
ENDBRANCH  15  16
ENDBRANCH  13  14
ENDBRANCH  12  13
ENDBRANCH   1  11
TORSDOF 14
ENDMDL
MODEL 4
REMARK VINA RESULT:    -3.797      2.819      5.033
REMARK INTER + INTRA:          -8.607
REMARK INTER:                  -6.443
REMARK INTRA:                  -2.165
REMARK UNBOUND:                -1.702
REMARK SMILES CCCCCC=CCC=CCCCCCCCC(=O)[O-]
REMARK SMILES IDX 11 1 12 2 13 3 14 4 15 5 16 6 17 7 18 8 19 9 20 10 10 11
REMARK SMILES IDX 9 12 8 13 7 14 6 15 5 16 4 17 3 18 2 19 1 20
REMARK H PARENT
REMARK Flexibility Score: inf
ROOT
ATOM      1  C   UNL     1     -21.527  15.403  -2.365  1.00  0.00     0.027 C 
ENDROOT
BRANCH   1   2
ATOM      2  C   UNL     1     -20.846  16.248  -3.448  1.00  0.00     0.004 C 
BRANCH   2   3
ATOM      3  C   UNL     1     -21.708  16.321  -4.713  1.00  0.00     0.000 C 
BRANCH   3   4
ATOM      4  C   UNL     1     -23.192  16.109  -4.378  1.00  0.00     0.000 C 
BRANCH   4   5
ATOM      5  C   UNL     1     -24.106  16.292  -5.600  1.00  0.00     0.000 C 
BRANCH   5   6
ATOM      6  C   UNL     1     -23.802  15.285  -6.723  1.00  0.00     0.006 C 
BRANCH   6   7
ATOM      7  C   UNL     1     -23.135  15.952  -7.934  1.00  0.00     0.053 C 
BRANCH   7   8
ATOM      8  C   UNL     1     -21.883  15.236  -8.342  1.00  0.00     0.041 C 
ATOM      9  O   UNL     1     -21.179  14.649  -7.478  1.00  0.00    -0.550 OA
ATOM     10  O   UNL     1     -21.513  15.188  -9.679  1.00  0.00    -0.550 OA
ENDBRANCH   7   8
ENDBRANCH   6   7
ENDBRANCH   5   6
ENDBRANCH   4   5
ENDBRANCH   3   4
ENDBRANCH   2   3
ENDBRANCH   1   2
BRANCH   1  11
ATOM     11  C   UNL     1     -21.295  16.010  -1.005  1.00  0.00    -0.031 C 
ATOM     12  C   UNL     1     -22.224  16.668  -0.285  1.00  0.00    -0.027 C 
BRANCH  12  13
ATOM     13  C   UNL     1     -23.628  16.964  -0.752  1.00  0.00     0.054 C 
BRANCH  13  14
ATOM     14  C   UNL     1     -23.993  18.416  -0.560  1.00  0.00    -0.027 C 
ATOM     15  C   UNL     1     -23.880  19.367  -1.505  1.00  0.00    -0.031 C 
BRANCH  15  16
ATOM     16  C   UNL     1     -23.444  19.116  -2.928  1.00  0.00     0.027 C 
BRANCH  16  17
ATOM     17  C   UNL     1     -22.108  19.803  -3.249  1.00  0.00     0.004 C 
BRANCH  17  18
ATOM     18  C   UNL     1     -20.991  19.379  -2.279  1.00  0.00     0.000 C 
BRANCH  18  19
ATOM     19  C   UNL     1     -20.445  20.557  -1.458  1.00  0.00    -0.003 C 
ATOM     20  C   UNL     1     -19.820  21.647  -2.329  1.00  0.00     0.004 C 
ENDBRANCH  18  19
ENDBRANCH  17  18
ENDBRANCH  16  17
ENDBRANCH  15  16
ENDBRANCH  13  14
ENDBRANCH  12  13
ENDBRANCH   1  11
TORSDOF 14
ENDMDL
MODEL 5
REMARK VINA RESULT:    -3.733      1.440      2.305
REMARK INTER + INTRA:          -8.490
REMARK INTER:                  -7.508
REMARK INTRA:                  -0.982
REMARK UNBOUND:                -1.702
REMARK SMILES CCCCCC=CCC=CCCCCCCCC(=O)[O-]
REMARK SMILES IDX 11 1 12 2 13 3 14 4 15 5 16 6 17 7 18 8 19 9 20 10 10 11
REMARK SMILES IDX 9 12 8 13 7 14 6 15 5 16 4 17 3 18 2 19 1 20
REMARK H PARENT
REMARK Flexibility Score: inf
ROOT
ATOM      1  C   UNL     1     -21.616  18.899  -3.384  1.00  0.00     0.027 C 
ENDROOT
BRANCH   1   2
ATOM      2  C   UNL     1     -23.007  19.521  -3.214  1.00  0.00     0.004 C 
BRANCH   2   3
ATOM      3  C   UNL     1     -24.103  18.557  -3.679  1.00  0.00     0.000 C 
BRANCH   3   4
ATOM      4  C   UNL     1     -23.761  17.110  -3.294  1.00  0.00     0.000 C 
BRANCH   4   5
ATOM      5  C   UNL     1     -24.125  16.103  -4.396  1.00  0.00     0.000 C 
BRANCH   5   6
ATOM      6  C   UNL     1     -23.882  16.659  -5.810  1.00  0.00     0.006 C 
BRANCH   6   7
ATOM      7  C   UNL     1     -23.386  15.578  -6.780  1.00  0.00     0.053 C 
BRANCH   7   8
ATOM      8  C   UNL     1     -21.945  15.240  -6.546  1.00  0.00     0.041 C 
ATOM      9  O   UNL     1     -21.276  14.662  -7.443  1.00  0.00    -0.550 OA
ATOM     10  O   UNL     1     -21.332  15.596  -5.352  1.00  0.00    -0.550 OA
ENDBRANCH   7   8
ENDBRANCH   6   7
ENDBRANCH   5   6
ENDBRANCH   4   5
ENDBRANCH   3   4
ENDBRANCH   2   3
ENDBRANCH   1   2
BRANCH   1  11
ATOM     11  C   UNL     1     -20.782  19.137  -2.152  1.00  0.00    -0.031 C 
ATOM     12  C   UNL     1     -20.527  18.215  -1.203  1.00  0.00    -0.027 C 
BRANCH  12  13
ATOM     13  C   UNL     1     -21.090  16.815  -1.185  1.00  0.00     0.054 C 
BRANCH  13  14
ATOM     14  C   UNL     1     -22.410  16.746  -0.458  1.00  0.00    -0.027 C 
ATOM     15  C   UNL     1     -22.578  16.251   0.783  1.00  0.00    -0.031 C 
BRANCH  15  16
ATOM     16  C   UNL     1     -21.461  15.759   1.669  1.00  0.00     0.027 C 
BRANCH  16  17
ATOM     17  C   UNL     1     -21.982  15.250   3.021  1.00  0.00     0.004 C 
BRANCH  17  18
ATOM     18  C   UNL     1     -23.494  15.487   3.186  1.00  0.00     0.000 C 
BRANCH  18  19
ATOM     19  C   UNL     1     -23.882  15.836   4.631  1.00  0.00    -0.003 C 
ATOM     20  C   UNL     1     -22.763  16.549   5.389  1.00  0.00     0.004 C 
ENDBRANCH  18  19
ENDBRANCH  17  18
ENDBRANCH  16  17
ENDBRANCH  15  16
ENDBRANCH  13  14
ENDBRANCH  12  13
ENDBRANCH   1  11
TORSDOF 14
ENDMDL
MODEL 6
REMARK VINA RESULT:    -3.668      1.343      2.999
REMARK INTER + INTRA:          -8.371
REMARK INTER:                  -6.787
REMARK INTRA:                  -1.585
REMARK UNBOUND:                -1.702
REMARK SMILES CCCCCC=CCC=CCCCCCCCC(=O)[O-]
REMARK SMILES IDX 11 1 12 2 13 3 14 4 15 5 16 6 17 7 18 8 19 9 20 10 10 11
REMARK SMILES IDX 9 12 8 13 7 14 6 15 5 16 4 17 3 18 2 19 1 20
REMARK H PARENT
REMARK Flexibility Score: inf
ROOT
ATOM      1  C   UNL     1     -20.816  18.770  -3.573  1.00  0.00     0.027 C 
ENDROOT
BRANCH   1   2
ATOM      2  C   UNL     1     -20.351  17.323  -3.372  1.00  0.00     0.004 C 
BRANCH   2   3
ATOM      3  C   UNL     1     -20.999  16.388  -4.399  1.00  0.00     0.000 C 
BRANCH   3   4
ATOM      4  C   UNL     1     -22.470  16.122  -4.047  1.00  0.00     0.000 C 
BRANCH   4   5
ATOM      5  C   UNL     1     -23.438  16.620  -5.132  1.00  0.00     0.000 C 
BRANCH   5   6
ATOM      6  C   UNL     1     -23.688  15.570  -6.228  1.00  0.00     0.006 C 
BRANCH   6   7
ATOM      7  C   UNL     1     -23.216  16.050  -7.608  1.00  0.00     0.053 C 
BRANCH   7   8
ATOM      8  C   UNL     1     -22.028  15.274  -8.089  1.00  0.00     0.041 C 
ATOM      9  O   UNL     1     -21.339  14.603  -7.276  1.00  0.00    -0.550 OA
ATOM     10  O   UNL     1     -21.704  15.263  -9.439  1.00  0.00    -0.550 OA
ENDBRANCH   7   8
ENDBRANCH   6   7
ENDBRANCH   5   6
ENDBRANCH   4   5
ENDBRANCH   3   4
ENDBRANCH   2   3
ENDBRANCH   1   2
BRANCH   1  11
ATOM     11  C   UNL     1     -21.008  19.447  -2.240  1.00  0.00    -0.031 C 
ATOM     12  C   UNL     1     -22.131  19.388  -1.500  1.00  0.00    -0.027 C 
BRANCH  12  13
ATOM     13  C   UNL     1     -23.405  18.691  -1.915  1.00  0.00     0.054 C 
BRANCH  13  14
ATOM     14  C   UNL     1     -24.004  17.890  -0.786  1.00  0.00    -0.027 C 
ATOM     15  C   UNL     1     -23.369  16.908  -0.120  1.00  0.00    -0.031 C 
BRANCH  15  16
ATOM     16  C   UNL     1     -21.931  16.508  -0.346  1.00  0.00     0.027 C 
BRANCH  16  17
ATOM     17  C   UNL     1     -21.442  15.504   0.708  1.00  0.00     0.004 C 
BRANCH  17  18
ATOM     18  C   UNL     1     -21.724  15.987   2.142  1.00  0.00     0.000 C 
BRANCH  18  19
ATOM     19  C   UNL     1     -22.569  14.985   2.945  1.00  0.00    -0.003 C 
ATOM     20  C   UNL     1     -23.947  15.534   3.313  1.00  0.00     0.004 C 
ENDBRANCH  18  19
ENDBRANCH  17  18
ENDBRANCH  16  17
ENDBRANCH  15  16
ENDBRANCH  13  14
ENDBRANCH  12  13
ENDBRANCH   1  11
TORSDOF 14
ENDMDL
MODEL 7
REMARK VINA RESULT:    -3.664      3.048      7.863
REMARK INTER + INTRA:          -8.364
REMARK INTER:                  -6.729
REMARK INTRA:                  -1.635
REMARK UNBOUND:                -1.702
REMARK SMILES CCCCCC=CCC=CCCCCCCCC(=O)[O-]
REMARK SMILES IDX 11 1 12 2 13 3 14 4 15 5 16 6 17 7 18 8 19 9 20 10 10 11
REMARK SMILES IDX 9 12 8 13 7 14 6 15 5 16 4 17 3 18 2 19 1 20
REMARK H PARENT
REMARK Flexibility Score: inf
ROOT
ATOM      1  C   UNL     1     -20.981  18.423  -3.648  1.00  0.00     0.027 C 
ENDROOT
BRANCH   1   2
ATOM      2  C   UNL     1     -20.545  18.765  -2.218  1.00  0.00     0.004 C 
BRANCH   2   3
ATOM      3  C   UNL     1     -21.630  19.562  -1.487  1.00  0.00     0.000 C 
BRANCH   3   4
ATOM      4  C   UNL     1     -23.028  19.193  -2.007  1.00  0.00     0.000 C 
BRANCH   4   5
ATOM      5  C   UNL     1     -23.942  18.639  -0.903  1.00  0.00     0.000 C 
BRANCH   5   6
ATOM      6  C   UNL     1     -23.853  17.109  -0.773  1.00  0.00     0.006 C 
BRANCH   6   7
ATOM      7  C   UNL     1     -23.356  16.674   0.613  1.00  0.00     0.053 C 
BRANCH   7   8
ATOM      8  C   UNL     1     -21.966  16.118   0.555  1.00  0.00     0.041 C 
ATOM      9  O   UNL     1     -21.387  15.973  -0.554  1.00  0.00    -0.550 OA
ATOM     10  O   UNL     1     -21.297  15.793   1.728  1.00  0.00    -0.550 OA
ENDBRANCH   7   8
ENDBRANCH   6   7
ENDBRANCH   5   6
ENDBRANCH   4   5
ENDBRANCH   3   4
ENDBRANCH   2   3
ENDBRANCH   1   2
BRANCH   1  11
ATOM     11  C   UNL     1     -20.526  17.034  -4.015  1.00  0.00    -0.031 C 
ATOM     12  C   UNL     1     -21.335  15.963  -4.129  1.00  0.00    -0.027 C 
BRANCH  12  13
ATOM     13  C   UNL     1     -22.817  15.963  -3.840  1.00  0.00     0.054 C 
BRANCH  13  14
ATOM     14  C   UNL     1     -23.547  17.017  -4.636  1.00  0.00    -0.027 C 
ATOM     15  C   UNL     1     -24.062  16.830  -5.866  1.00  0.00    -0.031 C 
BRANCH  15  16
ATOM     16  C   UNL     1     -24.056  15.517  -6.609  1.00  0.00     0.027 C 
BRANCH  16  17
ATOM     17  C   UNL     1     -22.961  15.469  -7.684  1.00  0.00     0.004 C 
BRANCH  17  18
ATOM     18  C   UNL     1     -21.652  14.862  -7.150  1.00  0.00     0.000 C 
BRANCH  18  19
ATOM     19  C   UNL     1     -20.579  14.721  -8.241  1.00  0.00    -0.003 C 
ATOM     20  C   UNL     1     -21.074  15.162  -9.619  1.00  0.00     0.004 C 
ENDBRANCH  18  19
ENDBRANCH  17  18
ENDBRANCH  16  17
ENDBRANCH  15  16
ENDBRANCH  13  14
ENDBRANCH  12  13
ENDBRANCH   1  11
TORSDOF 14
ENDMDL
MODEL 8
REMARK VINA RESULT:    -3.423      3.509      7.805
REMARK INTER + INTRA:          -7.926
REMARK INTER:                  -6.067
REMARK INTRA:                  -1.859
REMARK UNBOUND:                -1.702
REMARK SMILES CCCCCC=CCC=CCCCCCCCC(=O)[O-]
REMARK SMILES IDX 11 1 12 2 13 3 14 4 15 5 16 6 17 7 18 8 19 9 20 10 10 11
REMARK SMILES IDX 9 12 8 13 7 14 6 15 5 16 4 17 3 18 2 19 1 20
REMARK H PARENT
REMARK Flexibility Score: inf
ROOT
ATOM      1  C   UNL     1     -22.208  19.714  -2.878  1.00  0.00     0.027 C 
ENDROOT
BRANCH   1   2
ATOM      2  C   UNL     1     -23.551  19.078  -2.502  1.00  0.00     0.004 C 
BRANCH   2   3
ATOM      3  C   UNL     1     -23.593  18.719  -1.013  1.00  0.00     0.000 C 
BRANCH   3   4
ATOM      4  C   UNL     1     -23.873  17.221  -0.817  1.00  0.00     0.000 C 
BRANCH   4   5
ATOM      5  C   UNL     1     -23.324  16.685   0.514  1.00  0.00     0.000 C 
BRANCH   5   6
ATOM      6  C   UNL     1     -21.849  16.259   0.417  1.00  0.00     0.006 C 
BRANCH   6   7
ATOM      7  C   UNL     1     -21.425  15.366   1.591  1.00  0.00     0.053 C 
BRANCH   7   8
ATOM      8  C   UNL     1     -22.253  15.625   2.813  1.00  0.00     0.041 C 
ATOM      9  O   UNL     1     -23.365  15.051   2.957  1.00  0.00    -0.550 OA
ATOM     10  O   UNL     1     -21.781  16.471   3.807  1.00  0.00    -0.550 OA
ENDBRANCH   7   8
ENDBRANCH   6   7
ENDBRANCH   5   6
ENDBRANCH   4   5
ENDBRANCH   3   4
ENDBRANCH   2   3
ENDBRANCH   1   2
BRANCH   1  11
ATOM     11  C   UNL     1     -21.109  19.173  -2.001  1.00  0.00    -0.031 C 
ATOM     12  C   UNL     1     -20.319  18.127  -2.312  1.00  0.00    -0.027 C 
BRANCH  12  13
ATOM     13  C   UNL     1     -20.450  17.284  -3.557  1.00  0.00     0.054 C 
BRANCH  13  14
ATOM     14  C   UNL     1     -21.350  16.092  -3.341  1.00  0.00    -0.027 C 
ATOM     15  C   UNL     1     -22.519  15.889  -3.976  1.00  0.00    -0.031 C 
BRANCH  15  16
ATOM     16  C   UNL     1     -23.076  16.781  -5.059  1.00  0.00     0.027 C 
BRANCH  16  17
ATOM     17  C   UNL     1     -24.064  16.034  -5.967  1.00  0.00     0.004 C 
BRANCH  17  18
ATOM     18  C   UNL     1     -23.536  15.897  -7.406  1.00  0.00     0.000 C 
BRANCH  18  19
ATOM     19  C   UNL     1     -22.183  15.173  -7.472  1.00  0.00    -0.003 C 
ATOM     20  C   UNL     1     -21.567  15.194  -8.870  1.00  0.00     0.004 C 
ENDBRANCH  18  19
ENDBRANCH  17  18
ENDBRANCH  16  17
ENDBRANCH  15  16
ENDBRANCH  13  14
ENDBRANCH  12  13
ENDBRANCH   1  11
TORSDOF 14
ENDMDL
MODEL 9
REMARK VINA RESULT:    -3.312      4.360      8.593
REMARK INTER + INTRA:          -7.725
REMARK INTER:                  -6.984
REMARK INTRA:                  -0.741
REMARK UNBOUND:                -1.702
REMARK SMILES CCCCCC=CCC=CCCCCCCCC(=O)[O-]
REMARK SMILES IDX 11 1 12 2 13 3 14 4 15 5 16 6 17 7 18 8 19 9 20 10 10 11
REMARK SMILES IDX 9 12 8 13 7 14 6 15 5 16 4 17 3 18 2 19 1 20
REMARK H PARENT
REMARK Flexibility Score: inf
ROOT
ATOM      1  C   UNL     1     -21.547  16.611  -1.283  1.00  0.00     0.027 C 
ENDROOT
BRANCH   1   2
ATOM      2  C   UNL     1     -22.217  16.589   0.096  1.00  0.00     0.004 C 
BRANCH   2   3
ATOM      3  C   UNL     1     -21.493  15.629   1.045  1.00  0.00     0.000 C 
BRANCH   3   4
ATOM      4  C   UNL     1     -21.947  15.846   2.496  1.00  0.00     0.000 C 
BRANCH   4   5
ATOM      5  C   UNL     1     -23.419  15.468   2.720  1.00  0.00     0.000 C 
BRANCH   5   6
ATOM      6  C   UNL     1     -23.904  15.793   4.143  1.00  0.00     0.006 C 
BRANCH   6   7
ATOM      7  C   UNL     1     -22.739  15.945   5.132  1.00  0.00     0.053 C 
BRANCH   7   8
ATOM      8  C   UNL     1     -22.729  17.298   5.774  1.00  0.00     0.041 C 
ATOM      9  O   UNL     1     -21.637  17.844   6.083  1.00  0.00    -0.550 OA
ATOM     10  O   UNL     1     -23.923  17.972   5.999  1.00  0.00    -0.550 OA
ENDBRANCH   7   8
ENDBRANCH   6   7
ENDBRANCH   5   6
ENDBRANCH   4   5
ENDBRANCH   3   4
ENDBRANCH   2   3
ENDBRANCH   1   2
BRANCH   1  11
ATOM     11  C   UNL     1     -20.477  17.672  -1.328  1.00  0.00    -0.031 C 
ATOM     12  C   UNL     1     -20.468  18.722  -2.172  1.00  0.00    -0.027 C 
BRANCH  12  13
ATOM     13  C   UNL     1     -21.490  18.970  -3.255  1.00  0.00     0.054 C 
BRANCH  13  14
ATOM     14  C   UNL     1     -22.852  19.283  -2.686  1.00  0.00    -0.027 C 
ATOM     15  C   UNL     1     -24.011  18.785  -3.154  1.00  0.00    -0.031 C 
BRANCH  15  16
ATOM     16  C   UNL     1     -24.125  17.777  -4.271  1.00  0.00     0.027 C 
BRANCH  16  17
ATOM     17  C   UNL     1     -23.327  16.499  -3.975  1.00  0.00     0.004 C 
BRANCH  17  18
ATOM     18  C   UNL     1     -22.663  15.925  -5.239  1.00  0.00     0.000 C 
BRANCH  18  19
ATOM     19  C   UNL     1     -23.650  15.776  -6.407  1.00  0.00    -0.003 C 
ATOM     20  C   UNL     1     -22.976  15.912  -7.773  1.00  0.00     0.004 C 
ENDBRANCH  18  19
ENDBRANCH  17  18
ENDBRANCH  16  17
ENDBRANCH  15  16
ENDBRANCH  13  14
ENDBRANCH  12  13
ENDBRANCH   1  11
TORSDOF 14
ENDMDL
