MODEL 1
REMARK VINA RESULT:     9.901      0.000      0.000
REMARK INTER + INTRA:          12.107
REMARK INTER:                  12.506
REMARK INTRA:                  -0.398
REMARK UNBOUND:                -0.398
REMARK SMILES Oc1ccc(CCc2cc(O)cc(O)c2)cc1
REMARK SMILES IDX 6 1 5 2 4 3 3 4 2 5 16 6 17 7 1 8 7 10 8 11 15 12 9 13 13 14
REMARK SMILES IDX 10 15 12 16 14 17 11 19
REMARK H PARENT 1 9 14 18 11 20
REMARK Flexibility Score: inf
ROOT
ATOM      1  C   UNL     1     -12.180   0.479 -10.381  1.00  0.00     0.040 C 
ENDROOT
BRANCH   1   2
ATOM      2  C   UNL     1     -12.335  -0.088 -11.766  1.00  0.00    -0.047 A 
ATOM      3  C   UNL     1     -13.019   0.635 -12.756  1.00  0.00     0.007 A 
ATOM      4  C   UNL     1     -13.190   0.093 -14.034  1.00  0.00     0.046 A 
ATOM      5  C   UNL     1     -12.687  -1.181 -14.331  1.00  0.00     0.115 A 
ATOM      6  C   UNL     1     -11.846  -1.370 -12.065  1.00  0.00     0.007 A 
ATOM      7  C   UNL     1     -12.017  -1.911 -13.344  1.00  0.00     0.046 A 
BRANCH   5   8
ATOM      8  O   UNL     1     -12.852  -1.732 -15.600  1.00  0.00    -0.508 OA
ATOM      9  H   UNL     1     -12.957  -2.731 -15.733  1.00  0.00     0.293 HD
ENDBRANCH   5   8
ENDBRANCH   1   2
BRANCH   1  10
ATOM     10  C   UNL     1     -11.330  -0.451  -9.510  1.00  0.00     0.040 C 
BRANCH  10  11
ATOM     11  C   UNL     1     -10.875   0.260  -8.265  1.00  0.00    -0.040 A 
ATOM     12  C   UNL     1     -11.710   1.203  -7.642  1.00  0.00     0.050 A 
ATOM     13  C   UNL     1      -9.589   0.031  -7.748  1.00  0.00     0.050 A 
ATOM     14  C   UNL     1     -11.273   1.891  -6.501  1.00  0.00     0.119 A 
ATOM     15  C   UNL     1      -9.151   0.716  -6.609  1.00  0.00     0.119 A 
ATOM     16  C   UNL     1      -9.996   1.644  -5.986  1.00  0.00     0.092 A 
BRANCH  14  17
ATOM     17  O   UNL     1     -12.098   2.822  -5.875  1.00  0.00    -0.508 OA
ATOM     18  H   UNL     1     -11.878   3.812  -5.878  1.00  0.00     0.293 HD
ENDBRANCH  14  17
BRANCH  15  19
ATOM     19  O   UNL     1      -7.875   0.469  -6.108  1.00  0.00    -0.508 OA
ATOM     20  H   UNL     1      -7.162   1.189  -6.097  1.00  0.00     0.293 HD
ENDBRANCH  15  19
ENDBRANCH  10  11
ENDBRANCH   1  10
TORSDOF 6
ENDMDL
MODEL 2
REMARK VINA RESULT:     9.987      0.083      2.036
REMARK INTER + INTRA:          12.216
REMARK INTER:                  12.605
REMARK INTRA:                  -0.389
REMARK UNBOUND:                -0.398
REMARK SMILES Oc1ccc(CCc2cc(O)cc(O)c2)cc1
REMARK SMILES IDX 6 1 5 2 4 3 3 4 2 5 16 6 17 7 1 8 7 10 8 11 15 12 9 13 13 14
REMARK SMILES IDX 10 15 12 16 14 17 11 19
REMARK H PARENT 1 9 14 18 11 20
REMARK Flexibility Score: inf
ROOT
ATOM      1  C   UNL     1     -12.105   0.554 -10.444  1.00  0.00     0.040 C 
ENDROOT
BRANCH   1   2
ATOM      2  C   UNL     1     -12.288  -0.044 -11.813  1.00  0.00    -0.047 A 
ATOM      3  C   UNL     1     -12.937   0.684 -12.823  1.00  0.00     0.007 A 
ATOM      4  C   UNL     1     -13.135   0.115 -14.085  1.00  0.00     0.046 A 
ATOM      5  C   UNL     1     -12.696  -1.190 -14.345  1.00  0.00     0.115 A 
ATOM      6  C   UNL     1     -11.863  -1.356 -12.074  1.00  0.00     0.007 A 
ATOM      7  C   UNL     1     -12.061  -1.923 -13.338  1.00  0.00     0.046 A 
BRANCH   5   8
ATOM      8  O   UNL     1     -12.888  -1.768 -15.599  1.00  0.00    -0.508 OA
ATOM      9  H   UNL     1     -13.243  -1.229 -16.380  1.00  0.00     0.293 HD
ENDBRANCH   5   8
ENDBRANCH   1   2
BRANCH   1  10
ATOM     10  C   UNL     1     -11.328  -0.404  -9.537  1.00  0.00     0.040 C 
BRANCH  10  11
ATOM     11  C   UNL     1     -10.857   0.306  -8.297  1.00  0.00    -0.040 A 
ATOM     12  C   UNL     1      -9.610  -0.009  -7.732  1.00  0.00     0.050 A 
ATOM     13  C   UNL     1     -11.685   1.244  -7.660  1.00  0.00     0.050 A 
ATOM     14  C   UNL     1      -9.185   0.627  -6.557  1.00  0.00     0.119 A 
ATOM     15  C   UNL     1     -11.263   1.881  -6.488  1.00  0.00     0.119 A 
ATOM     16  C   UNL     1     -10.011   1.572  -5.939  1.00  0.00     0.092 A 
BRANCH  14  17
ATOM     17  O   UNL     1      -7.947   0.325  -5.995  1.00  0.00    -0.508 OA
ATOM     18  H   UNL     1      -7.808   0.316  -4.991  1.00  0.00     0.293 HD
ENDBRANCH  14  17
BRANCH  15  19
ATOM     19  O   UNL     1     -12.095   2.815  -5.875  1.00  0.00    -0.508 OA
ATOM     20  H   UNL     1     -12.456   2.669  -4.940  1.00  0.00     0.293 HD
ENDBRANCH  15  19
ENDBRANCH  10  11
ENDBRANCH   1  10
TORSDOF 6
ENDMDL
MODEL 3
REMARK VINA RESULT:    10.617      1.469      7.040
REMARK INTER + INTRA:          13.012
REMARK INTER:                  13.458
REMARK INTRA:                  -0.446
REMARK UNBOUND:                -0.398
REMARK SMILES Oc1ccc(CCc2cc(O)cc(O)c2)cc1
REMARK SMILES IDX 6 1 5 2 4 3 3 4 2 5 16 6 17 7 1 8 7 10 8 11 15 12 9 13 13 14
REMARK SMILES IDX 10 15 12 16 14 17 11 19
REMARK H PARENT 1 9 14 18 11 20
REMARK Flexibility Score: inf
ROOT
ATOM      1  C   UNL     1     -11.459  -0.389  -8.929  1.00  0.00     0.040 C 
ENDROOT
BRANCH   1   2
ATOM      2  C   UNL     1     -10.529   0.458  -8.104  1.00  0.00    -0.047 A 
ATOM      3  C   UNL     1     -11.028   1.236  -7.047  1.00  0.00     0.007 A 
ATOM      4  C   UNL     1     -10.168   2.048  -6.301  1.00  0.00     0.046 A 
ATOM      5  C   UNL     1      -8.803   2.097  -6.611  1.00  0.00     0.115 A 
ATOM      6  C   UNL     1      -9.162   0.522  -8.419  1.00  0.00     0.007 A 
ATOM      7  C   UNL     1      -8.303   1.334  -7.671  1.00  0.00     0.046 A 
BRANCH   5   8
ATOM      8  O   UNL     1      -7.935   2.903  -5.875  1.00  0.00    -0.508 OA
ATOM      9  H   UNL     1      -8.140   3.163  -4.918  1.00  0.00     0.293 HD
ENDBRANCH   5   8
ENDBRANCH   1   2
BRANCH   1  10
ATOM     10  C   UNL     1     -12.182   0.466  -9.974  1.00  0.00     0.040 C 
BRANCH  10  11
ATOM     11  C   UNL     1     -12.212  -0.235 -11.304  1.00  0.00    -0.040 A 
ATOM     12  C   UNL     1     -12.656   0.443 -12.452  1.00  0.00     0.050 A 
ATOM     13  C   UNL     1     -11.852  -1.589 -11.400  1.00  0.00     0.050 A 
ATOM     14  C   UNL     1     -12.717  -0.220 -13.686  1.00  0.00     0.119 A 
ATOM     15  C   UNL     1     -11.910  -2.252 -12.630  1.00  0.00     0.119 A 
ATOM     16  C   UNL     1     -12.342  -1.565 -13.773  1.00  0.00     0.092 A 
BRANCH  14  17
ATOM     17  O   UNL     1     -13.150   0.447 -14.829  1.00  0.00    -0.508 OA
ATOM     18  H   UNL     1     -13.910   0.089 -15.396  1.00  0.00     0.293 HD
ENDBRANCH  14  17
BRANCH  15  19
ATOM     19  O   UNL     1     -11.542  -3.593 -12.706  1.00  0.00    -0.508 OA
ATOM     20  H   UNL     1     -10.716  -3.943 -12.234  1.00  0.00     0.293 HD
ENDBRANCH  15  19
ENDBRANCH  10  11
ENDBRANCH   1  10
TORSDOF 6
ENDMDL
MODEL 4
REMARK VINA RESULT:    10.662      1.540      7.222
REMARK INTER + INTRA:          13.069
REMARK INTER:                  13.509
REMARK INTRA:                  -0.440
REMARK UNBOUND:                -0.398
REMARK SMILES Oc1ccc(CCc2cc(O)cc(O)c2)cc1
REMARK SMILES IDX 6 1 5 2 4 3 3 4 2 5 16 6 17 7 1 8 7 10 8 11 15 12 9 13 13 14
REMARK SMILES IDX 10 15 12 16 14 17 11 19
REMARK H PARENT 1 9 14 18 11 20
REMARK Flexibility Score: inf
ROOT
ATOM      1  C   UNL     1     -11.339  -0.407  -8.835  1.00  0.00     0.040 C 
ENDROOT
BRANCH   1   2
ATOM      2  C   UNL     1     -10.436   0.496  -8.038  1.00  0.00    -0.047 A 
ATOM      3  C   UNL     1     -10.955   1.266  -6.984  1.00  0.00     0.007 A 
ATOM      4  C   UNL     1     -10.122   2.129  -6.266  1.00  0.00     0.046 A 
ATOM      5  C   UNL     1      -8.766   2.239  -6.600  1.00  0.00     0.115 A 
ATOM      6  C   UNL     1      -9.080   0.621  -8.379  1.00  0.00     0.007 A 
ATOM      7  C   UNL     1      -8.248   1.484  -7.658  1.00  0.00     0.046 A 
BRANCH   5   8
ATOM      8  O   UNL     1      -7.926   3.096  -5.891  1.00  0.00    -0.508 OA
ATOM      9  H   UNL     1      -8.260   3.980  -5.527  1.00  0.00     0.293 HD
ENDBRANCH   5   8
ENDBRANCH   1   2
BRANCH   1  10
ATOM     10  C   UNL     1     -12.196   0.409  -9.806  1.00  0.00     0.040 C 
BRANCH  10  11
ATOM     11  C   UNL     1     -12.282  -0.276 -11.142  1.00  0.00    -0.040 A 
ATOM     12  C   UNL     1     -11.920  -1.628 -11.268  1.00  0.00     0.050 A 
ATOM     13  C   UNL     1     -12.667   0.444 -12.285  1.00  0.00     0.050 A 
ATOM     14  C   UNL     1     -11.967  -2.259 -12.520  1.00  0.00     0.119 A 
ATOM     15  C   UNL     1     -12.715  -0.184 -13.534  1.00  0.00     0.119 A 
ATOM     16  C   UNL     1     -12.366  -1.536 -13.649  1.00  0.00     0.092 A 
BRANCH  14  17
ATOM     17  O   UNL     1     -11.616  -3.600 -12.652  1.00  0.00    -0.508 OA
ATOM     18  H   UNL     1     -11.903  -4.147 -13.456  1.00  0.00     0.293 HD
ENDBRANCH  14  17
BRANCH  15  19
ATOM     19  O   UNL     1     -13.106   0.546 -14.655  1.00  0.00    -0.508 OA
ATOM     20  H   UNL     1     -12.538   1.301 -15.020  1.00  0.00     0.293 HD
ENDBRANCH  15  19
ENDBRANCH  10  11
ENDBRANCH   1  10
TORSDOF 6
ENDMDL
MODEL 5
REMARK VINA RESULT:    11.035      1.468      2.845
REMARK INTER + INTRA:          13.540
REMARK INTER:                  13.959
REMARK INTRA:                  -0.419
REMARK UNBOUND:                -0.398
REMARK SMILES Oc1ccc(CCc2cc(O)cc(O)c2)cc1
REMARK SMILES IDX 6 1 5 2 4 3 3 4 2 5 16 6 17 7 1 8 7 10 8 11 15 12 9 13 13 14
REMARK SMILES IDX 10 15 12 16 14 17 11 19
REMARK H PARENT 1 9 14 18 11 20
REMARK Flexibility Score: inf
ROOT
ATOM      1  C   UNL     1     -12.312  -0.464 -10.385  1.00  0.00     0.040 C 
ENDROOT
BRANCH   1   2
ATOM      2  C   UNL     1     -12.159  -1.594 -11.367  1.00  0.00    -0.047 A 
ATOM      3  C   UNL     1     -12.249  -2.927 -10.934  1.00  0.00     0.007 A 
ATOM      4  C   UNL     1     -12.075  -3.976 -11.842  1.00  0.00     0.046 A 
ATOM      5  C   UNL     1     -11.798  -3.703 -13.188  1.00  0.00     0.115 A 
ATOM      6  C   UNL     1     -11.868  -1.326 -12.714  1.00  0.00     0.007 A 
ATOM      7  C   UNL     1     -11.694  -2.378 -13.621  1.00  0.00     0.046 A 
BRANCH   5   8
ATOM      8  O   UNL     1     -11.621  -4.741 -14.101  1.00  0.00    -0.508 OA
ATOM      9  H   UNL     1     -12.399  -5.114 -14.633  1.00  0.00     0.293 HD
ENDBRANCH   5   8
ENDBRANCH   1   2
BRANCH   1  10
ATOM     10  C   UNL     1     -10.950   0.155 -10.060  1.00  0.00     0.040 C 
BRANCH  10  11
ATOM     11  C   UNL     1     -10.875   0.538  -8.607  1.00  0.00    -0.040 A 
ATOM     12  C   UNL     1      -9.650   0.478  -7.922  1.00  0.00     0.050 A 
ATOM     13  C   UNL     1     -12.039   0.901  -7.908  1.00  0.00     0.050 A 
ATOM     14  C   UNL     1      -9.585   0.802  -6.559  1.00  0.00     0.119 A 
ATOM     15  C   UNL     1     -11.976   1.225  -6.549  1.00  0.00     0.119 A 
ATOM     16  C   UNL     1     -10.747   1.176  -5.877  1.00  0.00     0.092 A 
BRANCH  14  17
ATOM     17  O   UNL     1      -8.373   0.751  -5.875  1.00  0.00    -0.508 OA
ATOM     18  H   UNL     1      -8.196   1.335  -5.065  1.00  0.00     0.293 HD
ENDBRANCH  14  17
BRANCH  15  19
ATOM     19  O   UNL     1     -13.139   1.590  -5.875  1.00  0.00    -0.508 OA
ATOM     20  H   UNL     1     -13.744   0.897  -5.450  1.00  0.00     0.293 HD
ENDBRANCH  15  19
ENDBRANCH  10  11
ENDBRANCH   1  10
TORSDOF 6
ENDMDL
