MODEL 1
REMARK VINA RESULT:    -5.156      0.000      0.000
REMARK INTER + INTRA:         -11.233
REMARK INTER:                  -9.377
REMARK INTRA:                  -1.856
REMARK UNBOUND:                -1.856
REMARK SMILES CCCCCCCCCCCCCCCC(=O)[O-]
REMARK SMILES IDX 9 1 10 2 11 3 12 4 13 5 14 6 15 7 16 8 17 9 18 10 8 11 7 12
REMARK SMILES IDX 6 13 5 14 4 15 3 16 2 17 1 18
REMARK H PARENT
REMARK Flexibility Score: inf
ROOT
ATOM      1  C   UNL     1      13.307  15.223  67.446  1.00  0.00     0.000 C 
ENDROOT
BRANCH   1   2
ATOM      2  C   UNL     1      12.380  16.303  66.864  1.00  0.00     0.000 C 
BRANCH   2   3
ATOM      3  C   UNL     1      11.177  16.600  67.776  1.00  0.00     0.000 C 
BRANCH   3   4
ATOM      4  C   UNL     1      11.121  18.070  68.231  1.00  0.00     0.000 C 
BRANCH   4   5
ATOM      5  C   UNL     1      10.416  18.313  69.580  1.00  0.00     0.000 C 
BRANCH   5   6
ATOM      6  C   UNL     1       9.865  17.051  70.267  1.00  0.00     0.006 C 
BRANCH   6   7
ATOM      7  C   UNL     1       9.998  17.098  71.794  1.00  0.00     0.053 C 
BRANCH   7   8
ATOM      8  C   UNL     1      11.122  16.222  72.247  1.00  0.00     0.041 C 
ATOM      9  O   UNL     1      12.316  16.572  72.054  1.00  0.00    -0.550 OA
ATOM     10  O   UNL     1      10.852  14.994  72.839  1.00  0.00    -0.550 OA
ENDBRANCH   7   8
ENDBRANCH   6   7
ENDBRANCH   5   6
ENDBRANCH   4   5
ENDBRANCH   3   4
ENDBRANCH   2   3
ENDBRANCH   1   2
BRANCH   1  11
ATOM     11  C   UNL     1      13.502  15.372  68.966  1.00  0.00     0.000 C 
BRANCH  11  12
ATOM     12  C   UNL     1      13.365  14.036  69.713  1.00  0.00    -0.000 C 
BRANCH  12  13
ATOM     13  C   UNL     1      12.263  13.139  69.129  1.00  0.00    -0.000 C 
BRANCH  13  14
ATOM     14  C   UNL     1      10.892  13.503  69.714  1.00  0.00    -0.000 C 
BRANCH  14  15
ATOM     15  C   UNL     1       9.763  13.141  68.737  1.00  0.00    -0.000 C 
BRANCH  15  16
ATOM     16  C   UNL     1      10.036  11.836  67.974  1.00  0.00    -0.000 C 
BRANCH  16  17
ATOM     17  C   UNL     1       9.752  10.587  68.820  1.00  0.00    -0.003 C 
ATOM     18  C   UNL     1       8.653   9.735  68.190  1.00  0.00     0.004 C 
ENDBRANCH  16  17
ENDBRANCH  15  16
ENDBRANCH  14  15
ENDBRANCH  13  14
ENDBRANCH  12  13
ENDBRANCH  11  12
ENDBRANCH   1  11
TORSDOF 14
ENDMDL
MODEL 2
REMARK VINA RESULT:    -5.133      1.665      4.224
REMARK INTER + INTRA:         -11.190
REMARK INTER:                  -8.767
REMARK INTRA:                  -2.423
REMARK UNBOUND:                -1.856
REMARK SMILES CCCCCCCCCCCCCCCC(=O)[O-]
REMARK SMILES IDX 9 1 10 2 11 3 12 4 13 5 14 6 15 7 16 8 17 9 18 10 8 11 7 12
REMARK SMILES IDX 6 13 5 14 4 15 3 16 2 17 1 18
REMARK H PARENT
REMARK Flexibility Score: inf
ROOT
ATOM      1  C   UNL     1      12.450  13.585  68.608  1.00  0.00     0.000 C 
ENDROOT
BRANCH   1   2
ATOM      2  C   UNL     1      13.330  13.279  69.832  1.00  0.00     0.000 C 
BRANCH   2   3
ATOM      3  C   UNL     1      14.403  14.356  70.069  1.00  0.00     0.000 C 
BRANCH   3   4
ATOM      4  C   UNL     1      13.963  15.753  69.596  1.00  0.00     0.000 C 
BRANCH   4   5
ATOM      5  C   UNL     1      13.659  16.762  70.721  1.00  0.00     0.000 C 
BRANCH   5   6
ATOM      6  C   UNL     1      12.171  16.900  71.092  1.00  0.00     0.006 C 
BRANCH   6   7
ATOM      7  C   UNL     1      11.738  15.918  72.188  1.00  0.00     0.053 C 
BRANCH   7   8
ATOM      8  C   UNL     1      10.374  16.269  72.692  1.00  0.00     0.041 C 
ATOM      9  O   UNL     1       9.922  15.722  73.732  1.00  0.00    -0.550 OA
ATOM     10  O   UNL     1       9.580  17.163  71.985  1.00  0.00    -0.550 OA
ENDBRANCH   7   8
ENDBRANCH   6   7
ENDBRANCH   5   6
ENDBRANCH   4   5
ENDBRANCH   3   4
ENDBRANCH   2   3
ENDBRANCH   1   2
BRANCH   1  11
ATOM     11  C   UNL     1      11.415  12.479  68.336  1.00  0.00     0.000 C 
BRANCH  11  12
ATOM     12  C   UNL     1       9.975  12.936  68.619  1.00  0.00    -0.000 C 
BRANCH  12  13
ATOM     13  C   UNL     1       9.913  14.233  69.440  1.00  0.00    -0.000 C 
BRANCH  13  14
ATOM     14  C   UNL     1       8.966  15.249  68.790  1.00  0.00    -0.000 C 
BRANCH  14  15
ATOM     15  C   UNL     1       9.695  16.567  68.489  1.00  0.00    -0.000 C 
BRANCH  15  16
ATOM     16  C   UNL     1      10.651  16.454  67.292  1.00  0.00    -0.000 C 
BRANCH  16  17
ATOM     17  C   UNL     1      11.657  17.613  67.227  1.00  0.00    -0.003 C 
ATOM     18  C   UNL     1      11.172  18.806  68.046  1.00  0.00     0.004 C 
ENDBRANCH  16  17
ENDBRANCH  15  16
ENDBRANCH  14  15
ENDBRANCH  13  14
ENDBRANCH  12  13
ENDBRANCH  11  12
ENDBRANCH   1  11
TORSDOF 14
ENDMDL
MODEL 3
REMARK VINA RESULT:    -5.113      2.196      3.249
REMARK INTER + INTRA:         -11.154
REMARK INTER:                  -8.983
REMARK INTRA:                  -2.171
REMARK UNBOUND:                -1.856
REMARK SMILES CCCCCCCCCCCCCCCC(=O)[O-]
REMARK SMILES IDX 9 1 10 2 11 3 12 4 13 5 14 6 15 7 16 8 17 9 18 10 8 11 7 12
REMARK SMILES IDX 6 13 5 14 4 15 3 16 2 17 1 18
REMARK H PARENT
REMARK Flexibility Score: inf
ROOT
ATOM      1  C   UNL     1      13.968  15.911  70.317  1.00  0.00     0.000 C 
ENDROOT
BRANCH   1   2
ATOM      2  C   UNL     1      13.131  16.997  71.014  1.00  0.00     0.000 C 
BRANCH   2   3
ATOM      3  C   UNL     1      12.168  16.414  72.064  1.00  0.00     0.000 C 
BRANCH   3   4
ATOM      4  C   UNL     1      10.692  16.498  71.633  1.00  0.00     0.000 C 
BRANCH   4   5
ATOM      5  C   UNL     1      10.329  17.723  70.770  1.00  0.00     0.000 C 
BRANCH   5   6
ATOM      6  C   UNL     1      10.123  17.430  69.273  1.00  0.00     0.006 C 
BRANCH   6   7
ATOM      7  C   UNL     1      10.933  18.367  68.367  1.00  0.00     0.053 C 
BRANCH   7   8
ATOM      8  C   UNL     1      11.207  17.711  67.051  1.00  0.00     0.041 C 
ATOM      9  O   UNL     1      11.795  18.345  66.137  1.00  0.00    -0.550 OA
ATOM     10  O   UNL     1      10.767  16.414  66.816  1.00  0.00    -0.550 OA
ENDBRANCH   7   8
ENDBRANCH   6   7
ENDBRANCH   5   6
ENDBRANCH   4   5
ENDBRANCH   3   4
ENDBRANCH   2   3
ENDBRANCH   1   2
BRANCH   1  11
ATOM     11  C   UNL     1      13.505  15.649  68.873  1.00  0.00     0.000 C 
BRANCH  11  12
ATOM     12  C   UNL     1      12.900  14.248  68.692  1.00  0.00    -0.000 C 
BRANCH  12  13
ATOM     13  C   UNL     1      12.744  13.492  70.020  1.00  0.00    -0.000 C 
BRANCH  13  14
ATOM     14  C   UNL     1      11.269  13.178  70.303  1.00  0.00    -0.000 C 
BRANCH  14  15
ATOM     15  C   UNL     1      10.367  13.719  69.183  1.00  0.00    -0.000 C 
BRANCH  15  16
ATOM     16  C   UNL     1       9.699  12.600  68.369  1.00  0.00    -0.000 C 
BRANCH  16  17
ATOM     17  C   UNL     1      10.090  11.198  68.859  1.00  0.00    -0.003 C 
ATOM     18  C   UNL     1       9.075  10.154  68.404  1.00  0.00     0.004 C 
ENDBRANCH  16  17
ENDBRANCH  15  16
ENDBRANCH  14  15
ENDBRANCH  13  14
ENDBRANCH  12  13
ENDBRANCH  11  12
ENDBRANCH   1  11
TORSDOF 14
ENDMDL
MODEL 4
REMARK VINA RESULT:    -5.108      2.461      5.209
REMARK INTER + INTRA:         -11.146
REMARK INTER:                  -9.158
REMARK INTRA:                  -1.988
REMARK UNBOUND:                -1.856
REMARK SMILES CCCCCCCCCCCCCCCC(=O)[O-]
REMARK SMILES IDX 9 1 10 2 11 3 12 4 13 5 14 6 15 7 16 8 17 9 18 10 8 11 7 12
REMARK SMILES IDX 6 13 5 14 4 15 3 16 2 17 1 18
REMARK H PARENT
REMARK Flexibility Score: inf
ROOT
ATOM      1  C   UNL     1      10.129  17.254  71.753  1.00  0.00     0.000 C 
ENDROOT
BRANCH   1   2
ATOM      2  C   UNL     1       9.521  17.630  70.391  1.00  0.00     0.000 C 
BRANCH   2   3
ATOM      3  C   UNL     1      10.491  18.443  69.518  1.00  0.00     0.000 C 
BRANCH   3   4
ATOM      4  C   UNL     1      10.989  17.661  68.289  1.00  0.00     0.000 C 
BRANCH   4   5
ATOM      5  C   UNL     1      10.135  16.438  67.899  1.00  0.00     0.000 C 
BRANCH   5   6
ATOM      6  C   UNL     1      10.840  15.077  68.037  1.00  0.00     0.006 C 
BRANCH   6   7
ATOM      7  C   UNL     1       9.964  14.019  68.721  1.00  0.00     0.053 C 
BRANCH   7   8
ATOM      8  C   UNL     1      10.514  12.650  68.478  1.00  0.00     0.041 C 
ATOM      9  O   UNL     1       9.738  11.662  68.384  1.00  0.00    -0.550 OA
ATOM     10  O   UNL     1      11.888  12.455  68.405  1.00  0.00    -0.550 OA
ENDBRANCH   7   8
ENDBRANCH   6   7
ENDBRANCH   5   6
ENDBRANCH   4   5
ENDBRANCH   3   4
ENDBRANCH   2   3
ENDBRANCH   1   2
BRANCH   1  11
ATOM     11  C   UNL     1      10.782  15.860  71.741  1.00  0.00     0.000 C 
BRANCH  11  12
ATOM     12  C   UNL     1      12.268  15.901  72.132  1.00  0.00    -0.000 C 
BRANCH  12  13
ATOM     13  C   UNL     1      13.079  16.890  71.282  1.00  0.00    -0.000 C 
BRANCH  13  14
ATOM     14  C   UNL     1      13.940  16.149  70.250  1.00  0.00    -0.000 C 
BRANCH  14  15
ATOM     15  C   UNL     1      13.952  14.638  70.527  1.00  0.00    -0.000 C 
BRANCH  15  16
ATOM     16  C   UNL     1      15.370  14.046  70.516  1.00  0.00    -0.000 C 
BRANCH  16  17
ATOM     17  C   UNL     1      16.322  14.810  69.584  1.00  0.00    -0.003 C 
ATOM     18  C   UNL     1      17.755  14.304  69.728  1.00  0.00     0.004 C 
ENDBRANCH  16  17
ENDBRANCH  15  16
ENDBRANCH  14  15
ENDBRANCH  13  14
ENDBRANCH  12  13
ENDBRANCH  11  12
ENDBRANCH   1  11
TORSDOF 14
ENDMDL
MODEL 5
REMARK VINA RESULT:    -5.085      2.397      3.985
REMARK INTER + INTRA:         -11.103
REMARK INTER:                  -8.859
REMARK INTRA:                  -2.244
REMARK UNBOUND:                -1.856
REMARK SMILES CCCCCCCCCCCCCCCC(=O)[O-]
REMARK SMILES IDX 9 1 10 2 11 3 12 4 13 5 14 6 15 7 16 8 17 9 18 10 8 11 7 12
REMARK SMILES IDX 6 13 5 14 4 15 3 16 2 17 1 18
REMARK H PARENT
REMARK Flexibility Score: inf
ROOT
ATOM      1  C   UNL     1      12.252  16.140  72.232  1.00  0.00     0.000 C 
ENDROOT
BRANCH   1   2
ATOM      2  C   UNL     1      10.792  15.914  71.804  1.00  0.00     0.000 C 
BRANCH   2   3
ATOM      3  C   UNL     1       9.920  17.166  72.003  1.00  0.00     0.000 C 
BRANCH   3   4
ATOM      4  C   UNL     1       9.197  17.602  70.715  1.00  0.00     0.000 C 
BRANCH   4   5
ATOM      5  C   UNL     1       9.461  16.715  69.482  1.00  0.00     0.000 C 
BRANCH   5   6
ATOM      6  C   UNL     1      10.324  17.362  68.384  1.00  0.00     0.006 C 
BRANCH   6   7
ATOM      7  C   UNL     1      10.865  16.342  67.374  1.00  0.00     0.053 C 
BRANCH   7   8
ATOM      8  C   UNL     1      11.959  16.950  66.554  1.00  0.00     0.041 C 
ATOM      9  O   UNL     1      12.973  16.270  66.246  1.00  0.00    -0.550 OA
ATOM     10  O   UNL     1      11.882  18.283  66.171  1.00  0.00    -0.550 OA
ENDBRANCH   7   8
ENDBRANCH   6   7
ENDBRANCH   5   6
ENDBRANCH   4   5
ENDBRANCH   3   4
ENDBRANCH   2   3
ENDBRANCH   1   2
BRANCH   1  11
ATOM     11  C   UNL     1      13.066  16.898  71.169  1.00  0.00     0.000 C 
BRANCH  11  12
ATOM     12  C   UNL     1      13.378  16.034  69.937  1.00  0.00    -0.000 C 
BRANCH  12  13
ATOM     13  C   UNL     1      14.346  14.883  70.248  1.00  0.00    -0.000 C 
BRANCH  13  14
ATOM     14  C   UNL     1      13.705  13.526  69.930  1.00  0.00    -0.000 C 
BRANCH  14  15
ATOM     15  C   UNL     1      12.450  13.700  69.062  1.00  0.00    -0.000 C 
BRANCH  15  16
ATOM     16  C   UNL     1      11.189  13.119  69.720  1.00  0.00    -0.000 C 
BRANCH  16  17
ATOM     17  C   UNL     1      10.032  12.942  68.727  1.00  0.00    -0.003 C 
ATOM     18  C   UNL     1       9.748  11.464  68.473  1.00  0.00     0.004 C 
ENDBRANCH  16  17
ENDBRANCH  15  16
ENDBRANCH  14  15
ENDBRANCH  13  14
ENDBRANCH  12  13
ENDBRANCH  11  12
ENDBRANCH   1  11
TORSDOF 14
ENDMDL
MODEL 6
REMARK VINA RESULT:    -5.071      1.957      3.787
REMARK INTER + INTRA:         -11.078
REMARK INTER:                  -8.870
REMARK INTRA:                  -2.208
REMARK UNBOUND:                -1.856
REMARK SMILES CCCCCCCCCCCCCCCC(=O)[O-]
REMARK SMILES IDX 9 1 10 2 11 3 12 4 13 5 14 6 15 7 16 8 17 9 18 10 8 11 7 12
REMARK SMILES IDX 6 13 5 14 4 15 3 16 2 17 1 18
REMARK H PARENT
REMARK Flexibility Score: inf
ROOT
ATOM      1  C   UNL     1      10.273  17.234  70.436  1.00  0.00     0.000 C 
ENDROOT
BRANCH   1   2
ATOM      2  C   UNL     1      10.015  17.103  68.925  1.00  0.00     0.000 C 
BRANCH   2   3
ATOM      3  C   UNL     1      11.309  17.187  68.098  1.00  0.00     0.000 C 
BRANCH   3   4
ATOM      4  C   UNL     1      11.614  15.887  67.332  1.00  0.00     0.000 C 
BRANCH   4   5
ATOM      5  C   UNL     1      13.110  15.540  67.196  1.00  0.00     0.000 C 
BRANCH   5   6
ATOM      6  C   UNL     1      13.699  14.719  68.357  1.00  0.00     0.006 C 
BRANCH   6   7
ATOM      7  C   UNL     1      14.630  15.542  69.256  1.00  0.00     0.053 C 
BRANCH   7   8
ATOM      8  C   UNL     1      15.510  14.639  70.061  1.00  0.00     0.041 C 
ATOM      9  O   UNL     1      15.023  13.942  70.989  1.00  0.00    -0.550 OA
ATOM     10  O   UNL     1      16.878  14.604  69.819  1.00  0.00    -0.550 OA
ENDBRANCH   7   8
ENDBRANCH   6   7
ENDBRANCH   5   6
ENDBRANCH   4   5
ENDBRANCH   3   4
ENDBRANCH   2   3
ENDBRANCH   1   2
BRANCH   1  11
ATOM     11  C   UNL     1      11.774  17.248  70.777  1.00  0.00     0.000 C 
BRANCH  11  12
ATOM     12  C   UNL     1      12.163  16.145  71.773  1.00  0.00    -0.000 C 
BRANCH  12  13
ATOM     13  C   UNL     1      10.978  15.244  72.156  1.00  0.00    -0.000 C 
BRANCH  13  14
ATOM     14  C   UNL     1      11.271  13.778  71.813  1.00  0.00    -0.000 C 
BRANCH  14  15
ATOM     15  C   UNL     1      11.532  13.606  70.309  1.00  0.00    -0.000 C 
BRANCH  15  16
ATOM     16  C   UNL     1      10.251  13.302  69.517  1.00  0.00    -0.000 C 
BRANCH  16  17
ATOM     17  C   UNL     1      10.495  12.339  68.346  1.00  0.00    -0.003 C 
ATOM     18  C   UNL     1       9.566  11.130  68.428  1.00  0.00     0.004 C 
ENDBRANCH  16  17
ENDBRANCH  15  16
ENDBRANCH  14  15
ENDBRANCH  13  14
ENDBRANCH  12  13
ENDBRANCH  11  12
ENDBRANCH   1  11
TORSDOF 14
ENDMDL
MODEL 7
REMARK VINA RESULT:    -5.034      2.083      4.000
REMARK INTER + INTRA:         -11.010
REMARK INTER:                  -8.628
REMARK INTRA:                  -2.381
REMARK UNBOUND:                -1.856
REMARK SMILES CCCCCCCCCCCCCCCC(=O)[O-]
REMARK SMILES IDX 9 1 10 2 11 3 12 4 13 5 14 6 15 7 16 8 17 9 18 10 8 11 7 12
REMARK SMILES IDX 6 13 5 14 4 15 3 16 2 17 1 18
REMARK H PARENT
REMARK Flexibility Score: inf
ROOT
ATOM      1  C   UNL     1       9.333  16.117  68.014  1.00  0.00     0.000 C 
ENDROOT
BRANCH   1   2
ATOM      2  C   UNL     1      10.775  16.273  67.502  1.00  0.00     0.000 C 
BRANCH   2   3
ATOM      3  C   UNL     1      11.374  17.650  67.838  1.00  0.00     0.000 C 
BRANCH   3   4
ATOM      4  C   UNL     1      10.969  18.151  69.236  1.00  0.00     0.000 C 
BRANCH   4   5
ATOM      5  C   UNL     1      11.478  17.296  70.413  1.00  0.00     0.000 C 
BRANCH   5   6
ATOM      6  C   UNL     1      10.443  17.025  71.520  1.00  0.00     0.006 C 
BRANCH   6   7
ATOM      7  C   UNL     1       9.244  17.980  71.460  1.00  0.00     0.053 C 
BRANCH   7   8
ATOM      8  C   UNL     1       8.244  17.628  72.515  1.00  0.00     0.041 C 
ATOM      9  O   UNL     1       7.018  17.842  72.324  1.00  0.00    -0.550 OA
ATOM     10  O   UNL     1       8.670  17.110  73.732  1.00  0.00    -0.550 OA
ENDBRANCH   7   8
ENDBRANCH   6   7
ENDBRANCH   5   6
ENDBRANCH   4   5
ENDBRANCH   3   4
ENDBRANCH   2   3
ENDBRANCH   1   2
BRANCH   1  11
ATOM     11  C   UNL     1       9.131  14.818  68.814  1.00  0.00     0.000 C 
BRANCH  11  12
ATOM     12  C   UNL     1      10.381  13.923  68.813  1.00  0.00    -0.000 C 
BRANCH  12  13
ATOM     13  C   UNL     1      10.819  13.512  70.226  1.00  0.00    -0.000 C 
BRANCH  13  14
ATOM     14  C   UNL     1      12.324  13.735  70.420  1.00  0.00    -0.000 C 
BRANCH  14  15
ATOM     15  C   UNL     1      13.044  13.839  69.067  1.00  0.00    -0.000 C 
BRANCH  15  16
ATOM     16  C   UNL     1      13.971  15.062  68.983  1.00  0.00    -0.000 C 
BRANCH  16  17
ATOM     17  C   UNL     1      14.920  15.168  70.185  1.00  0.00    -0.003 C 
ATOM     18  C   UNL     1      16.332  14.728  69.811  1.00  0.00     0.004 C 
ENDBRANCH  16  17
ENDBRANCH  15  16
ENDBRANCH  14  15
ENDBRANCH  13  14
ENDBRANCH  12  13
ENDBRANCH  11  12
ENDBRANCH   1  11
TORSDOF 14
ENDMDL
MODEL 8
REMARK VINA RESULT:    -5.029      2.108      3.962
REMARK INTER + INTRA:         -11.001
REMARK INTER:                  -8.496
REMARK INTRA:                  -2.505
REMARK UNBOUND:                -1.856
REMARK SMILES CCCCCCCCCCCCCCCC(=O)[O-]
REMARK SMILES IDX 9 1 10 2 11 3 12 4 13 5 14 6 15 7 16 8 17 9 18 10 8 11 7 12
REMARK SMILES IDX 6 13 5 14 4 15 3 16 2 17 1 18
REMARK H PARENT
REMARK Flexibility Score: inf
ROOT
ATOM      1  C   UNL     1      13.582  13.856  69.482  1.00  0.00     0.000 C 
ENDROOT
BRANCH   1   2
ATOM      2  C   UNL     1      13.989  14.729  70.682  1.00  0.00     0.000 C 
BRANCH   2   3
ATOM      3  C   UNL     1      13.791  16.231  70.411  1.00  0.00     0.000 C 
BRANCH   3   4
ATOM      4  C   UNL     1      12.633  16.837  71.224  1.00  0.00     0.000 C 
BRANCH   4   5
ATOM      5  C   UNL     1      11.987  15.889  72.254  1.00  0.00     0.000 C 
BRANCH   5   6
ATOM      6  C   UNL     1      10.489  16.128  72.514  1.00  0.00     0.006 C 
BRANCH   6   7
ATOM      7  C   UNL     1       9.979  17.435  71.894  1.00  0.00     0.053 C 
BRANCH   7   8
ATOM      8  C   UNL     1       8.556  17.679  72.288  1.00  0.00     0.041 C 
ATOM      9  O   UNL     1       7.635  17.564  71.438  1.00  0.00    -0.550 OA
ATOM     10  O   UNL     1       8.253  18.082  73.582  1.00  0.00    -0.550 OA
ENDBRANCH   7   8
ENDBRANCH   6   7
ENDBRANCH   5   6
ENDBRANCH   4   5
ENDBRANCH   3   4
ENDBRANCH   2   3
ENDBRANCH   1   2
BRANCH   1  11
ATOM     11  C   UNL     1      12.247  13.128  69.711  1.00  0.00     0.000 C 
BRANCH  11  12
ATOM     12  C   UNL     1      11.493  12.850  68.401  1.00  0.00    -0.000 C 
BRANCH  12  13
ATOM     13  C   UNL     1      10.049  13.374  68.422  1.00  0.00    -0.000 C 
BRANCH  13  14
ATOM     14  C   UNL     1       9.932  14.623  69.307  1.00  0.00    -0.000 C 
BRANCH  14  15
ATOM     15  C   UNL     1       9.432  15.827  68.495  1.00  0.00    -0.000 C 
BRANCH  15  16
ATOM     16  C   UNL     1      10.463  16.964  68.427  1.00  0.00    -0.000 C 
BRANCH  16  17
ATOM     17  C   UNL     1      11.156  17.053  67.060  1.00  0.00    -0.003 C 
ATOM     18  C   UNL     1      12.399  16.170  67.016  1.00  0.00     0.004 C 
ENDBRANCH  16  17
ENDBRANCH  15  16
ENDBRANCH  14  15
ENDBRANCH  13  14
ENDBRANCH  12  13
ENDBRANCH  11  12
ENDBRANCH   1  11
TORSDOF 14
ENDMDL
MODEL 9
REMARK VINA RESULT:    -4.943      2.411      3.950
REMARK INTER + INTRA:         -10.845
REMARK INTER:                  -8.644
REMARK INTRA:                  -2.201
REMARK UNBOUND:                -1.856
REMARK SMILES CCCCCCCCCCCCCCCC(=O)[O-]
REMARK SMILES IDX 9 1 10 2 11 3 12 4 13 5 14 6 15 7 16 8 17 9 18 10 8 11 7 12
REMARK SMILES IDX 6 13 5 14 4 15 3 16 2 17 1 18
REMARK H PARENT
REMARK Flexibility Score: inf
ROOT
ATOM      1  C   UNL     1      12.387  16.886  70.986  1.00  0.00     0.000 C 
ENDROOT
BRANCH   1   2
ATOM      2  C   UNL     1      11.895  16.112  72.221  1.00  0.00     0.000 C 
BRANCH   2   3
ATOM      3  C   UNL     1      10.381  16.265  72.447  1.00  0.00     0.000 C 
BRANCH   3   4
ATOM      4  C   UNL     1       9.795  17.504  71.747  1.00  0.00     0.000 C 
BRANCH   4   5
ATOM      5  C   UNL     1       8.258  17.616  71.790  1.00  0.00     0.000 C 
BRANCH   5   6
ATOM      6  C   UNL     1       7.706  18.647  72.791  1.00  0.00     0.006 C 
BRANCH   6   7
ATOM      7  C   UNL     1       7.863  18.203  74.251  1.00  0.00     0.053 C 
BRANCH   7   8
ATOM      8  C   UNL     1       7.205  16.878  74.467  1.00  0.00     0.041 C 
ATOM      9  O   UNL     1       7.858  15.917  74.952  1.00  0.00    -0.550 OA
ATOM     10  O   UNL     1       5.883  16.688  74.085  1.00  0.00    -0.550 OA
ENDBRANCH   7   8
ENDBRANCH   6   7
ENDBRANCH   5   6
ENDBRANCH   4   5
ENDBRANCH   3   4
ENDBRANCH   2   3
ENDBRANCH   1   2
BRANCH   1  11
ATOM     11  C   UNL     1      13.716  16.336  70.439  1.00  0.00     0.000 C 
BRANCH  11  12
ATOM     12  C   UNL     1      13.713  14.805  70.310  1.00  0.00    -0.000 C 
BRANCH  12  13
ATOM     13  C   UNL     1      13.128  14.321  68.975  1.00  0.00    -0.000 C 
BRANCH  13  14
ATOM     14  C   UNL     1      12.183  13.132  69.189  1.00  0.00    -0.000 C 
BRANCH  14  15
ATOM     15  C   UNL     1      10.846  13.592  69.788  1.00  0.00    -0.000 C 
BRANCH  15  16
ATOM     16  C   UNL     1       9.801  13.931  68.714  1.00  0.00    -0.000 C 
BRANCH  16  17
ATOM     17  C   UNL     1       9.282  15.372  68.829  1.00  0.00    -0.003 C 
ATOM     18  C   UNL     1      10.141  16.332  68.012  1.00  0.00     0.004 C 
ENDBRANCH  16  17
ENDBRANCH  15  16
ENDBRANCH  14  15
ENDBRANCH  13  14
ENDBRANCH  12  13
ENDBRANCH  11  12
ENDBRANCH   1  11
TORSDOF 14
ENDMDL
