MODEL 1
REMARK VINA RESULT:    -6.596      0.000      0.000
REMARK INTER + INTRA:         -13.432
REMARK INTER:                 -10.838
REMARK INTRA:                  -2.594
REMARK UNBOUND:                -2.594
REMARK SMILES C[C@H]1O[C@@H](OC[C@@H]2O[C@H](Oc3c(-c4ccc(O)c(O)c4)oc4cc(O)cc(O)c4c3=O)[C@@H](O)[C@@H](O)[C@@H]2O)[C@H](O)[C@@H](O)[C@@H]1O
REMARK SMILES IDX 7 1 36 2 34 3 32 4 9 5 8 6 6 7 5 8 4 9 1 10 2 11 42 12 3 13
REMARK SMILES IDX 40 14 38 15 43 16 41 18 39 20 37 22 35 24 10 26 11 27 12 28
REMARK SMILES IDX 30 29 21 30 29 31 31 32 22 33 27 34 23 35 26 36 24 37 13 38
REMARK SMILES IDX 20 39 14 40 18 41 15 42 16 43 19 44 17 46 28 48 25 50 33 52
REMARK H PARENT 43 17 41 19 39 21 37 23 35 25 19 45 17 47 28 49 25 51 33 53
REMARK Flexibility Score: inf
ROOT
ATOM      1  C   UNL     1      -7.653  90.778  -9.689  1.00  0.00     0.180 C 
ATOM      2  C   UNL     1      -8.836  90.360  -8.796  1.00  0.00     0.177 C 
ATOM      3  C   UNL     1      -9.974  89.901  -9.689  1.00  0.00     0.180 C 
ATOM      4  C   UNL     1      -9.508  88.708 -10.537  1.00  0.00     0.214 C 
ATOM      5  C   UNL     1      -7.981  88.684 -10.908  1.00  0.00     0.339 C 
ATOM      6  O   UNL     1      -7.105  89.720 -10.457  1.00  0.00    -0.332 OA
ENDROOT
BRANCH   1   7
ATOM      7  C   UNL     1      -7.956  91.992 -10.598  1.00  0.00     0.198 C 
BRANCH   7   8
ATOM      8  O   UNL     1      -7.182  93.114 -10.209  1.00  0.00    -0.347 OA
BRANCH   8   9
ATOM      9  C   UNL     1      -5.955  93.166 -10.922  1.00  0.00     0.281 C 
ATOM     10  C   UNL     1      -5.286  93.861  -8.062  1.00  0.00     0.041 C 
ATOM     11  C   UNL     1      -4.318  93.541  -9.209  1.00  0.00     0.150 C 
ATOM     12  C   UNL     1      -3.741  94.824  -9.881  1.00  0.00     0.174 C 
ATOM     13  O   UNL     1      -4.883  92.630 -10.143  1.00  0.00    -0.344 OA
ATOM     14  C   UNL     1      -4.206  94.955 -11.338  1.00  0.00     0.179 C 
ATOM     15  C   UNL     1      -5.702  94.613 -11.421  1.00  0.00     0.202 C 
BRANCH  12  16
ATOM     16  O   UNL     1      -2.336  94.794  -9.860  1.00  0.00    -0.388 OA
ATOM     17  H   UNL     1      -2.029  95.720 -10.044  1.00  0.00     0.211 HD
ENDBRANCH  12  16
BRANCH  14  18
ATOM     18  O   UNL     1      -3.983  96.268 -11.781  1.00  0.00    -0.387 OA
ATOM     19  H   UNL     1      -4.756  96.813 -11.479  1.00  0.00     0.211 HD
ENDBRANCH  14  18
BRANCH  15  20
ATOM     20  O   UNL     1      -6.196  94.784 -12.728  1.00  0.00    -0.385 OA
ATOM     21  H   UNL     1      -7.183  94.680 -12.693  1.00  0.00     0.211 HD
ENDBRANCH  15  20
ENDBRANCH   8   9
ENDBRANCH   7   8
ENDBRANCH   1   7
BRANCH   2  22
ATOM     22  O   UNL     1      -9.254  91.437  -7.998  1.00  0.00    -0.387 OA
ATOM     23  H   UNL     1      -9.198  91.132  -7.055  1.00  0.00     0.211 HD
ENDBRANCH   2  22
BRANCH   3  24
ATOM     24  O   UNL     1     -11.093  89.543  -8.915  1.00  0.00    -0.387 OA
ATOM     25  H   UNL     1     -10.748  89.026  -8.137  1.00  0.00     0.211 HD
ENDBRANCH   3  24
BRANCH   5  26
ATOM     26  O   UNL     1      -7.813  88.477 -12.317  1.00  0.00    -0.454 OA
BRANCH  26  27
ATOM     27  C   UNL     1      -7.358  89.463 -13.204  1.00  0.00     0.214 A 
ATOM     28  C   UNL     1      -8.257  90.361 -13.813  1.00  0.00     0.180 A 
ATOM     29  C   UNL     1      -5.989  89.567 -13.508  1.00  0.00     0.239 A 
ATOM     30  O   UNL     1      -7.783  91.383 -14.517  1.00  0.00    -0.452 OA
ATOM     31  C   UNL     1      -5.527  90.617 -14.338  1.00  0.00     0.111 A 
ATOM     32  O   UNL     1      -5.197  88.726 -13.009  1.00  0.00    -0.285 OA
ATOM     33  C   UNL     1      -6.493  91.565 -14.767  1.00  0.00     0.146 A 
ATOM     34  C   UNL     1      -4.168  90.803 -14.736  1.00  0.00     0.134 A 
ATOM     35  C   UNL     1      -6.103  92.708 -15.468  1.00  0.00     0.094 A 
ATOM     36  C   UNL     1      -3.808  91.956 -15.445  1.00  0.00     0.093 A 
ATOM     37  C   UNL     1      -4.766  92.912 -15.798  1.00  0.00     0.123 A 
BRANCH  28  38
ATOM     38  C   UNL     1      -9.730  90.227 -13.694  1.00  0.00     0.025 A 
ATOM     39  C   UNL     1     -10.471  91.272 -13.118  1.00  0.00     0.062 A 
ATOM     40  C   UNL     1     -10.415  89.103 -14.187  1.00  0.00     0.016 A 
ATOM     41  C   UNL     1     -11.864  91.197 -13.012  1.00  0.00     0.158 A 
ATOM     42  C   UNL     1     -11.803  89.015 -14.076  1.00  0.00     0.051 A 
ATOM     43  C   UNL     1     -12.540  90.054 -13.500  1.00  0.00     0.157 A 
BRANCH  41  44
ATOM     44  O   UNL     1     -12.532  92.273 -12.419  1.00  0.00    -0.504 OA
ATOM     45  H   UNL     1     -13.503  92.250 -12.141  1.00  0.00     0.293 HD
ENDBRANCH  41  44
BRANCH  43  46
ATOM     46  O   UNL     1     -13.928  89.917 -13.448  1.00  0.00    -0.504 OA
ATOM     47  H   UNL     1     -14.415  89.053 -13.638  1.00  0.00     0.293 HD
ENDBRANCH  43  46
ENDBRANCH  28  38
BRANCH  34  48
ATOM     48  O   UNL     1      -3.144  89.886 -14.481  1.00  0.00    -0.507 OA
ATOM     49  H   UNL     1      -2.194  90.130 -14.250  1.00  0.00     0.293 HD
ENDBRANCH  34  48
BRANCH  37  50
ATOM     50  O   UNL     1      -4.395  94.068 -16.479  1.00  0.00    -0.508 OA
ATOM     51  H   UNL     1      -4.983  94.893 -16.477  1.00  0.00     0.293 HD
ENDBRANCH  37  50
ENDBRANCH  26  27
ENDBRANCH   5  26
BRANCH   4  52
ATOM     52  O   UNL     1      -9.841  87.510  -9.878  1.00  0.00    -0.384 OA
ATOM     53  H   UNL     1     -10.344  86.951 -10.527  1.00  0.00     0.211 HD
ENDBRANCH   4  52
TORSDOF 16
ENDMDL
MODEL 2
REMARK VINA RESULT:    -6.321      4.702      9.566
REMARK INTER + INTRA:         -12.981
REMARK INTER:                 -10.522
REMARK INTRA:                  -2.459
REMARK UNBOUND:                -2.594
REMARK SMILES C[C@H]1O[C@@H](OC[C@@H]2O[C@H](Oc3c(-c4ccc(O)c(O)c4)oc4cc(O)cc(O)c4c3=O)[C@@H](O)[C@@H](O)[C@@H]2O)[C@H](O)[C@@H](O)[C@@H]1O
REMARK SMILES IDX 7 1 36 2 34 3 32 4 9 5 8 6 6 7 5 8 4 9 1 10 2 11 42 12 3 13
REMARK SMILES IDX 40 14 38 15 43 16 41 18 39 20 37 22 35 24 10 26 11 27 12 28
REMARK SMILES IDX 30 29 21 30 29 31 31 32 22 33 27 34 23 35 26 36 24 37 13 38
REMARK SMILES IDX 20 39 14 40 18 41 15 42 16 43 19 44 17 46 28 48 25 50 33 52
REMARK H PARENT 43 17 41 19 39 21 37 23 35 25 19 45 17 47 28 49 25 51 33 53
REMARK Flexibility Score: inf
ROOT
ATOM      1  C   UNL     1      -6.977  88.688 -10.049  1.00  0.00     0.180 C 
ATOM      2  C   UNL     1      -5.579  89.269  -9.773  1.00  0.00     0.177 C 
ATOM      3  C   UNL     1      -5.295  89.152  -8.286  1.00  0.00     0.180 C 
ATOM      4  C   UNL     1      -5.341  87.673  -7.874  1.00  0.00     0.214 C 
ATOM      5  C   UNL     1      -6.319  86.760  -8.698  1.00  0.00     0.339 C 
ATOM      6  O   UNL     1      -7.096  87.304  -9.768  1.00  0.00    -0.332 OA
ENDROOT
BRANCH   1   7
ATOM      7  C   UNL     1      -8.125  89.468  -9.365  1.00  0.00     0.198 C 
BRANCH   7   8
ATOM      8  O   UNL     1      -9.049  89.944 -10.328  1.00  0.00    -0.347 OA
BRANCH   8   9
ATOM      9  C   UNL     1      -9.885  88.899 -10.801  1.00  0.00     0.281 C 
ATOM     10  C   UNL     1     -10.041  91.092 -12.869  1.00  0.00     0.041 C 
ATOM     11  C   UNL     1     -10.555  89.650 -12.978  1.00  0.00     0.150 C 
ATOM     12  C   UNL     1     -12.080  89.533 -12.676  1.00  0.00     0.174 C 
ATOM     13  O   UNL     1      -9.767  88.745 -12.217  1.00  0.00    -0.344 OA
ATOM     14  C   UNL     1     -12.342  88.713 -11.405  1.00  0.00     0.179 C 
ATOM     15  C   UNL     1     -11.342  89.136 -10.319  1.00  0.00     0.202 C 
BRANCH  12  16
ATOM     16  O   UNL     1     -12.744  88.918 -13.751  1.00  0.00    -0.388 OA
ATOM     17  H   UNL     1     -12.289  89.226 -14.580  1.00  0.00     0.211 HD
ENDBRANCH  12  16
BRANCH  14  18
ATOM     18  O   UNL     1     -13.657  88.938 -10.969  1.00  0.00    -0.387 OA
ATOM     19  H   UNL     1     -13.790  89.921 -10.941  1.00  0.00     0.211 HD
ENDBRANCH  14  18
BRANCH  15  20
ATOM     20  O   UNL     1     -11.582  88.460  -9.108  1.00  0.00    -0.385 OA
ATOM     21  H   UNL     1     -12.191  87.700  -9.302  1.00  0.00     0.211 HD
ENDBRANCH  15  20
ENDBRANCH   8   9
ENDBRANCH   7   8
ENDBRANCH   1   7
BRANCH   2  22
ATOM     22  O   UNL     1      -5.519  90.615 -10.170  1.00  0.00    -0.387 OA
ATOM     23  H   UNL     1      -4.815  90.675 -10.867  1.00  0.00     0.211 HD
ENDBRANCH   2  22
BRANCH   3  24
ATOM     24  O   UNL     1      -4.038  89.706  -7.980  1.00  0.00    -0.387 OA
ATOM     25  H   UNL     1      -3.795  90.298  -8.743  1.00  0.00     0.211 HD
ENDBRANCH   3  24
BRANCH   5  26
ATOM     26  O   UNL     1      -7.159  86.004  -7.815  1.00  0.00    -0.454 OA
BRANCH  26  27
ATOM     27  C   UNL     1      -8.044  85.003  -8.243  1.00  0.00     0.214 A 
ATOM     28  C   UNL     1      -7.596  83.685  -8.461  1.00  0.00     0.180 A 
ATOM     29  C   UNL     1      -9.399  85.303  -8.469  1.00  0.00     0.239 A 
ATOM     30  O   UNL     1      -8.483  82.727  -8.705  1.00  0.00    -0.452 OA
ATOM     31  C   UNL     1     -10.302  84.271  -8.819  1.00  0.00     0.111 A 
ATOM     32  O   UNL     1      -9.782  86.494  -8.331  1.00  0.00    -0.285 OA
ATOM     33  C   UNL     1      -9.781  82.951  -8.852  1.00  0.00     0.146 A 
ATOM     34  C   UNL     1     -11.689  84.464  -9.101  1.00  0.00     0.134 A 
ATOM     35  C   UNL     1     -10.630  81.859  -9.048  1.00  0.00     0.094 A 
ATOM     36  C   UNL     1     -12.514  83.349  -9.299  1.00  0.00     0.093 A 
ATOM     37  C   UNL     1     -11.993  82.052  -9.260  1.00  0.00     0.123 A 
BRANCH  28  38
ATOM     38  C   UNL     1      -6.163  83.306  -8.416  1.00  0.00     0.025 A 
ATOM     39  C   UNL     1      -5.493  83.007  -9.614  1.00  0.00     0.062 A 
ATOM     40  C   UNL     1      -5.437  83.287  -7.212  1.00  0.00     0.016 A 
ATOM     41  C   UNL     1      -4.134  82.672  -9.618  1.00  0.00     0.158 A 
ATOM     42  C   UNL     1      -4.085  82.945  -7.205  1.00  0.00     0.051 A 
ATOM     43  C   UNL     1      -3.420  82.643  -8.398  1.00  0.00     0.157 A 
BRANCH  41  44
ATOM     44  O   UNL     1      -3.539  82.379 -10.849  1.00  0.00    -0.504 OA
ATOM     45  H   UNL     1      -3.948  81.767 -11.541  1.00  0.00     0.293 HD
ENDBRANCH  41  44
BRANCH  43  46
ATOM     46  O   UNL     1      -2.059  82.339  -8.326  1.00  0.00    -0.504 OA
ATOM     47  H   UNL     1      -1.339  82.868  -8.797  1.00  0.00     0.293 HD
ENDBRANCH  43  46
ENDBRANCH  28  38
BRANCH  34  48
ATOM     48  O   UNL     1     -12.300  85.716  -9.214  1.00  0.00    -0.507 OA
ATOM     49  H   UNL     1     -11.994  86.455  -9.828  1.00  0.00     0.293 HD
ENDBRANCH  34  48
BRANCH  37  50
ATOM     50  O   UNL     1     -12.824  80.949  -9.432  1.00  0.00    -0.508 OA
ATOM     51  H   UNL     1     -13.185  80.432  -8.639  1.00  0.00     0.293 HD
ENDBRANCH  37  50
ENDBRANCH  26  27
ENDBRANCH   5  26
BRANCH   4  52
ATOM     52  O   UNL     1      -4.043  87.132  -7.936  1.00  0.00    -0.384 OA
ATOM     53  H   UNL     1      -3.439  87.769  -7.471  1.00  0.00     0.211 HD
ENDBRANCH   4  52
TORSDOF 16
ENDMDL
MODEL 3
REMARK VINA RESULT:    -6.281      3.324      6.654
REMARK INTER + INTRA:         -12.914
REMARK INTER:                 -10.480
REMARK INTRA:                  -2.433
REMARK UNBOUND:                -2.594
REMARK SMILES C[C@H]1O[C@@H](OC[C@@H]2O[C@H](Oc3c(-c4ccc(O)c(O)c4)oc4cc(O)cc(O)c4c3=O)[C@@H](O)[C@@H](O)[C@@H]2O)[C@H](O)[C@@H](O)[C@@H]1O
REMARK SMILES IDX 7 1 36 2 34 3 32 4 9 5 8 6 6 7 5 8 4 9 1 10 2 11 42 12 3 13
REMARK SMILES IDX 40 14 38 15 43 16 41 18 39 20 37 22 35 24 10 26 11 27 12 28
REMARK SMILES IDX 30 29 21 30 29 31 31 32 22 33 27 34 23 35 26 36 24 37 13 38
REMARK SMILES IDX 20 39 14 40 18 41 15 42 16 43 19 44 17 46 28 48 25 50 33 52
REMARK H PARENT 43 17 41 19 39 21 37 23 35 25 19 45 17 47 28 49 25 51 33 53
REMARK Flexibility Score: inf
ROOT
ATOM      1  C   UNL     1      -4.699  92.071 -11.327  1.00  0.00     0.180 C 
ATOM      2  C   UNL     1      -4.540  93.466 -10.697  1.00  0.00     0.177 C 
ATOM      3  C   UNL     1      -5.683  93.687  -9.723  1.00  0.00     0.180 C 
ATOM      4  C   UNL     1      -5.637  92.608  -8.631  1.00  0.00     0.214 C 
ATOM      5  C   UNL     1      -5.056  91.214  -9.065  1.00  0.00     0.339 C 
ATOM      6  O   UNL     1      -4.596  91.002 -10.403  1.00  0.00    -0.332 OA
ENDROOT
BRANCH   1   7
ATOM      7  C   UNL     1      -5.981  91.913 -12.180  1.00  0.00     0.198 C 
BRANCH   7   8
ATOM      8  O   UNL     1      -5.676  91.343 -13.441  1.00  0.00    -0.347 OA
BRANCH   8   9
ATOM      9  C   UNL     1      -4.461  91.863 -13.961  1.00  0.00     0.281 C 
ATOM     10  C   UNL     1      -6.646  92.867 -15.785  1.00  0.00     0.041 C 
ATOM     11  C   UNL     1      -5.177  93.307 -15.737  1.00  0.00     0.150 C 
ATOM     12  C   UNL     1      -4.304  92.600 -16.819  1.00  0.00     0.174 C 
ATOM     13  O   UNL     1      -4.632  93.202 -14.428  1.00  0.00    -0.344 OA
ATOM     14  C   UNL     1      -3.250  91.685 -16.182  1.00  0.00     0.179 C 
ATOM     15  C   UNL     1      -3.896  90.895 -15.034  1.00  0.00     0.202 C 
BRANCH  12  16
ATOM     16  O   UNL     1      -3.649  93.554 -17.615  1.00  0.00    -0.388 OA
ATOM     17  H   UNL     1      -4.050  93.492 -18.522  1.00  0.00     0.211 HD
ENDBRANCH  12  16
BRANCH  14  18
ATOM     18  O   UNL     1      -2.748  90.806 -17.155  1.00  0.00    -0.387 OA
ATOM     19  H   UNL     1      -2.240  91.353 -17.808  1.00  0.00     0.211 HD
ENDBRANCH  14  18
BRANCH  15  20
ATOM     20  O   UNL     1      -2.985  89.988 -14.458  1.00  0.00    -0.385 OA
ATOM     21  H   UNL     1      -2.699  90.363 -13.584  1.00  0.00     0.211 HD
ENDBRANCH  15  20
ENDBRANCH   8   9
ENDBRANCH   7   8
ENDBRANCH   1   7
BRANCH   2  22
ATOM     22  O   UNL     1      -4.556  94.460 -11.690  1.00  0.00    -0.387 OA
ATOM     23  H   UNL     1      -3.852  95.116 -11.448  1.00  0.00     0.211 HD
ENDBRANCH   2  22
BRANCH   3  24
ATOM     24  O   UNL     1      -5.598  94.969  -9.148  1.00  0.00    -0.387 OA
ATOM     25  H   UNL     1      -6.422  95.091  -8.602  1.00  0.00     0.211 HD
ENDBRANCH   3  24
BRANCH   5  26
ATOM     26  O   UNL     1      -5.946  90.159  -8.679  1.00  0.00    -0.454 OA
BRANCH  26  27
ATOM     27  C   UNL     1      -5.612  88.798  -8.720  1.00  0.00     0.214 A 
ATOM     28  C   UNL     1      -6.221  87.930  -9.648  1.00  0.00     0.180 A 
ATOM     29  C   UNL     1      -4.662  88.273  -7.826  1.00  0.00     0.239 A 
ATOM     30  O   UNL     1      -5.769  86.688  -9.774  1.00  0.00    -0.452 OA
ATOM     31  C   UNL     1      -4.268  86.917  -7.929  1.00  0.00     0.111 A 
ATOM     32  O   UNL     1      -4.164  89.038  -6.960  1.00  0.00    -0.285 OA
ATOM     33  C   UNL     1      -4.822  86.171  -9.003  1.00  0.00     0.146 A 
ATOM     34  C   UNL     1      -3.337  86.271  -7.059  1.00  0.00     0.134 A 
ATOM     35  C   UNL     1      -4.382  84.872  -9.264  1.00  0.00     0.094 A 
ATOM     36  C   UNL     1      -2.920  84.965  -7.343  1.00  0.00     0.093 A 
ATOM     37  C   UNL     1      -3.427  84.271  -8.447  1.00  0.00     0.123 A 
BRANCH  28  38
ATOM     38  C   UNL     1      -7.352  88.345 -10.513  1.00  0.00     0.025 A 
ATOM     39  C   UNL     1      -7.124  88.577 -11.879  1.00  0.00     0.062 A 
ATOM     40  C   UNL     1      -8.662  88.466 -10.016  1.00  0.00     0.016 A 
ATOM     41  C   UNL     1      -8.169  88.944 -12.735  1.00  0.00     0.158 A 
ATOM     42  C   UNL     1      -9.708  88.841 -10.859  1.00  0.00     0.051 A 
ATOM     43  C   UNL     1      -9.479  89.075 -12.218  1.00  0.00     0.157 A 
BRANCH  41  44
ATOM     44  O   UNL     1      -7.861  89.165 -14.081  1.00  0.00    -0.504 OA
ATOM     45  H   UNL     1      -6.948  89.443 -14.412  1.00  0.00     0.293 HD
ENDBRANCH  41  44
BRANCH  43  46
ATOM     46  O   UNL     1     -10.574  89.417 -13.014  1.00  0.00    -0.504 OA
ATOM     47  H   UNL     1     -11.105  90.268 -12.904  1.00  0.00     0.293 HD
ENDBRANCH  43  46
ENDBRANCH  28  38
BRANCH  34  48
ATOM     48  O   UNL     1      -2.811  86.854  -5.903  1.00  0.00    -0.507 OA
ATOM     49  H   UNL     1      -3.355  87.295  -5.178  1.00  0.00     0.293 HD
ENDBRANCH  34  48
BRANCH  37  50
ATOM     50  O   UNL     1      -2.987  82.983  -8.737  1.00  0.00    -0.508 OA
ATOM     51  H   UNL     1      -3.052  82.601  -9.673  1.00  0.00     0.293 HD
ENDBRANCH  37  50
ENDBRANCH  26  27
ENDBRANCH   5  26
BRANCH   4  52
ATOM     52  O   UNL     1      -4.903  93.090  -7.530  1.00  0.00    -0.384 OA
ATOM     53  H   UNL     1      -5.493  93.020  -6.734  1.00  0.00     0.211 HD
ENDBRANCH   4  52
TORSDOF 16
ENDMDL
MODEL 4
REMARK VINA RESULT:    -6.260      3.988      6.075
REMARK INTER + INTRA:         -12.880
REMARK INTER:                 -11.201
REMARK INTRA:                  -1.679
REMARK UNBOUND:                -2.594
REMARK SMILES C[C@H]1O[C@@H](OC[C@@H]2O[C@H](Oc3c(-c4ccc(O)c(O)c4)oc4cc(O)cc(O)c4c3=O)[C@@H](O)[C@@H](O)[C@@H]2O)[C@H](O)[C@@H](O)[C@@H]1O
REMARK SMILES IDX 7 1 36 2 34 3 32 4 9 5 8 6 6 7 5 8 4 9 1 10 2 11 42 12 3 13
REMARK SMILES IDX 40 14 38 15 43 16 41 18 39 20 37 22 35 24 10 26 11 27 12 28
REMARK SMILES IDX 30 29 21 30 29 31 31 32 22 33 27 34 23 35 26 36 24 37 13 38
REMARK SMILES IDX 20 39 14 40 18 41 15 42 16 43 19 44 17 46 28 48 25 50 33 52
REMARK H PARENT 43 17 41 19 39 21 37 23 35 25 19 45 17 47 28 49 25 51 33 53
REMARK Flexibility Score: inf
ROOT
ATOM      1  C   UNL     1      -6.542  86.862  -9.447  1.00  0.00     0.180 C 
ATOM      2  C   UNL     1      -6.193  88.073  -8.563  1.00  0.00     0.177 C 
ATOM      3  C   UNL     1      -5.656  89.180  -9.454  1.00  0.00     0.180 C 
ATOM      4  C   UNL     1      -6.728  89.570 -10.482  1.00  0.00     0.214 C 
ATOM      5  C   UNL     1      -7.703  88.422 -10.929  1.00  0.00     0.339 C 
ATOM      6  O   UNL     1      -7.579  87.107 -10.382  1.00  0.00    -0.332 OA
ENDROOT
BRANCH   1   7
ATOM      7  C   UNL     1      -5.321  86.237 -10.161  1.00  0.00     0.198 C 
BRANCH   7   8
ATOM      8  O   UNL     1      -4.373  85.772  -9.215  1.00  0.00    -0.347 OA
BRANCH   8   9
ATOM      9  C   UNL     1      -4.758  84.517  -8.675  1.00  0.00     0.281 C 
ATOM     10  C   UNL     1      -2.546  85.547  -6.898  1.00  0.00     0.041 C 
ATOM     11  C   UNL     1      -3.482  84.356  -6.650  1.00  0.00     0.150 C 
ATOM     12  C   UNL     1      -2.830  82.992  -7.033  1.00  0.00     0.174 C 
ATOM     13  O   UNL     1      -4.757  84.549  -7.246  1.00  0.00    -0.344 OA
ATOM     14  C   UNL     1      -3.559  82.330  -8.210  1.00  0.00     0.179 C 
ATOM     15  C   UNL     1      -3.868  83.395  -9.273  1.00  0.00     0.202 C 
BRANCH  12  16
ATOM     16  O   UNL     1      -2.859  82.115  -5.936  1.00  0.00    -0.388 OA
ATOM     17  H   UNL     1      -3.091  81.217  -6.295  1.00  0.00     0.211 HD
ENDBRANCH  12  16
BRANCH  14  18
ATOM     18  O   UNL     1      -2.746  81.323  -8.753  1.00  0.00    -0.387 OA
ATOM     19  H   UNL     1      -2.244  81.728  -9.507  1.00  0.00     0.211 HD
ENDBRANCH  14  18
BRANCH  15  20
ATOM     20  O   UNL     1      -4.478  82.826 -10.408  1.00  0.00    -0.385 OA
ATOM     21  H   UNL     1      -4.985  82.027 -10.108  1.00  0.00     0.211 HD
ENDBRANCH  15  20
ENDBRANCH   8   9
ENDBRANCH   7   8
ENDBRANCH   1   7
BRANCH   2  22
ATOM     22  O   UNL     1      -5.231  87.720  -7.602  1.00  0.00    -0.387 OA
ATOM     23  H   UNL     1      -4.389  87.538  -8.095  1.00  0.00     0.211 HD
ENDBRANCH   2  22
BRANCH   3  24
ATOM     24  O   UNL     1      -5.289  90.297  -8.682  1.00  0.00    -0.387 OA
ATOM     25  H   UNL     1      -4.495  90.025  -8.145  1.00  0.00     0.211 HD
ENDBRANCH   3  24
BRANCH   5  26
ATOM     26  O   UNL     1      -7.773  88.354 -12.360  1.00  0.00    -0.454 OA
BRANCH  26  27
ATOM     27  C   UNL     1      -7.343  89.381 -13.214  1.00  0.00     0.214 A 
ATOM     28  C   UNL     1      -8.259  90.302 -13.759  1.00  0.00     0.180 A 
ATOM     29  C   UNL     1      -5.983  89.503 -13.547  1.00  0.00     0.239 A 
ATOM     30  O   UNL     1      -7.806  91.355 -14.428  1.00  0.00    -0.452 OA
ATOM     31  C   UNL     1      -5.545  90.590 -14.342  1.00  0.00     0.111 A 
ATOM     32  O   UNL     1      -5.176  88.644 -13.107  1.00  0.00    -0.285 OA
ATOM     33  C   UNL     1      -6.524  91.552 -14.703  1.00  0.00     0.146 A 
ATOM     34  C   UNL     1      -4.196  90.798 -14.766  1.00  0.00     0.134 A 
ATOM     35  C   UNL     1      -6.155  92.727 -15.363  1.00  0.00     0.094 A 
ATOM     36  C   UNL     1      -3.858  91.983 -15.431  1.00  0.00     0.093 A 
ATOM     37  C   UNL     1      -4.826  92.950 -15.717  1.00  0.00     0.123 A 
BRANCH  28  38
ATOM     38  C   UNL     1      -9.728  90.157 -13.608  1.00  0.00     0.025 A 
ATOM     39  C   UNL     1     -10.425  91.048 -12.775  1.00  0.00     0.062 A 
ATOM     40  C   UNL     1     -10.455  89.183 -14.316  1.00  0.00     0.016 A 
ATOM     41  C   UNL     1     -11.814  90.963 -12.628  1.00  0.00     0.158 A 
ATOM     42  C   UNL     1     -11.838  89.085 -14.167  1.00  0.00     0.051 A 
ATOM     43  C   UNL     1     -12.531  89.969 -13.335  1.00  0.00     0.157 A 
BRANCH  41  44
ATOM     44  O   UNL     1     -12.436  91.880 -11.774  1.00  0.00    -0.504 OA
ATOM     45  H   UNL     1     -12.251  92.873 -11.783  1.00  0.00     0.293 HD
ENDBRANCH  41  44
BRANCH  43  46
ATOM     46  O   UNL     1     -13.918  89.837 -13.254  1.00  0.00    -0.504 OA
ATOM     47  H   UNL     1     -14.566  90.589 -13.437  1.00  0.00     0.293 HD
ENDBRANCH  43  46
ENDBRANCH  28  38
BRANCH  34  48
ATOM     48  O   UNL     1      -3.164  89.874 -14.577  1.00  0.00    -0.507 OA
ATOM     49  H   UNL     1      -2.207  90.112 -14.370  1.00  0.00     0.293 HD
ENDBRANCH  34  48
BRANCH  37  50
ATOM     50  O   UNL     1      -4.476  94.136 -16.356  1.00  0.00    -0.508 OA
ATOM     51  H   UNL     1      -5.166  94.850 -16.558  1.00  0.00     0.293 HD
ENDBRANCH  37  50
ENDBRANCH  26  27
ENDBRANCH   5  26
BRANCH   4  52
ATOM     52  O   UNL     1      -7.483  90.647  -9.982  1.00  0.00    -0.384 OA
ATOM     53  H   UNL     1      -6.902  91.452 -10.016  1.00  0.00     0.211 HD
ENDBRANCH   4  52
TORSDOF 16
ENDMDL
MODEL 5
REMARK VINA RESULT:    -6.238      3.267      5.629
REMARK INTER + INTRA:         -12.844
REMARK INTER:                 -10.882
REMARK INTRA:                  -1.962
REMARK UNBOUND:                -2.594
REMARK SMILES C[C@H]1O[C@@H](OC[C@@H]2O[C@H](Oc3c(-c4ccc(O)c(O)c4)oc4cc(O)cc(O)c4c3=O)[C@@H](O)[C@@H](O)[C@@H]2O)[C@H](O)[C@@H](O)[C@@H]1O
REMARK SMILES IDX 7 1 36 2 34 3 32 4 9 5 8 6 6 7 5 8 4 9 1 10 2 11 42 12 3 13
REMARK SMILES IDX 40 14 38 15 43 16 41 18 39 20 37 22 35 24 10 26 11 27 12 28
REMARK SMILES IDX 30 29 21 30 29 31 31 32 22 33 27 34 23 35 26 36 24 37 13 38
REMARK SMILES IDX 20 39 14 40 18 41 15 42 16 43 19 44 17 46 28 48 25 50 33 52
REMARK H PARENT 43 17 41 19 39 21 37 23 35 25 19 45 17 47 28 49 25 51 33 53
REMARK Flexibility Score: inf
ROOT
ATOM      1  C   UNL     1      -7.715  87.307  -9.995  1.00  0.00     0.180 C 
ATOM      2  C   UNL     1      -9.040  87.323  -9.212  1.00  0.00     0.177 C 
ATOM      3  C   UNL     1      -9.271  88.728  -8.685  1.00  0.00     0.180 C 
ATOM      4  C   UNL     1      -9.345  89.708  -9.865  1.00  0.00     0.214 C 
ATOM      5  C   UNL     1      -8.492  89.329 -11.129  1.00  0.00     0.339 C 
ATOM      6  O   UNL     1      -7.714  88.129 -11.149  1.00  0.00    -0.332 OA
ENDROOT
BRANCH   1   7
ATOM      7  C   UNL     1      -6.472  87.611  -9.125  1.00  0.00     0.198 C 
BRANCH   7   8
ATOM      8  O   UNL     1      -5.977  86.426  -8.528  1.00  0.00    -0.347 OA
BRANCH   8   9
ATOM      9  C   UNL     1      -4.861  85.916  -9.242  1.00  0.00     0.281 C 
ATOM     10  C   UNL     1      -6.954  83.743  -9.308  1.00  0.00     0.041 C 
ATOM     11  C   UNL     1      -5.650  83.825 -10.113  1.00  0.00     0.150 C 
ATOM     12  C   UNL     1      -4.497  82.992  -9.473  1.00  0.00     0.174 C 
ATOM     13  O   UNL     1      -5.278  85.169 -10.386  1.00  0.00    -0.344 OA
ATOM     14  C   UNL     1      -3.353  83.893  -8.990  1.00  0.00     0.179 C 
ATOM     15  C   UNL     1      -3.943  85.119  -8.277  1.00  0.00     0.202 C 
BRANCH  12  16
ATOM     16  O   UNL     1      -3.984  82.076 -10.406  1.00  0.00    -0.388 OA
ATOM     17  H   UNL     1      -3.841  82.579 -11.251  1.00  0.00     0.211 HD
ENDBRANCH  12  16
BRANCH  14  18
ATOM     18  O   UNL     1      -2.531  83.169  -8.110  1.00  0.00    -0.387 OA
ATOM     19  H   UNL     1      -2.822  83.393  -7.189  1.00  0.00     0.211 HD
ENDBRANCH  14  18
BRANCH  15  20
ATOM     20  O   UNL     1      -2.931  85.946  -7.753  1.00  0.00    -0.385 OA
ATOM     21  H   UNL     1      -3.364  86.769  -7.406  1.00  0.00     0.211 HD
ENDBRANCH  15  20
ENDBRANCH   8   9
ENDBRANCH   7   8
ENDBRANCH   1   7
BRANCH   2  22
ATOM     22  O   UNL     1      -8.993  86.410  -8.145  1.00  0.00    -0.387 OA
ATOM     23  H   UNL     1      -9.616  85.672  -8.373  1.00  0.00     0.211 HD
ENDBRANCH   2  22
BRANCH   3  24
ATOM     24  O   UNL     1     -10.457  88.781  -7.930  1.00  0.00    -0.387 OA
ATOM     25  H   UNL     1     -10.268  89.362  -7.144  1.00  0.00     0.211 HD
ENDBRANCH   3  24
BRANCH   5  26
ATOM     26  O   UNL     1      -7.688  90.442 -11.542  1.00  0.00    -0.454 OA
BRANCH  26  27
ATOM     27  C   UNL     1      -7.230  90.633 -12.854  1.00  0.00     0.214 A 
ATOM     28  C   UNL     1      -8.111  91.032 -13.879  1.00  0.00     0.180 A 
ATOM     29  C   UNL     1      -5.877  90.421 -13.171  1.00  0.00     0.239 A 
ATOM     30  O   UNL     1      -7.622  91.362 -15.068  1.00  0.00    -0.452 OA
ATOM     31  C   UNL     1      -5.405  90.696 -14.477  1.00  0.00     0.111 A 
ATOM     32  O   UNL     1      -5.106  90.007 -12.267  1.00  0.00    -0.285 OA
ATOM     33  C   UNL     1      -6.341  91.250 -15.390  1.00  0.00     0.146 A 
ATOM     34  C   UNL     1      -4.062  90.490 -14.918  1.00  0.00     0.134 A 
ATOM     35  C   UNL     1      -5.928  91.684 -16.652  1.00  0.00     0.094 A 
ATOM     36  C   UNL     1      -3.680  90.930 -16.192  1.00  0.00     0.093 A 
ATOM     37  C   UNL     1      -4.602  91.536 -17.051  1.00  0.00     0.123 A 
BRANCH  28  38
ATOM     38  C   UNL     1      -9.580  91.116 -13.687  1.00  0.00     0.025 A 
ATOM     39  C   UNL     1     -10.370  89.978 -13.919  1.00  0.00     0.062 A 
ATOM     40  C   UNL     1     -10.203  92.290 -13.230  1.00  0.00     0.016 A 
ATOM     41  C   UNL     1     -11.755  90.007 -13.723  1.00  0.00     0.158 A 
ATOM     42  C   UNL     1     -11.585  92.332 -13.042  1.00  0.00     0.051 A 
ATOM     43  C   UNL     1     -12.371  91.200 -13.276  1.00  0.00     0.157 A 
BRANCH  41  44
ATOM     44  O   UNL     1     -12.475  88.837 -13.982  1.00  0.00    -0.504 OA
ATOM     45  H   UNL     1     -13.351  88.603 -13.536  1.00  0.00     0.293 HD
ENDBRANCH  41  44
BRANCH  43  46
ATOM     46  O   UNL     1     -13.743  91.299 -13.039  1.00  0.00    -0.504 OA
ATOM     47  H   UNL     1     -14.173  92.063 -12.538  1.00  0.00     0.293 HD
ENDBRANCH  43  46
ENDBRANCH  28  38
BRANCH  34  48
ATOM     48  O   UNL     1      -3.078  89.849 -14.161  1.00  0.00    -0.507 OA
ATOM     49  H   UNL     1      -2.818  90.100 -13.220  1.00  0.00     0.293 HD
ENDBRANCH  34  48
BRANCH  37  50
ATOM     50  O   UNL     1      -4.207  91.993 -18.305  1.00  0.00    -0.508 OA
ATOM     51  H   UNL     1      -4.864  92.060 -19.073  1.00  0.00     0.293 HD
ENDBRANCH  37  50
ENDBRANCH  26  27
ENDBRANCH   5  26
BRANCH   4  52
ATOM     52  O   UNL     1     -10.689  89.874 -10.250  1.00  0.00    -0.384 OA
ATOM     53  H   UNL     1     -11.177  89.058  -9.964  1.00  0.00     0.211 HD
ENDBRANCH   4  52
TORSDOF 16
ENDMDL
MODEL 6
REMARK VINA RESULT:    -6.208      3.798      7.887
REMARK INTER + INTRA:         -12.795
REMARK INTER:                 -10.944
REMARK INTRA:                  -1.851
REMARK UNBOUND:                -2.594
REMARK SMILES C[C@H]1O[C@@H](OC[C@@H]2O[C@H](Oc3c(-c4ccc(O)c(O)c4)oc4cc(O)cc(O)c4c3=O)[C@@H](O)[C@@H](O)[C@@H]2O)[C@H](O)[C@@H](O)[C@@H]1O
REMARK SMILES IDX 7 1 36 2 34 3 32 4 9 5 8 6 6 7 5 8 4 9 1 10 2 11 42 12 3 13
REMARK SMILES IDX 40 14 38 15 43 16 41 18 39 20 37 22 35 24 10 26 11 27 12 28
REMARK SMILES IDX 30 29 21 30 29 31 31 32 22 33 27 34 23 35 26 36 24 37 13 38
REMARK SMILES IDX 20 39 14 40 18 41 15 42 16 43 19 44 17 46 28 48 25 50 33 52
REMARK H PARENT 43 17 41 19 39 21 37 23 35 25 19 45 17 47 28 49 25 51 33 53
REMARK Flexibility Score: inf
ROOT
ATOM      1  C   UNL     1      -5.011  88.756  -7.159  1.00  0.00     0.180 C 
ATOM      2  C   UNL     1      -4.577  90.229  -7.055  1.00  0.00     0.177 C 
ATOM      3  C   UNL     1      -4.456  90.796  -8.458  1.00  0.00     0.180 C 
ATOM      4  C   UNL     1      -5.815  90.697  -9.166  1.00  0.00     0.214 C 
ATOM      5  C   UNL     1      -6.728  89.492  -8.736  1.00  0.00     0.339 C 
ATOM      6  O   UNL     1      -6.292  88.569  -7.735  1.00  0.00    -0.332 OA
ENDROOT
BRANCH   1   7
ATOM      7  C   UNL     1      -3.975  87.848  -7.864  1.00  0.00     0.198 C 
BRANCH   7   8
ATOM      8  O   UNL     1      -4.168  86.493  -7.498  1.00  0.00    -0.347 OA
BRANCH   8   9
ATOM      9  C   UNL     1      -3.591  85.614  -8.453  1.00  0.00     0.281 C 
ATOM     10  C   UNL     1      -6.571  85.161  -8.598  1.00  0.00     0.041 C 
ATOM     11  C   UNL     1      -5.489  84.655  -9.562  1.00  0.00     0.150 C 
ATOM     12  C   UNL     1      -5.064  83.184  -9.266  1.00  0.00     0.174 C 
ATOM     13  O   UNL     1      -4.386  85.547  -9.639  1.00  0.00    -0.344 OA
ATOM     14  C   UNL     1      -3.602  83.103  -8.804  1.00  0.00     0.179 C 
ATOM     15  C   UNL     1      -3.328  84.231  -7.799  1.00  0.00     0.202 C 
BRANCH  12  16
ATOM     16  O   UNL     1      -5.216  82.393 -10.417  1.00  0.00    -0.388 OA
ATOM     17  H   UNL     1      -5.159  81.446 -10.121  1.00  0.00     0.211 HD
ENDBRANCH  12  16
BRANCH  14  18
ATOM     18  O   UNL     1      -3.373  81.854  -8.206  1.00  0.00    -0.387 OA
ATOM     19  H   UNL     1      -3.091  82.026  -7.270  1.00  0.00     0.211 HD
ENDBRANCH  14  18
BRANCH  15  20
ATOM     20  O   UNL     1      -2.016  84.161  -7.292  1.00  0.00    -0.385 OA
ATOM     21  H   UNL     1      -1.661  83.258  -7.502  1.00  0.00     0.211 HD
ENDBRANCH  15  20
ENDBRANCH   8   9
ENDBRANCH   7   8
ENDBRANCH   1   7
BRANCH   2  22
ATOM     22  O   UNL     1      -3.345  90.333  -6.387  1.00  0.00    -0.387 OA
ATOM     23  H   UNL     1      -2.638  90.196  -7.070  1.00  0.00     0.211 HD
ENDBRANCH   2  22
BRANCH   3  24
ATOM     24  O   UNL     1      -4.025  92.134  -8.413  1.00  0.00    -0.387 OA
ATOM     25  H   UNL     1      -4.205  92.461  -7.490  1.00  0.00     0.211 HD
ENDBRANCH   3  24
BRANCH   5  26
ATOM     26  O   UNL     1      -7.193  88.781  -9.891  1.00  0.00    -0.454 OA
BRANCH  26  27
ATOM     27  C   UNL     1      -8.335  89.137 -10.622  1.00  0.00     0.214 A 
ATOM     28  C   UNL     1      -8.232  89.599 -11.950  1.00  0.00     0.180 A 
ATOM     29  C   UNL     1      -9.610  89.046 -10.036  1.00  0.00     0.239 A 
ATOM     30  O   UNL     1      -9.334  89.772 -12.669  1.00  0.00    -0.452 OA
ATOM     31  C   UNL     1     -10.764  89.327 -10.807  1.00  0.00     0.111 A 
ATOM     32  O   UNL     1      -9.694  88.691  -8.832  1.00  0.00    -0.285 OA
ATOM     33  C   UNL     1     -10.558  89.624 -12.180  1.00  0.00     0.146 A 
ATOM     34  C   UNL     1     -12.103  89.296 -10.310  1.00  0.00     0.134 A 
ATOM     35  C   UNL     1     -11.645  89.774 -13.044  1.00  0.00     0.094 A 
ATOM     36  C   UNL     1     -13.173  89.456 -11.200  1.00  0.00     0.093 A 
ATOM     37  C   UNL     1     -12.949  89.680 -12.562  1.00  0.00     0.123 A 
BRANCH  28  38
ATOM     38  C   UNL     1      -6.930  89.892 -12.598  1.00  0.00     0.025 A 
ATOM     39  C   UNL     1      -6.374  91.176 -12.475  1.00  0.00     0.062 A 
ATOM     40  C   UNL     1      -6.207  88.905 -13.292  1.00  0.00     0.016 A 
ATOM     41  C   UNL     1      -5.136  91.485 -13.048  1.00  0.00     0.158 A 
ATOM     42  C   UNL     1      -4.976  89.208 -13.875  1.00  0.00     0.051 A 
ATOM     43  C   UNL     1      -4.426  90.487 -13.756  1.00  0.00     0.157 A 
BRANCH  41  44
ATOM     44  O   UNL     1      -4.652  92.788 -12.890  1.00  0.00    -0.504 OA
ATOM     45  H   UNL     1      -5.107  93.495 -12.330  1.00  0.00     0.293 HD
ENDBRANCH  41  44
BRANCH  43  46
ATOM     46  O   UNL     1      -3.177  90.716 -14.335  1.00  0.00    -0.504 OA
ATOM     47  H   UNL     1      -3.048  91.119 -15.252  1.00  0.00     0.293 HD
ENDBRANCH  43  46
ENDBRANCH  28  38
BRANCH  34  48
ATOM     48  O   UNL     1     -12.435  89.132  -8.962  1.00  0.00    -0.507 OA
ATOM     49  H   UNL     1     -13.339  89.328  -8.562  1.00  0.00     0.293 HD
ENDBRANCH  34  48
BRANCH  37  50
ATOM     50  O   UNL     1     -14.018  89.811 -13.443  1.00  0.00    -0.508 OA
ATOM     51  H   UNL     1     -14.090  89.238 -14.276  1.00  0.00     0.293 HD
ENDBRANCH  37  50
ENDBRANCH  26  27
ENDBRANCH   5  26
BRANCH   4  52
ATOM     52  O   UNL     1      -6.524  91.899  -8.984  1.00  0.00    -0.384 OA
ATOM     53  H   UNL     1      -6.442  92.416  -9.828  1.00  0.00     0.211 HD
ENDBRANCH   4  52
TORSDOF 16
ENDMDL
MODEL 7
REMARK VINA RESULT:    -6.143      2.321      6.879
REMARK INTER + INTRA:         -12.688
REMARK INTER:                 -10.378
REMARK INTRA:                  -2.310
REMARK UNBOUND:                -2.594
REMARK SMILES C[C@H]1O[C@@H](OC[C@@H]2O[C@H](Oc3c(-c4ccc(O)c(O)c4)oc4cc(O)cc(O)c4c3=O)[C@@H](O)[C@@H](O)[C@@H]2O)[C@H](O)[C@@H](O)[C@@H]1O
REMARK SMILES IDX 7 1 36 2 34 3 32 4 9 5 8 6 6 7 5 8 4 9 1 10 2 11 42 12 3 13
REMARK SMILES IDX 40 14 38 15 43 16 41 18 39 20 37 22 35 24 10 26 11 27 12 28
REMARK SMILES IDX 30 29 21 30 29 31 31 32 22 33 27 34 23 35 26 36 24 37 13 38
REMARK SMILES IDX 20 39 14 40 18 41 15 42 16 43 19 44 17 46 28 48 25 50 33 52
REMARK H PARENT 43 17 41 19 39 21 37 23 35 25 19 45 17 47 28 49 25 51 33 53
REMARK Flexibility Score: inf
ROOT
ATOM      1  C   UNL     1      -6.503  93.123 -10.074  1.00  0.00     0.180 C 
ATOM      2  C   UNL     1      -5.213  93.879  -9.708  1.00  0.00     0.177 C 
ATOM      3  C   UNL     1      -4.265  93.813 -10.892  1.00  0.00     0.180 C 
ATOM      4  C   UNL     1      -4.929  94.466 -12.113  1.00  0.00     0.214 C 
ATOM      5  C   UNL     1      -6.496  94.359 -12.183  1.00  0.00     0.339 C 
ATOM      6  O   UNL     1      -7.227  93.697 -11.148  1.00  0.00    -0.332 OA
ENDROOT
BRANCH   1   7
ATOM      7  C   UNL     1      -6.290  91.611 -10.326  1.00  0.00     0.198 C 
BRANCH   7   8
ATOM      8  O   UNL     1      -6.317  90.892  -9.106  1.00  0.00    -0.347 OA
BRANCH   8   9
ATOM      9  C   UNL     1      -5.251  89.957  -9.035  1.00  0.00     0.281 C 
ATOM     10  C   UNL     1      -7.696  88.511  -8.013  1.00  0.00     0.041 C 
ATOM     11  C   UNL     1      -6.327  87.918  -8.373  1.00  0.00     0.150 C 
ATOM     12  C   UNL     1      -5.417  87.708  -7.124  1.00  0.00     0.174 C 
ATOM     13  O   UNL     1      -5.686  88.649  -9.410  1.00  0.00    -0.344 OA
ATOM     14  C   UNL     1      -4.178  88.611  -7.172  1.00  0.00     0.179 C 
ATOM     15  C   UNL     1      -4.596  90.017  -7.629  1.00  0.00     0.202 C 
BRANCH  12  16
ATOM     16  O   UNL     1      -4.996  86.370  -7.049  1.00  0.00    -0.388 OA
ATOM     17  H   UNL     1      -4.590  86.149  -7.929  1.00  0.00     0.211 HD
ENDBRANCH  12  16
BRANCH  14  18
ATOM     18  O   UNL     1      -3.595  88.669  -5.896  1.00  0.00    -0.387 OA
ATOM     19  H   UNL     1      -4.329  88.576  -5.236  1.00  0.00     0.211 HD
ENDBRANCH  14  18
BRANCH  15  20
ATOM     20  O   UNL     1      -3.503  90.905  -7.625  1.00  0.00    -0.385 OA
ATOM     21  H   UNL     1      -2.841  90.565  -6.968  1.00  0.00     0.211 HD
ENDBRANCH  15  20
ENDBRANCH   8   9
ENDBRANCH   7   8
ENDBRANCH   1   7
BRANCH   2  22
ATOM     22  O   UNL     1      -4.610  93.306  -8.577  1.00  0.00    -0.387 OA
ATOM     23  H   UNL     1      -3.933  92.661  -8.911  1.00  0.00     0.211 HD
ENDBRANCH   2  22
BRANCH   3  24
ATOM     24  O   UNL     1      -3.054  94.463 -10.590  1.00  0.00    -0.387 OA
ATOM     25  H   UNL     1      -2.483  94.396 -11.403  1.00  0.00     0.211 HD
ENDBRANCH   3  24
BRANCH   5  26
ATOM     26  O   UNL     1      -6.907  93.868 -13.466  1.00  0.00    -0.454 OA
BRANCH  26  27
ATOM     27  C   UNL     1      -7.883  92.878 -13.649  1.00  0.00     0.214 A 
ATOM     28  C   UNL     1      -7.522  91.553 -13.965  1.00  0.00     0.180 A 
ATOM     29  C   UNL     1      -9.247  93.196 -13.527  1.00  0.00     0.239 A 
ATOM     30  O   UNL     1      -8.453  90.607 -13.971  1.00  0.00    -0.452 OA
ATOM     31  C   UNL     1     -10.222  92.175 -13.630  1.00  0.00     0.111 A 
ATOM     32  O   UNL     1      -9.568  94.392 -13.304  1.00  0.00    -0.285 OA
ATOM     33  C   UNL     1      -9.743  90.848 -13.786  1.00  0.00     0.146 A 
ATOM     34  C   UNL     1     -11.633  92.385 -13.553  1.00  0.00     0.134 A 
ATOM     35  C   UNL     1     -10.627  89.766 -13.754  1.00  0.00     0.094 A 
ATOM     36  C   UNL     1     -12.495  91.282 -13.529  1.00  0.00     0.093 A 
ATOM     37  C   UNL     1     -11.997  89.978 -13.615  1.00  0.00     0.123 A 
BRANCH  28  38
ATOM     38  C   UNL     1      -6.128  91.155 -14.283  1.00  0.00     0.025 A 
ATOM     39  C   UNL     1      -5.741  91.020 -15.626  1.00  0.00     0.062 A 
ATOM     40  C   UNL     1      -5.165  90.958 -13.277  1.00  0.00     0.016 A 
ATOM     41  C   UNL     1      -4.429  90.674 -15.968  1.00  0.00     0.158 A 
ATOM     42  C   UNL     1      -3.858  90.602 -13.609  1.00  0.00     0.051 A 
ATOM     43  C   UNL     1      -3.474  90.464 -14.946  1.00  0.00     0.157 A 
BRANCH  41  44
ATOM     44  O   UNL     1      -4.121  90.550 -17.327  1.00  0.00    -0.504 OA
ATOM     45  H   UNL     1      -4.809  90.383 -18.048  1.00  0.00     0.293 HD
ENDBRANCH  41  44
BRANCH  43  46
ATOM     46  O   UNL     1      -2.143  90.137 -15.212  1.00  0.00    -0.504 OA
ATOM     47  H   UNL     1      -1.771  89.200 -15.150  1.00  0.00     0.293 HD
ENDBRANCH  43  46
ENDBRANCH  28  38
BRANCH  34  48
ATOM     48  O   UNL     1     -12.237  93.645 -13.516  1.00  0.00    -0.507 OA
ATOM     49  H   UNL     1     -12.826  93.983 -12.770  1.00  0.00     0.293 HD
ENDBRANCH  34  48
BRANCH  37  50
ATOM     50  O   UNL     1     -12.859  88.885 -13.564  1.00  0.00    -0.508 OA
ATOM     51  H   UNL     1     -13.259  88.490 -14.406  1.00  0.00     0.293 HD
ENDBRANCH  37  50
ENDBRANCH  26  27
ENDBRANCH   5  26
BRANCH   4  52
ATOM     52  O   UNL     1      -4.557  95.822 -12.178  1.00  0.00    -0.384 OA
ATOM     53  H   UNL     1      -4.787  96.229 -11.303  1.00  0.00     0.211 HD
ENDBRANCH   4  52
TORSDOF 16
ENDMDL
MODEL 8
REMARK VINA RESULT:    -6.045      2.896      6.458
REMARK INTER + INTRA:         -12.527
REMARK INTER:                 -10.371
REMARK INTRA:                  -2.156
REMARK UNBOUND:                -2.594
REMARK SMILES C[C@H]1O[C@@H](OC[C@@H]2O[C@H](Oc3c(-c4ccc(O)c(O)c4)oc4cc(O)cc(O)c4c3=O)[C@@H](O)[C@@H](O)[C@@H]2O)[C@H](O)[C@@H](O)[C@@H]1O
REMARK SMILES IDX 7 1 36 2 34 3 32 4 9 5 8 6 6 7 5 8 4 9 1 10 2 11 42 12 3 13
REMARK SMILES IDX 40 14 38 15 43 16 41 18 39 20 37 22 35 24 10 26 11 27 12 28
REMARK SMILES IDX 30 29 21 30 29 31 31 32 22 33 27 34 23 35 26 36 24 37 13 38
REMARK SMILES IDX 20 39 14 40 18 41 15 42 16 43 19 44 17 46 28 48 25 50 33 52
REMARK H PARENT 43 17 41 19 39 21 37 23 35 25 19 45 17 47 28 49 25 51 33 53
REMARK Flexibility Score: inf
ROOT
ATOM      1  C   UNL     1      -4.581  91.672 -11.927  1.00  0.00     0.180 C 
ATOM      2  C   UNL     1      -4.960  93.154 -12.099  1.00  0.00     0.177 C 
ATOM      3  C   UNL     1      -6.471  93.277 -12.022  1.00  0.00     0.180 C 
ATOM      4  C   UNL     1      -6.954  92.766 -10.657  1.00  0.00     0.214 C 
ATOM      5  C   UNL     1      -6.090  91.628 -10.003  1.00  0.00     0.339 C 
ATOM      6  O   UNL     1      -4.923  91.130 -10.663  1.00  0.00    -0.332 OA
ENDROOT
BRANCH   1   7
ATOM      7  C   UNL     1      -5.110  90.757 -13.057  1.00  0.00     0.198 C 
BRANCH   7   8
ATOM      8  O   UNL     1      -4.571  91.145 -14.309  1.00  0.00    -0.347 OA
BRANCH   8   9
ATOM      9  C   UNL     1      -5.418  90.753 -15.379  1.00  0.00     0.281 C 
ATOM     10  C   UNL     1      -2.816  91.611 -16.646  1.00  0.00     0.041 C 
ATOM     11  C   UNL     1      -3.993  90.879 -17.305  1.00  0.00     0.150 C 
ATOM     12  C   UNL     1      -4.938  91.844 -18.084  1.00  0.00     0.174 C 
ATOM     13  O   UNL     1      -4.685  90.047 -16.383  1.00  0.00    -0.344 OA
ATOM     14  C   UNL     1      -6.333  91.903 -17.446  1.00  0.00     0.179 C 
ATOM     15  C   UNL     1      -6.185  91.989 -15.919  1.00  0.00     0.202 C 
BRANCH  12  16
ATOM     16  O   UNL     1      -5.072  91.422 -19.417  1.00  0.00    -0.388 OA
ATOM     17  H   UNL     1      -5.383  90.479 -19.388  1.00  0.00     0.211 HD
ENDBRANCH  12  16
BRANCH  14  18
ATOM     18  O   UNL     1      -7.019  93.028 -17.931  1.00  0.00    -0.387 OA
ATOM     19  H   UNL     1      -6.528  93.828 -17.611  1.00  0.00     0.211 HD
ENDBRANCH  14  18
BRANCH  15  20
ATOM     20  O   UNL     1      -7.437  92.113 -15.287  1.00  0.00    -0.385 OA
ATOM     21  H   UNL     1      -7.468  91.453 -14.547  1.00  0.00     0.211 HD
ENDBRANCH  15  20
ENDBRANCH   8   9
ENDBRANCH   7   8
ENDBRANCH   1   7
BRANCH   2  22
ATOM     22  O   UNL     1      -4.500  93.639 -13.335  1.00  0.00    -0.387 OA
ATOM     23  H   UNL     1      -4.386  94.620 -13.232  1.00  0.00     0.211 HD
ENDBRANCH   2  22
BRANCH   3  24
ATOM     24  O   UNL     1      -6.866  94.614 -12.211  1.00  0.00    -0.387 OA
ATOM     25  H   UNL     1      -6.277  95.170 -11.632  1.00  0.00     0.211 HD
ENDBRANCH   3  24
BRANCH   5  26
ATOM     26  O   UNL     1      -6.926  90.537  -9.595  1.00  0.00    -0.454 OA
BRANCH  26  27
ATOM     27  C   UNL     1      -6.510  89.198  -9.571  1.00  0.00     0.214 A 
ATOM     28  C   UNL     1      -6.960  88.282 -10.543  1.00  0.00     0.180 A 
ATOM     29  C   UNL     1      -5.638  88.744  -8.566  1.00  0.00     0.239 A 
ATOM     30  O   UNL     1      -6.424  87.068 -10.593  1.00  0.00    -0.452 OA
ATOM     31  C   UNL     1      -5.157  87.412  -8.597  1.00  0.00     0.111 A 
ATOM     32  O   UNL     1      -5.287  89.549  -7.666  1.00  0.00    -0.285 OA
ATOM     33  C   UNL     1      -5.541  86.620  -9.710  1.00  0.00     0.146 A 
ATOM     34  C   UNL     1      -4.294  86.835  -7.615  1.00  0.00     0.134 A 
ATOM     35  C   UNL     1      -5.000  85.346  -9.895  1.00  0.00     0.094 A 
ATOM     36  C   UNL     1      -3.772  85.553  -7.825  1.00  0.00     0.093 A 
ATOM     37  C   UNL     1      -4.110  84.815  -8.964  1.00  0.00     0.123 A 
BRANCH  28  38
ATOM     38  C   UNL     1      -8.008  88.617 -11.538  1.00  0.00     0.025 A 
ATOM     39  C   UNL     1      -9.324  88.842 -11.101  1.00  0.00     0.062 A 
ATOM     40  C   UNL     1      -7.713  88.767 -12.904  1.00  0.00     0.016 A 
ATOM     41  C   UNL     1     -10.336  89.187 -12.003  1.00  0.00     0.158 A 
ATOM     42  C   UNL     1      -8.719  89.101 -13.813  1.00  0.00     0.051 A 
ATOM     43  C   UNL     1     -10.029  89.321 -13.378  1.00  0.00     0.157 A 
BRANCH  41  44
ATOM     44  O   UNL     1     -11.623  89.387 -11.494  1.00  0.00    -0.504 OA
ATOM     45  H   UNL     1     -11.962  88.968 -10.640  1.00  0.00     0.293 HD
ENDBRANCH  41  44
BRANCH  43  46
ATOM     46  O   UNL     1     -10.980  89.682 -14.333  1.00  0.00    -0.504 OA
ATOM     47  H   UNL     1     -11.376  89.040 -15.003  1.00  0.00     0.293 HD
ENDBRANCH  43  46
ENDBRANCH  28  38
BRANCH  34  48
ATOM     48  O   UNL     1      -3.936  87.464  -6.420  1.00  0.00    -0.507 OA
ATOM     49  H   UNL     1      -3.299  87.086  -5.736  1.00  0.00     0.293 HD
ENDBRANCH  34  48
BRANCH  37  50
ATOM     50  O   UNL     1      -3.565  83.552  -9.177  1.00  0.00    -0.508 OA
ATOM     51  H   UNL     1      -2.650  83.305  -8.820  1.00  0.00     0.293 HD
ENDBRANCH  37  50
ENDBRANCH  26  27
ENDBRANCH   5  26
BRANCH   4  52
ATOM     52  O   UNL     1      -7.046  93.847  -9.760  1.00  0.00    -0.384 OA
ATOM     53  H   UNL     1      -7.000  94.678 -10.300  1.00  0.00     0.211 HD
ENDBRANCH   4  52
TORSDOF 16
ENDMDL
MODEL 9
REMARK VINA RESULT:    -5.988      2.323      6.816
REMARK INTER + INTRA:         -12.433
REMARK INTER:                 -10.112
REMARK INTRA:                  -2.321
REMARK UNBOUND:                -2.594
REMARK SMILES C[C@H]1O[C@@H](OC[C@@H]2O[C@H](Oc3c(-c4ccc(O)c(O)c4)oc4cc(O)cc(O)c4c3=O)[C@@H](O)[C@@H](O)[C@@H]2O)[C@H](O)[C@@H](O)[C@@H]1O
REMARK SMILES IDX 7 1 36 2 34 3 32 4 9 5 8 6 6 7 5 8 4 9 1 10 2 11 42 12 3 13
REMARK SMILES IDX 40 14 38 15 43 16 41 18 39 20 37 22 35 24 10 26 11 27 12 28
REMARK SMILES IDX 30 29 21 30 29 31 31 32 22 33 27 34 23 35 26 36 24 37 13 38
REMARK SMILES IDX 20 39 14 40 18 41 15 42 16 43 19 44 17 46 28 48 25 50 33 52
REMARK H PARENT 43 17 41 19 39 21 37 23 35 25 19 45 17 47 28 49 25 51 33 53
REMARK Flexibility Score: inf
ROOT
ATOM      1  C   UNL     1      -5.434  93.429  -9.175  1.00  0.00     0.180 C 
ATOM      2  C   UNL     1      -4.572  94.243 -10.157  1.00  0.00     0.177 C 
ATOM      3  C   UNL     1      -4.188  93.344 -11.319  1.00  0.00     0.180 C 
ATOM      4  C   UNL     1      -5.461  92.850 -12.022  1.00  0.00     0.214 C 
ATOM      5  C   UNL     1      -6.730  92.682 -11.109  1.00  0.00     0.339 C 
ATOM      6  O   UNL     1      -6.669  92.991  -9.714  1.00  0.00    -0.332 OA
ENDROOT
BRANCH   1   7
ATOM      7  C   UNL     1      -4.687  92.240  -8.525  1.00  0.00     0.198 C 
BRANCH   7   8
ATOM      8  O   UNL     1      -5.560  91.138  -8.350  1.00  0.00    -0.347 OA
BRANCH   8   9
ATOM      9  C   UNL     1      -4.915  89.914  -8.671  1.00  0.00     0.281 C 
ATOM     10  C   UNL     1      -7.851  89.265  -8.405  1.00  0.00     0.041 C 
ATOM     11  C   UNL     1      -6.732  88.376  -8.965  1.00  0.00     0.150 C 
ATOM     12  C   UNL     1      -6.193  87.359  -7.914  1.00  0.00     0.174 C 
ATOM     13  O   UNL     1      -5.702  89.140  -9.579  1.00  0.00    -0.344 OA
ATOM     14  C   UNL     1      -4.730  87.646  -7.551  1.00  0.00     0.179 C 
ATOM     15  C   UNL     1      -4.545  89.160  -7.366  1.00  0.00     0.202 C 
BRANCH  12  16
ATOM     16  O   UNL     1      -6.282  86.049  -8.414  1.00  0.00    -0.388 OA
ATOM     17  H   UNL     1      -7.221  85.922  -8.715  1.00  0.00     0.211 HD
ENDBRANCH  12  16
BRANCH  14  18
ATOM     18  O   UNL     1      -4.403  86.969  -6.366  1.00  0.00    -0.387 OA
ATOM     19  H   UNL     1      -4.717  86.034  -6.468  1.00  0.00     0.211 HD
ENDBRANCH  14  18
BRANCH  15  20
ATOM     20  O   UNL     1      -3.232  89.472  -6.965  1.00  0.00    -0.385 OA
ATOM     21  H   UNL     1      -2.611  89.068  -7.626  1.00  0.00     0.211 HD
ENDBRANCH  15  20
ENDBRANCH   8   9
ENDBRANCH   7   8
ENDBRANCH   1   7
BRANCH   2  22
ATOM     22  O   UNL     1      -3.416  94.721  -9.518  1.00  0.00    -0.387 OA
ATOM     23  H   UNL     1      -2.691  94.711 -10.195  1.00  0.00     0.211 HD
ENDBRANCH   2  22
BRANCH   3  24
ATOM     24  O   UNL     1      -3.367  94.038 -12.227  1.00  0.00    -0.387 OA
ATOM     25  H   UNL     1      -3.522  93.629 -13.122  1.00  0.00     0.211 HD
ENDBRANCH   3  24
BRANCH   5  26
ATOM     26  O   UNL     1      -7.315  91.387 -11.301  1.00  0.00    -0.454 OA
BRANCH  26  27
ATOM     27  C   UNL     1      -8.583  91.176 -11.860  1.00  0.00     0.214 A 
ATOM     28  C   UNL     1      -8.725  90.701 -13.179  1.00  0.00     0.180 A 
ATOM     29  C   UNL     1      -9.743  91.445 -11.111  1.00  0.00     0.239 A 
ATOM     30  O   UNL     1      -9.927  90.357 -13.623  1.00  0.00    -0.452 OA
ATOM     31  C   UNL     1     -11.018  91.150 -11.652  1.00  0.00     0.111 A 
ATOM     32  O   UNL     1      -9.613  91.925  -9.955  1.00  0.00    -0.285 OA
ATOM     33  C   UNL     1     -11.042  90.521 -12.924  1.00  0.00     0.146 A 
ATOM     34  C   UNL     1     -12.260  91.408 -10.995  1.00  0.00     0.134 A 
ATOM     35  C   UNL     1     -12.246  90.068 -13.468  1.00  0.00     0.094 A 
ATOM     36  C   UNL     1     -13.451  90.947 -11.568  1.00  0.00     0.093 A 
ATOM     37  C   UNL     1     -13.446  90.268 -12.791  1.00  0.00     0.123 A 
BRANCH  28  38
ATOM     38  C   UNL     1      -7.576  90.551 -14.105  1.00  0.00     0.025 A 
ATOM     39  C   UNL     1      -7.299  91.572 -15.029  1.00  0.00     0.062 A 
ATOM     40  C   UNL     1      -6.720  89.436 -14.052  1.00  0.00     0.016 A 
ATOM     41  C   UNL     1      -6.209  91.482 -15.901  1.00  0.00     0.158 A 
ATOM     42  C   UNL     1      -5.637  89.333 -14.925  1.00  0.00     0.051 A 
ATOM     43  C   UNL     1      -5.364  90.348 -15.847  1.00  0.00     0.157 A 
BRANCH  41  44
ATOM     44  O   UNL     1      -6.002  92.535 -16.799  1.00  0.00    -0.504 OA
ATOM     45  H   UNL     1      -5.100  92.785 -17.176  1.00  0.00     0.293 HD
ENDBRANCH  41  44
BRANCH  43  46
ATOM     46  O   UNL     1      -4.247  90.198 -16.670  1.00  0.00    -0.504 OA
ATOM     47  H   UNL     1      -3.518  90.891 -16.760  1.00  0.00     0.293 HD
ENDBRANCH  43  46
ENDBRANCH  28  38
BRANCH  34  48
ATOM     48  O   UNL     1     -12.381  92.122  -9.799  1.00  0.00    -0.507 OA
ATOM     49  H   UNL     1     -11.617  92.350  -9.182  1.00  0.00     0.293 HD
ENDBRANCH  34  48
BRANCH  37  50
ATOM     50  O   UNL     1     -14.633  89.790 -13.341  1.00  0.00    -0.508 OA
ATOM     51  H   UNL     1     -15.316  90.417 -13.747  1.00  0.00     0.293 HD
ENDBRANCH  37  50
ENDBRANCH  26  27
ENDBRANCH   5  26
BRANCH   4  52
ATOM     52  O   UNL     1      -5.772  93.716 -13.087  1.00  0.00    -0.384 OA
ATOM     53  H   UNL     1      -5.598  93.217 -13.928  1.00  0.00     0.211 HD
ENDBRANCH   4  52
TORSDOF 16
ENDMDL
