MODEL 1
REMARK VINA RESULT:    18.240      0.000      0.000
REMARK INTER + INTRA:          22.012
REMARK INTER:                  21.972
REMARK INTRA:                   0.040
REMARK UNBOUND:                 0.040
REMARK SMILES O=c1c(O)c(-c2ccc(O)c(O)c2)oc2cc(O)cc(O)c12
REMARK SMILES IDX 5 1 3 2 2 3 1 4 22 5 20 6 19 7 17 8 16 9 15 10 14 11 6 12
REMARK SMILES IDX 7 13 8 14 9 15 13 16 11 17 10 18 12 20 4 22 21 24 18 26
REMARK H PARENT 10 19 12 21 4 23 21 25 18 27
REMARK Flexibility Score: inf
ROOT
ATOM      1  C   UNL     1      25.915  30.301   1.280  1.00  0.00     0.180 A 
ATOM      2  C   UNL     1      27.266  30.674   1.170  1.00  0.00     0.208 A 
ATOM      3  C   UNL     1      28.258  29.690   1.304  1.00  0.00     0.238 A 
ATOM      4  O   UNL     1      29.467  30.040   1.258  1.00  0.00    -0.285 OA
ATOM      5  C   UNL     1      27.887  28.343   1.531  1.00  0.00     0.111 A 
ATOM      6  C   UNL     1      28.808  27.257   1.643  1.00  0.00     0.134 A 
ATOM      7  C   UNL     1      28.336  25.987   1.998  1.00  0.00     0.093 A 
ATOM      8  C   UNL     1      26.972  25.750   2.181  1.00  0.00     0.123 A 
ATOM      9  C   UNL     1      26.061  26.790   2.015  1.00  0.00     0.094 A 
ATOM     10  C   UNL     1      26.503  28.076   1.697  1.00  0.00     0.146 A 
ATOM     11  O   UNL     1      25.602  29.041   1.559  1.00  0.00    -0.452 OA
ENDROOT
BRANCH   1  12
ATOM     12  C   UNL     1      24.812  31.277   1.124  1.00  0.00     0.025 A 
ATOM     13  C   UNL     1      24.818  32.157   0.030  1.00  0.00     0.016 A 
ATOM     14  C   UNL     1      23.798  33.100  -0.125  1.00  0.00     0.051 A 
ATOM     15  C   UNL     1      22.768  33.187   0.821  1.00  0.00     0.157 A 
ATOM     16  C   UNL     1      23.788  31.382   2.082  1.00  0.00     0.062 A 
ATOM     17  C   UNL     1      22.765  32.330   1.928  1.00  0.00     0.158 A 
BRANCH  15  18
ATOM     18  O   UNL     1      21.749  34.125   0.670  1.00  0.00    -0.504 OA
ATOM     19  H   UNL     1      21.734  34.983   1.209  1.00  0.00     0.293 HD
ENDBRANCH  15  18
BRANCH  17  20
ATOM     20  O   UNL     1      21.746  32.429   2.874  1.00  0.00    -0.504 OA
ATOM     21  H   UNL     1      21.309  31.604   3.271  1.00  0.00     0.293 HD
ENDBRANCH  17  20
ENDBRANCH   1  12
BRANCH   2  22
ATOM     22  O   UNL     1      27.610  32.014   0.967  1.00  0.00    -0.502 OA
ATOM     23  H   UNL     1      27.072  32.778   1.355  1.00  0.00     0.293 HD
ENDBRANCH   2  22
BRANCH   6  24
ATOM     24  O   UNL     1      30.178  27.366   1.391  1.00  0.00    -0.507 OA
ATOM     25  H   UNL     1      30.772  26.603   1.106  1.00  0.00     0.293 HD
ENDBRANCH   6  24
BRANCH   8  26
ATOM     26  O   UNL     1      26.511  24.479   2.519  1.00  0.00    -0.508 OA
ATOM     27  H   UNL     1      27.103  23.661   2.436  1.00  0.00     0.293 HD
ENDBRANCH   8  26
TORSDOF 6
ENDMDL
