MODEL 1
REMARK VINA RESULT:    -4.154      0.000      0.000
REMARK INTER + INTRA:          -4.527
REMARK INTER:                  -4.397
REMARK INTRA:                  -0.129
REMARK UNBOUND:                -0.129
REMARK SMILES C=C(C)[C@H]1CC=C(C)CC1
REMARK SMILES IDX 8 1 7 2 6 3 5 4 4 5 10 6 9 7 2 8 1 9 3 10
REMARK H PARENT
REMARK Flexibility Score: inf
ROOT
ATOM      1  C   UNL     1     105.729 119.895 100.979  1.00  0.00     0.039 C 
ATOM      2  C   UNL     1     105.806 120.734  99.732  1.00  0.00    -0.077 C 
ATOM      3  C   UNL     1     105.937 120.120  98.536  1.00  0.00    -0.027 C 
ATOM      4  C   UNL     1     106.077 120.875  97.237  1.00  0.00     0.035 C 
ATOM      5  C   UNL     1     105.511 122.303  97.330  1.00  0.00     0.018 C 
ATOM      6  C   UNL     1     106.047 122.995  98.592  1.00  0.00     0.013 C 
ATOM      7  C   UNL     1     105.600 122.233  99.845  1.00  0.00     0.031 C 
ENDROOT
BRANCH   5   8
ATOM      8  C   UNL     1     105.813 123.108  96.072  1.00  0.00    -0.077 C 
ATOM      9  C   UNL     1     106.089 122.502  94.904  1.00  0.00     0.008 C 
ATOM     10  C   UNL     1     105.809 124.614  96.120  1.00  0.00     0.039 C 
ENDBRANCH   5   8
TORSDOF 1
ENDMDL
MODEL 2
REMARK VINA RESULT:    -4.122     10.507     10.977
REMARK INTER + INTRA:          -4.492
REMARK INTER:                  -4.367
REMARK INTRA:                  -0.125
REMARK UNBOUND:                -0.129
REMARK SMILES C=C(C)[C@H]1CC=C(C)CC1
REMARK SMILES IDX 8 1 7 2 6 3 5 4 4 5 10 6 9 7 2 8 1 9 3 10
REMARK H PARENT
REMARK Flexibility Score: inf
ROOT
ATOM      1  C   UNL     1      94.399 120.548  97.753  1.00  0.00     0.039 C 
ATOM      2  C   UNL     1      94.778 121.823  97.049  1.00  0.00    -0.077 C 
ATOM      3  C   UNL     1      95.956 121.884  96.393  1.00  0.00    -0.027 C 
ATOM      4  C   UNL     1      96.449 123.133  95.704  1.00  0.00     0.035 C 
ATOM      5  C   UNL     1      95.300 124.092  95.347  1.00  0.00     0.018 C 
ATOM      6  C   UNL     1      94.388 124.290  96.567  1.00  0.00     0.013 C 
ATOM      7  C   UNL     1      93.767 122.953  96.987  1.00  0.00     0.031 C 
ENDROOT
BRANCH   5   8
ATOM      8  C   UNL     1      95.823 125.419  94.811  1.00  0.00    -0.077 C 
ATOM      9  C   UNL     1      96.752 126.125  95.479  1.00  0.00     0.008 C 
ATOM     10  C   UNL     1      95.298 125.969  93.511  1.00  0.00     0.039 C 
ENDBRANCH   5   8
TORSDOF 1
ENDMDL
MODEL 3
REMARK VINA RESULT:    -4.120     20.177     22.804
REMARK INTER + INTRA:          -4.490
REMARK INTER:                  -4.364
REMARK INTRA:                  -0.127
REMARK UNBOUND:                -0.129
REMARK SMILES C=C(C)[C@H]1CC=C(C)CC1
REMARK SMILES IDX 8 1 7 2 6 3 5 4 4 5 10 6 9 7 2 8 1 9 3 10
REMARK H PARENT
REMARK Flexibility Score: inf
ROOT
ATOM      1  C   UNL     1      86.205 112.361 110.529  1.00  0.00     0.039 C 
ATOM      2  C   UNL     1      87.691 112.551 110.658  1.00  0.00    -0.077 C 
ATOM      3  C   UNL     1      88.229 112.698 111.888  1.00  0.00    -0.027 C 
ATOM      4  C   UNL     1      89.699 112.948 112.118  1.00  0.00     0.035 C 
ATOM      5  C   UNL     1      90.561 112.472 110.935  1.00  0.00     0.018 C 
ATOM      6  C   UNL     1      89.970 112.992 109.616  1.00  0.00     0.013 C 
ATOM      7  C   UNL     1      88.555 112.438 109.416  1.00  0.00     0.031 C 
ENDROOT
BRANCH   5   8
ATOM      8  C   UNL     1      92.019 112.884 111.102  1.00  0.00    -0.077 C 
ATOM      9  C   UNL     1      92.624 113.690 110.212  1.00  0.00     0.008 C 
ATOM     10  C   UNL     1      92.815 112.386 112.280  1.00  0.00     0.039 C 
ENDBRANCH   5   8
TORSDOF 1
ENDMDL
MODEL 4
REMARK VINA RESULT:    -4.053     19.919     22.390
REMARK INTER + INTRA:          -4.419
REMARK INTER:                  -4.292
REMARK INTRA:                  -0.127
REMARK UNBOUND:                -0.129
REMARK SMILES C=C(C)[C@H]1CC=C(C)CC1
REMARK SMILES IDX 8 1 7 2 6 3 5 4 4 5 10 6 9 7 2 8 1 9 3 10
REMARK H PARENT
REMARK Flexibility Score: inf
ROOT
ATOM      1  C   UNL     1      86.366 112.292 111.520  1.00  0.00     0.039 C 
ATOM      2  C   UNL     1      87.791 112.588 111.138  1.00  0.00    -0.077 C 
ATOM      3  C   UNL     1      88.130 112.598 109.831  1.00  0.00    -0.027 C 
ATOM      4  C   UNL     1      89.542 112.831 109.350  1.00  0.00     0.035 C 
ATOM      5  C   UNL     1      90.393 113.582 110.389  1.00  0.00     0.018 C 
ATOM      6  C   UNL     1      90.232 112.925 111.769  1.00  0.00     0.013 C 
ATOM      7  C   UNL     1      88.770 112.998 112.222  1.00  0.00     0.031 C 
ENDROOT
BRANCH   5   8
ATOM      8  C   UNL     1      91.855 113.658 109.966  1.00  0.00    -0.077 C 
ATOM      9  C   UNL     1      92.847 113.358 110.823  1.00  0.00     0.008 C 
ATOM     10  C   UNL     1      92.215 114.079 108.566  1.00  0.00     0.039 C 
ENDBRANCH   5   8
TORSDOF 1
ENDMDL
MODEL 5
REMARK VINA RESULT:    -3.999     10.641     11.309
REMARK INTER + INTRA:          -4.362
REMARK INTER:                  -4.235
REMARK INTRA:                  -0.127
REMARK UNBOUND:                -0.129
REMARK SMILES C=C(C)[C@H]1CC=C(C)CC1
REMARK SMILES IDX 8 1 7 2 6 3 5 4 4 5 10 6 9 7 2 8 1 9 3 10
REMARK H PARENT
REMARK Flexibility Score: inf
ROOT
ATOM      1  C   UNL     1      92.626 125.375  97.750  1.00  0.00     0.039 C 
ATOM      2  C   UNL     1      93.753 124.819  96.923  1.00  0.00    -0.077 C 
ATOM      3  C   UNL     1      93.994 123.491  96.951  1.00  0.00    -0.027 C 
ATOM      4  C   UNL     1      95.133 122.846  96.200  1.00  0.00     0.035 C 
ATOM      5  C   UNL     1      95.610 123.706  95.016  1.00  0.00     0.018 C 
ATOM      6  C   UNL     1      95.818 125.157  95.476  1.00  0.00     0.013 C 
ATOM      7  C   UNL     1      94.497 125.748  95.981  1.00  0.00     0.031 C 
ENDROOT
BRANCH   5   8
ATOM      8  C   UNL     1      96.866 123.130  94.375  1.00  0.00    -0.077 C 
ATOM      9  C   UNL     1      97.869 122.638  95.122  1.00  0.00     0.008 C 
ATOM     10  C   UNL     1      97.006 123.106  92.875  1.00  0.00     0.039 C 
ENDBRANCH   5   8
TORSDOF 1
ENDMDL
MODEL 6
REMARK VINA RESULT:    -3.993     20.197     22.324
REMARK INTER + INTRA:          -4.356
REMARK INTER:                  -4.232
REMARK INTRA:                  -0.124
REMARK UNBOUND:                -0.129
REMARK SMILES C=C(C)[C@H]1CC=C(C)CC1
REMARK SMILES IDX 8 1 7 2 6 3 5 4 4 5 10 6 9 7 2 8 1 9 3 10
REMARK H PARENT
REMARK Flexibility Score: inf
ROOT
ATOM      1  C   UNL     1      93.992 113.334 111.648  1.00  0.00     0.039 C 
ATOM      2  C   UNL     1      92.547 113.095 111.305  1.00  0.00    -0.077 C 
ATOM      3  C   UNL     1      91.929 112.001 111.798  1.00  0.00    -0.027 C 
ATOM      4  C   UNL     1      90.500 111.646 111.468  1.00  0.00     0.035 C 
ATOM      5  C   UNL     1      89.686 112.871 111.014  1.00  0.00     0.018 C 
ATOM      6  C   UNL     1      90.469 113.651 109.947  1.00  0.00     0.013 C 
ATOM      7  C   UNL     1      91.794 114.158 110.527  1.00  0.00     0.031 C 
ENDROOT
BRANCH   5   8
ATOM      8  C   UNL     1      88.301 112.473 110.521  1.00  0.00    -0.077 C 
ATOM      9  C   UNL     1      88.110 112.009 109.274  1.00  0.00     0.008 C 
ATOM     10  C   UNL     1      87.109 112.598 111.434  1.00  0.00     0.039 C 
ENDBRANCH   5   8
TORSDOF 1
ENDMDL
MODEL 7
REMARK VINA RESULT:    -3.990     10.041     10.840
REMARK INTER + INTRA:          -4.352
REMARK INTER:                  -4.225
REMARK INTRA:                  -0.128
REMARK UNBOUND:                -0.129
REMARK SMILES C=C(C)[C@H]1CC=C(C)CC1
REMARK SMILES IDX 8 1 7 2 6 3 5 4 4 5 10 6 9 7 2 8 1 9 3 10
REMARK H PARENT
REMARK Flexibility Score: inf
ROOT
ATOM      1  C   UNL     1      97.354 119.820  93.493  1.00  0.00     0.039 C 
ATOM      2  C   UNL     1      96.871 121.221  93.753  1.00  0.00    -0.077 C 
ATOM      3  C   UNL     1      96.021 121.795  92.875  1.00  0.00    -0.027 C 
ATOM      4  C   UNL     1      95.523 123.212  93.020  1.00  0.00     0.035 C 
ATOM      5  C   UNL     1      95.611 123.713  94.472  1.00  0.00     0.018 C 
ATOM      6  C   UNL     1      97.001 123.407  95.047  1.00  0.00     0.013 C 
ATOM      7  C   UNL     1      97.248 121.894  95.059  1.00  0.00     0.031 C 
ENDROOT
BRANCH   5   8
ATOM      8  C   UNL     1      95.270 125.195  94.574  1.00  0.00    -0.077 C 
ATOM      9  C   UNL     1      95.518 126.041  93.560  1.00  0.00     0.008 C 
ATOM     10  C   UNL     1      94.646 125.742  95.832  1.00  0.00     0.039 C 
ENDBRANCH   5   8
TORSDOF 1
ENDMDL
MODEL 8
REMARK VINA RESULT:    -3.981      1.746      4.507
REMARK INTER + INTRA:          -4.343
REMARK INTER:                  -4.219
REMARK INTRA:                  -0.124
REMARK UNBOUND:                -0.129
REMARK SMILES C=C(C)[C@H]1CC=C(C)CC1
REMARK SMILES IDX 8 1 7 2 6 3 5 4 4 5 10 6 9 7 2 8 1 9 3 10
REMARK H PARENT
REMARK Flexibility Score: inf
ROOT
ATOM      1  C   UNL     1     103.120 125.932  95.878  1.00  0.00     0.039 C 
ATOM      2  C   UNL     1     103.819 124.632  96.167  1.00  0.00    -0.077 C 
ATOM      3  C   UNL     1     103.082 123.553  96.506  1.00  0.00    -0.027 C 
ATOM      4  C   UNL     1     103.693 122.221  96.866  1.00  0.00     0.035 C 
ATOM      5  C   UNL     1     105.110 122.056  96.288  1.00  0.00     0.018 C 
ATOM      6  C   UNL     1     105.947 123.306  96.595  1.00  0.00     0.013 C 
ATOM      7  C   UNL     1     105.316 124.540  95.940  1.00  0.00     0.031 C 
ENDROOT
BRANCH   5   8
ATOM      8  C   UNL     1     105.780 120.787  96.801  1.00  0.00    -0.077 C 
ATOM      9  C   UNL     1     106.125 120.652  98.093  1.00  0.00     0.008 C 
ATOM     10  C   UNL     1     106.073 119.652  95.854  1.00  0.00     0.039 C 
ENDBRANCH   5   8
TORSDOF 1
ENDMDL
MODEL 9
REMARK VINA RESULT:    -3.944      2.124      4.561
REMARK INTER + INTRA:          -4.304
REMARK INTER:                  -4.179
REMARK INTRA:                  -0.125
REMARK UNBOUND:                -0.129
REMARK SMILES C=C(C)[C@H]1CC=C(C)CC1
REMARK SMILES IDX 8 1 7 2 6 3 5 4 4 5 10 6 9 7 2 8 1 9 3 10
REMARK H PARENT
REMARK Flexibility Score: inf
ROOT
ATOM      1  C   UNL     1     103.133 126.104  96.096  1.00  0.00     0.039 C 
ATOM      2  C   UNL     1     103.785 124.749  96.070  1.00  0.00    -0.077 C 
ATOM      3  C   UNL     1     105.046 124.637  95.600  1.00  0.00    -0.027 C 
ATOM      4  C   UNL     1     105.765 123.316  95.483  1.00  0.00     0.035 C 
ATOM      5  C   UNL     1     105.181 122.250  96.428  1.00  0.00     0.018 C 
ATOM      6  C   UNL     1     103.651 122.218  96.295  1.00  0.00     0.013 C 
ATOM      7  C   UNL     1     103.056 123.574  96.695  1.00  0.00     0.031 C 
ENDROOT
BRANCH   5   8
ATOM      8  C   UNL     1     105.799 120.880  96.177  1.00  0.00    -0.077 C 
ATOM      9  C   UNL     1     106.068 120.039  97.191  1.00  0.00     0.008 C 
ATOM     10  C   UNL     1     106.125 120.443  94.773  1.00  0.00     0.039 C 
ENDBRANCH   5   8
TORSDOF 1
ENDMDL
