MODEL 1
REMARK VINA RESULT:    -4.002      0.000      0.000
REMARK INTER + INTRA:          -4.636
REMARK INTER:                  -4.587
REMARK INTRA:                  -0.050
REMARK UNBOUND:                -0.050
REMARK SMILES O=C([O-])c1cc(O)c(O)c(O)c1
REMARK SMILES IDX 4 1 5 2 12 3 6 4 10 5 8 6 2 7 1 8 3 9 7 10 11 12 9 14
REMARK H PARENT 7 11 11 13 9 15
REMARK Flexibility Score: inf
ROOT
ATOM      1  C   UNL     1      75.658  41.163  20.319  1.00  0.00     0.005 A 
ATOM      2  C   UNL     1      76.715  41.725  21.057  1.00  0.00     0.060 A 
ATOM      3  C   UNL     1      74.676  40.420  20.994  1.00  0.00     0.060 A 
ATOM      4  C   UNL     1      76.790  41.550  22.443  1.00  0.00     0.162 A 
ATOM      5  C   UNL     1      74.744  40.239  22.382  1.00  0.00     0.162 A 
ATOM      6  C   UNL     1      75.804  40.806  23.112  1.00  0.00     0.200 A 
ENDROOT
BRANCH   1   7
ATOM      7  C   UNL     1      75.579  41.349  18.854  1.00  0.00     0.072 C 
ATOM      8  O   UNL     1      76.628  41.392  18.155  1.00  0.00    -0.545 OA
ATOM      9  O   UNL     1      74.346  41.479  18.225  1.00  0.00    -0.545 OA
ENDBRANCH   1   7
BRANCH   4  10
ATOM     10  O   UNL     1      77.854  42.125  23.138  1.00  0.00    -0.504 OA
ATOM     11  H   UNL     1      77.733  42.933  23.737  1.00  0.00     0.293 HD
ENDBRANCH   4  10
BRANCH   5  12
ATOM     12  O   UNL     1      73.763  39.500  23.039  1.00  0.00    -0.504 OA
ATOM     13  H   UNL     1      73.906  38.529  23.288  1.00  0.00     0.293 HD
ENDBRANCH   5  12
BRANCH   6  14
ATOM     14  O   UNL     1      75.888  40.636  24.494  1.00  0.00    -0.502 OA
ATOM     15  H   UNL     1      75.622  41.365  25.145  1.00  0.00     0.293 HD
ENDBRANCH   6  14
TORSDOF 4
ENDMDL
MODEL 2
REMARK VINA RESULT:    -3.991      0.060      2.602
REMARK INTER + INTRA:          -4.624
REMARK INTER:                  -4.574
REMARK INTRA:                  -0.051
REMARK UNBOUND:                -0.050
REMARK SMILES O=C([O-])c1cc(O)c(O)c(O)c1
REMARK SMILES IDX 4 1 5 2 12 3 6 4 10 5 8 6 2 7 1 8 3 9 7 10 11 12 9 14
REMARK H PARENT 7 11 11 13 9 15
REMARK Flexibility Score: inf
ROOT
ATOM      1  C   UNL     1      75.621  41.166  20.323  1.00  0.00     0.005 A 
ATOM      2  C   UNL     1      74.651  40.422  21.018  1.00  0.00     0.060 A 
ATOM      3  C   UNL     1      76.688  41.732  21.039  1.00  0.00     0.060 A 
ATOM      4  C   UNL     1      74.744  40.245  22.402  1.00  0.00     0.162 A 
ATOM      5  C   UNL     1      76.789  41.559  22.426  1.00  0.00     0.162 A 
ATOM      6  C   UNL     1      75.815  40.813  23.113  1.00  0.00     0.200 A 
ENDROOT
BRANCH   1   7
ATOM      7  C   UNL     1      75.522  41.353  18.859  1.00  0.00     0.072 C 
ATOM      8  O   UNL     1      74.397  41.380  18.290  1.00  0.00    -0.545 OA
ATOM      9  O   UNL     1      76.669  41.501  18.088  1.00  0.00    -0.545 OA
ENDBRANCH   1   7
BRANCH   4  10
ATOM     10  O   UNL     1      73.762  39.500  23.054  1.00  0.00    -0.504 OA
ATOM     11  H   UNL     1      73.341  39.807  23.924  1.00  0.00     0.293 HD
ENDBRANCH   4  10
BRANCH   5  12
ATOM     12  O   UNL     1      77.854  42.125  23.125  1.00  0.00    -0.504 OA
ATOM     13  H   UNL     1      77.927  42.052  24.133  1.00  0.00     0.293 HD
ENDBRANCH   5  12
BRANCH   6  14
ATOM     14  O   UNL     1      75.899  40.632  24.494  1.00  0.00    -0.502 OA
ATOM     15  H   UNL     1      75.297  41.126  25.141  1.00  0.00     0.293 HD
ENDBRANCH   6  14
TORSDOF 4
ENDMDL
MODEL 3
REMARK VINA RESULT:    -3.919      2.144      3.815
REMARK INTER + INTRA:          -4.541
REMARK INTER:                  -4.492
REMARK INTRA:                  -0.050
REMARK UNBOUND:                -0.050
REMARK SMILES O=C([O-])c1cc(O)c(O)c(O)c1
REMARK SMILES IDX 4 1 5 2 12 3 6 4 10 5 8 6 2 7 1 8 3 9 7 10 11 12 9 14
REMARK H PARENT 7 11 11 13 9 15
REMARK Flexibility Score: inf
ROOT
ATOM      1  C   UNL     1      75.516  40.305  19.640  1.00  0.00     0.005 A 
ATOM      2  C   UNL     1      75.097  39.308  18.741  1.00  0.00     0.060 A 
ATOM      3  C   UNL     1      75.029  40.281  20.958  1.00  0.00     0.060 A 
ATOM      4  C   UNL     1      74.208  38.307  19.147  1.00  0.00     0.162 A 
ATOM      5  C   UNL     1      74.139  39.281  21.373  1.00  0.00     0.162 A 
ATOM      6  C   UNL     1      73.726  38.289  20.466  1.00  0.00     0.200 A 
ENDROOT
BRANCH   1   7
ATOM      7  C   UNL     1      76.455  41.363  19.210  1.00  0.00     0.072 C 
ATOM      8  O   UNL     1      76.392  41.841  18.045  1.00  0.00    -0.545 OA
ATOM      9  O   UNL     1      77.421  41.846  20.084  1.00  0.00    -0.545 OA
ENDBRANCH   1   7
BRANCH   4  10
ATOM     10  O   UNL     1      73.818  37.337  18.223  1.00  0.00    -0.504 OA
ATOM     11  H   UNL     1      73.886  36.346  18.422  1.00  0.00     0.293 HD
ENDBRANCH   4  10
BRANCH   5  12
ATOM     12  O   UNL     1      73.664  39.269  22.683  1.00  0.00    -0.504 OA
ATOM     13  H   UNL     1      73.415  38.405  23.150  1.00  0.00     0.293 HD
ENDBRANCH   5  12
BRANCH   6  14
ATOM     14  O   UNL     1      72.840  37.287  20.862  1.00  0.00    -0.502 OA
ATOM     15  H   UNL     1      73.137  36.329  21.005  1.00  0.00     0.293 HD
ENDBRANCH   6  14
TORSDOF 4
ENDMDL
MODEL 4
REMARK VINA RESULT:    -3.914      2.146      3.651
REMARK INTER + INTRA:          -4.536
REMARK INTER:                  -4.486
REMARK INTRA:                  -0.049
REMARK UNBOUND:                -0.050
REMARK SMILES O=C([O-])c1cc(O)c(O)c(O)c1
REMARK SMILES IDX 4 1 5 2 12 3 6 4 10 5 8 6 2 7 1 8 3 9 7 10 11 12 9 14
REMARK H PARENT 7 11 11 13 9 15
REMARK Flexibility Score: inf
ROOT
ATOM      1  C   UNL     1      75.500  40.313  19.653  1.00  0.00     0.005 A 
ATOM      2  C   UNL     1      75.006  40.276  20.970  1.00  0.00     0.060 A 
ATOM      3  C   UNL     1      75.094  39.320  18.746  1.00  0.00     0.060 A 
ATOM      4  C   UNL     1      74.125  39.268  21.374  1.00  0.00     0.162 A 
ATOM      5  C   UNL     1      74.211  38.307  19.144  1.00  0.00     0.162 A 
ATOM      6  C   UNL     1      73.723  38.279  20.462  1.00  0.00     0.200 A 
ENDROOT
BRANCH   1   7
ATOM      7  C   UNL     1      76.432  41.379  19.226  1.00  0.00     0.072 C 
ATOM      8  O   UNL     1      76.351  41.877  18.071  1.00  0.00    -0.545 OA
ATOM      9  O   UNL     1      77.412  41.847  20.093  1.00  0.00    -0.545 OA
ENDBRANCH   1   7
BRANCH   4  10
ATOM     10  O   UNL     1      73.658  39.269  22.689  1.00  0.00    -0.504 OA
ATOM     11  H   UNL     1      72.904  38.664  22.993  1.00  0.00     0.293 HD
ENDBRANCH   4  10
BRANCH   5  12
ATOM     12  O   UNL     1      73.816  37.328  18.234  1.00  0.00    -0.504 OA
ATOM     13  H   UNL     1      74.430  37.013  17.492  1.00  0.00     0.293 HD
ENDBRANCH   5  12
BRANCH   6  14
ATOM     14  O   UNL     1      72.843  37.277  20.874  1.00  0.00    -0.502 OA
ATOM     15  H   UNL     1      73.150  36.478  21.416  1.00  0.00     0.293 HD
ENDBRANCH   6  14
TORSDOF 4
ENDMDL
MODEL 5
REMARK VINA RESULT:    -3.815      2.983      3.897
REMARK INTER + INTRA:          -4.422
REMARK INTER:                  -4.378
REMARK INTRA:                  -0.045
REMARK UNBOUND:                -0.050
REMARK SMILES O=C([O-])c1cc(O)c(O)c(O)c1
REMARK SMILES IDX 4 1 5 2 12 3 6 4 10 5 8 6 2 7 1 8 3 9 7 10 11 12 9 14
REMARK H PARENT 7 11 11 13 9 15
REMARK Flexibility Score: inf
ROOT
ATOM      1  C   UNL     1      73.453  38.876  19.761  1.00  0.00     0.005 A 
ATOM      2  C   UNL     1      73.989  38.742  21.054  1.00  0.00     0.060 A 
ATOM      3  C   UNL     1      72.687  40.013  19.456  1.00  0.00     0.060 A 
ATOM      4  C   UNL     1      73.766  39.723  22.026  1.00  0.00     0.162 A 
ATOM      5  C   UNL     1      72.459  41.001  20.424  1.00  0.00     0.162 A 
ATOM      6  C   UNL     1      72.999  40.859  21.714  1.00  0.00     0.200 A 
ENDROOT
BRANCH   1   7
ATOM      7  C   UNL     1      73.690  37.837  18.735  1.00  0.00     0.072 C 
ATOM      8  O   UNL     1      72.872  36.890  18.580  1.00  0.00    -0.545 OA
ATOM      9  O   UNL     1      74.819  37.891  17.926  1.00  0.00    -0.545 OA
ENDBRANCH   1   7
BRANCH   4  10
ATOM     10  O   UNL     1      74.316  39.552  23.296  1.00  0.00    -0.504 OA
ATOM     11  H   UNL     1      75.300  39.357  23.435  1.00  0.00     0.293 HD
ENDBRANCH   4  10
BRANCH   5  12
ATOM     12  O   UNL     1      71.697  42.125  20.108  1.00  0.00    -0.504 OA
ATOM     13  H   UNL     1      70.773  42.044  19.700  1.00  0.00     0.293 HD
ENDBRANCH   5  12
BRANCH   6  14
ATOM     14  O   UNL     1      72.781  41.832  22.688  1.00  0.00    -0.502 OA
ATOM     15  H   UNL     1      71.851  42.127  22.959  1.00  0.00     0.293 HD
ENDBRANCH   6  14
TORSDOF 4
ENDMDL
MODEL 6
REMARK VINA RESULT:    -3.799      2.229      2.449
REMARK INTER + INTRA:          -4.404
REMARK INTER:                  -4.354
REMARK INTRA:                  -0.049
REMARK UNBOUND:                -0.050
REMARK SMILES O=C([O-])c1cc(O)c(O)c(O)c1
REMARK SMILES IDX 4 1 5 2 12 3 6 4 10 5 8 6 2 7 1 8 3 9 7 10 11 12 9 14
REMARK H PARENT 7 11 11 13 9 15
REMARK Flexibility Score: inf
ROOT
ATOM      1  C   UNL     1      74.518  39.320  19.585  1.00  0.00     0.005 A 
ATOM      2  C   UNL     1      75.522  40.301  19.679  1.00  0.00     0.060 A 
ATOM      3  C   UNL     1      73.583  39.202  20.627  1.00  0.00     0.060 A 
ATOM      4  C   UNL     1      75.592  41.147  20.790  1.00  0.00     0.162 A 
ATOM      5  C   UNL     1      73.647  40.046  21.744  1.00  0.00     0.162 A 
ATOM      6  C   UNL     1      74.654  41.024  21.828  1.00  0.00     0.200 A 
ENDROOT
BRANCH   1   7
ATOM      7  C   UNL     1      74.445  38.425  18.410  1.00  0.00     0.072 C 
ATOM      8  O   UNL     1      75.496  37.981  17.875  1.00  0.00    -0.545 OA
ATOM      9  O   UNL     1      73.214  38.061  17.877  1.00  0.00    -0.545 OA
ENDBRANCH   1   7
BRANCH   4  10
ATOM     10  O   UNL     1      76.603  42.107  20.843  1.00  0.00    -0.504 OA
ATOM     11  H   UNL     1      76.452  43.027  21.240  1.00  0.00     0.293 HD
ENDBRANCH   4  10
BRANCH   5  12
ATOM     12  O   UNL     1      72.712  39.918  22.770  1.00  0.00    -0.504 OA
ATOM     13  H   UNL     1      71.752  39.656  22.584  1.00  0.00     0.293 HD
ENDBRANCH   5  12
BRANCH   6  14
ATOM     14  O   UNL     1      74.731  41.872  22.932  1.00  0.00    -0.502 OA
ATOM     15  H   UNL     1      75.327  41.672  23.726  1.00  0.00     0.293 HD
ENDBRANCH   6  14
TORSDOF 4
ENDMDL
MODEL 7
REMARK VINA RESULT:    -3.797      2.958      3.982
REMARK INTER + INTRA:          -4.402
REMARK INTER:                  -4.357
REMARK INTRA:                  -0.045
REMARK UNBOUND:                -0.050
REMARK SMILES O=C([O-])c1cc(O)c(O)c(O)c1
REMARK SMILES IDX 4 1 5 2 12 3 6 4 10 5 8 6 2 7 1 8 3 9 7 10 11 12 9 14
REMARK H PARENT 7 11 11 13 9 15
REMARK Flexibility Score: inf
ROOT
ATOM      1  C   UNL     1      73.500  38.926  19.716  1.00  0.00     0.005 A 
ATOM      2  C   UNL     1      72.715  40.064  19.461  1.00  0.00     0.060 A 
ATOM      3  C   UNL     1      74.049  38.751  20.997  1.00  0.00     0.060 A 
ATOM      4  C   UNL     1      72.480  41.010  20.464  1.00  0.00     0.162 A 
ATOM      5  C   UNL     1      73.819  39.695  22.008  1.00  0.00     0.162 A 
ATOM      6  C   UNL     1      73.031  40.829  21.743  1.00  0.00     0.200 A 
ENDROOT
BRANCH   1   7
ATOM      7  C   UNL     1      73.748  37.926  18.655  1.00  0.00     0.072 C 
ATOM      8  O   UNL     1      72.886  37.045  18.390  1.00  0.00    -0.545 OA
ATOM      9  O   UNL     1      74.935  37.944  17.933  1.00  0.00    -0.545 OA
ENDBRANCH   1   7
BRANCH   4  10
ATOM     10  O   UNL     1      71.695  42.125  20.169  1.00  0.00    -0.504 OA
ATOM     11  H   UNL     1      71.068  42.147  19.373  1.00  0.00     0.293 HD
ENDBRANCH   4  10
BRANCH   5  12
ATOM     12  O   UNL     1      74.369  39.509  23.275  1.00  0.00    -0.504 OA
ATOM     13  H   UNL     1      75.251  39.029  23.406  1.00  0.00     0.293 HD
ENDBRANCH   5  12
BRANCH   6  14
ATOM     14  O   UNL     1      72.793  41.778  22.738  1.00  0.00    -0.502 OA
ATOM     15  H   UNL     1      72.675  41.523  23.711  1.00  0.00     0.293 HD
ENDBRANCH   6  14
TORSDOF 4
ENDMDL
MODEL 8
REMARK VINA RESULT:    -3.755      2.166      3.342
REMARK INTER + INTRA:          -4.353
REMARK INTER:                  -4.303
REMARK INTRA:                  -0.050
REMARK UNBOUND:                -0.050
REMARK SMILES O=C([O-])c1cc(O)c(O)c(O)c1
REMARK SMILES IDX 4 1 5 2 12 3 6 4 10 5 8 6 2 7 1 8 3 9 7 10 11 12 9 14
REMARK H PARENT 7 11 11 13 9 15
REMARK Flexibility Score: inf
ROOT
ATOM      1  C   UNL     1      74.456  39.396  19.649  1.00  0.00     0.005 A 
ATOM      2  C   UNL     1      73.475  39.264  20.647  1.00  0.00     0.060 A 
ATOM      3  C   UNL     1      75.475  40.349  19.817  1.00  0.00     0.060 A 
ATOM      4  C   UNL     1      73.509  40.068  21.792  1.00  0.00     0.162 A 
ATOM      5  C   UNL     1      75.516  41.157  20.961  1.00  0.00     0.162 A 
ATOM      6  C   UNL     1      74.531  41.018  21.954  1.00  0.00     0.200 A 
ENDROOT
BRANCH   1   7
ATOM      7  C   UNL     1      74.420  38.546  18.439  1.00  0.00     0.072 C 
ATOM      8  O   UNL     1      75.489  38.186  17.875  1.00  0.00    -0.545 OA
ATOM      9  O   UNL     1      73.206  38.132  17.904  1.00  0.00    -0.545 OA
ENDBRANCH   1   7
BRANCH   4  10
ATOM     10  O   UNL     1      72.517  39.905  22.759  1.00  0.00    -0.504 OA
ATOM     11  H   UNL     1      72.379  39.027  23.247  1.00  0.00     0.293 HD
ENDBRANCH   4  10
BRANCH   5  12
ATOM     12  O   UNL     1      76.532  42.098  21.115  1.00  0.00    -0.504 OA
ATOM     13  H   UNL     1      76.367  43.087  20.973  1.00  0.00     0.293 HD
ENDBRANCH   5  12
BRANCH   6  14
ATOM     14  O   UNL     1      74.556  41.815  23.098  1.00  0.00    -0.502 OA
ATOM     15  H   UNL     1      73.780  42.411  23.359  1.00  0.00     0.293 HD
ENDBRANCH   6  14
TORSDOF 4
ENDMDL
MODEL 9
REMARK VINA RESULT:    -3.552      1.797      3.008
REMARK INTER + INTRA:          -4.121
REMARK INTER:                  -4.069
REMARK INTRA:                  -0.052
REMARK UNBOUND:                -0.050
REMARK SMILES O=C([O-])c1cc(O)c(O)c(O)c1
REMARK SMILES IDX 4 1 5 2 12 3 6 4 10 5 8 6 2 7 1 8 3 9 7 10 11 12 9 14
REMARK H PARENT 7 11 11 13 9 15
REMARK Flexibility Score: inf
ROOT
ATOM      1  C   UNL     1      74.867  41.147  20.198  1.00  0.00     0.005 A 
ATOM      2  C   UNL     1      75.115  40.569  21.455  1.00  0.00     0.060 A 
ATOM      3  C   UNL     1      73.538  41.296  19.767  1.00  0.00     0.060 A 
ATOM      4  C   UNL     1      74.058  40.147  22.268  1.00  0.00     0.162 A 
ATOM      5  C   UNL     1      72.473  40.876  20.576  1.00  0.00     0.162 A 
ATOM      6  C   UNL     1      72.732  40.299  21.832  1.00  0.00     0.200 A 
ENDROOT
BRANCH   1   7
ATOM      7  C   UNL     1      75.985  41.594  19.339  1.00  0.00     0.072 C 
ATOM      8  O   UNL     1      75.803  41.812  18.110  1.00  0.00    -0.545 OA
ATOM      9  O   UNL     1      77.254  41.779  19.874  1.00  0.00    -0.545 OA
ENDBRANCH   1   7
BRANCH   4  10
ATOM     10  O   UNL     1      74.347  39.578  23.509  1.00  0.00    -0.504 OA
ATOM     11  H   UNL     1      73.813  39.801  24.341  1.00  0.00     0.293 HD
ENDBRANCH   4  10
BRANCH   5  12
ATOM     12  O   UNL     1      71.160  41.030  20.137  1.00  0.00    -0.504 OA
ATOM     13  H   UNL     1      70.390  41.129  20.788  1.00  0.00     0.293 HD
ENDBRANCH   5  12
BRANCH   6  14
ATOM     14  O   UNL     1      71.684  39.875  22.649  1.00  0.00    -0.502 OA
ATOM     15  H   UNL     1      71.075  39.108  22.392  1.00  0.00     0.293 HD
ENDBRANCH   6  14
TORSDOF 4
ENDMDL
