MODEL 1
REMARK VINA RESULT:    -3.908      0.000      0.000
REMARK INTER + INTRA:          -8.582
REMARK INTER:                  -6.877
REMARK INTRA:                  -1.705
REMARK UNBOUND:                -1.705
REMARK SMILES CCCCCCCCCCCCCCC(=O)[O-]
REMARK SMILES IDX 9 1 10 2 11 3 12 4 13 5 14 6 15 7 16 8 17 9 8 10 7 11 6 12
REMARK SMILES IDX 5 13 4 14 3 15 2 16 1 17
REMARK H PARENT
REMARK Flexibility Score: inf
ROOT
ATOM      1  C   UNL     1      -7.443  -8.578  -0.401  1.00  0.00     0.000 C 
ENDROOT
BRANCH   1   2
ATOM      2  C   UNL     1      -8.938  -8.901  -0.231  1.00  0.00     0.000 C 
BRANCH   2   3
ATOM      3  C   UNL     1      -9.642  -7.954   0.755  1.00  0.00     0.000 C 
BRANCH   3   4
ATOM      4  C   UNL     1     -10.692  -7.064   0.069  1.00  0.00     0.000 C 
BRANCH   4   5
ATOM      5  C   UNL     1     -10.870  -5.710   0.775  1.00  0.00     0.006 C 
BRANCH   5   6
ATOM      6  C   UNL     1     -10.223  -5.678   2.167  1.00  0.00     0.053 C 
BRANCH   6   7
ATOM      7  C   UNL     1      -9.422  -4.427   2.341  1.00  0.00     0.041 C 
ATOM      8  O   UNL     1      -9.984  -3.359   2.701  1.00  0.00    -0.550 OA
ATOM      9  O   UNL     1      -8.045  -4.452   2.156  1.00  0.00    -0.550 OA
ENDBRANCH   6   7
ENDBRANCH   5   6
ENDBRANCH   4   5
ENDBRANCH   3   4
ENDBRANCH   2   3
ENDBRANCH   1   2
BRANCH   1  10
ATOM     10  C   UNL     1      -7.101  -7.132  -0.009  1.00  0.00     0.000 C 
BRANCH  10  11
ATOM     11  C   UNL     1      -6.009  -7.056   1.072  1.00  0.00    -0.000 C 
BRANCH  11  12
ATOM     12  C   UNL     1      -6.318  -7.944   2.288  1.00  0.00    -0.000 C 
BRANCH  12  13
ATOM     13  C   UNL     1      -5.112  -8.799   2.718  1.00  0.00    -0.000 C 
BRANCH  13  14
ATOM     14  C   UNL     1      -4.990 -10.098   1.905  1.00  0.00    -0.000 C 
BRANCH  14  15
ATOM     15  C   UNL     1      -6.282 -10.935   1.929  1.00  0.00    -0.000 C 
BRANCH  15  16
ATOM     16  C   UNL     1      -6.284 -12.045   0.865  1.00  0.00    -0.003 C 
ATOM     17  C   UNL     1      -5.542 -11.645  -0.410  1.00  0.00     0.004 C 
ENDBRANCH  15  16
ENDBRANCH  14  15
ENDBRANCH  13  14
ENDBRANCH  12  13
ENDBRANCH  11  12
ENDBRANCH  10  11
ENDBRANCH   1  10
TORSDOF 13
ENDMDL
MODEL 2
REMARK VINA RESULT:    -3.830      4.531      6.589
REMARK INTER + INTRA:          -8.445
REMARK INTER:                  -7.964
REMARK INTRA:                  -0.481
REMARK UNBOUND:                -1.705
REMARK SMILES CCCCCCCCCCCCCCC(=O)[O-]
REMARK SMILES IDX 9 1 10 2 11 3 12 4 13 5 14 6 15 7 16 8 17 9 8 10 7 11 6 12
REMARK SMILES IDX 5 13 4 14 3 15 2 16 1 17
REMARK H PARENT
REMARK Flexibility Score: inf
ROOT
ATOM      1  C   UNL     1      -5.677 -12.788   1.201  1.00  0.00     0.000 C 
ENDROOT
BRANCH   1   2
ATOM      2  C   UNL     1      -5.171 -11.617   0.340  1.00  0.00     0.000 C 
BRANCH   2   3
ATOM      3  C   UNL     1      -6.299 -10.924  -0.442  1.00  0.00     0.000 C 
BRANCH   3   4
ATOM      4  C   UNL     1      -7.137  -9.983   0.440  1.00  0.00     0.000 C 
BRANCH   4   5
ATOM      5  C   UNL     1      -7.747  -8.817  -0.354  1.00  0.00     0.006 C 
BRANCH   5   6
ATOM      6  C   UNL     1      -9.238  -8.610  -0.052  1.00  0.00     0.053 C 
BRANCH   6   7
ATOM      7  C   UNL     1      -9.493  -7.198   0.371  1.00  0.00     0.041 C 
ATOM      8  O   UNL     1     -10.626  -6.678   0.193  1.00  0.00    -0.550 OA
ATOM      9  O   UNL     1      -8.495  -6.472   1.009  1.00  0.00    -0.550 OA
ENDBRANCH   6   7
ENDBRANCH   5   6
ENDBRANCH   4   5
ENDBRANCH   3   4
ENDBRANCH   2   3
ENDBRANCH   1   2
BRANCH   1  10
ATOM     10  C   UNL     1      -6.192 -13.964   0.358  1.00  0.00     0.000 C 
BRANCH  10  11
ATOM     11  C   UNL     1      -6.772 -15.099   1.219  1.00  0.00    -0.000 C 
BRANCH  11  12
ATOM     12  C   UNL     1      -6.372 -16.493   0.708  1.00  0.00    -0.000 C 
BRANCH  12  13
ATOM     13  C   UNL     1      -6.195 -17.512   1.849  1.00  0.00    -0.000 C 
BRANCH  13  14
ATOM     14  C   UNL     1      -6.484 -18.954   1.402  1.00  0.00    -0.000 C 
BRANCH  14  15
ATOM     15  C   UNL     1      -6.647 -19.081  -0.123  1.00  0.00    -0.000 C 
BRANCH  15  16
ATOM     16  C   UNL     1      -7.539 -20.266  -0.524  1.00  0.00    -0.003 C 
ATOM     17  C   UNL     1      -7.071 -20.953  -1.806  1.00  0.00     0.004 C 
ENDBRANCH  15  16
ENDBRANCH  14  15
ENDBRANCH  13  14
ENDBRANCH  12  13
ENDBRANCH  11  12
ENDBRANCH  10  11
ENDBRANCH   1  10
TORSDOF 13
ENDMDL
MODEL 3
REMARK VINA RESULT:    -3.810      3.617      6.457
REMARK INTER + INTRA:          -8.410
REMARK INTER:                  -6.963
REMARK INTRA:                  -1.447
REMARK UNBOUND:                -1.705
REMARK SMILES CCCCCCCCCCCCCCC(=O)[O-]
REMARK SMILES IDX 9 1 10 2 11 3 12 4 13 5 14 6 15 7 16 8 17 9 8 10 7 11 6 12
REMARK SMILES IDX 5 13 4 14 3 15 2 16 1 17
REMARK H PARENT
REMARK Flexibility Score: inf
ROOT
ATOM      1  C   UNL     1      -9.474  -8.376   0.103  1.00  0.00     0.000 C 
ENDROOT
BRANCH   1   2
ATOM      2  C   UNL     1      -8.000  -8.430  -0.335  1.00  0.00     0.000 C 
BRANCH   2   3
ATOM      3  C   UNL     1      -7.193  -9.494   0.429  1.00  0.00     0.000 C 
BRANCH   3   4
ATOM      4  C   UNL     1      -6.531 -10.517  -0.510  1.00  0.00     0.000 C 
BRANCH   4   5
ATOM      5  C   UNL     1      -5.419 -11.321   0.184  1.00  0.00     0.006 C 
BRANCH   5   6
ATOM      6  C   UNL     1      -5.395 -12.793  -0.248  1.00  0.00     0.053 C 
BRANCH   6   7
ATOM      7  C   UNL     1      -6.104 -13.643   0.759  1.00  0.00     0.041 C 
ATOM      8  O   UNL     1      -6.574 -13.126   1.807  1.00  0.00    -0.550 OA
ATOM      9  O   UNL     1      -6.291 -14.999   0.516  1.00  0.00    -0.550 OA
ENDBRANCH   6   7
ENDBRANCH   5   6
ENDBRANCH   4   5
ENDBRANCH   3   4
ENDBRANCH   2   3
ENDBRANCH   1   2
BRANCH   1  10
ATOM     10  C   UNL     1      -9.935  -6.955   0.463  1.00  0.00     0.000 C 
BRANCH  10  11
ATOM     11  C   UNL     1     -10.392  -6.836   1.928  1.00  0.00    -0.000 C 
BRANCH  11  12
ATOM     12  C   UNL     1      -9.906  -5.539   2.595  1.00  0.00    -0.000 C 
BRANCH  12  13
ATOM     13  C   UNL     1      -8.466  -5.172   2.194  1.00  0.00    -0.000 C 
BRANCH  13  14
ATOM     14  C   UNL     1      -7.420  -6.098   2.836  1.00  0.00    -0.000 C 
BRANCH  14  15
ATOM     15  C   UNL     1      -6.140  -6.223   1.990  1.00  0.00    -0.000 C 
BRANCH  15  16
ATOM     16  C   UNL     1      -6.030  -5.123   0.923  1.00  0.00    -0.003 C 
ATOM     17  C   UNL     1      -5.531  -5.650  -0.423  1.00  0.00     0.004 C 
ENDBRANCH  15  16
ENDBRANCH  14  15
ENDBRANCH  13  14
ENDBRANCH  12  13
ENDBRANCH  11  12
ENDBRANCH  10  11
ENDBRANCH   1  10
TORSDOF 13
ENDMDL
MODEL 4
REMARK VINA RESULT:    -3.737      2.066      3.183
REMARK INTER + INTRA:          -8.281
REMARK INTER:                  -6.858
REMARK INTRA:                  -1.424
REMARK UNBOUND:                -1.705
REMARK SMILES CCCCCCCCCCCCCCC(=O)[O-]
REMARK SMILES IDX 9 1 10 2 11 3 12 4 13 5 14 6 15 7 16 8 17 9 8 10 7 11 6 12
REMARK SMILES IDX 5 13 4 14 3 15 2 16 1 17
REMARK H PARENT
REMARK Flexibility Score: inf
ROOT
ATOM      1  C   UNL     1     -10.452  -7.479   0.119  1.00  0.00     0.000 C 
ENDROOT
BRANCH   1   2
ATOM      2  C   UNL     1     -10.630  -5.995   0.487  1.00  0.00     0.000 C 
BRANCH   2   3
ATOM      3  C   UNL     1     -10.456  -5.732   1.992  1.00  0.00     0.000 C 
BRANCH   3   4
ATOM      4  C   UNL     1      -9.405  -4.648   2.283  1.00  0.00     0.000 C 
BRANCH   4   5
ATOM      5  C   UNL     1      -8.054  -5.239   2.718  1.00  0.00     0.006 C 
BRANCH   5   6
ATOM      6  C   UNL     1      -6.888  -4.760   1.841  1.00  0.00     0.053 C 
BRANCH   6   7
ATOM      7  C   UNL     1      -6.105  -5.928   1.332  1.00  0.00     0.041 C 
ATOM      8  O   UNL     1      -5.577  -6.738   2.139  1.00  0.00    -0.550 OA
ATOM      9  O   UNL     1      -6.000  -6.153  -0.035  1.00  0.00    -0.550 OA
ENDBRANCH   6   7
ENDBRANCH   5   6
ENDBRANCH   4   5
ENDBRANCH   3   4
ENDBRANCH   2   3
ENDBRANCH   1   2
BRANCH   1  10
ATOM     10  C   UNL     1      -8.982  -7.925   0.151  1.00  0.00     0.000 C 
BRANCH  10  11
ATOM     11  C   UNL     1      -8.643  -8.752   1.404  1.00  0.00    -0.000 C 
BRANCH  11  12
ATOM     12  C   UNL     1      -7.369  -9.594   1.230  1.00  0.00    -0.000 C 
BRANCH  12  13
ATOM     13  C   UNL     1      -7.027  -9.850  -0.249  1.00  0.00    -0.000 C 
BRANCH  13  14
ATOM     14  C   UNL     1      -6.036 -11.010  -0.434  1.00  0.00    -0.000 C 
BRANCH  14  15
ATOM     15  C   UNL     1      -5.206 -11.288   0.832  1.00  0.00    -0.000 C 
BRANCH  15  16
ATOM     16  C   UNL     1      -5.311 -12.749   1.296  1.00  0.00    -0.003 C 
ATOM     17  C   UNL     1      -6.188 -13.601   0.378  1.00  0.00     0.004 C 
ENDBRANCH  15  16
ENDBRANCH  14  15
ENDBRANCH  13  14
ENDBRANCH  12  13
ENDBRANCH  11  12
ENDBRANCH  10  11
ENDBRANCH   1  10
TORSDOF 13
ENDMDL
MODEL 5
REMARK VINA RESULT:    -3.676      2.432      3.361
REMARK INTER + INTRA:          -8.175
REMARK INTER:                  -7.146
REMARK INTRA:                  -1.030
REMARK UNBOUND:                -1.705
REMARK SMILES CCCCCCCCCCCCCCC(=O)[O-]
REMARK SMILES IDX 9 1 10 2 11 3 12 4 13 5 14 6 15 7 16 8 17 9 8 10 7 11 6 12
REMARK SMILES IDX 5 13 4 14 3 15 2 16 1 17
REMARK H PARENT
REMARK Flexibility Score: inf
ROOT
ATOM      1  C   UNL     1      -7.810  -8.629  -0.250  1.00  0.00     0.000 C 
ENDROOT
BRANCH   1   2
ATOM      2  C   UNL     1      -7.048  -7.331   0.070  1.00  0.00     0.000 C 
BRANCH   2   3
ATOM      3  C   UNL     1      -7.572  -6.631   1.335  1.00  0.00     0.000 C 
BRANCH   3   4
ATOM      4  C   UNL     1      -8.438  -7.558   2.205  1.00  0.00     0.000 C 
BRANCH   4   5
ATOM      5  C   UNL     1      -9.926  -7.174   2.176  1.00  0.00     0.006 C 
BRANCH   5   6
ATOM      6  C   UNL     1     -10.177  -5.824   1.489  1.00  0.00     0.053 C 
BRANCH   6   7
ATOM      7  C   UNL     1     -11.066  -6.002   0.299  1.00  0.00     0.041 C 
ATOM      8  O   UNL     1     -11.615  -5.004  -0.237  1.00  0.00    -0.550 OA
ATOM      9  O   UNL     1     -11.248  -7.266  -0.250  1.00  0.00    -0.550 OA
ENDBRANCH   6   7
ENDBRANCH   5   6
ENDBRANCH   4   5
ENDBRANCH   3   4
ENDBRANCH   2   3
ENDBRANCH   1   2
BRANCH   1  10
ATOM     10  C   UNL     1      -6.872  -9.815  -0.523  1.00  0.00     0.000 C 
BRANCH  10  11
ATOM     11  C   UNL     1      -6.005 -10.175   0.697  1.00  0.00    -0.000 C 
BRANCH  11  12
ATOM     12  C   UNL     1      -6.749 -11.059   1.711  1.00  0.00    -0.000 C 
BRANCH  12  13
ATOM     13  C   UNL     1      -6.096 -12.444   1.879  1.00  0.00    -0.000 C 
BRANCH  13  14
ATOM     14  C   UNL     1      -6.004 -13.218   0.554  1.00  0.00    -0.000 C 
BRANCH  14  15
ATOM     15  C   UNL     1      -5.585 -14.685   0.753  1.00  0.00    -0.000 C 
BRANCH  15  16
ATOM     16  C   UNL     1      -6.790 -15.631   0.874  1.00  0.00    -0.003 C 
ATOM     17  C   UNL     1      -6.381 -17.095   1.035  1.00  0.00     0.004 C 
ENDBRANCH  15  16
ENDBRANCH  14  15
ENDBRANCH  13  14
ENDBRANCH  12  13
ENDBRANCH  11  12
ENDBRANCH  10  11
ENDBRANCH   1  10
TORSDOF 13
ENDMDL
MODEL 6
REMARK VINA RESULT:    -3.653      4.106      6.962
REMARK INTER + INTRA:          -8.134
REMARK INTER:                  -6.695
REMARK INTRA:                  -1.439
REMARK UNBOUND:                -1.705
REMARK SMILES CCCCCCCCCCCCCCC(=O)[O-]
REMARK SMILES IDX 9 1 10 2 11 3 12 4 13 5 14 6 15 7 16 8 17 9 8 10 7 11 6 12
REMARK SMILES IDX 5 13 4 14 3 15 2 16 1 17
REMARK H PARENT
REMARK Flexibility Score: inf
ROOT
ATOM      1  C   UNL     1      -7.393  -9.861   0.197  1.00  0.00     0.000 C 
ENDROOT
BRANCH   1   2
ATOM      2  C   UNL     1      -6.256 -10.729  -0.371  1.00  0.00     0.000 C 
BRANCH   2   3
ATOM      3  C   UNL     1      -5.074 -10.870   0.602  1.00  0.00     0.000 C 
BRANCH   3   4
ATOM      4  C   UNL     1      -5.529 -11.142   2.046  1.00  0.00     0.000 C 
BRANCH   4   5
ATOM      5  C   UNL     1      -5.382 -12.620   2.442  1.00  0.00     0.006 C 
BRANCH   5   6
ATOM      6  C   UNL     1      -6.628 -13.451   2.106  1.00  0.00     0.053 C 
BRANCH   6   7
ATOM      7  C   UNL     1      -6.312 -14.457   1.046  1.00  0.00     0.041 C 
ATOM      8  O   UNL     1      -5.243 -14.370   0.386  1.00  0.00    -0.550 OA
ATOM      9  O   UNL     1      -7.175 -15.523   0.821  1.00  0.00    -0.550 OA
ENDBRANCH   6   7
ENDBRANCH   5   6
ENDBRANCH   4   5
ENDBRANCH   3   4
ENDBRANCH   2   3
ENDBRANCH   1   2
BRANCH   1  10
ATOM     10  C   UNL     1      -7.594  -8.556  -0.589  1.00  0.00     0.000 C 
BRANCH  10  11
ATOM     11  C   UNL     1      -6.555  -7.481  -0.224  1.00  0.00    -0.000 C 
BRANCH  11  12
ATOM     12  C   UNL     1      -6.652  -7.039   1.245  1.00  0.00    -0.000 C 
BRANCH  12  13
ATOM     13  C   UNL     1      -7.827  -6.076   1.495  1.00  0.00    -0.000 C 
BRANCH  13  14
ATOM     14  C   UNL     1      -8.837  -6.628   2.514  1.00  0.00    -0.000 C 
BRANCH  14  15
ATOM     15  C   UNL     1     -10.135  -7.125   1.853  1.00  0.00    -0.000 C 
BRANCH  15  16
ATOM     16  C   UNL     1     -10.273  -6.651   0.398  1.00  0.00    -0.003 C 
ATOM     17  C   UNL     1     -11.560  -5.866   0.149  1.00  0.00     0.004 C 
ENDBRANCH  15  16
ENDBRANCH  14  15
ENDBRANCH  13  14
ENDBRANCH  12  13
ENDBRANCH  11  12
ENDBRANCH  10  11
ENDBRANCH   1  10
TORSDOF 13
ENDMDL
MODEL 7
REMARK VINA RESULT:    -3.598      1.359      2.065
REMARK INTER + INTRA:          -8.038
REMARK INTER:                  -6.980
REMARK INTRA:                  -1.058
REMARK UNBOUND:                -1.705
REMARK SMILES CCCCCCCCCCCCCCC(=O)[O-]
REMARK SMILES IDX 9 1 10 2 11 3 12 4 13 5 14 6 15 7 16 8 17 9 8 10 7 11 6 12
REMARK SMILES IDX 5 13 4 14 3 15 2 16 1 17
REMARK H PARENT
REMARK Flexibility Score: inf
ROOT
ATOM      1  C   UNL     1      -7.187  -8.737  -0.297  1.00  0.00     0.000 C 
ENDROOT
BRANCH   1   2
ATOM      2  C   UNL     1      -8.712  -8.939  -0.252  1.00  0.00     0.000 C 
BRANCH   2   3
ATOM      3  C   UNL     1      -9.405  -8.005   0.754  1.00  0.00     0.000 C 
BRANCH   3   4
ATOM      4  C   UNL     1     -10.579  -7.232   0.130  1.00  0.00     0.000 C 
BRANCH   4   5
ATOM      5  C   UNL     1     -10.787  -5.853   0.775  1.00  0.00     0.006 C 
BRANCH   5   6
ATOM      6  C   UNL     1     -10.286  -5.795   2.225  1.00  0.00     0.053 C 
BRANCH   6   7
ATOM      7  C   UNL     1      -9.394  -4.610   2.422  1.00  0.00     0.041 C 
ATOM      8  O   UNL     1      -9.883  -3.451   2.473  1.00  0.00    -0.550 OA
ATOM      9  O   UNL     1      -8.028  -4.790   2.601  1.00  0.00    -0.550 OA
ENDBRANCH   6   7
ENDBRANCH   5   6
ENDBRANCH   4   5
ENDBRANCH   3   4
ENDBRANCH   2   3
ENDBRANCH   1   2
BRANCH   1  10
ATOM     10  C   UNL     1      -6.611  -8.265   1.047  1.00  0.00     0.000 C 
BRANCH  10  11
ATOM     11  C   UNL     1      -5.849  -9.379   1.786  1.00  0.00    -0.000 C 
BRANCH  11  12
ATOM     12  C   UNL     1      -6.788 -10.373   2.489  1.00  0.00    -0.000 C 
BRANCH  12  13
ATOM     13  C   UNL     1      -6.413 -11.839   2.209  1.00  0.00    -0.000 C 
BRANCH  13  14
ATOM     14  C   UNL     1      -6.386 -12.165   0.707  1.00  0.00    -0.000 C 
BRANCH  14  15
ATOM     15  C   UNL     1      -5.800 -13.558   0.413  1.00  0.00    -0.000 C 
BRANCH  15  16
ATOM     16  C   UNL     1      -6.862 -14.667   0.469  1.00  0.00    -0.003 C 
ATOM     17  C   UNL     1      -6.294 -16.009   0.931  1.00  0.00     0.004 C 
ENDBRANCH  15  16
ENDBRANCH  14  15
ENDBRANCH  13  14
ENDBRANCH  12  13
ENDBRANCH  11  12
ENDBRANCH  10  11
ENDBRANCH   1  10
TORSDOF 13
ENDMDL
MODEL 8
REMARK VINA RESULT:    -3.581      1.840      2.805
REMARK INTER + INTRA:          -8.007
REMARK INTER:                  -6.749
REMARK INTRA:                  -1.259
REMARK UNBOUND:                -1.705
REMARK SMILES CCCCCCCCCCCCCCC(=O)[O-]
REMARK SMILES IDX 9 1 10 2 11 3 12 4 13 5 14 6 15 7 16 8 17 9 8 10 7 11 6 12
REMARK SMILES IDX 5 13 4 14 3 15 2 16 1 17
REMARK H PARENT
REMARK Flexibility Score: inf
ROOT
ATOM      1  C   UNL     1      -7.973  -8.530  -0.246  1.00  0.00     0.000 C 
ENDROOT
BRANCH   1   2
ATOM      2  C   UNL     1      -9.450  -8.580   0.184  1.00  0.00     0.000 C 
BRANCH   2   3
ATOM      3  C   UNL     1     -10.069  -7.181   0.344  1.00  0.00     0.000 C 
BRANCH   3   4
ATOM      4  C   UNL     1     -10.439  -6.863   1.803  1.00  0.00     0.000 C 
BRANCH   4   5
ATOM      5  C   UNL     1      -9.214  -6.492   2.654  1.00  0.00     0.006 C 
BRANCH   5   6
ATOM      6  C   UNL     1      -8.409  -5.329   2.059  1.00  0.00     0.053 C 
BRANCH   6   7
ATOM      7  C   UNL     1      -6.968  -5.706   1.925  1.00  0.00     0.041 C 
ATOM      8  O   UNL     1      -6.534  -6.755   2.470  1.00  0.00    -0.550 OA
ATOM      9  O   UNL     1      -6.114  -4.927   1.154  1.00  0.00    -0.550 OA
ENDBRANCH   6   7
ENDBRANCH   5   6
ENDBRANCH   4   5
ENDBRANCH   3   4
ENDBRANCH   2   3
ENDBRANCH   1   2
BRANCH   1  10
ATOM     10  C   UNL     1      -7.132  -9.648   0.389  1.00  0.00     0.000 C 
BRANCH  10  11
ATOM     11  C   UNL     1      -6.445 -10.539  -0.660  1.00  0.00    -0.000 C 
BRANCH  11  12
ATOM     12  C   UNL     1      -5.560 -11.625  -0.025  1.00  0.00    -0.000 C 
BRANCH  12  13
ATOM     13  C   UNL     1      -5.101 -11.256   1.397  1.00  0.00    -0.000 C 
BRANCH  13  14
ATOM     14  C   UNL     1      -5.385 -12.371   2.417  1.00  0.00    -0.000 C 
BRANCH  14  15
ATOM     15  C   UNL     1      -6.801 -12.957   2.275  1.00  0.00    -0.000 C 
BRANCH  15  16
ATOM     16  C   UNL     1      -6.804 -14.494   2.269  1.00  0.00    -0.003 C 
ATOM     17  C   UNL     1      -6.752 -15.082   0.859  1.00  0.00     0.004 C 
ENDBRANCH  15  16
ENDBRANCH  14  15
ENDBRANCH  13  14
ENDBRANCH  12  13
ENDBRANCH  11  12
ENDBRANCH  10  11
ENDBRANCH   1  10
TORSDOF 13
ENDMDL
MODEL 9
REMARK VINA RESULT:    -3.580      3.617      6.633
REMARK INTER + INTRA:          -8.007
REMARK INTER:                  -6.447
REMARK INTRA:                  -1.559
REMARK UNBOUND:                -1.705
REMARK SMILES CCCCCCCCCCCCCCC(=O)[O-]
REMARK SMILES IDX 9 1 10 2 11 3 12 4 13 5 14 6 15 7 16 8 17 9 8 10 7 11 6 12
REMARK SMILES IDX 5 13 4 14 3 15 2 16 1 17
REMARK H PARENT
REMARK Flexibility Score: inf
ROOT
ATOM      1  C   UNL     1      -7.192  -8.213   1.842  1.00  0.00     0.000 C 
ENDROOT
BRANCH   1   2
ATOM      2  C   UNL     1      -7.712  -9.550   1.286  1.00  0.00     0.000 C 
BRANCH   2   3
ATOM      3  C   UNL     1      -7.542  -9.665  -0.238  1.00  0.00     0.000 C 
BRANCH   3   4
ATOM      4  C   UNL     1      -6.390 -10.604  -0.633  1.00  0.00     0.000 C 
BRANCH   4   5
ATOM      5  C   UNL     1      -5.877 -11.439   0.551  1.00  0.00     0.006 C 
BRANCH   5   6
ATOM      6  C   UNL     1      -5.569 -12.892   0.162  1.00  0.00     0.053 C 
BRANCH   6   7
ATOM      7  C   UNL     1      -6.419 -13.834   0.954  1.00  0.00     0.041 C 
ATOM      8  O   UNL     1      -6.793 -14.926   0.450  1.00  0.00    -0.550 OA
ATOM      9  O   UNL     1      -6.757 -13.530   2.267  1.00  0.00    -0.550 OA
ENDBRANCH   6   7
ENDBRANCH   5   6
ENDBRANCH   4   5
ENDBRANCH   3   4
ENDBRANCH   2   3
ENDBRANCH   1   2
BRANCH   1  10
ATOM     10  C   UNL     1      -6.611  -7.302   0.750  1.00  0.00     0.000 C 
BRANCH  10  11
ATOM     11  C   UNL     1      -6.685  -5.811   1.122  1.00  0.00    -0.000 C 
BRANCH  11  12
ATOM     12  C   UNL     1      -7.425  -5.569   2.448  1.00  0.00    -0.000 C 
BRANCH  12  13
ATOM     13  C   UNL     1      -8.300  -4.303   2.414  1.00  0.00    -0.000 C 
BRANCH  13  14
ATOM     14  C   UNL     1      -9.798  -4.617   2.559  1.00  0.00    -0.000 C 
BRANCH  14  15
ATOM     15  C   UNL     1     -10.103  -6.121   2.439  1.00  0.00    -0.000 C 
BRANCH  15  16
ATOM     16  C   UNL     1     -11.075  -6.435   1.292  1.00  0.00    -0.003 C 
ATOM     17  C   UNL     1     -10.402  -7.158   0.125  1.00  0.00     0.004 C 
ENDBRANCH  15  16
ENDBRANCH  14  15
ENDBRANCH  13  14
ENDBRANCH  12  13
ENDBRANCH  11  12
ENDBRANCH  10  11
ENDBRANCH   1  10
TORSDOF 13
ENDMDL
