MODEL 1
REMARK VINA RESULT:    -3.473      0.000      0.000
REMARK INTER + INTRA:          -4.504
REMARK INTER:                  -4.184
REMARK INTRA:                  -0.320
REMARK UNBOUND:                -0.320
REMARK SMILES O=c1c(O)c(-c2ccc(O)c(O)c2)oc2cc(O)cc(O)c12
REMARK SMILES IDX 5 1 3 2 2 3 1 4 22 5 20 6 19 7 17 8 16 9 15 10 14 11 6 12
REMARK SMILES IDX 7 13 8 14 9 15 13 16 11 17 10 18 12 20 4 22 21 24 18 26
REMARK H PARENT 10 19 12 21 4 23 21 25 18 27
REMARK Flexibility Score: inf
ROOT
ATOM      1  C   UNL     1    -126.817  39.840  15.950  1.00  0.00     0.180 A 
ATOM      2  C   UNL     1    -126.773  38.667  16.722  1.00  0.00     0.208 A 
ATOM      3  C   UNL     1    -127.865  38.355  17.549  1.00  0.00     0.238 A 
ATOM      4  O   UNL     1    -127.787  37.343  18.294  1.00  0.00    -0.285 OA
ATOM      5  C   UNL     1    -129.009  39.190  17.552  1.00  0.00     0.111 A 
ATOM      6  C   UNL     1    -130.190  38.947  18.317  1.00  0.00     0.134 A 
ATOM      7  C   UNL     1    -131.218  39.899  18.321  1.00  0.00     0.093 A 
ATOM      8  C   UNL     1    -131.136  41.051  17.541  1.00  0.00     0.123 A 
ATOM      9  C   UNL     1    -130.009  41.273  16.748  1.00  0.00     0.094 A 
ATOM     10  C   UNL     1    -128.951  40.361  16.751  1.00  0.00     0.146 A 
ATOM     11  O   UNL     1    -127.889  40.620  15.998  1.00  0.00    -0.452 OA
ENDROOT
BRANCH   1  12
ATOM     12  C   UNL     1    -125.699  40.243  15.065  1.00  0.00     0.025 A 
ATOM     13  C   UNL     1    -125.660  39.859  13.716  1.00  0.00     0.016 A 
ATOM     14  C   UNL     1    -124.584  40.233  12.909  1.00  0.00     0.051 A 
ATOM     15  C   UNL     1    -123.524  40.981  13.431  1.00  0.00     0.157 A 
ATOM     16  C   UNL     1    -124.627  40.975  15.598  1.00  0.00     0.062 A 
ATOM     17  C   UNL     1    -123.544  41.355  14.796  1.00  0.00     0.158 A 
BRANCH  15  18
ATOM     18  O   UNL     1    -122.480  41.325  12.569  1.00  0.00    -0.504 OA
ATOM     19  H   UNL     1    -122.516  42.096  11.918  1.00  0.00     0.293 HD
ENDBRANCH  15  18
BRANCH  17  20
ATOM     20  O   UNL     1    -122.518  42.092  15.390  1.00  0.00    -0.504 OA
ATOM     21  H   UNL     1    -121.754  42.510  14.880  1.00  0.00     0.293 HD
ENDBRANCH  17  20
ENDBRANCH   1  12
BRANCH   2  22
ATOM     22  O   UNL     1    -125.667  37.816  16.648  1.00  0.00    -0.502 OA
ATOM     23  H   UNL     1    -125.738  36.817  16.804  1.00  0.00     0.293 HD
ENDBRANCH   2  22
BRANCH   6  24
ATOM     24  O   UNL     1    -130.415  37.786  19.062  1.00  0.00    -0.507 OA
ATOM     25  H   UNL     1    -130.403  37.734  20.069  1.00  0.00     0.293 HD
ENDBRANCH   6  24
BRANCH   8  26
ATOM     26  O   UNL     1    -132.184  41.968  17.557  1.00  0.00    -0.508 OA
ATOM     27  H   UNL     1    -133.152  41.666  17.548  1.00  0.00     0.293 HD
ENDBRANCH   8  26
TORSDOF 6
ENDMDL
MODEL 2
REMARK VINA RESULT:    -3.436     10.456     14.531
REMARK INTER + INTRA:          -4.458
REMARK INTER:                  -4.127
REMARK INTRA:                  -0.331
REMARK UNBOUND:                -0.320
REMARK SMILES O=c1c(O)c(-c2ccc(O)c(O)c2)oc2cc(O)cc(O)c12
REMARK SMILES IDX 5 1 3 2 2 3 1 4 22 5 20 6 19 7 17 8 16 9 15 10 14 11 6 12
REMARK SMILES IDX 7 13 8 14 9 15 13 16 11 17 10 18 12 20 4 22 21 24 18 26
REMARK H PARENT 10 19 12 21 4 23 21 25 18 27
REMARK Flexibility Score: inf
ROOT
ATOM      1  C   UNL     1    -122.979  40.268   4.748  1.00  0.00     0.180 A 
ATOM      2  C   UNL     1    -122.147  41.106   5.509  1.00  0.00     0.208 A 
ATOM      3  C   UNL     1    -120.867  41.418   5.023  1.00  0.00     0.238 A 
ATOM      4  O   UNL     1    -120.100  42.107   5.744  1.00  0.00    -0.285 OA
ATOM      5  C   UNL     1    -120.456  40.934   3.757  1.00  0.00     0.111 A 
ATOM      6  C   UNL     1    -119.198  41.223   3.146  1.00  0.00     0.134 A 
ATOM      7  C   UNL     1    -118.858  40.602   1.937  1.00  0.00     0.093 A 
ATOM      8  C   UNL     1    -119.753  39.754   1.287  1.00  0.00     0.123 A 
ATOM      9  C   UNL     1    -121.006  39.507   1.848  1.00  0.00     0.094 A 
ATOM     10  C   UNL     1    -121.360  40.081   3.071  1.00  0.00     0.146 A 
ATOM     11  O   UNL     1    -122.554  39.803   3.580  1.00  0.00    -0.452 OA
ENDROOT
BRANCH   1  12
ATOM     12  C   UNL     1    -124.336  39.882   5.200  1.00  0.00     0.025 A 
ATOM     13  C   UNL     1    -124.548  38.734   5.979  1.00  0.00     0.016 A 
ATOM     14  C   UNL     1    -125.840  38.379   6.373  1.00  0.00     0.051 A 
ATOM     15  C   UNL     1    -126.942  39.150   5.989  1.00  0.00     0.157 A 
ATOM     16  C   UNL     1    -125.442  40.646   4.795  1.00  0.00     0.062 A 
ATOM     17  C   UNL     1    -126.741  40.298   5.186  1.00  0.00     0.158 A 
BRANCH  15  18
ATOM     18  O   UNL     1    -128.206  38.743   6.419  1.00  0.00    -0.504 OA
ATOM     19  H   UNL     1    -129.046  38.824   5.863  1.00  0.00     0.293 HD
ENDBRANCH  15  18
BRANCH  17  20
ATOM     20  O   UNL     1    -127.791  41.110   4.755  1.00  0.00    -0.504 OA
ATOM     21  H   UNL     1    -127.711  42.105   4.605  1.00  0.00     0.293 HD
ENDBRANCH  17  20
ENDBRANCH   1  12
BRANCH   2  22
ATOM     22  O   UNL     1    -122.600  41.635   6.720  1.00  0.00    -0.502 OA
ATOM     23  H   UNL     1    -123.014  41.060   7.445  1.00  0.00     0.293 HD
ENDBRANCH   2  22
BRANCH   6  24
ATOM     24  O   UNL     1    -118.264  42.125   3.665  1.00  0.00    -0.507 OA
ATOM     25  H   UNL     1    -117.265  41.993   3.653  1.00  0.00     0.293 HD
ENDBRANCH   6  24
BRANCH   8  26
ATOM     26  O   UNL     1    -119.388  39.167   0.078  1.00  0.00    -0.508 OA
ATOM     27  H   UNL     1    -118.596  39.504  -0.458  1.00  0.00     0.293 HD
ENDBRANCH   8  26
TORSDOF 6
ENDMDL
MODEL 3
REMARK VINA RESULT:    -3.363      9.529     14.351
REMARK INTER + INTRA:          -4.370
REMARK INTER:                  -4.051
REMARK INTRA:                  -0.319
REMARK UNBOUND:                -0.320
REMARK SMILES O=c1c(O)c(-c2ccc(O)c(O)c2)oc2cc(O)cc(O)c12
REMARK SMILES IDX 5 1 3 2 2 3 1 4 22 5 20 6 19 7 17 8 16 9 15 10 14 11 6 12
REMARK SMILES IDX 7 13 8 14 9 15 13 16 11 17 10 18 12 20 4 22 21 24 18 26
REMARK H PARENT 10 19 12 21 4 23 21 25 18 27
REMARK Flexibility Score: inf
ROOT
ATOM      1  C   UNL     1    -123.864  39.731   4.403  1.00  0.00     0.180 A 
ATOM      2  C   UNL     1    -123.854  38.525   3.682  1.00  0.00     0.208 A 
ATOM      3  C   UNL     1    -122.767  38.246   2.838  1.00  0.00     0.238 A 
ATOM      4  O   UNL     1    -122.800  37.201   2.138  1.00  0.00    -0.285 OA
ATOM      5  C   UNL     1    -121.678  39.150   2.767  1.00  0.00     0.111 A 
ATOM      6  C   UNL     1    -120.505  38.948   1.979  1.00  0.00     0.134 A 
ATOM      7  C   UNL     1    -119.540  39.962   1.905  1.00  0.00     0.093 A 
ATOM      8  C   UNL     1    -119.675  41.139   2.638  1.00  0.00     0.123 A 
ATOM      9  C   UNL     1    -120.792  41.324   3.454  1.00  0.00     0.094 A 
ATOM     10  C   UNL     1    -121.789  40.349   3.520  1.00  0.00     0.146 A 
ATOM     11  O   UNL     1    -122.846  40.574   4.292  1.00  0.00    -0.452 OA
ENDROOT
BRANCH   1  12
ATOM     12  C   UNL     1    -124.982  40.102   5.303  1.00  0.00     0.025 A 
ATOM     13  C   UNL     1    -124.959  39.777   6.668  1.00  0.00     0.016 A 
ATOM     14  C   UNL     1    -126.035  40.117   7.491  1.00  0.00     0.051 A 
ATOM     15  C   UNL     1    -127.155  40.773   6.968  1.00  0.00     0.157 A 
ATOM     16  C   UNL     1    -126.113  40.739   4.771  1.00  0.00     0.062 A 
ATOM     17  C   UNL     1    -127.197  41.085   5.589  1.00  0.00     0.158 A 
BRANCH  15  18
ATOM     18  O   UNL     1    -128.195  41.088   7.845  1.00  0.00    -0.504 OA
ATOM     19  H   UNL     1    -128.080  41.638   8.684  1.00  0.00     0.293 HD
ENDBRANCH  15  18
BRANCH  17  20
ATOM     20  O   UNL     1    -128.283  41.728   4.994  1.00  0.00    -0.504 OA
ATOM     21  H   UNL     1    -129.218  41.349   4.967  1.00  0.00     0.293 HD
ENDBRANCH  17  20
ENDBRANCH   1  12
BRANCH   2  22
ATOM     22  O   UNL     1    -124.901  37.611   3.824  1.00  0.00    -0.502 OA
ATOM     23  H   UNL     1    -125.087  37.128   4.695  1.00  0.00     0.293 HD
ENDBRANCH   2  22
BRANCH   6  24
ATOM     24  O   UNL     1    -120.226  37.773   1.276  1.00  0.00    -0.507 OA
ATOM     25  H   UNL     1    -119.586  37.056   1.580  1.00  0.00     0.293 HD
ENDBRANCH   6  24
BRANCH   8  26
ATOM     26  O   UNL     1    -118.688  42.118   2.553  1.00  0.00    -0.508 OA
ATOM     27  H   UNL     1    -117.838  41.970   2.020  1.00  0.00     0.293 HD
ENDBRANCH   8  26
TORSDOF 6
ENDMDL
MODEL 4
REMARK VINA RESULT:    -3.357      1.551      2.880
REMARK INTER + INTRA:          -4.364
REMARK INTER:                  -4.041
REMARK INTRA:                  -0.323
REMARK UNBOUND:                -0.320
REMARK SMILES O=c1c(O)c(-c2ccc(O)c(O)c2)oc2cc(O)cc(O)c12
REMARK SMILES IDX 5 1 3 2 2 3 1 4 22 5 20 6 19 7 17 8 16 9 15 10 14 11 6 12
REMARK SMILES IDX 7 13 8 14 9 15 13 16 11 17 10 18 12 20 4 22 21 24 18 26
REMARK H PARENT 10 19 12 21 4 23 21 25 18 27
REMARK Flexibility Score: inf
ROOT
ATOM      1  C   UNL     1    -127.365  40.043  15.606  1.00  0.00     0.180 A 
ATOM      2  C   UNL     1    -128.229  40.812  14.808  1.00  0.00     0.208 A 
ATOM      3  C   UNL     1    -129.549  41.021  15.239  1.00  0.00     0.238 A 
ATOM      4  O   UNL     1    -130.338  41.647  14.484  1.00  0.00    -0.285 OA
ATOM      5  C   UNL     1    -129.973  40.506  16.488  1.00  0.00     0.111 A 
ATOM      6  C   UNL     1    -131.275  40.694  17.045  1.00  0.00     0.134 A 
ATOM      7  C   UNL     1    -131.614  40.047  18.241  1.00  0.00     0.093 A 
ATOM      8  C   UNL     1    -130.683  39.273  18.930  1.00  0.00     0.123 A 
ATOM      9  C   UNL     1    -129.391  39.127  18.423  1.00  0.00     0.094 A 
ATOM     10  C   UNL     1    -129.033  39.727  17.214  1.00  0.00     0.146 A 
ATOM     11  O   UNL     1    -127.801  39.545  16.756  1.00  0.00    -0.452 OA
ENDROOT
BRANCH   1  12
ATOM     12  C   UNL     1    -125.964  39.767  15.212  1.00  0.00     0.025 A 
ATOM     13  C   UNL     1    -125.615  38.591  14.531  1.00  0.00     0.016 A 
ATOM     14  C   UNL     1    -124.283  38.343  14.191  1.00  0.00     0.051 A 
ATOM     15  C   UNL     1    -123.276  39.251  14.534  1.00  0.00     0.157 A 
ATOM     16  C   UNL     1    -124.954  40.670  15.577  1.00  0.00     0.062 A 
ATOM     17  C   UNL     1    -123.616  40.430  15.241  1.00  0.00     0.158 A 
BRANCH  15  18
ATOM     18  O   UNL     1    -121.966  38.945  14.162  1.00  0.00    -0.504 OA
ATOM     19  H   UNL     1    -121.630  38.964  13.210  1.00  0.00     0.293 HD
ENDBRANCH  15  18
BRANCH  17  20
ATOM     20  O   UNL     1    -122.666  41.377  15.626  1.00  0.00    -0.504 OA
ATOM     21  H   UNL     1    -122.682  42.343  15.334  1.00  0.00     0.293 HD
ENDBRANCH  17  20
ENDBRANCH   1  12
BRANCH   2  22
ATOM     22  O   UNL     1    -127.769  41.376  13.615  1.00  0.00    -0.502 OA
ATOM     23  H   UNL     1    -127.010  42.047  13.588  1.00  0.00     0.293 HD
ENDBRANCH   2  22
BRANCH   6  24
ATOM     24  O   UNL     1    -132.254  41.519  16.485  1.00  0.00    -0.507 OA
ATOM     25  H   UNL     1    -132.174  42.518  16.373  1.00  0.00     0.293 HD
ENDBRANCH   6  24
BRANCH   8  26
ATOM     26  O   UNL     1    -131.051  38.659  20.125  1.00  0.00    -0.508 OA
ATOM     27  H   UNL     1    -132.016  38.633  20.433  1.00  0.00     0.293 HD
ENDBRANCH   8  26
TORSDOF 6
ENDMDL
MODEL 5
REMARK VINA RESULT:    -3.286      1.944      6.384
REMARK INTER + INTRA:          -4.278
REMARK INTER:                  -3.957
REMARK INTRA:                  -0.321
REMARK UNBOUND:                -0.320
REMARK SMILES O=c1c(O)c(-c2ccc(O)c(O)c2)oc2cc(O)cc(O)c12
REMARK SMILES IDX 5 1 3 2 2 3 1 4 22 5 20 6 19 7 17 8 16 9 15 10 14 11 6 12
REMARK SMILES IDX 7 13 8 14 9 15 13 16 11 17 10 18 12 20 4 22 21 24 18 26
REMARK H PARENT 10 19 12 21 4 23 21 25 18 27
REMARK Flexibility Score: inf
ROOT
ATOM      1  C   UNL     1    -127.548  39.594  16.405  1.00  0.00     0.180 A 
ATOM      2  C   UNL     1    -127.383  38.379  17.091  1.00  0.00     0.208 A 
ATOM      3  C   UNL     1    -126.087  37.872  17.276  1.00  0.00     0.238 A 
ATOM      4  O   UNL     1    -125.952  36.747  17.824  1.00  0.00    -0.285 OA
ATOM      5  C   UNL     1    -124.968  38.613  16.823  1.00  0.00     0.111 A 
ATOM      6  C   UNL     1    -123.607  38.217  16.996  1.00  0.00     0.134 A 
ATOM      7  C   UNL     1    -122.587  38.980  16.412  1.00  0.00     0.093 A 
ATOM      8  C   UNL     1    -122.872  40.154  15.717  1.00  0.00     0.123 A 
ATOM      9  C   UNL     1    -124.195  40.579  15.588  1.00  0.00     0.094 A 
ATOM     10  C   UNL     1    -125.237  39.821  16.127  1.00  0.00     0.146 A 
ATOM     11  O   UNL     1    -126.483  40.251  15.964  1.00  0.00    -0.452 OA
ENDROOT
BRANCH   1  12
ATOM     12  C   UNL     1    -128.884  40.185  16.159  1.00  0.00     0.025 A 
ATOM     13  C   UNL     1    -129.507  41.007  17.111  1.00  0.00     0.016 A 
ATOM     14  C   UNL     1    -130.777  41.533  16.864  1.00  0.00     0.051 A 
ATOM     15  C   UNL     1    -131.453  41.241  15.675  1.00  0.00     0.157 A 
ATOM     16  C   UNL     1    -129.569  39.872  14.975  1.00  0.00     0.062 A 
ATOM     17  C   UNL     1    -130.843  40.396  14.718  1.00  0.00     0.158 A 
BRANCH  15  18
ATOM     18  O   UNL     1    -132.718  41.802  15.489  1.00  0.00    -0.504 OA
ATOM     19  H   UNL     1    -133.358  42.014  16.241  1.00  0.00     0.293 HD
ENDBRANCH  15  18
BRANCH  17  20
ATOM     20  O   UNL     1    -131.460  40.052  13.515  1.00  0.00    -0.504 OA
ATOM     21  H   UNL     1    -130.978  39.632  12.733  1.00  0.00     0.293 HD
ENDBRANCH  17  20
ENDBRANCH   1  12
BRANCH   2  22
ATOM     22  O   UNL     1    -128.495  37.700  17.597  1.00  0.00    -0.502 OA
ATOM     23  H   UNL     1    -129.421  38.111  17.616  1.00  0.00     0.293 HD
ENDBRANCH   2  22
BRANCH   6  24
ATOM     24  O   UNL     1    -123.203  37.110  17.747  1.00  0.00    -0.507 OA
ATOM     25  H   UNL     1    -122.253  36.911  18.018  1.00  0.00     0.293 HD
ENDBRANCH   6  24
BRANCH   8  26
ATOM     26  O   UNL     1    -121.831  40.895  15.164  1.00  0.00    -0.508 OA
ATOM     27  H   UNL     1    -121.754  41.037  14.163  1.00  0.00     0.293 HD
ENDBRANCH   8  26
TORSDOF 6
ENDMDL
MODEL 6
REMARK VINA RESULT:    -3.274      2.406      6.343
REMARK INTER + INTRA:          -4.263
REMARK INTER:                  -3.964
REMARK INTRA:                  -0.299
REMARK UNBOUND:                -0.320
REMARK SMILES O=c1c(O)c(-c2ccc(O)c(O)c2)oc2cc(O)cc(O)c12
REMARK SMILES IDX 5 1 3 2 2 3 1 4 22 5 20 6 19 7 17 8 16 9 15 10 14 11 6 12
REMARK SMILES IDX 7 13 8 14 9 15 13 16 11 17 10 18 12 20 4 22 21 24 18 26
REMARK H PARENT 10 19 12 21 4 23 21 25 18 27
REMARK Flexibility Score: inf
ROOT
ATOM      1  C   UNL     1    -127.058  39.552  16.160  1.00  0.00     0.180 A 
ATOM      2  C   UNL     1    -125.914  40.194  15.658  1.00  0.00     0.208 A 
ATOM      3  C   UNL     1    -124.647  39.715  16.027  1.00  0.00     0.238 A 
ATOM      4  O   UNL     1    -123.628  40.341  15.634  1.00  0.00    -0.285 OA
ATOM      5  C   UNL     1    -124.538  38.567  16.849  1.00  0.00     0.111 A 
ATOM      6  C   UNL     1    -123.305  37.968  17.249  1.00  0.00     0.134 A 
ATOM      7  C   UNL     1    -123.320  36.896  18.151  1.00  0.00     0.093 A 
ATOM      8  C   UNL     1    -124.520  36.362  18.617  1.00  0.00     0.123 A 
ATOM      9  C   UNL     1    -125.732  36.905  18.189  1.00  0.00     0.094 A 
ATOM     10  C   UNL     1    -125.751  37.998  17.320  1.00  0.00     0.146 A 
ATOM     11  O   UNL     1    -126.925  38.497  16.955  1.00  0.00    -0.452 OA
ENDROOT
BRANCH   1  12
ATOM     12  C   UNL     1    -128.429  40.006  15.828  1.00  0.00     0.025 A 
ATOM     13  C   UNL     1    -129.035  39.668  14.608  1.00  0.00     0.016 A 
ATOM     14  C   UNL     1    -130.319  40.129  14.309  1.00  0.00     0.051 A 
ATOM     15  C   UNL     1    -131.015  40.943  15.208  1.00  0.00     0.157 A 
ATOM     16  C   UNL     1    -129.115  40.841  16.723  1.00  0.00     0.062 A 
ATOM     17  C   UNL     1    -130.403  41.308  16.431  1.00  0.00     0.158 A 
BRANCH  15  18
ATOM     18  O   UNL     1    -132.296  41.367  14.850  1.00  0.00    -0.504 OA
ATOM     19  H   UNL     1    -132.735  42.203  15.207  1.00  0.00     0.293 HD
ENDBRANCH  15  18
BRANCH  17  20
ATOM     20  O   UNL     1    -131.030  42.125  17.374  1.00  0.00    -0.504 OA
ATOM     21  H   UNL     1    -131.784  42.759  17.158  1.00  0.00     0.293 HD
ENDBRANCH  17  20
ENDBRANCH   1  12
BRANCH   2  22
ATOM     22  O   UNL     1    -126.043  41.279  14.786  1.00  0.00    -0.502 OA
ATOM     23  H   UNL     1    -125.567  42.160  14.941  1.00  0.00     0.293 HD
ENDBRANCH   2  22
BRANCH   6  24
ATOM     24  O   UNL     1    -122.052  38.365  16.775  1.00  0.00    -0.507 OA
ATOM     25  H   UNL     1    -121.396  38.936  17.285  1.00  0.00     0.293 HD
ENDBRANCH   6  24
BRANCH   8  26
ATOM     26  O   UNL     1    -124.496  35.285  19.500  1.00  0.00    -0.508 OA
ATOM     27  H   UNL     1    -124.667  35.408  20.491  1.00  0.00     0.293 HD
ENDBRANCH   8  26
TORSDOF 6
ENDMDL
MODEL 7
REMARK VINA RESULT:    -3.243     11.171     12.725
REMARK INTER + INTRA:          -4.226
REMARK INTER:                  -3.903
REMARK INTRA:                  -0.323
REMARK UNBOUND:                -0.320
REMARK SMILES O=c1c(O)c(-c2ccc(O)c(O)c2)oc2cc(O)cc(O)c12
REMARK SMILES IDX 5 1 3 2 2 3 1 4 22 5 20 6 19 7 17 8 16 9 15 10 14 11 6 12
REMARK SMILES IDX 7 13 8 14 9 15 13 16 11 17 10 18 12 20 4 22 21 24 18 26
REMARK H PARENT 10 19 12 21 4 23 21 25 18 27
REMARK Flexibility Score: inf
ROOT
ATOM      1  C   UNL     1    -122.821  39.924   4.082  1.00  0.00     0.180 A 
ATOM      2  C   UNL     1    -123.077  38.685   3.470  1.00  0.00     0.208 A 
ATOM      3  C   UNL     1    -124.389  38.182   3.475  1.00  0.00     0.238 A 
ATOM      4  O   UNL     1    -124.597  37.039   2.993  1.00  0.00    -0.285 OA
ATOM      5  C   UNL     1    -125.436  38.949   4.042  1.00  0.00     0.111 A 
ATOM      6  C   UNL     1    -126.810  38.557   4.062  1.00  0.00     0.134 A 
ATOM      7  C   UNL     1    -127.742  39.349   4.745  1.00  0.00     0.093 A 
ATOM      8  C   UNL     1    -127.365  40.546   5.352  1.00  0.00     0.123 A 
ATOM      9  C   UNL     1    -126.036  40.965   5.290  1.00  0.00     0.094 A 
ATOM     10  C   UNL     1    -125.075  40.180   4.650  1.00  0.00     0.146 A 
ATOM     11  O   UNL     1    -123.817  40.605   4.633  1.00  0.00    -0.452 OA
ENDROOT
BRANCH   1  12
ATOM     12  C   UNL     1    -121.462  40.513   4.130  1.00  0.00     0.025 A 
ATOM     13  C   UNL     1    -120.978  41.319   3.087  1.00  0.00     0.016 A 
ATOM     14  C   UNL     1    -119.685  41.844   3.146  1.00  0.00     0.051 A 
ATOM     15  C   UNL     1    -118.849  41.566   4.232  1.00  0.00     0.157 A 
ATOM     16  C   UNL     1    -120.618  40.214   5.210  1.00  0.00     0.062 A 
ATOM     17  C   UNL     1    -119.320  40.736   5.277  1.00  0.00     0.158 A 
BRANCH  15  18
ATOM     18  O   UNL     1    -117.569  42.124   4.230  1.00  0.00    -0.504 OA
ATOM     19  H   UNL     1    -116.720  41.590   4.114  1.00  0.00     0.293 HD
ENDBRANCH  15  18
BRANCH  17  20
ATOM     20  O   UNL     1    -118.541  40.406   6.387  1.00  0.00    -0.504 OA
ATOM     21  H   UNL     1    -117.957  41.064   6.882  1.00  0.00     0.293 HD
ENDBRANCH  17  20
ENDBRANCH   1  12
BRANCH   2  22
ATOM     22  O   UNL     1    -122.044  37.979   2.849  1.00  0.00    -0.502 OA
ATOM     23  H   UNL     1    -122.166  37.040   2.489  1.00  0.00     0.293 HD
ENDBRANCH   2  22
BRANCH   6  24
ATOM     24  O   UNL     1    -127.311  37.426   3.413  1.00  0.00    -0.507 OA
ATOM     25  H   UNL     1    -127.041  36.476   3.616  1.00  0.00     0.293 HD
ENDBRANCH   6  24
BRANCH   8  26
ATOM     26  O   UNL     1    -128.323  41.315   6.007  1.00  0.00    -0.508 OA
ATOM     27  H   UNL     1    -129.272  41.393   5.657  1.00  0.00     0.293 HD
ENDBRANCH   8  26
TORSDOF 6
ENDMDL
MODEL 8
REMARK VINA RESULT:    -3.228      2.861      4.401
REMARK INTER + INTRA:          -4.208
REMARK INTER:                  -3.885
REMARK INTRA:                  -0.323
REMARK UNBOUND:                -0.320
REMARK SMILES O=c1c(O)c(-c2ccc(O)c(O)c2)oc2cc(O)cc(O)c12
REMARK SMILES IDX 5 1 3 2 2 3 1 4 22 5 20 6 19 7 17 8 16 9 15 10 14 11 6 12
REMARK SMILES IDX 7 13 8 14 9 15 13 16 11 17 10 18 12 20 4 22 21 24 18 26
REMARK H PARENT 10 19 12 21 4 23 21 25 18 27
REMARK Flexibility Score: inf
ROOT
ATOM      1  C   UNL     1    -128.427  39.934  15.644  1.00  0.00     0.180 A 
ATOM      2  C   UNL     1    -129.239  40.738  16.460  1.00  0.00     0.208 A 
ATOM      3  C   UNL     1    -130.487  41.160  15.974  1.00  0.00     0.238 A 
ATOM      4  O   UNL     1    -131.176  41.941  16.680  1.00  0.00    -0.285 OA
ATOM      5  C   UNL     1    -130.931  40.728  14.700  1.00  0.00     0.111 A 
ATOM      6  C   UNL     1    -132.197  41.058  14.126  1.00  0.00     0.134 A 
ATOM      7  C   UNL     1    -132.483  40.660  12.814  1.00  0.00     0.093 A 
ATOM      8  C   UNL     1    -131.581  39.893  12.080  1.00  0.00     0.123 A 
ATOM      9  C   UNL     1    -130.364  39.519  12.651  1.00  0.00     0.094 A 
ATOM     10  C   UNL     1    -130.032  39.931  13.943  1.00  0.00     0.146 A 
ATOM     11  O   UNL     1    -128.856  39.571  14.441  1.00  0.00    -0.452 OA
ENDROOT
BRANCH   1  12
ATOM     12  C   UNL     1    -127.092  39.460  16.080  1.00  0.00     0.025 A 
ATOM     13  C   UNL     1    -126.941  38.268  16.805  1.00  0.00     0.016 A 
ATOM     14  C   UNL     1    -125.675  37.856  17.226  1.00  0.00     0.051 A 
ATOM     15  C   UNL     1    -124.542  38.627  16.945  1.00  0.00     0.157 A 
ATOM     16  C   UNL     1    -125.961  40.247  15.816  1.00  0.00     0.062 A 
ATOM     17  C   UNL     1    -124.687  39.841  16.233  1.00  0.00     0.158 A 
BRANCH  15  18
ATOM     18  O   UNL     1    -123.305  38.156  17.390  1.00  0.00    -0.504 OA
ATOM     19  H   UNL     1    -122.619  37.718  16.793  1.00  0.00     0.293 HD
ENDBRANCH  15  18
BRANCH  17  20
ATOM     20  O   UNL     1    -123.605  40.668  15.925  1.00  0.00    -0.504 OA
ATOM     21  H   UNL     1    -122.654  40.343  15.833  1.00  0.00     0.293 HD
ENDBRANCH  17  20
ENDBRANCH   1  12
BRANCH   2  22
ATOM     22  O   UNL     1    -128.816  41.091  17.744  1.00  0.00    -0.502 OA
ATOM     23  H   UNL     1    -128.820  40.435  18.518  1.00  0.00     0.293 HD
ENDBRANCH   2  22
BRANCH   6  24
ATOM     24  O   UNL     1    -133.208  41.745  14.803  1.00  0.00    -0.507 OA
ATOM     25  H   UNL     1    -133.057  42.430  15.527  1.00  0.00     0.293 HD
ENDBRANCH   6  24
BRANCH   8  26
ATOM     26  O   UNL     1    -131.907  39.501  10.783  1.00  0.00    -0.508 OA
ATOM     27  H   UNL     1    -132.302  38.588  10.589  1.00  0.00     0.293 HD
ENDBRANCH   8  26
TORSDOF 6
ENDMDL
MODEL 9
REMARK VINA RESULT:    -3.215      9.694     12.129
REMARK INTER + INTRA:          -4.192
REMARK INTER:                  -3.879
REMARK INTRA:                  -0.313
REMARK UNBOUND:                -0.320
REMARK SMILES O=c1c(O)c(-c2ccc(O)c(O)c2)oc2cc(O)cc(O)c12
REMARK SMILES IDX 5 1 3 2 2 3 1 4 22 5 20 6 19 7 17 8 16 9 15 10 14 11 6 12
REMARK SMILES IDX 7 13 8 14 9 15 13 16 11 17 10 18 12 20 4 22 21 24 18 26
REMARK H PARENT 10 19 12 21 4 23 21 25 18 27
REMARK Flexibility Score: inf
ROOT
ATOM      1  C   UNL     1    -123.384  40.303   4.778  1.00  0.00     0.180 A 
ATOM      2  C   UNL     1    -123.277  41.049   5.964  1.00  0.00     0.208 A 
ATOM      3  C   UNL     1    -124.448  41.393   6.659  1.00  0.00     0.238 A 
ATOM      4  O   UNL     1    -124.351  42.124   7.679  1.00  0.00    -0.285 OA
ATOM      5  C   UNL     1    -125.706  40.941   6.190  1.00  0.00     0.111 A 
ATOM      6  C   UNL     1    -126.953  41.193   6.839  1.00  0.00     0.134 A 
ATOM      7  C   UNL     1    -128.145  40.786   6.225  1.00  0.00     0.093 A 
ATOM      8  C   UNL     1    -128.132  40.082   5.022  1.00  0.00     0.123 A 
ATOM      9  C   UNL     1    -126.916  39.783   4.407  1.00  0.00     0.094 A 
ATOM     10  C   UNL     1    -125.712  40.208   4.974  1.00  0.00     0.146 A 
ATOM     11  O   UNL     1    -124.579  39.921   4.346  1.00  0.00    -0.452 OA
ENDROOT
BRANCH   1  12
ATOM     12  C   UNL     1    -122.197  39.914   3.982  1.00  0.00     0.025 A 
ATOM     13  C   UNL     1    -121.589  40.811   3.090  1.00  0.00     0.016 A 
ATOM     14  C   UNL     1    -120.485  40.412   2.334  1.00  0.00     0.051 A 
ATOM     15  C   UNL     1    -119.976  39.113   2.441  1.00  0.00     0.157 A 
ATOM     16  C   UNL     1    -121.703  38.603   4.075  1.00  0.00     0.062 A 
ATOM     17  C   UNL     1    -120.596  38.195   3.321  1.00  0.00     0.158 A 
BRANCH  15  18
ATOM     18  O   UNL     1    -118.868  38.779   1.659  1.00  0.00    -0.504 OA
ATOM     19  H   UNL     1    -117.944  38.614   2.031  1.00  0.00     0.293 HD
ENDBRANCH  15  18
BRANCH  17  20
ATOM     20  O   UNL     1    -120.152  36.880   3.474  1.00  0.00    -0.504 OA
ATOM     21  H   UNL     1    -120.340  36.140   2.814  1.00  0.00     0.293 HD
ENDBRANCH  17  20
ENDBRANCH   1  12
BRANCH   2  22
ATOM     22  O   UNL     1    -122.022  41.420   6.451  1.00  0.00    -0.502 OA
ATOM     23  H   UNL     1    -121.855  41.615   7.432  1.00  0.00     0.293 HD
ENDBRANCH   2  22
BRANCH   6  24
ATOM     24  O   UNL     1    -127.076  41.810   8.087  1.00  0.00    -0.507 OA
ATOM     25  H   UNL     1    -126.402  42.445   8.487  1.00  0.00     0.293 HD
ENDBRANCH   6  24
BRANCH   8  26
ATOM     26  O   UNL     1    -129.336  39.678   4.450  1.00  0.00    -0.508 OA
ATOM     27  H   UNL     1    -129.474  38.729   4.121  1.00  0.00     0.293 HD
ENDBRANCH   8  26
TORSDOF 6
ENDMDL
