MODEL 1
REMARK VINA RESULT:    -4.850      0.000      0.000
REMARK INTER + INTRA:         -10.345
REMARK INTER:                  -8.253
REMARK INTRA:                  -2.092
REMARK UNBOUND:                -2.092
REMARK SMILES CCCCCCCCCCCCCC(=O)[O-]
REMARK SMILES IDX 8 1 9 2 10 3 11 4 12 5 13 6 14 7 15 8 16 9 7 10 6 11 5 12
REMARK SMILES IDX 4 13 3 14 2 15 1 16
REMARK H PARENT
REMARK Flexibility Score: inf
ROOT
ATOM      1  C   UNL     1      50.024  10.299  -5.684  1.00  0.00     0.000 C 
ENDROOT
BRANCH   1   2
ATOM      2  C   UNL     1      49.589  11.770  -5.641  1.00  0.00     0.000 C 
BRANCH   2   3
ATOM      3  C   UNL     1      48.343  11.950  -4.762  1.00  0.00     0.000 C 
BRANCH   3   4
ATOM      4  C   UNL     1      47.069  12.237  -5.577  1.00  0.00     0.000 C 
BRANCH   4   5
ATOM      5  C   UNL     1      47.290  12.401  -7.092  1.00  0.00     0.006 C 
BRANCH   5   6
ATOM      6  C   UNL     1      46.049  12.929  -7.823  1.00  0.00     0.053 C 
BRANCH   6   7
ATOM      7  C   UNL     1      45.988  12.378  -9.213  1.00  0.00     0.041 C 
ATOM      8  O   UNL     1      44.885  12.028  -9.708  1.00  0.00    -0.550 OA
ATOM      9  O   UNL     1      47.157  12.201  -9.942  1.00  0.00    -0.550 OA
ENDBRANCH   6   7
ENDBRANCH   5   6
ENDBRANCH   4   5
ENDBRANCH   3   4
ENDBRANCH   2   3
ENDBRANCH   1   2
BRANCH   1  10
ATOM     10  C   UNL     1      50.204   9.822  -7.133  1.00  0.00     0.000 C 
BRANCH  10  11
ATOM     11  C   UNL     1      49.248   8.675  -7.500  1.00  0.00    -0.000 C 
BRANCH  11  12
ATOM     12  C   UNL     1      48.140   9.116  -8.469  1.00  0.00    -0.000 C 
BRANCH  12  13
ATOM     13  C   UNL     1      46.732   8.736  -7.979  1.00  0.00    -0.000 C 
BRANCH  13  14
ATOM     14  C   UNL     1      46.734   7.921  -6.667  1.00  0.00    -0.000 C 
BRANCH  14  15
ATOM     15  C   UNL     1      46.244   8.748  -5.469  1.00  0.00    -0.003 C 
ATOM     16  C   UNL     1      47.088   8.473  -4.228  1.00  0.00     0.004 C 
ENDBRANCH  14  15
ENDBRANCH  13  14
ENDBRANCH  12  13
ENDBRANCH  11  12
ENDBRANCH  10  11
ENDBRANCH   1  10
TORSDOF 12
ENDMDL
MODEL 2
REMARK VINA RESULT:    -4.764      1.262      1.985
REMARK INTER + INTRA:         -10.198
REMARK INTER:                  -8.039
REMARK INTRA:                  -2.160
REMARK UNBOUND:                -2.092
REMARK SMILES CCCCCCCCCCCCCC(=O)[O-]
REMARK SMILES IDX 8 1 9 2 10 3 11 4 12 5 13 6 14 7 15 8 16 9 7 10 6 11 5 12
REMARK SMILES IDX 4 13 3 14 2 15 1 16
REMARK H PARENT
REMARK Flexibility Score: inf
ROOT
ATOM      1  C   UNL     1      48.883  10.941  -4.726  1.00  0.00     0.000 C 
ENDROOT
BRANCH   1   2
ATOM      2  C   UNL     1      48.136  12.280  -4.775  1.00  0.00     0.000 C 
BRANCH   2   3
ATOM      3  C   UNL     1      46.885  12.181  -5.659  1.00  0.00     0.000 C 
BRANCH   3   4
ATOM      4  C   UNL     1      47.183  12.415  -7.151  1.00  0.00     0.000 C 
BRANCH   4   5
ATOM      5  C   UNL     1      45.946  12.683  -8.027  1.00  0.00     0.006 C 
BRANCH   5   6
ATOM      6  C   UNL     1      45.918  11.829  -9.300  1.00  0.00     0.053 C 
BRANCH   6   7
ATOM      7  C   UNL     1      44.557  11.241  -9.505  1.00  0.00     0.041 C 
ATOM      8  O   UNL     1      43.598  11.591  -8.768  1.00  0.00    -0.550 OA
ATOM      9  O   UNL     1      44.360  10.268 -10.477  1.00  0.00    -0.550 OA
ENDBRANCH   6   7
ENDBRANCH   5   6
ENDBRANCH   4   5
ENDBRANCH   3   4
ENDBRANCH   2   3
ENDBRANCH   1   2
BRANCH   1  10
ATOM     10  C   UNL     1      50.213  11.025  -5.488  1.00  0.00     0.000 C 
BRANCH  10  11
ATOM     11  C   UNL     1      50.184  10.250  -6.815  1.00  0.00    -0.000 C 
BRANCH  11  12
ATOM     12  C   UNL     1      49.145   9.118  -6.815  1.00  0.00    -0.000 C 
BRANCH  12  13
ATOM     13  C   UNL     1      48.380   9.009  -8.146  1.00  0.00    -0.000 C 
BRANCH  13  14
ATOM     14  C   UNL     1      46.914   8.555  -7.981  1.00  0.00    -0.000 C 
BRANCH  14  15
ATOM     15  C   UNL     1      46.438   8.646  -6.524  1.00  0.00    -0.003 C 
ATOM     16  C   UNL     1      44.965   9.037  -6.449  1.00  0.00     0.004 C 
ENDBRANCH  14  15
ENDBRANCH  13  14
ENDBRANCH  12  13
ENDBRANCH  11  12
ENDBRANCH  10  11
ENDBRANCH   1  10
TORSDOF 12
ENDMDL
MODEL 3
REMARK VINA RESULT:    -4.752     17.031     19.511
REMARK INTER + INTRA:         -10.177
REMARK INTER:                  -8.175
REMARK INTRA:                  -2.002
REMARK UNBOUND:                -2.092
REMARK SMILES CCCCCCCCCCCCCC(=O)[O-]
REMARK SMILES IDX 8 1 9 2 10 3 11 4 12 5 13 6 14 7 15 8 16 9 7 10 6 11 5 12
REMARK SMILES IDX 4 13 3 14 2 15 1 16
REMARK H PARENT
REMARK Flexibility Score: inf
ROOT
ATOM      1  C   UNL     1      35.222  -1.122   4.268  1.00  0.00     0.000 C 
ENDROOT
BRANCH   1   2
ATOM      2  C   UNL     1      36.496  -1.090   5.122  1.00  0.00     0.000 C 
BRANCH   2   3
ATOM      3  C   UNL     1      36.326  -0.157   6.330  1.00  0.00     0.000 C 
BRANCH   3   4
ATOM      4  C   UNL     1      37.667   0.354   6.888  1.00  0.00     0.000 C 
BRANCH   4   5
ATOM      5  C   UNL     1      37.833   1.885   6.880  1.00  0.00     0.006 C 
BRANCH   5   6
ATOM      6  C   UNL     1      37.450   2.521   5.538  1.00  0.00     0.053 C 
BRANCH   6   7
ATOM      7  C   UNL     1      38.519   2.278   4.520  1.00  0.00     0.041 C 
ATOM      8  O   UNL     1      38.302   1.517   3.541  1.00  0.00    -0.550 OA
ATOM      9  O   UNL     1      39.775   2.851   4.682  1.00  0.00    -0.550 OA
ENDBRANCH   6   7
ENDBRANCH   5   6
ENDBRANCH   4   5
ENDBRANCH   3   4
ENDBRANCH   2   3
ENDBRANCH   1   2
BRANCH   1  10
ATOM     10  C   UNL     1      34.447   0.199   4.388  1.00  0.00     0.000 C 
BRANCH  10  11
ATOM     11  C   UNL     1      34.657   1.119   3.175  1.00  0.00    -0.000 C 
BRANCH  11  12
ATOM     12  C   UNL     1      34.353   2.593   3.492  1.00  0.00    -0.000 C 
BRANCH  12  13
ATOM     13  C   UNL     1      33.653   2.779   4.849  1.00  0.00    -0.000 C 
BRANCH  13  14
ATOM     14  C   UNL     1      33.984   4.122   5.536  1.00  0.00    -0.000 C 
BRANCH  14  15
ATOM     15  C   UNL     1      33.896   4.029   7.066  1.00  0.00    -0.003 C 
ATOM     16  C   UNL     1      34.127   2.598   7.545  1.00  0.00     0.004 C 
ENDBRANCH  14  15
ENDBRANCH  13  14
ENDBRANCH  12  13
ENDBRANCH  11  12
ENDBRANCH  10  11
ENDBRANCH   1  10
TORSDOF 12
ENDMDL
MODEL 4
REMARK VINA RESULT:    -4.732     18.414     19.959
REMARK INTER + INTRA:         -10.145
REMARK INTER:                  -8.227
REMARK INTRA:                  -1.918
REMARK UNBOUND:                -2.092
REMARK SMILES CCCCCCCCCCCCCC(=O)[O-]
REMARK SMILES IDX 8 1 9 2 10 3 11 4 12 5 13 6 14 7 15 8 16 9 7 10 6 11 5 12
REMARK SMILES IDX 4 13 3 14 2 15 1 16
REMARK H PARENT
REMARK Flexibility Score: inf
ROOT
ATOM      1  C   UNL     1      35.301  -0.372   6.576  1.00  0.00     0.000 C 
ENDROOT
BRANCH   1   2
ATOM      2  C   UNL     1      36.747  -0.348   6.062  1.00  0.00     0.000 C 
BRANCH   2   3
ATOM      3  C   UNL     1      37.602   0.640   6.869  1.00  0.00     0.000 C 
BRANCH   3   4
ATOM      4  C   UNL     1      37.597   2.061   6.278  1.00  0.00     0.000 C 
BRANCH   4   5
ATOM      5  C   UNL     1      37.149   3.168   7.249  1.00  0.00     0.006 C 
BRANCH   5   6
ATOM      6  C   UNL     1      35.626   3.350   7.286  1.00  0.00     0.053 C 
BRANCH   6   7
ATOM      7  C   UNL     1      35.273   4.684   7.865  1.00  0.00     0.041 C 
ATOM      8  O   UNL     1      35.378   4.885   9.104  1.00  0.00    -0.550 OA
ATOM      9  O   UNL     1      34.779   5.689   7.044  1.00  0.00    -0.550 OA
ENDBRANCH   6   7
ENDBRANCH   5   6
ENDBRANCH   4   5
ENDBRANCH   3   4
ENDBRANCH   2   3
ENDBRANCH   1   2
BRANCH   1  10
ATOM     10  C   UNL     1      34.342   0.241   5.545  1.00  0.00     0.000 C 
BRANCH  10  11
ATOM     11  C   UNL     1      34.596  -0.279   4.120  1.00  0.00    -0.000 C 
BRANCH  11  12
ATOM     12  C   UNL     1      34.518   0.833   3.062  1.00  0.00    -0.000 C 
BRANCH  12  13
ATOM     13  C   UNL     1      35.570   1.936   3.278  1.00  0.00    -0.000 C 
BRANCH  13  14
ATOM     14  C   UNL     1      34.960   3.337   3.495  1.00  0.00    -0.000 C 
BRANCH  14  15
ATOM     15  C   UNL     1      33.424   3.308   3.500  1.00  0.00    -0.003 C 
ATOM     16  C   UNL     1      32.871   3.684   4.872  1.00  0.00     0.004 C 
ENDBRANCH  14  15
ENDBRANCH  13  14
ENDBRANCH  12  13
ENDBRANCH  11  12
ENDBRANCH  10  11
ENDBRANCH   1  10
TORSDOF 12
ENDMDL
MODEL 5
REMARK VINA RESULT:    -4.708      1.479      3.250
REMARK INTER + INTRA:         -10.103
REMARK INTER:                  -8.014
REMARK INTRA:                  -2.089
REMARK UNBOUND:                -2.092
REMARK SMILES CCCCCCCCCCCCCC(=O)[O-]
REMARK SMILES IDX 8 1 9 2 10 3 11 4 12 5 13 6 14 7 15 8 16 9 7 10 6 11 5 12
REMARK SMILES IDX 4 13 3 14 2 15 1 16
REMARK H PARENT
REMARK Flexibility Score: inf
ROOT
ATOM      1  C   UNL     1      49.940   9.842  -7.198  1.00  0.00     0.000 C 
ENDROOT
BRANCH   1   2
ATOM      2  C   UNL     1      48.880   8.871  -7.736  1.00  0.00     0.000 C 
BRANCH   2   3
ATOM      3  C   UNL     1      47.902   9.590  -8.678  1.00  0.00     0.000 C 
BRANCH   3   4
ATOM      4  C   UNL     1      48.235  11.081  -8.865  1.00  0.00     0.000 C 
BRANCH   4   5
ATOM      5  C   UNL     1      47.366  11.816  -9.902  1.00  0.00     0.006 C 
BRANCH   5   6
ATOM      6  C   UNL     1      46.069  12.376  -9.304  1.00  0.00     0.053 C 
BRANCH   6   7
ATOM      7  C   UNL     1      44.897  11.550  -9.732  1.00  0.00     0.041 C 
ATOM      8  O   UNL     1      45.006  10.747 -10.695  1.00  0.00    -0.550 OA
ATOM      9  O   UNL     1      43.670  11.706  -9.100  1.00  0.00    -0.550 OA
ENDBRANCH   6   7
ENDBRANCH   5   6
ENDBRANCH   4   5
ENDBRANCH   3   4
ENDBRANCH   2   3
ENDBRANCH   1   2
BRANCH   1  10
ATOM     10  C   UNL     1      50.291   9.518  -5.739  1.00  0.00     0.000 C 
BRANCH  10  11
ATOM     11  C   UNL     1      50.093  10.722  -4.803  1.00  0.00    -0.000 C 
BRANCH  11  12
ATOM     12  C   UNL     1      49.410  11.908  -5.502  1.00  0.00    -0.000 C 
BRANCH  12  13
ATOM     13  C   UNL     1      48.137  12.376  -4.777  1.00  0.00    -0.000 C 
BRANCH  13  14
ATOM     14  C   UNL     1      46.835  12.036  -5.533  1.00  0.00    -0.000 C 
BRANCH  14  15
ATOM     15  C   UNL     1      46.394  10.582  -5.305  1.00  0.00    -0.003 C 
ATOM     16  C   UNL     1      45.253  10.200  -6.244  1.00  0.00     0.004 C 
ENDBRANCH  14  15
ENDBRANCH  13  14
ENDBRANCH  12  13
ENDBRANCH  11  12
ENDBRANCH  10  11
ENDBRANCH   1  10
TORSDOF 12
ENDMDL
MODEL 6
REMARK VINA RESULT:    -4.698      1.408      3.017
REMARK INTER + INTRA:         -10.085
REMARK INTER:                  -8.226
REMARK INTRA:                  -1.859
REMARK UNBOUND:                -2.092
REMARK SMILES CCCCCCCCCCCCCC(=O)[O-]
REMARK SMILES IDX 8 1 9 2 10 3 11 4 12 5 13 6 14 7 15 8 16 9 7 10 6 11 5 12
REMARK SMILES IDX 4 13 3 14 2 15 1 16
REMARK H PARENT
REMARK Flexibility Score: inf
ROOT
ATOM      1  C   UNL     1      47.440  10.886  -4.672  1.00  0.00     0.000 C 
ENDROOT
BRANCH   1   2
ATOM      2  C   UNL     1      46.246  11.279  -5.553  1.00  0.00     0.000 C 
BRANCH   2   3
ATOM      3  C   UNL     1      46.145  12.805  -5.694  1.00  0.00     0.000 C 
BRANCH   3   4
ATOM      4  C   UNL     1      46.071  13.269  -7.160  1.00  0.00     0.000 C 
BRANCH   4   5
ATOM      5  C   UNL     1      46.685  12.295  -8.182  1.00  0.00     0.006 C 
BRANCH   5   6
ATOM      6  C   UNL     1      46.100  12.461  -9.591  1.00  0.00     0.053 C 
BRANCH   6   7
ATOM      7  C   UNL     1      45.086  11.396  -9.864  1.00  0.00     0.041 C 
ATOM      8  O   UNL     1      45.379  10.413 -10.594  1.00  0.00    -0.550 OA
ATOM      9  O   UNL     1      43.799  11.515  -9.354  1.00  0.00    -0.550 OA
ENDBRANCH   6   7
ENDBRANCH   5   6
ENDBRANCH   4   5
ENDBRANCH   3   4
ENDBRANCH   2   3
ENDBRANCH   1   2
BRANCH   1  10
ATOM     10  C   UNL     1      48.540  11.956  -4.728  1.00  0.00     0.000 C 
BRANCH  10  11
ATOM     11  C   UNL     1      49.863  11.414  -5.291  1.00  0.00    -0.000 C 
BRANCH  11  12
ATOM     12  C   UNL     1      50.073  11.784  -6.768  1.00  0.00    -0.000 C 
BRANCH  12  13
ATOM     13  C   UNL     1      49.956  10.573  -7.709  1.00  0.00    -0.000 C 
BRANCH  13  14
ATOM     14  C   UNL     1      49.675   9.244  -6.975  1.00  0.00    -0.000 C 
BRANCH  14  15
ATOM     15  C   UNL     1      48.947   8.229  -7.868  1.00  0.00    -0.003 C 
ATOM     16  C   UNL     1      47.488   8.627  -8.078  1.00  0.00     0.004 C 
ENDBRANCH  14  15
ENDBRANCH  13  14
ENDBRANCH  12  13
ENDBRANCH  11  12
ENDBRANCH  10  11
ENDBRANCH   1  10
TORSDOF 12
ENDMDL
MODEL 7
REMARK VINA RESULT:    -4.690      2.520      5.196
REMARK INTER + INTRA:         -10.073
REMARK INTER:                  -8.131
REMARK INTRA:                  -1.942
REMARK UNBOUND:                -2.092
REMARK SMILES CCCCCCCCCCCCCC(=O)[O-]
REMARK SMILES IDX 8 1 9 2 10 3 11 4 12 5 13 6 14 7 15 8 16 9 7 10 6 11 5 12
REMARK SMILES IDX 4 13 3 14 2 15 1 16
REMARK H PARENT
REMARK Flexibility Score: inf
ROOT
ATOM      1  C   UNL     1      44.332   9.929  -8.753  1.00  0.00     0.000 C 
ENDROOT
BRANCH   1   2
ATOM      2  C   UNL     1      45.458   9.336  -9.611  1.00  0.00     0.000 C 
BRANCH   2   3
ATOM      3  C   UNL     1      46.490   8.608  -8.738  1.00  0.00     0.000 C 
BRANCH   3   4
ATOM      4  C   UNL     1      47.837   9.349  -8.657  1.00  0.00     0.000 C 
BRANCH   4   5
ATOM      5  C   UNL     1      48.805   8.822  -7.582  1.00  0.00     0.006 C 
BRANCH   5   6
ATOM      6  C   UNL     1      50.018   9.736  -7.371  1.00  0.00     0.053 C 
BRANCH   6   7
ATOM      7  C   UNL     1      50.202  10.033  -5.916  1.00  0.00     0.041 C 
ATOM      8  O   UNL     1      50.099   9.112  -5.063  1.00  0.00    -0.550 OA
ATOM      9  O   UNL     1      50.434  11.337  -5.497  1.00  0.00    -0.550 OA
ENDBRANCH   6   7
ENDBRANCH   5   6
ENDBRANCH   4   5
ENDBRANCH   3   4
ENDBRANCH   2   3
ENDBRANCH   1   2
BRANCH   1  10
ATOM     10  C   UNL     1      44.163  11.430  -9.029  1.00  0.00     0.000 C 
BRANCH  10  11
ATOM     11  C   UNL     1      45.508  12.168  -9.123  1.00  0.00    -0.000 C 
BRANCH  11  12
ATOM     12  C   UNL     1      45.839  12.957  -7.846  1.00  0.00    -0.000 C 
BRANCH  12  13
ATOM     13  C   UNL     1      47.009  12.347  -7.055  1.00  0.00    -0.000 C 
BRANCH  13  14
ATOM     14  C   UNL     1      46.789  12.348  -5.527  1.00  0.00    -0.000 C 
BRANCH  14  15
ATOM     15  C   UNL     1      46.849  10.934  -4.930  1.00  0.00    -0.003 C 
ATOM     16  C   UNL     1      45.674  10.086  -5.406  1.00  0.00     0.004 C 
ENDBRANCH  14  15
ENDBRANCH  13  14
ENDBRANCH  12  13
ENDBRANCH  11  12
ENDBRANCH  10  11
ENDBRANCH   1  10
TORSDOF 12
ENDMDL
MODEL 8
REMARK VINA RESULT:    -4.674     17.625     19.938
REMARK INTER + INTRA:         -10.046
REMARK INTER:                  -7.888
REMARK INTRA:                  -2.158
REMARK UNBOUND:                -2.092
REMARK SMILES CCCCCCCCCCCCCC(=O)[O-]
REMARK SMILES IDX 8 1 9 2 10 3 11 4 12 5 13 6 14 7 15 8 16 9 7 10 6 11 5 12
REMARK SMILES IDX 4 13 3 14 2 15 1 16
REMARK H PARENT
REMARK Flexibility Score: inf
ROOT
ATOM      1  C   UNL     1      35.786   4.025   8.080  1.00  0.00     0.000 C 
ENDROOT
BRANCH   1   2
ATOM      2  C   UNL     1      37.250   4.032   7.622  1.00  0.00     0.000 C 
BRANCH   2   3
ATOM      3  C   UNL     1      37.592   2.749   6.851  1.00  0.00     0.000 C 
BRANCH   3   4
ATOM      4  C   UNL     1      36.669   1.570   7.207  1.00  0.00     0.000 C 
BRANCH   4   5
ATOM      5  C   UNL     1      36.876   0.302   6.359  1.00  0.00     0.006 C 
BRANCH   5   6
ATOM      6  C   UNL     1      35.558  -0.319   5.881  1.00  0.00     0.053 C 
BRANCH   6   7
ATOM      7  C   UNL     1      35.764  -1.059   4.597  1.00  0.00     0.041 C 
ATOM      8  O   UNL     1      36.926  -1.225   4.141  1.00  0.00    -0.550 OA
ATOM      9  O   UNL     1      34.669  -1.518   3.876  1.00  0.00    -0.550 OA
ENDBRANCH   6   7
ENDBRANCH   5   6
ENDBRANCH   4   5
ENDBRANCH   3   4
ENDBRANCH   2   3
ENDBRANCH   1   2
BRANCH   1  10
ATOM     10  C   UNL     1      35.060   5.298   7.623  1.00  0.00     0.000 C 
BRANCH  10  11
ATOM     11  C   UNL     1      34.160   5.059   6.400  1.00  0.00    -0.000 C 
BRANCH  11  12
ATOM     12  C   UNL     1      33.440   3.701   6.453  1.00  0.00    -0.000 C 
BRANCH  12  13
ATOM     13  C   UNL     1      33.647   2.867   5.177  1.00  0.00    -0.000 C 
BRANCH  13  14
ATOM     14  C   UNL     1      34.841   3.335   4.319  1.00  0.00    -0.000 C 
BRANCH  14  15
ATOM     15  C   UNL     1      35.229   2.303   3.249  1.00  0.00    -0.003 C 
ATOM     16  C   UNL     1      36.742   2.239   3.070  1.00  0.00     0.004 C 
ENDBRANCH  14  15
ENDBRANCH  13  14
ENDBRANCH  12  13
ENDBRANCH  11  12
ENDBRANCH  10  11
ENDBRANCH   1  10
TORSDOF 12
ENDMDL
MODEL 9
REMARK VINA RESULT:    -4.639      2.007      4.467
REMARK INTER + INTRA:          -9.986
REMARK INTER:                  -8.104
REMARK INTRA:                  -1.882
REMARK UNBOUND:                -2.092
REMARK SMILES CCCCCCCCCCCCCC(=O)[O-]
REMARK SMILES IDX 8 1 9 2 10 3 11 4 12 5 13 6 14 7 15 8 16 9 7 10 6 11 5 12
REMARK SMILES IDX 4 13 3 14 2 15 1 16
REMARK H PARENT
REMARK Flexibility Score: inf
ROOT
ATOM      1  C   UNL     1      48.526  11.458  -4.705  1.00  0.00     0.000 C 
ENDROOT
BRANCH   1   2
ATOM      2  C   UNL     1      49.736  11.651  -5.628  1.00  0.00     0.000 C 
BRANCH   2   3
ATOM      3  C   UNL     1      50.378  10.302  -5.984  1.00  0.00     0.000 C 
BRANCH   3   4
ATOM      4  C   UNL     1      50.017   9.820  -7.400  1.00  0.00     0.000 C 
BRANCH   4   5
ATOM      5  C   UNL     1      49.216   8.507  -7.456  1.00  0.00     0.006 C 
BRANCH   5   6
ATOM      6  C   UNL     1      47.768   8.709  -7.920  1.00  0.00     0.053 C 
BRANCH   6   7
ATOM      7  C   UNL     1      46.843   8.748  -6.745  1.00  0.00     0.041 C 
ATOM      8  O   UNL     1      47.202   8.263  -5.639  1.00  0.00    -0.550 OA
ATOM      9  O   UNL     1      45.565   9.274  -6.884  1.00  0.00    -0.550 OA
ENDBRANCH   6   7
ENDBRANCH   5   6
ENDBRANCH   4   5
ENDBRANCH   3   4
ENDBRANCH   2   3
ENDBRANCH   1   2
BRANCH   1  10
ATOM     10  C   UNL     1      47.293  12.190  -5.255  1.00  0.00     0.000 C 
BRANCH  10  11
ATOM     11  C   UNL     1      47.348  12.375  -6.781  1.00  0.00    -0.000 C 
BRANCH  11  12
ATOM     12  C   UNL     1      46.046  12.960  -7.352  1.00  0.00    -0.000 C 
BRANCH  12  13
ATOM     13  C   UNL     1      45.861  12.655  -8.849  1.00  0.00    -0.000 C 
BRANCH  13  14
ATOM     14  C   UNL     1      47.073  11.944  -9.489  1.00  0.00    -0.000 C 
BRANCH  14  15
ATOM     15  C   UNL     1      46.657  10.990 -10.618  1.00  0.00    -0.003 C 
ATOM     16  C   UNL     1      45.327  10.312 -10.304  1.00  0.00     0.004 C 
ENDBRANCH  14  15
ENDBRANCH  13  14
ENDBRANCH  12  13
ENDBRANCH  11  12
ENDBRANCH  10  11
ENDBRANCH   1  10
TORSDOF 12
ENDMDL
