MODEL 1
REMARK VINA RESULT:    -2.865      0.000      0.000
REMARK INTER + INTRA:          -3.237
REMARK INTER:                  -3.200
REMARK INTRA:                  -0.037
REMARK UNBOUND:                -0.037
REMARK SMILES CCCC(=O)[O-]
REMARK SMILES IDX 3 1 4 2 5 3 6 4 2 5 1 6
REMARK H PARENT
REMARK Flexibility Score: inf
ROOT
ATOM      1  C   UNL     1       6.914   5.250  17.705  1.00  0.00     0.052 C 
ENDROOT
BRANCH   1   2
ATOM      2  C   UNL     1       6.203   4.920  18.978  1.00  0.00     0.041 C 
ATOM      3  O   UNL     1       6.080   5.791  19.880  1.00  0.00    -0.550 OA
ATOM      4  O   UNL     1       5.717   3.635  19.192  1.00  0.00    -0.550 OA
ENDBRANCH   1   2
BRANCH   1   5
ATOM      5  C   UNL     1       6.000   6.047  16.771  1.00  0.00     0.003 C 
ATOM      6  C   UNL     1       6.358   7.530  16.785  1.00  0.00     0.004 C 
ENDBRANCH   1   5
TORSDOF 2
ENDMDL
MODEL 2
REMARK VINA RESULT:    -2.829      1.600      2.365
REMARK INTER + INTRA:          -3.197
REMARK INTER:                  -3.163
REMARK INTRA:                  -0.034
REMARK UNBOUND:                -0.037
REMARK SMILES CCCC(=O)[O-]
REMARK SMILES IDX 3 1 4 2 5 3 6 4 2 5 1 6
REMARK H PARENT
REMARK Flexibility Score: inf
ROOT
ATOM      1  C   UNL     1       6.388   6.914  17.039  1.00  0.00     0.052 C 
ENDROOT
BRANCH   1   2
ATOM      2  C   UNL     1       6.712   6.536  18.449  1.00  0.00     0.041 C 
ATOM      3  O   UNL     1       7.240   5.421  18.701  1.00  0.00    -0.550 OA
ATOM      4  O   UNL     1       6.388   7.395  19.492  1.00  0.00    -0.550 OA
ENDBRANCH   1   2
BRANCH   1   5
ATOM      5  C   UNL     1       6.622   5.728  16.099  1.00  0.00     0.003 C 
ATOM      6  C   UNL     1       5.311   5.019  15.771  1.00  0.00     0.004 C 
ENDBRANCH   1   5
TORSDOF 2
ENDMDL
MODEL 3
REMARK VINA RESULT:    -2.814      3.485      3.725
REMARK INTER + INTRA:          -3.180
REMARK INTER:                  -3.144
REMARK INTRA:                  -0.036
REMARK UNBOUND:                -0.037
REMARK SMILES CCCC(=O)[O-]
REMARK SMILES IDX 3 1 4 2 5 3 6 4 2 5 1 6
REMARK H PARENT
REMARK Flexibility Score: inf
ROOT
ATOM      1  C   UNL     1       7.383   5.296  16.451  1.00  0.00     0.052 C 
ENDROOT
BRANCH   1   2
ATOM      2  C   UNL     1       8.063   5.127  15.130  1.00  0.00     0.041 C 
ATOM      3  O   UNL     1       9.034   5.867  14.818  1.00  0.00    -0.550 OA
ATOM      4  O   UNL     1       7.596   4.186  14.221  1.00  0.00    -0.550 OA
ENDBRANCH   1   2
BRANCH   1   5
ATOM      5  C   UNL     1       6.122   6.152  16.299  1.00  0.00     0.003 C 
ATOM      6  C   UNL     1       6.345   7.560  16.843  1.00  0.00     0.004 C 
ENDBRANCH   1   5
TORSDOF 2
ENDMDL
MODEL 4
REMARK VINA RESULT:    -2.805      1.279      1.787
REMARK INTER + INTRA:          -3.169
REMARK INTER:                  -3.117
REMARK INTRA:                  -0.052
REMARK UNBOUND:                -0.037
REMARK SMILES CCCC(=O)[O-]
REMARK SMILES IDX 3 1 4 2 5 3 6 4 2 5 1 6
REMARK H PARENT
REMARK Flexibility Score: inf
ROOT
ATOM      1  C   UNL     1       6.312   6.042  18.121  1.00  0.00     0.052 C 
ENDROOT
BRANCH   1   2
ATOM      2  C   UNL     1       6.666   4.643  18.515  1.00  0.00     0.041 C 
ATOM      3  O   UNL     1       5.830   3.925  19.123  1.00  0.00    -0.550 OA
ATOM      4  O   UNL     1       7.938   4.147  18.254  1.00  0.00    -0.550 OA
ENDBRANCH   1   2
BRANCH   1   5
ATOM      5  C   UNL     1       6.375   6.202  16.600  1.00  0.00     0.003 C 
ATOM      6  C   UNL     1       5.497   5.169  15.901  1.00  0.00     0.004 C 
ENDBRANCH   1   5
TORSDOF 2
ENDMDL
MODEL 5
REMARK VINA RESULT:    -2.771      3.034      3.623
REMARK INTER + INTRA:          -3.132
REMARK INTER:                  -3.095
REMARK INTRA:                  -0.038
REMARK UNBOUND:                -0.037
REMARK SMILES CCCC(=O)[O-]
REMARK SMILES IDX 3 1 4 2 5 3 6 4 2 5 1 6
REMARK H PARENT
REMARK Flexibility Score: inf
ROOT
ATOM      1  C   UNL     1       6.227   5.821  16.231  1.00  0.00     0.052 C 
ENDROOT
BRANCH   1   2
ATOM      2  C   UNL     1       7.510   5.476  15.543  1.00  0.00     0.041 C 
ATOM      3  O   UNL     1       7.558   4.506  14.741  1.00  0.00    -0.550 OA
ATOM      4  O   UNL     1       8.666   6.194  15.825  1.00  0.00    -0.550 OA
ENDBRANCH   1   2
BRANCH   1   5
ATOM      5  C   UNL     1       6.398   7.082  17.082  1.00  0.00     0.003 C 
ATOM      6  C   UNL     1       6.455   6.739  18.568  1.00  0.00     0.004 C 
ENDBRANCH   1   5
TORSDOF 2
ENDMDL
MODEL 6
REMARK VINA RESULT:    -2.715      2.644      3.134
REMARK INTER + INTRA:          -3.069
REMARK INTER:                  -3.064
REMARK INTRA:                  -0.005
REMARK UNBOUND:                -0.037
REMARK SMILES CCCC(=O)[O-]
REMARK SMILES IDX 3 1 4 2 5 3 6 4 2 5 1 6
REMARK H PARENT
REMARK Flexibility Score: inf
ROOT
ATOM      1  C   UNL     1       6.399   6.644  17.130  1.00  0.00     0.052 C 
ENDROOT
BRANCH   1   2
ATOM      2  C   UNL     1       6.381   5.602  16.057  1.00  0.00     0.041 C 
ATOM      3  O   UNL     1       7.420   5.366  15.385  1.00  0.00    -0.550 OA
ATOM      4  O   UNL     1       5.204   4.924  15.764  1.00  0.00    -0.550 OA
ENDBRANCH   1   2
BRANCH   1   5
ATOM      5  C   UNL     1       6.410   5.988  18.513  1.00  0.00     0.003 C 
ATOM      6  C   UNL     1       6.489   7.037  19.618  1.00  0.00     0.004 C 
ENDBRANCH   1   5
TORSDOF 2
ENDMDL
MODEL 7
REMARK VINA RESULT:    -2.648      7.894      8.629
REMARK INTER + INTRA:          -2.994
REMARK INTER:                  -2.922
REMARK INTRA:                  -0.072
REMARK UNBOUND:                -0.037
REMARK SMILES CCCC(=O)[O-]
REMARK SMILES IDX 3 1 4 2 5 3 6 4 2 5 1 6
REMARK H PARENT
REMARK Flexibility Score: inf
ROOT
ATOM      1  C   UNL     1       5.311  12.081  23.083  1.00  0.00     0.052 C 
ENDROOT
BRANCH   1   2
ATOM      2  C   UNL     1       6.792  11.937  22.933  1.00  0.00     0.041 C 
ATOM      3  O   UNL     1       7.564  12.350  23.839  1.00  0.00    -0.550 OA
ATOM      4  O   UNL     1       7.325  11.390  21.772  1.00  0.00    -0.550 OA
ENDBRANCH   1   2
BRANCH   1   5
ATOM      5  C   UNL     1       4.927  13.557  23.214  1.00  0.00     0.003 C 
ATOM      6  C   UNL     1       5.264  14.329  21.942  1.00  0.00     0.004 C 
ENDBRANCH   1   5
TORSDOF 2
ENDMDL
MODEL 8
REMARK VINA RESULT:    -2.556      3.007      3.392
REMARK INTER + INTRA:          -2.892
REMARK INTER:                  -2.861
REMARK INTRA:                  -0.031
REMARK UNBOUND:                -0.037
REMARK SMILES CCCC(=O)[O-]
REMARK SMILES IDX 3 1 4 2 5 3 6 4 2 5 1 6
REMARK H PARENT
REMARK Flexibility Score: inf
ROOT
ATOM      1  C   UNL     1       7.567   5.164  16.249  1.00  0.00     0.052 C 
ENDROOT
BRANCH   1   2
ATOM      2  C   UNL     1       6.171   5.696  16.166  1.00  0.00     0.041 C 
ATOM      3  O   UNL     1       5.922   6.879  16.521  1.00  0.00    -0.550 OA
ATOM      4  O   UNL     1       5.136   4.872  15.744  1.00  0.00    -0.550 OA
ENDBRANCH   1   2
BRANCH   1   5
ATOM      5  C   UNL     1       8.276   5.308  14.900  1.00  0.00     0.003 C 
ATOM      6  C   UNL     1       8.074   4.066  14.037  1.00  0.00     0.004 C 
ENDBRANCH   1   5
TORSDOF 2
ENDMDL
MODEL 9
REMARK VINA RESULT:    -2.489      7.644      8.300
REMARK INTER + INTRA:          -2.817
REMARK INTER:                  -2.808
REMARK INTRA:                  -0.009
REMARK UNBOUND:                -0.037
REMARK SMILES CCCC(=O)[O-]
REMARK SMILES IDX 3 1 4 2 5 3 6 4 2 5 1 6
REMARK H PARENT
REMARK Flexibility Score: inf
ROOT
ATOM      1  C   UNL     1       5.687  12.248  22.988  1.00  0.00     0.052 C 
ENDROOT
BRANCH   1   2
ATOM      2  C   UNL     1       4.914  11.051  23.441  1.00  0.00     0.041 C 
ATOM      3  O   UNL     1       4.004  11.174  24.303  1.00  0.00    -0.550 OA
ATOM      4  O   UNL     1       5.229   9.791  22.948  1.00  0.00    -0.550 OA
ENDBRANCH   1   2
BRANCH   1   5
ATOM      5  C   UNL     1       4.781  13.481  22.930  1.00  0.00     0.003 C 
ATOM      6  C   UNL     1       5.298  14.496  21.915  1.00  0.00     0.004 C 
ENDBRANCH   1   5
TORSDOF 2
ENDMDL
