MODEL 1
REMARK VINA RESULT:    -3.802      0.000      0.000
REMARK INTER + INTRA:          -6.227
REMARK INTER:                  -5.580
REMARK INTRA:                  -0.647
REMARK UNBOUND:                -0.647
REMARK SMILES C=C1C=C[C@H](C(C)C)CCC(C)=CCC1
REMARK SMILES IDX 3 1 4 2 5 3 9 4 10 5 11 6 12 7 13 8 6 10 7 11 8 12 2 13 1 14
REMARK SMILES IDX 15 15 14 16
REMARK H PARENT
REMARK Flexibility Score: 70.00
ROOT
ATOM      1  C   UNL     1     167.322 170.197 198.109  1.00  0.00    -0.001 C 
ATOM      2  C   UNL     1     166.630 170.179 199.261  1.00  0.00    -0.023 C 
ENDROOT
BRANCH   2   3
ATOM      3  C   UNL     1     165.813 168.995 199.747  1.00  0.00     0.014 C 
BRANCH   3   4
ATOM      4  C   UNL     1     166.452 168.313 200.991  1.00  0.00     0.012 C 
BRANCH   4   5
ATOM      5  C   UNL     1     167.983 168.500 201.143  1.00  0.00     0.031 C 
BRANCH   5   6
ATOM      6  C   UNL     1     168.825 167.311 200.701  1.00  0.00    -0.077 C 
ATOM      7  C   UNL     1     169.029 166.183 201.685  1.00  0.00     0.039 C 
ATOM      8  C   UNL     1     169.500 167.237 199.526  1.00  0.00    -0.028 CG0
ATOM      9  G   UNL     1     169.340 168.128 198.317  1.00  0.00     0.000 G0
ENDBRANCH   5   6
ENDBRANCH   4   5
ENDBRANCH   3   4
BRANCH   3  10
ATOM     10  C   UNL     1     164.320 169.406 199.955  1.00  0.00    -0.010 C 
ATOM     11  C   UNL     1     163.476 169.136 198.699  1.00  0.00     0.008 C 
ATOM     12  C   UNL     1     163.645 168.770 201.184  1.00  0.00     0.008 C 
ENDBRANCH   3  10
ENDBRANCH   2   3
BRANCH   1  13
ATOM     13  C   UNL     1     167.326 169.089 197.133  1.00  0.00    -0.055 C 
ATOM     14  C   UNL     1     166.622 169.213 196.007  1.00  0.00     0.012 C 
BRANCH  13  15
ATOM     15  C   UNL     1     168.132 167.836 197.395  1.00  0.00     0.039 C 
BRANCH  15  16
ATOM     16  C   UNL     1     169.360 168.122 198.290  1.00  0.00     0.032 CG0
ATOM     17  G   UNL     1     169.490 167.249 199.515  1.00  0.00     0.000 G0
ENDBRANCH  15  16
ENDBRANCH  13  15
ENDBRANCH   1  13
TORSDOF 1
ENDMDL
MODEL 2
REMARK VINA RESULT:    -3.791      4.706      6.268
REMARK INTER + INTRA:          -6.210
REMARK INTER:                  -5.508
REMARK INTRA:                  -0.702
REMARK UNBOUND:                -0.647
REMARK SMILES C=C1C=C[C@H](C(C)C)CCC(C)=CCC1
REMARK SMILES IDX 3 1 4 2 5 3 9 4 10 5 11 6 12 7 13 8 6 10 7 11 8 12 2 13 1 14
REMARK SMILES IDX 15 15 14 16
REMARK H PARENT
REMARK Flexibility Score: 70.00
ROOT
ATOM      1  C   UNL     1     163.940 163.718 202.113  1.00  0.00    -0.001 C 
ATOM      2  C   UNL     1     164.224 162.679 201.310  1.00  0.00    -0.023 C 
ENDROOT
BRANCH   2   3
ATOM      3  C   UNL     1     164.846 162.811 199.930  1.00  0.00     0.014 C 
BRANCH   3   4
ATOM      4  C   UNL     1     166.244 162.132 199.851  1.00  0.00     0.012 C 
BRANCH   4   5
ATOM      5  C   UNL     1     167.115 162.244 201.127  1.00  0.00     0.031 C 
BRANCH   5   6
ATOM      6  C   UNL     1     167.980 163.493 201.211  1.00  0.00    -0.077 C 
ATOM      7  C   UNL     1     169.282 163.506 200.444  1.00  0.00     0.039 C 
ATOM      8  C   UNL     1     167.724 164.558 202.013  1.00  0.00    -0.028 CG0
ATOM      9  G   UNL     1     166.438 164.873 202.739  1.00  0.00     0.000 G0
ENDBRANCH   5   6
ENDBRANCH   4   5
ENDBRANCH   3   4
BRANCH   3  10
ATOM     10  C   UNL     1     163.849 162.327 198.829  1.00  0.00    -0.010 C 
ATOM     11  C   UNL     1     162.982 163.480 198.300  1.00  0.00     0.008 C 
ATOM     12  C   UNL     1     164.507 161.585 197.651  1.00  0.00     0.008 C 
ENDBRANCH   3  10
ENDBRANCH   2   3
BRANCH   1  13
ATOM     13  C   UNL     1     164.137 165.131 201.732  1.00  0.00    -0.055 C 
ATOM     14  C   UNL     1     163.127 165.801 201.174  1.00  0.00     0.012 C 
BRANCH  13  15
ATOM     15  C   UNL     1     165.460 165.820 201.989  1.00  0.00     0.039 C 
BRANCH  15  16
ATOM     16  C   UNL     1     166.442 164.905 202.754  1.00  0.00     0.032 CG0
ATOM     17  G   UNL     1     167.714 164.554 202.018  1.00  0.00     0.000 G0
ENDBRANCH  15  16
ENDBRANCH  13  15
ENDBRANCH   1  13
TORSDOF 1
ENDMDL
MODEL 3
REMARK VINA RESULT:    -3.675      4.145      5.825
REMARK INTER + INTRA:          -6.040
REMARK INTER:                  -5.417
REMARK INTRA:                  -0.623
REMARK UNBOUND:                -0.647
REMARK SMILES C=C1C=C[C@H](C(C)C)CCC(C)=CCC1
REMARK SMILES IDX 3 1 4 2 5 3 9 4 10 5 11 6 12 7 13 8 6 10 7 11 8 12 2 13 1 14
REMARK SMILES IDX 15 15 14 16
REMARK H PARENT
REMARK Flexibility Score: 70.00
ROOT
ATOM      1  C   UNL     1     169.126 163.282 198.677  1.00  0.00    -0.001 C 
ATOM      2  C   UNL     1     169.354 163.787 199.901  1.00  0.00    -0.023 C 
ENDROOT
BRANCH   2   3
ATOM      3  C   UNL     1     168.547 164.912 200.525  1.00  0.00     0.014 C 
BRANCH   3   4
ATOM      4  C   UNL     1     167.875 164.481 201.861  1.00  0.00     0.012 C 
BRANCH   4   5
ATOM      5  C   UNL     1     167.270 163.055 201.875  1.00  0.00     0.031 C 
BRANCH   5   6
ATOM      6  C   UNL     1     165.851 162.950 201.334  1.00  0.00    -0.077 C 
ATOM      7  C   UNL     1     164.710 163.245 202.278  1.00  0.00     0.039 C 
ATOM      8  C   UNL     1     165.528 162.503 200.094  1.00  0.00    -0.028 CG0
ATOM      9  G   UNL     1     166.456 162.307 198.918  1.00  0.00     0.000 G0
ENDBRANCH   5   6
ENDBRANCH   4   5
ENDBRANCH   3   4
BRANCH   3  10
ATOM     10  C   UNL     1     169.413 166.207 200.646  1.00  0.00    -0.010 C 
ATOM     11  C   UNL     1     169.466 166.983 199.321  1.00  0.00     0.008 C 
ATOM     12  C   UNL     1     168.995 167.152 201.788  1.00  0.00     0.008 C 
ENDBRANCH   3  10
ENDBRANCH   2   3
BRANCH   1  13
ATOM     13  C   UNL     1     168.099 163.802 197.750  1.00  0.00    -0.055 C 
ATOM     14  C   UNL     1     168.483 164.509 196.686  1.00  0.00     0.012 C 
BRANCH  13  15
ATOM     15  C   UNL     1     166.632 163.520 197.990  1.00  0.00     0.039 C 
BRANCH  15  16
ATOM     16  C   UNL     1     166.428 162.287 198.900  1.00  0.00     0.032 CG0
ATOM     17  G   UNL     1     165.535 162.502 200.099  1.00  0.00     0.000 G0
ENDBRANCH  15  16
ENDBRANCH  13  15
ENDBRANCH   1  13
TORSDOF 1
ENDMDL
MODEL 4
REMARK VINA RESULT:    -3.584      2.640      3.933
REMARK INTER + INTRA:          -5.908
REMARK INTER:                  -5.260
REMARK INTRA:                  -0.647
REMARK UNBOUND:                -0.647
REMARK SMILES C=C1C=C[C@H](C(C)C)CCC(C)=CCC1
REMARK SMILES IDX 3 1 4 2 5 3 9 4 10 5 11 6 12 7 13 8 6 10 7 11 8 12 2 13 1 14
REMARK SMILES IDX 15 15 14 16
REMARK H PARENT
REMARK Flexibility Score: 70.00
ROOT
ATOM      1  C   UNL     1     162.790 168.684 199.069  1.00  0.00    -0.001 C 
ATOM      2  C   UNL     1     162.652 167.888 200.142  1.00  0.00    -0.023 C 
ENDROOT
BRANCH   2   3
ATOM      3  C   UNL     1     163.509 166.664 200.412  1.00  0.00     0.014 C 
BRANCH   3   4
ATOM      4  C   UNL     1     164.476 166.879 201.613  1.00  0.00     0.012 C 
BRANCH   4   5
ATOM      5  C   UNL     1     164.875 168.350 201.894  1.00  0.00     0.031 C 
BRANCH   5   6
ATOM      6  C   UNL     1     166.210 168.780 201.304  1.00  0.00    -0.077 C 
ATOM      7  C   UNL     1     167.470 168.377 202.033  1.00  0.00     0.039 C 
ATOM      8  C   UNL     1     166.352 169.596 200.228  1.00  0.00    -0.028 CG0
ATOM      9  G   UNL     1     165.289 169.998 199.233  1.00  0.00     0.000 G0
ENDBRANCH   5   6
ENDBRANCH   4   5
ENDBRANCH   3   4
BRANCH   3  10
ATOM     10  C   UNL     1     162.619 165.387 200.545  1.00  0.00    -0.010 C 
ATOM     11  C   UNL     1     162.829 164.423 199.367  1.00  0.00     0.008 C 
ATOM     12  C   UNL     1     162.780 164.629 201.875  1.00  0.00     0.008 C 
ENDBRANCH   3  10
ENDBRANCH   2   3
BRANCH   1  13
ATOM     13  C   UNL     1     163.754 168.436 197.978  1.00  0.00    -0.055 C 
ATOM     14  C   UNL     1     163.387 167.668 196.950  1.00  0.00     0.012 C 
BRANCH  13  15
ATOM     15  C   UNL     1     165.132 169.059 198.011  1.00  0.00     0.039 C 
BRANCH  15  16
ATOM     16  C   UNL     1     165.302 170.007 199.220  1.00  0.00     0.032 CG0
ATOM     17  G   UNL     1     166.346 169.594 200.231  1.00  0.00     0.000 G0
ENDBRANCH  15  16
ENDBRANCH  13  15
ENDBRANCH   1  13
TORSDOF 1
ENDMDL
MODEL 5
REMARK VINA RESULT:    -3.538      2.202      5.077
REMARK INTER + INTRA:          -5.839
REMARK INTER:                  -5.206
REMARK INTRA:                  -0.633
REMARK UNBOUND:                -0.647
REMARK SMILES C=C1C=C[C@H](C(C)C)CCC(C)=CCC1
REMARK SMILES IDX 3 1 4 2 5 3 9 4 10 5 11 6 12 7 13 8 6 10 7 11 8 12 2 13 1 14
REMARK SMILES IDX 15 15 14 16
REMARK H PARENT
REMARK Flexibility Score: 70.00
ROOT
ATOM      1  C   UNL     1     167.883 168.992 201.309  1.00  0.00    -0.001 C 
ATOM      2  C   UNL     1     167.661 169.533 200.099  1.00  0.00    -0.023 C 
ENDROOT
BRANCH   2   3
ATOM      3  C   UNL     1     167.057 168.781 198.926  1.00  0.00     0.014 C 
BRANCH   3   4
ATOM      4  C   UNL     1     165.630 169.293 198.574  1.00  0.00     0.012 C 
BRANCH   4   5
ATOM      5  C   UNL     1     164.829 169.904 199.752  1.00  0.00     0.031 C 
BRANCH   5   6
ATOM      6  C   UNL     1     163.865 168.949 200.440  1.00  0.00    -0.077 C 
ATOM      7  C   UNL     1     162.532 168.690 199.778  1.00  0.00     0.039 C 
ATOM      8  C   UNL     1     164.065 168.396 201.663  1.00  0.00    -0.028 CG0
ATOM      9  G   UNL     1     165.353 168.353 202.452  1.00  0.00     0.000 G0
ENDBRANCH   5   6
ENDBRANCH   4   5
ENDBRANCH   3   4
BRANCH   3  10
ATOM     10  C   UNL     1     168.039 168.777 197.711  1.00  0.00    -0.010 C 
ATOM     11  C   UNL     1     169.476 168.443 198.143  1.00  0.00     0.008 C 
ATOM     12  C   UNL     1     167.617 167.861 196.548  1.00  0.00     0.008 C 
ENDBRANCH   3  10
ENDBRANCH   2   3
BRANCH   1  13
ATOM     13  C   UNL     1     167.628 167.574 201.636  1.00  0.00    -0.055 C 
ATOM     14  C   UNL     1     168.607 166.683 201.471  1.00  0.00     0.012 C 
BRANCH  13  15
ATOM     15  C   UNL     1     166.282 167.138 202.172  1.00  0.00     0.039 C 
BRANCH  15  16
ATOM     16  C   UNL     1     165.361 168.346 202.455  1.00  0.00     0.032 CG0
ATOM     17  G   UNL     1     164.069 168.379 201.673  1.00  0.00     0.000 G0
ENDBRANCH  15  16
ENDBRANCH  13  15
ENDBRANCH   1  13
TORSDOF 1
ENDMDL
MODEL 6
REMARK VINA RESULT:    -3.524      5.159      6.853
REMARK INTER + INTRA:          -5.818
REMARK INTER:                  -5.113
REMARK INTRA:                  -0.705
REMARK UNBOUND:                -0.647
REMARK SMILES C=C1C=C[C@H](C(C)C)CCC(C)=CCC1
REMARK SMILES IDX 3 1 4 2 5 3 9 4 10 5 11 6 12 7 13 8 6 10 7 11 8 12 2 13 1 14
REMARK SMILES IDX 15 15 14 16
REMARK H PARENT
REMARK Flexibility Score: 70.00
ROOT
ATOM      1  C   UNL     1     167.940 161.978 199.824  1.00  0.00    -0.001 C 
ATOM      2  C   UNL     1     167.191 161.944 200.939  1.00  0.00    -0.023 C 
ENDROOT
BRANCH   2   3
ATOM      3  C   UNL     1     166.642 163.177 201.636  1.00  0.00     0.014 C 
BRANCH   3   4
ATOM      4  C   UNL     1     165.116 163.358 201.390  1.00  0.00     0.012 C 
BRANCH   4   5
ATOM      5  C   UNL     1     164.538 162.588 200.176  1.00  0.00     0.031 C 
BRANCH   5   6
ATOM      6  C   UNL     1     164.238 163.442 198.953  1.00  0.00    -0.077 C 
ATOM      7  C   UNL     1     162.946 164.223 198.933  1.00  0.00     0.039 C 
ATOM      8  C   UNL     1     164.995 163.470 197.826  1.00  0.00    -0.028 CG0
ATOM      9  G   UNL     1     166.394 162.930 197.645  1.00  0.00     0.000 G0
ENDBRANCH   5   6
ENDBRANCH   4   5
ENDBRANCH   3   4
BRANCH   3  10
ATOM     10  C   UNL     1     167.039 163.177 203.146  1.00  0.00    -0.010 C 
ATOM     11  C   UNL     1     166.495 161.938 203.877  1.00  0.00     0.008 C 
ATOM     12  C   UNL     1     168.549 163.319 203.413  1.00  0.00     0.008 C 
ENDBRANCH   3  10
ENDBRANCH   2   3
BRANCH   1  13
ATOM     13  C   UNL     1     168.383 163.225 199.167  1.00  0.00    -0.055 C 
ATOM     14  C   UNL     1     169.545 163.773 199.528  1.00  0.00     0.012 C 
BRANCH  13  15
ATOM     15  C   UNL     1     167.543 163.863 198.083  1.00  0.00     0.039 C 
BRANCH  15  16
ATOM     16  C   UNL     1     166.397 162.932 197.624  1.00  0.00     0.032 CG0
ATOM     17  G   UNL     1     165.000 163.466 197.835  1.00  0.00     0.000 G0
ENDBRANCH  15  16
ENDBRANCH  13  15
ENDBRANCH   1  13
TORSDOF 1
ENDMDL
MODEL 7
REMARK VINA RESULT:    -3.509      1.796      3.192
REMARK INTER + INTRA:          -5.797
REMARK INTER:                  -5.073
REMARK INTRA:                  -0.724
REMARK UNBOUND:                -0.647
REMARK SMILES C=C1C=C[C@H](C(C)C)CCC(C)=CCC1
REMARK SMILES IDX 3 1 4 2 5 3 9 4 10 5 11 6 12 7 13 8 6 10 7 11 8 12 2 13 1 14
REMARK SMILES IDX 15 15 14 16
REMARK H PARENT
REMARK Flexibility Score: 70.00
ROOT
ATOM      1  C   UNL     1     164.301 169.840 199.602  1.00  0.00    -0.001 C 
ATOM      2  C   UNL     1     165.110 169.952 200.669  1.00  0.00    -0.023 C 
ENDROOT
BRANCH   2   3
ATOM      3  C   UNL     1     165.626 168.772 201.476  1.00  0.00     0.014 C 
BRANCH   3   4
ATOM      4  C   UNL     1     167.175 168.642 201.397  1.00  0.00     0.012 C 
BRANCH   4   5
ATOM      5  C   UNL     1     167.811 169.037 200.041  1.00  0.00     0.031 C 
BRANCH   5   6
ATOM      6  C   UNL     1     167.945 167.903 199.035  1.00  0.00    -0.077 C 
ATOM      7  C   UNL     1     169.118 166.963 199.179  1.00  0.00     0.039 C 
ATOM      8  C   UNL     1     167.149 167.736 197.949  1.00  0.00    -0.028 CG0
ATOM      9  G   UNL     1     165.830 168.415 197.663  1.00  0.00     0.000 G0
ENDBRANCH   5   6
ENDBRANCH   4   5
ENDBRANCH   3   4
BRANCH   3  10
ATOM     10  C   UNL     1     165.074 168.822 202.936  1.00  0.00    -0.010 C 
ATOM     11  C   UNL     1     164.528 170.215 203.291  1.00  0.00     0.008 C 
ATOM     12  C   UNL     1     164.017 167.750 203.259  1.00  0.00     0.008 C 
ENDBRANCH   3  10
ENDBRANCH   2   3
BRANCH   1  13
ATOM     13  C   UNL     1     163.755 168.558 199.113  1.00  0.00    -0.055 C 
ATOM     14  C   UNL     1     162.525 168.194 199.480  1.00  0.00     0.012 C 
BRANCH  13  15
ATOM     15  C   UNL     1     164.569 167.677 198.191  1.00  0.00     0.039 C 
BRANCH  15  16
ATOM     16  C   UNL     1     165.820 168.410 197.657  1.00  0.00     0.032 CG0
ATOM     17  G   UNL     1     167.142 167.734 197.940  1.00  0.00     0.000 G0
ENDBRANCH  15  16
ENDBRANCH  13  15
ENDBRANCH   1  13
TORSDOF 1
ENDMDL
MODEL 8
REMARK VINA RESULT:    -3.495      5.079      7.040
REMARK INTER + INTRA:          -5.777
REMARK INTER:                  -5.149
REMARK INTRA:                  -0.628
REMARK UNBOUND:                -0.647
REMARK SMILES C=C1C=C[C@H](C(C)C)CCC(C)=CCC1
REMARK SMILES IDX 3 1 4 2 5 3 9 4 10 5 11 6 12 7 13 8 6 10 7 11 8 12 2 13 1 14
REMARK SMILES IDX 15 15 14 16
REMARK H PARENT
REMARK Flexibility Score: 70.00
ROOT
ATOM      1  C   UNL     1     164.393 162.833 199.827  1.00  0.00    -0.001 C 
ATOM      2  C   UNL     1     165.548 162.226 199.505  1.00  0.00    -0.023 C 
ENDROOT
BRANCH   2   3
ATOM      3  C   UNL     1     166.918 162.705 199.955  1.00  0.00     0.014 C 
BRANCH   3   4
ATOM      4  C   UNL     1     167.468 161.868 201.146  1.00  0.00     0.012 C 
BRANCH   4   5
ATOM      5  C   UNL     1     167.736 162.659 202.451  1.00  0.00     0.031 C 
BRANCH   5   6
ATOM      6  C   UNL     1     166.756 162.387 203.583  1.00  0.00    -0.077 C 
ATOM      7  C   UNL     1     167.082 161.274 204.551  1.00  0.00     0.039 C 
ATOM      8  C   UNL     1     165.552 162.998 203.727  1.00  0.00    -0.028 CG0
ATOM      9  G   UNL     1     165.060 164.237 203.017  1.00  0.00     0.000 G0
ENDBRANCH   5   6
ENDBRANCH   4   5
ENDBRANCH   3   4
BRANCH   3  10
ATOM     10  C   UNL     1     167.897 162.787 198.741  1.00  0.00    -0.010 C 
ATOM     11  C   UNL     1     167.221 163.404 197.505  1.00  0.00     0.008 C 
ATOM     12  C   UNL     1     169.220 163.520 199.032  1.00  0.00     0.008 C 
ENDBRANCH   3  10
ENDBRANCH   2   3
BRANCH   1  13
ATOM     13  C   UNL     1     164.310 164.083 200.609  1.00  0.00    -0.055 C 
ATOM     14  C   UNL     1     164.616 165.240 200.019  1.00  0.00     0.012 C 
BRANCH  13  15
ATOM     15  C   UNL     1     163.864 164.058 202.055  1.00  0.00     0.039 C 
BRANCH  15  16
ATOM     16  C   UNL     1     165.054 164.245 203.023  1.00  0.00     0.032 CG0
ATOM     17  G   UNL     1     165.539 162.990 203.709  1.00  0.00     0.000 G0
ENDBRANCH  15  16
ENDBRANCH  13  15
ENDBRANCH   1  13
TORSDOF 1
ENDMDL
MODEL 9
REMARK VINA RESULT:    -3.478      5.073      6.852
REMARK INTER + INTRA:          -5.751
REMARK INTER:                  -5.117
REMARK INTRA:                  -0.634
REMARK UNBOUND:                -0.647
REMARK SMILES C=C1C=C[C@H](C(C)C)CCC(C)=CCC1
REMARK SMILES IDX 3 1 4 2 5 3 9 4 10 5 11 6 12 7 13 8 6 10 7 11 8 12 2 13 1 14
REMARK SMILES IDX 15 15 14 16
REMARK H PARENT
REMARK Flexibility Score: 70.00
ROOT
ATOM      1  C   UNL     1     165.027 161.854 198.570  1.00  0.00    -0.001 C 
ATOM      2  C   UNL     1     165.847 162.181 199.583  1.00  0.00    -0.023 C 
ENDROOT
BRANCH   2   3
ATOM      3  C   UNL     1     166.685 163.447 199.628  1.00  0.00     0.014 C 
BRANCH   3   4
ATOM      4  C   UNL     1     166.115 164.492 200.631  1.00  0.00     0.012 C 
BRANCH   4   5
ATOM      5  C   UNL     1     164.627 164.303 201.019  1.00  0.00     0.031 C 
BRANCH   5   6
ATOM      6  C   UNL     1     163.661 165.288 200.377  1.00  0.00    -0.077 C 
ATOM      7  C   UNL     1     163.505 166.647 201.017  1.00  0.00     0.039 C 
ATOM      8  C   UNL     1     162.845 165.000 199.332  1.00  0.00    -0.028 CG0
ATOM      9  G   UNL     1     162.914 163.801 198.415  1.00  0.00     0.000 G0
ENDBRANCH   5   6
ENDBRANCH   4   5
ENDBRANCH   3   4
BRANCH   3  10
ATOM     10  C   UNL     1     168.189 163.102 199.868  1.00  0.00    -0.010 C 
ATOM     11  C   UNL     1     168.986 163.084 198.554  1.00  0.00     0.008 C 
ATOM     12  C   UNL     1     168.897 164.004 200.896  1.00  0.00     0.008 C 
ENDBRANCH   3  10
ENDBRANCH   2   3
BRANCH   1  13
ATOM     13  C   UNL     1     164.882 162.653 197.337  1.00  0.00    -0.055 C 
ATOM     14  C   UNL     1     165.547 162.283 196.241  1.00  0.00     0.012 C 
BRANCH  13  15
ATOM     15  C   UNL     1     163.976 163.865 197.306  1.00  0.00     0.039 C 
BRANCH  15  16
ATOM     16  C   UNL     1     162.898 163.801 198.412  1.00  0.00     0.032 CG0
ATOM     17  G   UNL     1     162.832 165.000 199.328  1.00  0.00     0.000 G0
ENDBRANCH  15  16
ENDBRANCH  13  15
ENDBRANCH   1  13
TORSDOF 1
ENDMDL
