MODEL 1
REMARK VINA RESULT:    -4.594      0.000      0.000
REMARK INTER + INTRA:          -5.037
REMARK INTER:                  -4.997
REMARK INTRA:                  -0.040
REMARK UNBOUND:                -0.040
REMARK SMILES COc1ccccc1O
REMARK SMILES IDX 3 1 4 2 5 3 6 4 7 5 8 6 2 7 1 8 9 9
REMARK H PARENT 9 10
REMARK Flexibility Score: inf
ROOT
ATOM      1  C   UNL     1      62.583 151.140   4.199  1.00  0.00     0.160 A 
ATOM      2  C   UNL     1      63.866 151.621   3.861  1.00  0.00     0.050 A 
ATOM      3  C   UNL     1      65.010 150.972   4.334  1.00  0.00     0.004 A 
ATOM      4  C   UNL     1      64.891 149.842   5.144  1.00  0.00     0.004 A 
ATOM      5  C   UNL     1      63.626 149.358   5.485  1.00  0.00     0.050 A 
ATOM      6  C   UNL     1      62.473 149.999   5.018  1.00  0.00     0.157 A 
ENDROOT
BRANCH   1   7
ATOM      7  O   UNL     1      61.412 151.765   3.744  1.00  0.00    -0.493 OA
ATOM      8  C   UNL     1      61.046 151.893   2.374  1.00  0.00     0.278 C 
ENDBRANCH   1   7
BRANCH   6   9
ATOM      9  O   UNL     1      61.226 149.488   5.377  1.00  0.00    -0.504 OA
ATOM     10  H   UNL     1      60.946 149.376   6.344  1.00  0.00     0.293 HD
ENDBRANCH   6   9
TORSDOF 2
ENDMDL
MODEL 2
REMARK VINA RESULT:    -4.591      1.694      3.171
REMARK INTER + INTRA:          -5.034
REMARK INTER:                  -5.008
REMARK INTRA:                  -0.025
REMARK UNBOUND:                -0.040
REMARK SMILES COc1ccccc1O
REMARK SMILES IDX 3 1 4 2 5 3 6 4 7 5 8 6 2 7 1 8 9 9
REMARK H PARENT 9 10
REMARK Flexibility Score: inf
ROOT
ATOM      1  C   UNL     1      63.169 150.472   6.027  1.00  0.00     0.160 A 
ATOM      2  C   UNL     1      64.013 149.345   5.940  1.00  0.00     0.050 A 
ATOM      3  C   UNL     1      64.942 149.237   4.901  1.00  0.00     0.004 A 
ATOM      4  C   UNL     1      65.042 150.247   3.943  1.00  0.00     0.004 A 
ATOM      5  C   UNL     1      64.212 151.367   4.020  1.00  0.00     0.050 A 
ATOM      6  C   UNL     1      63.277 151.486   5.054  1.00  0.00     0.157 A 
ENDROOT
BRANCH   1   7
ATOM      7  O   UNL     1      62.224 150.615   7.054  1.00  0.00    -0.493 OA
ATOM      8  C   UNL     1      61.962 149.633   8.052  1.00  0.00     0.278 C 
ENDBRANCH   1   7
BRANCH   6   9
ATOM      9  O   UNL     1      62.464 152.618   5.101  1.00  0.00    -0.504 OA
ATOM     10  H   UNL     1      62.003 152.917   5.952  1.00  0.00     0.293 HD
ENDBRANCH   6   9
TORSDOF 2
ENDMDL
MODEL 3
REMARK VINA RESULT:    -4.574      2.015      2.895
REMARK INTER + INTRA:          -5.015
REMARK INTER:                  -4.970
REMARK INTRA:                  -0.045
REMARK UNBOUND:                -0.040
REMARK SMILES COc1ccccc1O
REMARK SMILES IDX 3 1 4 2 5 3 6 4 7 5 8 6 2 7 1 8 9 9
REMARK H PARENT 9 10
REMARK Flexibility Score: inf
ROOT
ATOM      1  C   UNL     1      62.925 150.078   5.914  1.00  0.00     0.160 A 
ATOM      2  C   UNL     1      63.253 151.414   5.604  1.00  0.00     0.050 A 
ATOM      3  C   UNL     1      64.339 151.699   4.770  1.00  0.00     0.004 A 
ATOM      4  C   UNL     1      65.105 150.661   4.239  1.00  0.00     0.004 A 
ATOM      5  C   UNL     1      64.789 149.335   4.539  1.00  0.00     0.050 A 
ATOM      6  C   UNL     1      63.705 149.037   5.373  1.00  0.00     0.157 A 
ENDROOT
BRANCH   1   7
ATOM      7  O   UNL     1      61.843 149.753   6.746  1.00  0.00    -0.493 OA
ATOM      8  C   UNL     1      61.896 149.734   8.169  1.00  0.00     0.278 C 
ENDBRANCH   1   7
BRANCH   6   9
ATOM      9  O   UNL     1      63.417 147.702   5.652  1.00  0.00    -0.504 OA
ATOM     10  H   UNL     1      62.742 147.171   5.115  1.00  0.00     0.293 HD
ENDBRANCH   6   9
TORSDOF 2
ENDMDL
MODEL 4
REMARK VINA RESULT:    -4.567      1.801      2.634
REMARK INTER + INTRA:          -5.007
REMARK INTER:                  -4.961
REMARK INTRA:                  -0.046
REMARK UNBOUND:                -0.040
REMARK SMILES COc1ccccc1O
REMARK SMILES IDX 3 1 4 2 5 3 6 4 7 5 8 6 2 7 1 8 9 9
REMARK H PARENT 9 10
REMARK Flexibility Score: inf
ROOT
ATOM      1  C   UNL     1      63.118 151.184   5.475  1.00  0.00     0.160 A 
ATOM      2  C   UNL     1      63.246 149.961   6.166  1.00  0.00     0.050 A 
ATOM      3  C   UNL     1      64.193 149.016   5.759  1.00  0.00     0.004 A 
ATOM      4  C   UNL     1      65.018 149.278   4.665  1.00  0.00     0.004 A 
ATOM      5  C   UNL     1      64.900 150.485   3.973  1.00  0.00     0.050 A 
ATOM      6  C   UNL     1      63.956 151.439   4.370  1.00  0.00     0.157 A 
ENDROOT
BRANCH   1   7
ATOM      7  O   UNL     1      62.181 152.157   5.853  1.00  0.00    -0.493 OA
ATOM      8  C   UNL     1      60.792 152.105   5.541  1.00  0.00     0.278 C 
ENDBRANCH   1   7
BRANCH   6   9
ATOM      9  O   UNL     1      63.865 152.634   3.658  1.00  0.00    -0.504 OA
ATOM     10  H   UNL     1      64.619 153.310   3.638  1.00  0.00     0.293 HD
ENDBRANCH   6   9
TORSDOF 2
ENDMDL
MODEL 5
REMARK VINA RESULT:    -4.247     18.047     18.552
REMARK INTER + INTRA:          -4.659
REMARK INTER:                  -4.634
REMARK INTRA:                  -0.025
REMARK UNBOUND:                -0.040
REMARK SMILES COc1ccccc1O
REMARK SMILES IDX 3 1 4 2 5 3 6 4 7 5 8 6 2 7 1 8 9 9
REMARK H PARENT 9 10
REMARK Flexibility Score: inf
ROOT
ATOM      1  C   UNL     1      70.596 138.751  -7.800  1.00  0.00     0.160 A 
ATOM      2  C   UNL     1      71.069 137.482  -7.406  1.00  0.00     0.050 A 
ATOM      3  C   UNL     1      70.578 136.875  -6.246  1.00  0.00     0.004 A 
ATOM      4  C   UNL     1      69.614 137.521  -5.471  1.00  0.00     0.004 A 
ATOM      5  C   UNL     1      69.138 138.777  -5.853  1.00  0.00     0.050 A 
ATOM      6  C   UNL     1      69.623 139.396  -7.011  1.00  0.00     0.157 A 
ENDROOT
BRANCH   1   7
ATOM      7  O   UNL     1      71.065 139.392  -8.957  1.00  0.00    -0.493 OA
ATOM      8  C   UNL     1      72.110 138.895  -9.788  1.00  0.00     0.278 C 
ENDBRANCH   1   7
BRANCH   6   9
ATOM      9  O   UNL     1      69.126 140.650  -7.364  1.00  0.00    -0.504 OA
ATOM     10  H   UNL     1      68.456 141.147  -6.789  1.00  0.00     0.293 HD
ENDBRANCH   6   9
TORSDOF 2
ENDMDL
MODEL 6
REMARK VINA RESULT:    -4.215      4.126      5.541
REMARK INTER + INTRA:          -4.624
REMARK INTER:                  -4.597
REMARK INTRA:                  -0.027
REMARK UNBOUND:                -0.040
REMARK SMILES COc1ccccc1O
REMARK SMILES IDX 3 1 4 2 5 3 6 4 7 5 8 6 2 7 1 8 9 9
REMARK H PARENT 9 10
REMARK Flexibility Score: inf
ROOT
ATOM      1  C   UNL     1      59.477 153.236   2.857  1.00  0.00     0.160 A 
ATOM      2  C   UNL     1      58.559 154.057   2.168  1.00  0.00     0.050 A 
ATOM      3  C   UNL     1      58.846 154.505   0.875  1.00  0.00     0.004 A 
ATOM      4  C   UNL     1      60.043 154.142   0.257  1.00  0.00     0.004 A 
ATOM      5  C   UNL     1      60.958 153.330   0.929  1.00  0.00     0.050 A 
ATOM      6  C   UNL     1      60.683 152.876   2.224  1.00  0.00     0.157 A 
ENDROOT
BRANCH   1   7
ATOM      7  O   UNL     1      59.225 152.767   4.155  1.00  0.00    -0.493 OA
ATOM      8  C   UNL     1      59.630 153.433   5.347  1.00  0.00     0.278 C 
ENDBRANCH   1   7
BRANCH   6   9
ATOM      9  O   UNL     1      61.619 152.066   2.867  1.00  0.00    -0.504 OA
ATOM     10  H   UNL     1      61.368 151.178   3.286  1.00  0.00     0.293 HD
ENDBRANCH   6   9
TORSDOF 2
ENDMDL
MODEL 7
REMARK VINA RESULT:    -4.199      3.533      6.498
REMARK INTER + INTRA:          -4.607
REMARK INTER:                  -4.582
REMARK INTRA:                  -0.026
REMARK UNBOUND:                -0.040
REMARK SMILES COc1ccccc1O
REMARK SMILES IDX 3 1 4 2 5 3 6 4 7 5 8 6 2 7 1 8 9 9
REMARK H PARENT 9 10
REMARK Flexibility Score: inf
ROOT
ATOM      1  C   UNL     1      59.876 153.499   1.851  1.00  0.00     0.160 A 
ATOM      2  C   UNL     1      59.401 153.661   3.169  1.00  0.00     0.050 A 
ATOM      3  C   UNL     1      58.416 154.612   3.453  1.00  0.00     0.004 A 
ATOM      4  C   UNL     1      57.896 155.408   2.431  1.00  0.00     0.004 A 
ATOM      5  C   UNL     1      58.358 155.255   1.123  1.00  0.00     0.050 A 
ATOM      6  C   UNL     1      59.344 154.307   0.826  1.00  0.00     0.157 A 
ENDROOT
BRANCH   1   7
ATOM      7  O   UNL     1      60.863 152.555   1.528  1.00  0.00    -0.493 OA
ATOM      8  C   UNL     1      61.681 151.884   2.481  1.00  0.00     0.278 C 
ENDBRANCH   1   7
BRANCH   6   9
ATOM      9  O   UNL     1      59.783 154.181  -0.491  1.00  0.00    -0.504 OA
ATOM     10  H   UNL     1      59.141 154.072  -1.267  1.00  0.00     0.293 HD
ENDBRANCH   6   9
TORSDOF 2
ENDMDL
MODEL 8
REMARK VINA RESULT:    -4.163     18.489     19.048
REMARK INTER + INTRA:          -4.568
REMARK INTER:                  -4.550
REMARK INTRA:                  -0.018
REMARK UNBOUND:                -0.040
REMARK SMILES COc1ccccc1O
REMARK SMILES IDX 3 1 4 2 5 3 6 4 7 5 8 6 2 7 1 8 9 9
REMARK H PARENT 9 10
REMARK Flexibility Score: inf
ROOT
ATOM      1  C   UNL     1      71.228 139.146  -7.879  1.00  0.00     0.160 A 
ATOM      2  C   UNL     1      72.025 138.822  -8.997  1.00  0.00     0.050 A 
ATOM      3  C   UNL     1      71.578 139.112 -10.290  1.00  0.00     0.004 A 
ATOM      4  C   UNL     1      70.339 139.724 -10.482  1.00  0.00     0.004 A 
ATOM      5  C   UNL     1      69.542 140.049  -9.383  1.00  0.00     0.050 A 
ATOM      6  C   UNL     1      69.978 139.764  -8.084  1.00  0.00     0.157 A 
ENDROOT
BRANCH   1   7
ATOM      7  O   UNL     1      71.642 138.872  -6.567  1.00  0.00    -0.493 OA
ATOM      8  C   UNL     1      71.305 137.692  -5.844  1.00  0.00     0.278 C 
ENDBRANCH   1   7
BRANCH   6   9
ATOM      9  O   UNL     1      69.158 140.103  -7.008  1.00  0.00    -0.504 OA
ATOM     10  H   UNL     1      68.318 140.658  -7.123  1.00  0.00     0.293 HD
ENDBRANCH   6   9
TORSDOF 2
ENDMDL
MODEL 9
REMARK VINA RESULT:    -4.065     18.816     19.334
REMARK INTER + INTRA:          -4.461
REMARK INTER:                  -4.436
REMARK INTRA:                  -0.025
REMARK UNBOUND:                -0.040
REMARK SMILES COc1ccccc1O
REMARK SMILES IDX 3 1 4 2 5 3 6 4 7 5 8 6 2 7 1 8 9 9
REMARK H PARENT 9 10
REMARK Flexibility Score: inf
ROOT
ATOM      1  C   UNL     1      70.514 139.188  -8.191  1.00  0.00     0.160 A 
ATOM      2  C   UNL     1      71.579 138.319  -7.875  1.00  0.00     0.050 A 
ATOM      3  C   UNL     1      72.539 137.999  -8.840  1.00  0.00     0.004 A 
ATOM      4  C   UNL     1      72.449 138.539 -10.123  1.00  0.00     0.004 A 
ATOM      5  C   UNL     1      71.399 139.400 -10.447  1.00  0.00     0.050 A 
ATOM      6  C   UNL     1      70.432 139.728  -9.490  1.00  0.00     0.157 A 
ENDROOT
BRANCH   1   7
ATOM      7  O   UNL     1      69.532 139.532  -7.250  1.00  0.00    -0.493 OA
ATOM      8  C   UNL     1      69.385 138.917  -5.974  1.00  0.00     0.278 C 
ENDBRANCH   1   7
BRANCH   6   9
ATOM      9  O   UNL     1      69.397 140.591  -9.846  1.00  0.00    -0.504 OA
ATOM     10  H   UNL     1      68.646 140.827  -9.208  1.00  0.00     0.293 HD
ENDBRANCH   6   9
TORSDOF 2
ENDMDL
