MODEL 1
REMARK VINA RESULT:    -3.073      0.000      0.000
REMARK INTER + INTRA:          -4.766
REMARK INTER:                  -4.510
REMARK INTRA:                  -0.256
REMARK UNBOUND:                -0.256
REMARK SMILES O=C([O-])CCCCCCCC(=O)[O-]
REMARK SMILES IDX 7 1 6 2 5 3 4 4 2 5 1 6 3 7 8 8 9 9 10 10 11 11 12 12 13 13
REMARK H PARENT
REMARK Flexibility Score: inf
ROOT
ATOM      1  C   UNL     1       7.035   0.647  -2.830  1.00  0.00     0.000 C 
ENDROOT
BRANCH   1   2
ATOM      2  C   UNL     1       7.193  -0.867  -3.048  1.00  0.00     0.000 C 
BRANCH   2   3
ATOM      3  C   UNL     1       8.070  -1.534  -1.974  1.00  0.00     0.006 C 
BRANCH   3   4
ATOM      4  C   UNL     1       8.248  -3.038  -2.223  1.00  0.00     0.053 C 
BRANCH   4   5
ATOM      5  C   UNL     1       8.798  -3.739  -1.019  1.00  0.00     0.041 C 
ATOM      6  O   UNL     1       9.014  -4.978  -1.050  1.00  0.00    -0.550 OA
ATOM      7  O   UNL     1       9.038  -3.028   0.151  1.00  0.00    -0.550 OA
ENDBRANCH   4   5
ENDBRANCH   3   4
ENDBRANCH   2   3
ENDBRANCH   1   2
BRANCH   1   8
ATOM      8  C   UNL     1       7.961   1.181  -1.723  1.00  0.00     0.000 C 
BRANCH   8   9
ATOM      9  C   UNL     1       7.631   2.631  -1.321  1.00  0.00     0.006 C 
BRANCH   9  10
ATOM     10  C   UNL     1       8.041   3.002   0.113  1.00  0.00     0.053 C 
BRANCH  10  11
ATOM     11  C   UNL     1       7.005   3.841   0.796  1.00  0.00     0.041 C 
ATOM     12  O   UNL     1       6.952   3.882   2.054  1.00  0.00    -0.550 OA
ATOM     13  O   UNL     1       6.120   4.603   0.044  1.00  0.00    -0.550 OA
ENDBRANCH  10  11
ENDBRANCH   9  10
ENDBRANCH   8   9
ENDBRANCH   1   8
TORSDOF 8
ENDMDL
MODEL 2
REMARK VINA RESULT:    -3.002      3.023      6.395
REMARK INTER + INTRA:          -4.661
REMARK INTER:                  -4.349
REMARK INTRA:                  -0.313
REMARK UNBOUND:                -0.256
REMARK SMILES O=C([O-])CCCCCCCC(=O)[O-]
REMARK SMILES IDX 7 1 6 2 5 3 4 4 2 5 1 6 3 7 8 8 9 9 10 10 11 11 12 12 13 13
REMARK H PARENT
REMARK Flexibility Score: inf
ROOT
ATOM      1  C   UNL     1       7.809  -2.190  -2.634  1.00  0.00     0.000 C 
ENDROOT
BRANCH   1   2
ATOM      2  C   UNL     1       8.054  -0.932  -1.784  1.00  0.00     0.000 C 
BRANCH   2   3
ATOM      3  C   UNL     1       7.370   0.318  -2.364  1.00  0.00     0.006 C 
BRANCH   3   4
ATOM      4  C   UNL     1       6.630   0.018  -3.675  1.00  0.00     0.053 C 
BRANCH   4   5
ATOM      5  C   UNL     1       5.921   1.228  -4.202  1.00  0.00     0.041 C 
ATOM      6  O   UNL     1       5.875   2.284  -3.518  1.00  0.00    -0.550 OA
ATOM      7  O   UNL     1       5.280   1.178  -5.434  1.00  0.00    -0.550 OA
ENDBRANCH   4   5
ENDBRANCH   3   4
ENDBRANCH   2   3
ENDBRANCH   1   2
BRANCH   1   8
ATOM      8  C   UNL     1       8.427  -3.453  -2.008  1.00  0.00     0.000 C 
BRANCH   8   9
ATOM      9  C   UNL     1       8.993  -3.201  -0.598  1.00  0.00     0.006 C 
BRANCH   9  10
ATOM     10  C   UNL     1       8.903  -4.408   0.349  1.00  0.00     0.053 C 
BRANCH  10  11
ATOM     11  C   UNL     1       8.494  -4.009   1.734  1.00  0.00     0.041 C 
ATOM     12  O   UNL     1       8.534  -2.800   2.082  1.00  0.00    -0.550 OA
ATOM     13  O   UNL     1       8.035  -4.970   2.627  1.00  0.00    -0.550 OA
ENDBRANCH  10  11
ENDBRANCH   9  10
ENDBRANCH   8   9
ENDBRANCH   1   8
TORSDOF 8
ENDMDL
MODEL 3
REMARK VINA RESULT:    -2.989      2.202      6.304
REMARK INTER + INTRA:          -4.642
REMARK INTER:                  -4.320
REMARK INTRA:                  -0.322
REMARK UNBOUND:                -0.256
REMARK SMILES O=C([O-])CCCCCCCC(=O)[O-]
REMARK SMILES IDX 7 1 6 2 5 3 4 4 2 5 1 6 3 7 8 8 9 9 10 10 11 11 12 12 13 13
REMARK H PARENT
REMARK Flexibility Score: inf
ROOT
ATOM      1  C   UNL     1       8.381  -2.172  -1.759  1.00  0.00     0.000 C 
ENDROOT
BRANCH   1   2
ATOM      2  C   UNL     1       7.421  -1.698  -2.862  1.00  0.00     0.000 C 
BRANCH   2   3
ATOM      3  C   UNL     1       7.156  -0.183  -2.808  1.00  0.00     0.006 C 
BRANCH   3   4
ATOM      4  C   UNL     1       7.997   0.513  -1.730  1.00  0.00     0.053 C 
BRANCH   4   5
ATOM      5  C   UNL     1       7.738   1.989  -1.692  1.00  0.00     0.041 C 
ATOM      6  O   UNL     1       6.856   2.497  -2.432  1.00  0.00    -0.550 OA
ATOM      7  O   UNL     1       8.499   2.807  -0.865  1.00  0.00    -0.550 OA
ENDBRANCH   4   5
ENDBRANCH   3   4
ENDBRANCH   2   3
ENDBRANCH   1   2
BRANCH   1   8
ATOM      8  C   UNL     1       8.509  -3.705  -1.708  1.00  0.00     0.000 C 
BRANCH   8   9
ATOM      9  C   UNL     1       9.158  -4.204  -0.403  1.00  0.00     0.006 C 
BRANCH   9  10
ATOM     10  C   UNL     1       8.911  -3.301   0.816  1.00  0.00     0.053 C 
BRANCH  10  11
ATOM     11  C   UNL     1       8.774  -4.088   2.083  1.00  0.00     0.041 C 
ATOM     12  O   UNL     1       7.706  -4.705   2.333  1.00  0.00    -0.550 OA
ATOM     13  O   UNL     1       9.840  -4.169   2.970  1.00  0.00    -0.550 OA
ENDBRANCH  10  11
ENDBRANCH   9  10
ENDBRANCH   8   9
ENDBRANCH   1   8
TORSDOF 8
ENDMDL
MODEL 4
REMARK VINA RESULT:    -2.981      2.597      4.077
REMARK INTER + INTRA:          -4.631
REMARK INTER:                  -4.290
REMARK INTRA:                  -0.341
REMARK UNBOUND:                -0.256
REMARK SMILES O=C([O-])CCCCCCCC(=O)[O-]
REMARK SMILES IDX 7 1 6 2 5 3 4 4 2 5 1 6 3 7 8 8 9 9 10 10 11 11 12 12 13 13
REMARK H PARENT
REMARK Flexibility Score: inf
ROOT
ATOM      1  C   UNL     1       8.525  -3.571  -1.697  1.00  0.00     0.000 C 
ENDROOT
BRANCH   1   2
ATOM      2  C   UNL     1       9.113  -2.904  -0.442  1.00  0.00     0.000 C 
BRANCH   2   3
ATOM      3  C   UNL     1       9.794  -3.910   0.502  1.00  0.00     0.006 C 
BRANCH   3   4
ATOM      4  C   UNL     1       9.074  -5.266   0.518  1.00  0.00     0.053 C 
BRANCH   4   5
ATOM      5  C   UNL     1       8.308  -5.473   1.790  1.00  0.00     0.041 C 
ATOM      6  O   UNL     1       7.722  -4.505   2.341  1.00  0.00    -0.550 OA
ATOM      7  O   UNL     1       8.273  -6.728   2.385  1.00  0.00    -0.550 OA
ENDBRANCH   4   5
ENDBRANCH   3   4
ENDBRANCH   2   3
ENDBRANCH   1   2
BRANCH   1   8
ATOM      8  C   UNL     1       7.857  -2.559  -2.643  1.00  0.00     0.000 C 
BRANCH   8   9
ATOM      9  C   UNL     1       7.901  -1.118  -2.100  1.00  0.00     0.006 C 
BRANCH   9  10
ATOM     10  C   UNL     1       7.150  -0.091  -2.961  1.00  0.00     0.053 C 
BRANCH  10  11
ATOM     11  C   UNL     1       7.245   1.294  -2.398  1.00  0.00     0.041 C 
ATOM     12  O   UNL     1       6.578   2.233  -2.908  1.00  0.00    -0.550 OA
ATOM     13  O   UNL     1       8.043   1.540  -1.288  1.00  0.00    -0.550 OA
ENDBRANCH  10  11
ENDBRANCH   9  10
ENDBRANCH   8   9
ENDBRANCH   1   8
TORSDOF 8
ENDMDL
MODEL 5
REMARK VINA RESULT:    -2.974      3.453      4.555
REMARK INTER + INTRA:          -4.620
REMARK INTER:                  -4.275
REMARK INTRA:                  -0.346
REMARK UNBOUND:                -0.256
REMARK SMILES O=C([O-])CCCCCCCC(=O)[O-]
REMARK SMILES IDX 7 1 6 2 5 3 4 4 2 5 1 6 3 7 8 8 9 9 10 10 11 11 12 12 13 13
REMARK H PARENT
REMARK Flexibility Score: inf
ROOT
ATOM      1  C   UNL     1       7.646  -2.191  -2.620  1.00  0.00     0.000 C 
ENDROOT
BRANCH   1   2
ATOM      2  C   UNL     1       8.454  -3.336  -1.986  1.00  0.00     0.000 C 
BRANCH   2   3
ATOM      3  C   UNL     1       8.984  -2.984  -0.585  1.00  0.00     0.006 C 
BRANCH   3   4
ATOM      4  C   UNL     1       9.013  -4.204   0.346  1.00  0.00     0.053 C 
BRANCH   4   5
ATOM      5  C   UNL     1       8.455  -3.882   1.699  1.00  0.00     0.041 C 
ATOM      6  O   UNL     1       8.565  -2.721   2.171  1.00  0.00    -0.550 OA
ATOM      7  O   UNL     1       7.846  -4.877   2.455  1.00  0.00    -0.550 OA
ENDBRANCH   4   5
ENDBRANCH   3   4
ENDBRANCH   2   3
ENDBRANCH   1   2
BRANCH   1   8
ATOM      8  C   UNL     1       7.952  -0.828  -1.974  1.00  0.00     0.000 C 
BRANCH   8   9
ATOM      9  C   UNL     1       7.180   0.329  -2.636  1.00  0.00     0.006 C 
BRANCH   9  10
ATOM     10  C   UNL     1       6.407  -0.066  -3.905  1.00  0.00     0.053 C 
BRANCH  10  11
ATOM     11  C   UNL     1       7.032   0.498  -5.144  1.00  0.00     0.041 C 
ATOM     12  O   UNL     1       7.688  -0.247  -5.918  1.00  0.00    -0.550 OA
ATOM     13  O   UNL     1       6.860   1.840  -5.461  1.00  0.00    -0.550 OA
ENDBRANCH  10  11
ENDBRANCH   9  10
ENDBRANCH   8   9
ENDBRANCH   1   8
TORSDOF 8
ENDMDL
MODEL 6
REMARK VINA RESULT:    -2.958      2.009      2.616
REMARK INTER + INTRA:          -4.597
REMARK INTER:                  -4.308
REMARK INTRA:                  -0.289
REMARK UNBOUND:                -0.256
REMARK SMILES O=C([O-])CCCCCCCC(=O)[O-]
REMARK SMILES IDX 7 1 6 2 5 3 4 4 2 5 1 6 3 7 8 8 9 9 10 10 11 11 12 12 13 13
REMARK H PARENT
REMARK Flexibility Score: inf
ROOT
ATOM      1  C   UNL     1       8.539  -0.239  -1.031  1.00  0.00     0.000 C 
ENDROOT
BRANCH   1   2
ATOM      2  C   UNL     1       7.620   0.376  -2.099  1.00  0.00     0.000 C 
BRANCH   2   3
ATOM      3  C   UNL     1       7.074  -0.670  -3.086  1.00  0.00     0.006 C 
BRANCH   3   4
ATOM      4  C   UNL     1       7.566  -2.087  -2.759  1.00  0.00     0.053 C 
BRANCH   4   5
ATOM      5  C   UNL     1       7.088  -3.087  -3.767  1.00  0.00     0.041 C 
ATOM      6  O   UNL     1       6.490  -2.704  -4.806  1.00  0.00    -0.550 OA
ATOM      7  O   UNL     1       7.271  -4.446  -3.540  1.00  0.00    -0.550 OA
ENDBRANCH   4   5
ENDBRANCH   3   4
ENDBRANCH   2   3
ENDBRANCH   1   2
BRANCH   1   8
ATOM      8  C   UNL     1       9.175   0.824  -0.119  1.00  0.00     0.000 C 
BRANCH   8   9
ATOM      9  C   UNL     1       8.365   2.133  -0.077  1.00  0.00     0.006 C 
BRANCH   9  10
ATOM     10  C   UNL     1       8.520   2.936   1.224  1.00  0.00     0.053 C 
BRANCH  10  11
ATOM     11  C   UNL     1       7.283   3.713   1.558  1.00  0.00     0.041 C 
ATOM     12  O   UNL     1       6.572   4.197   0.639  1.00  0.00    -0.550 OA
ATOM     13  O   UNL     1       6.899   3.874   2.883  1.00  0.00    -0.550 OA
ENDBRANCH  10  11
ENDBRANCH   9  10
ENDBRANCH   8   9
ENDBRANCH   1   8
TORSDOF 8
ENDMDL
MODEL 7
REMARK VINA RESULT:    -2.945      4.379      5.682
REMARK INTER + INTRA:          -4.577
REMARK INTER:                  -4.187
REMARK INTRA:                  -0.390
REMARK UNBOUND:                -0.256
REMARK SMILES O=C([O-])CCCCCCCC(=O)[O-]
REMARK SMILES IDX 7 1 6 2 5 3 4 4 2 5 1 6 3 7 8 8 9 9 10 10 11 11 12 12 13 13
REMARK H PARENT
REMARK Flexibility Score: inf
ROOT
ATOM      1  C   UNL     1       8.815  -1.586  -0.789  1.00  0.00     0.000 C 
ENDROOT
BRANCH   1   2
ATOM      2  C   UNL     1       8.094  -0.685  -1.806  1.00  0.00     0.000 C 
BRANCH   2   3
ATOM      3  C   UNL     1       7.372  -1.487  -2.903  1.00  0.00     0.006 C 
BRANCH   3   4
ATOM      4  C   UNL     1       7.744  -2.976  -2.871  1.00  0.00     0.053 C 
BRANCH   4   5
ATOM      5  C   UNL     1       6.975  -3.762  -3.888  1.00  0.00     0.041 C 
ATOM      6  O   UNL     1       6.862  -5.010  -3.772  1.00  0.00    -0.550 OA
ATOM      7  O   UNL     1       6.413  -3.119  -4.985  1.00  0.00    -0.550 OA
ENDBRANCH   4   5
ENDBRANCH   3   4
ENDBRANCH   2   3
ENDBRANCH   1   2
BRANCH   1   8
ATOM      8  C   UNL     1       8.927  -0.933   0.600  1.00  0.00     0.000 C 
BRANCH   8   9
ATOM      9  C   UNL     1       8.897  -1.963   1.745  1.00  0.00     0.006 C 
BRANCH   9  10
ATOM     10  C   UNL     1       8.756  -3.423   1.283  1.00  0.00     0.053 C 
BRANCH  10  11
ATOM     11  C   UNL     1       8.674  -4.374   2.438  1.00  0.00     0.041 C 
ATOM     12  O   UNL     1       8.004  -5.435   2.338  1.00  0.00    -0.550 OA
ATOM     13  O   UNL     1       9.366  -4.104   3.612  1.00  0.00    -0.550 OA
ENDBRANCH  10  11
ENDBRANCH   9  10
ENDBRANCH   8   9
ENDBRANCH   1   8
TORSDOF 8
ENDMDL
MODEL 8
REMARK VINA RESULT:    -2.904      2.723      6.935
REMARK INTER + INTRA:          -4.517
REMARK INTER:                  -4.315
REMARK INTRA:                  -0.203
REMARK UNBOUND:                -0.256
REMARK SMILES O=C([O-])CCCCCCCC(=O)[O-]
REMARK SMILES IDX 7 1 6 2 5 3 4 4 2 5 1 6 3 7 8 8 9 9 10 10 11 11 12 12 13 13
REMARK H PARENT
REMARK Flexibility Score: inf
ROOT
ATOM      1  C   UNL     1       7.592   0.196  -2.141  1.00  0.00     0.000 C 
ENDROOT
BRANCH   1   2
ATOM      2  C   UNL     1       8.344   1.045  -1.103  1.00  0.00     0.000 C 
BRANCH   2   3
ATOM      3  C   UNL     1       7.892   2.516  -1.099  1.00  0.00     0.006 C 
BRANCH   3   4
ATOM      4  C   UNL     1       8.253   3.229   0.211  1.00  0.00     0.053 C 
BRANCH   4   5
ATOM      5  C   UNL     1       7.058   3.883   0.835  1.00  0.00     0.041 C 
ATOM      6  O   UNL     1       6.872   3.810   2.078  1.00  0.00    -0.550 OA
ATOM      7  O   UNL     1       6.130   4.542   0.038  1.00  0.00    -0.550 OA
ENDBRANCH   4   5
ENDBRANCH   3   4
ENDBRANCH   2   3
ENDBRANCH   1   2
BRANCH   1   8
ATOM      8  C   UNL     1       7.999  -1.288  -2.094  1.00  0.00     0.000 C 
BRANCH   8   9
ATOM      9  C   UNL     1       7.317  -2.126  -3.191  1.00  0.00     0.006 C 
BRANCH   9  10
ATOM     10  C   UNL     1       6.458  -1.311  -4.172  1.00  0.00     0.053 C 
BRANCH  10  11
ATOM     11  C   UNL     1       5.812  -2.178  -5.209  1.00  0.00     0.041 C 
ATOM     12  O   UNL     1       5.516  -3.372  -4.942  1.00  0.00    -0.550 OA
ATOM     13  O   UNL     1       5.504  -1.655  -6.459  1.00  0.00    -0.550 OA
ENDBRANCH  10  11
ENDBRANCH   9  10
ENDBRANCH   8   9
ENDBRANCH   1   8
TORSDOF 8
ENDMDL
MODEL 9
REMARK VINA RESULT:    -2.857      1.072      6.407
REMARK INTER + INTRA:          -4.448
REMARK INTER:                  -4.103
REMARK INTRA:                  -0.345
REMARK UNBOUND:                -0.256
REMARK SMILES O=C([O-])CCCCCCCC(=O)[O-]
REMARK SMILES IDX 7 1 6 2 5 3 4 4 2 5 1 6 3 7 8 8 9 9 10 10 11 11 12 12 13 13
REMARK H PARENT
REMARK Flexibility Score: inf
ROOT
ATOM      1  C   UNL     1       7.985   1.036  -1.644  1.00  0.00     0.000 C 
ENDROOT
BRANCH   1   2
ATOM      2  C   UNL     1       7.295   2.353  -2.037  1.00  0.00     0.000 C 
BRANCH   2   3
ATOM      3  C   UNL     1       7.508   3.468  -0.997  1.00  0.00     0.006 C 
BRANCH   3   4
ATOM      4  C   UNL     1       7.953   2.913   0.363  1.00  0.00     0.053 C 
BRANCH   4   5
ATOM      5  C   UNL     1       7.326   3.662   1.500  1.00  0.00     0.041 C 
ATOM      6  O   UNL     1       7.198   4.913   1.440  1.00  0.00    -0.550 OA
ATOM      7  O   UNL     1       6.917   2.982   2.640  1.00  0.00    -0.550 OA
ENDBRANCH   4   5
ENDBRANCH   3   4
ENDBRANCH   2   3
ENDBRANCH   1   2
BRANCH   1   8
ATOM      8  C   UNL     1       7.486  -0.160  -2.473  1.00  0.00     0.000 C 
BRANCH   8   9
ATOM      9  C   UNL     1       8.070  -1.502  -1.992  1.00  0.00     0.006 C 
BRANCH   9  10
ATOM     10  C   UNL     1       8.744  -1.443  -0.612  1.00  0.00     0.053 C 
BRANCH  10  11
ATOM     11  C   UNL     1       9.170  -2.798  -0.135  1.00  0.00     0.041 C 
ATOM     12  O   UNL     1       8.729  -3.835  -0.696  1.00  0.00    -0.550 OA
ATOM     13  O   UNL     1      10.082  -2.913   0.907  1.00  0.00    -0.550 OA
ENDBRANCH  10  11
ENDBRANCH   9  10
ENDBRANCH   8   9
ENDBRANCH   1   8
TORSDOF 8
ENDMDL
