MODEL 1
REMARK VINA RESULT:    -5.654      0.000      0.000
REMARK INTER + INTRA:          -6.149
REMARK INTER:                  -6.149
REMARK INTRA:                   0.000
REMARK UNBOUND:                 0.000
REMARK SMILES Cc1cc(O)c2c(c1)C(=O)c1cc(O)cc(O)c1C2=O
REMARK SMILES IDX 1 1 2 2 8 3 7 4 6 5 4 6 3 7 19 8 20 9 18 10 11 11 9 12 10 13
REMARK SMILES IDX 12 14 13 15 15 16 16 17 5 18 17 20 14 22
REMARK H PARENT 5 19 17 21 14 23
REMARK Flexibility Score: inf
ROOT
ATOM      1  C   UNL     1       2.970 -22.007   4.579  1.00  0.00     0.044 C 
ATOM      2  C   UNL     1       3.362 -20.719   5.241  1.00  0.00    -0.047 A 
ATOM      3  C   UNL     1       3.368 -20.616   6.635  1.00  0.00     0.016 A 
ATOM      4  C   UNL     1       3.691 -19.401   7.264  1.00  0.00     0.038 A 
ATOM      5  C   UNL     1       3.987 -18.262   6.481  1.00  0.00     0.076 A 
ATOM      6  C   UNL     1       4.024 -18.384   5.068  1.00  0.00     0.127 A 
ATOM      7  C   UNL     1       3.680 -19.598   4.466  1.00  0.00     0.050 A 
ATOM      8  C   UNL     1       4.178 -16.964   7.178  1.00  0.00     0.201 C 
ATOM      9  O   UNL     1       3.877 -15.888   6.594  1.00  0.00    -0.288 OA
ATOM     10  C   UNL     1       4.542 -16.945   8.618  1.00  0.00     0.076 A 
ATOM     11  C   UNL     1       4.244 -18.086   9.397  1.00  0.00     0.041 A 
ATOM     12  C   UNL     1       3.725 -19.311   8.742  1.00  0.00     0.194 C 
ATOM     13  O   UNL     1       3.337 -20.285   9.444  1.00  0.00    -0.289 OA
ATOM     14  C   UNL     1       4.444 -18.056  10.787  1.00  0.00     0.059 A 
ATOM     15  C   UNL     1       4.952 -16.914  11.406  1.00  0.00     0.120 A 
ATOM     16  C   UNL     1       5.286 -15.797  10.635  1.00  0.00     0.093 A 
ATOM     17  C   UNL     1       5.115 -15.809   9.248  1.00  0.00     0.131 A 
ENDROOT
BRANCH   6  18
ATOM     18  O   UNL     1       4.427 -17.341   4.231  1.00  0.00    -0.507 OA
ATOM     19  H   UNL     1       5.368 -17.239   3.878  1.00  0.00     0.293 HD
ENDBRANCH   6  18
BRANCH  17  20
ATOM     20  O   UNL     1       5.555 -14.692   8.534  1.00  0.00    -0.507 OA
ATOM     21  H   UNL     1       6.063 -14.751   7.662  1.00  0.00     0.293 HD
ENDBRANCH  17  20
BRANCH  15  22
ATOM     22  O   UNL     1       5.131 -16.903  12.787  1.00  0.00    -0.508 OA
ATOM     23  H   UNL     1       5.964 -17.286  13.217  1.00  0.00     0.293 HD
ENDBRANCH  15  22
TORSDOF 3
ENDMDL
MODEL 2
REMARK VINA RESULT:    -5.126      1.642      3.573
REMARK INTER + INTRA:          -5.575
REMARK INTER:                  -5.575
REMARK INTRA:                   0.000
REMARK UNBOUND:                 0.000
REMARK SMILES Cc1cc(O)c2c(c1)C(=O)c1cc(O)cc(O)c1C2=O
REMARK SMILES IDX 1 1 2 2 8 3 7 4 6 5 4 6 3 7 19 8 20 9 18 10 11 11 9 12 10 13
REMARK SMILES IDX 12 14 13 15 15 16 16 17 5 18 17 20 14 22
REMARK H PARENT 5 19 17 21 14 23
REMARK Flexibility Score: inf
ROOT
ATOM      1  C   UNL     1       3.509 -15.132   2.989  1.00  0.00     0.044 C 
ATOM      2  C   UNL     1       3.709 -16.092   4.126  1.00  0.00    -0.047 A 
ATOM      3  C   UNL     1       4.032 -15.618   5.401  1.00  0.00     0.016 A 
ATOM      4  C   UNL     1       4.265 -16.510   6.461  1.00  0.00     0.038 A 
ATOM      5  C   UNL     1       4.199 -17.903   6.233  1.00  0.00     0.076 A 
ATOM      6  C   UNL     1       3.826 -18.378   4.950  1.00  0.00     0.127 A 
ATOM      7  C   UNL     1       3.619 -17.471   3.906  1.00  0.00     0.050 A 
ATOM      8  C   UNL     1       4.595 -18.814   7.339  1.00  0.00     0.201 C 
ATOM      9  O   UNL     1       5.100 -19.938   7.077  1.00  0.00    -0.288 OA
ATOM     10  C   UNL     1       4.571 -18.325   8.742  1.00  0.00     0.076 A 
ATOM     11  C   UNL     1       4.637 -16.931   8.964  1.00  0.00     0.041 A 
ATOM     12  C   UNL     1       4.577 -15.996   7.815  1.00  0.00     0.194 C 
ATOM     13  O   UNL     1       4.764 -14.762   7.996  1.00  0.00    -0.289 OA
ATOM     14  C   UNL     1       4.757 -16.436  10.274  1.00  0.00     0.059 A 
ATOM     15  C   UNL     1       4.794 -17.309  11.361  1.00  0.00     0.120 A 
ATOM     16  C   UNL     1       4.687 -18.686  11.150  1.00  0.00     0.093 A 
ATOM     17  C   UNL     1       4.548 -19.202   9.858  1.00  0.00     0.131 A 
ENDROOT
BRANCH   6  18
ATOM     18  O   UNL     1       3.619 -19.732   4.677  1.00  0.00    -0.507 OA
ATOM     19  H   UNL     1       3.415 -20.092   3.755  1.00  0.00     0.293 HD
ENDBRANCH   6  18
BRANCH  17  20
ATOM     20  O   UNL     1       4.356 -20.580   9.731  1.00  0.00    -0.507 OA
ATOM     21  H   UNL     1       4.945 -21.177   9.166  1.00  0.00     0.293 HD
ENDBRANCH  17  20
BRANCH  15  22
ATOM     22  O   UNL     1       4.925 -16.797  12.650  1.00  0.00    -0.508 OA
ATOM     23  H   UNL     1       4.380 -17.161  13.423  1.00  0.00     0.293 HD
ENDBRANCH  15  22
TORSDOF 3
ENDMDL
MODEL 3
REMARK VINA RESULT:    -4.716      2.126      5.827
REMARK INTER + INTRA:          -5.130
REMARK INTER:                  -5.130
REMARK INTRA:                   0.000
REMARK UNBOUND:                 0.000
REMARK SMILES Cc1cc(O)c2c(c1)C(=O)c1cc(O)cc(O)c1C2=O
REMARK SMILES IDX 1 1 2 2 8 3 7 4 6 5 4 6 3 7 19 8 20 9 18 10 11 11 9 12 10 13
REMARK SMILES IDX 12 14 13 15 15 16 16 17 5 18 17 20 14 22
REMARK H PARENT 5 19 17 21 14 23
REMARK Flexibility Score: inf
ROOT
ATOM      1  C   UNL     1       4.623 -12.371   6.624  1.00  0.00     0.044 C 
ATOM      2  C   UNL     1       4.739 -13.791   7.096  1.00  0.00    -0.047 A 
ATOM      3  C   UNL     1       4.412 -14.847   6.240  1.00  0.00     0.016 A 
ATOM      4  C   UNL     1       4.475 -16.178   6.686  1.00  0.00     0.038 A 
ATOM      5  C   UNL     1       4.846 -16.455   8.021  1.00  0.00     0.076 A 
ATOM      6  C   UNL     1       5.221 -15.383   8.872  1.00  0.00     0.127 A 
ATOM      7  C   UNL     1       5.131 -14.066   8.411  1.00  0.00     0.050 A 
ATOM      8  C   UNL     1       4.758 -17.860   8.497  1.00  0.00     0.201 C 
ATOM      9  O   UNL     1       4.510 -18.098   9.709  1.00  0.00    -0.288 OA
ATOM     10  C   UNL     1       4.774 -18.974   7.514  1.00  0.00     0.076 A 
ATOM     11  C   UNL     1       4.402 -18.692   6.180  1.00  0.00     0.041 A 
ATOM     12  C   UNL     1       4.156 -17.292   5.762  1.00  0.00     0.194 C 
ATOM     13  O   UNL     1       3.701 -17.048   4.612  1.00  0.00    -0.289 OA
ATOM     14  C   UNL     1       4.270 -19.742   5.255  1.00  0.00     0.059 A 
ATOM     15  C   UNL     1       4.520 -21.060   5.637  1.00  0.00     0.120 A 
ATOM     16  C   UNL     1       4.928 -21.339   6.944  1.00  0.00     0.093 A 
ATOM     17  C   UNL     1       5.085 -20.310   7.878  1.00  0.00     0.131 A 
ENDROOT
BRANCH   6  18
ATOM     18  O   UNL     1       5.716 -15.581  10.163  1.00  0.00    -0.507 OA
ATOM     19  H   UNL     1       6.354 -16.325  10.408  1.00  0.00     0.293 HD
ENDBRANCH   6  18
BRANCH  17  20
ATOM     20  O   UNL     1       5.582 -20.654   9.137  1.00  0.00    -0.507 OA
ATOM     21  H   UNL     1       6.478 -20.344   9.488  1.00  0.00     0.293 HD
ENDBRANCH  17  20
BRANCH  15  22
ATOM     22  O   UNL     1       4.371 -22.085   4.705  1.00  0.00    -0.508 OA
ATOM     23  H   UNL     1       4.130 -23.028   4.988  1.00  0.00     0.293 HD
ENDBRANCH  15  22
TORSDOF 3
ENDMDL
MODEL 4
REMARK VINA RESULT:    -4.574     10.724     13.065
REMARK INTER + INTRA:          -4.975
REMARK INTER:                  -4.975
REMARK INTRA:                   0.000
REMARK UNBOUND:                 0.000
REMARK SMILES Cc1cc(O)c2c(c1)C(=O)c1cc(O)cc(O)c1C2=O
REMARK SMILES IDX 1 1 2 2 8 3 7 4 6 5 4 6 3 7 19 8 20 9 18 10 11 11 9 12 10 13
REMARK SMILES IDX 12 14 13 15 15 16 16 17 5 18 17 20 14 22
REMARK H PARENT 5 19 17 21 14 23
REMARK Flexibility Score: inf
ROOT
ATOM      1  C   UNL     1       4.987 -10.878   6.524  1.00  0.00     0.044 C 
ATOM      2  C   UNL     1       5.120  -9.408   6.249  1.00  0.00    -0.047 A 
ATOM      3  C   UNL     1       6.384  -8.810   6.218  1.00  0.00     0.016 A 
ATOM      4  C   UNL     1       6.517  -7.427   6.005  1.00  0.00     0.038 A 
ATOM      5  C   UNL     1       5.363  -6.626   5.847  1.00  0.00     0.076 A 
ATOM      6  C   UNL     1       4.087  -7.245   5.834  1.00  0.00     0.127 A 
ATOM      7  C   UNL     1       3.979  -8.620   6.068  1.00  0.00     0.050 A 
ATOM      8  C   UNL     1       5.538  -5.152   5.772  1.00  0.00     0.201 C 
ATOM      9  O   UNL     1       4.629  -4.390   6.197  1.00  0.00    -0.288 OA
ATOM     10  C   UNL     1       6.852  -4.584   5.376  1.00  0.00     0.076 A 
ATOM     11  C   UNL     1       8.003  -5.389   5.536  1.00  0.00     0.041 A 
ATOM     12  C   UNL     1       7.861  -6.807   5.943  1.00  0.00     0.194 C 
ATOM     13  O   UNL     1       8.886  -7.491   6.211  1.00  0.00    -0.289 OA
ATOM     14  C   UNL     1       9.277  -4.842   5.303  1.00  0.00     0.059 A 
ATOM     15  C   UNL     1       9.415  -3.514   4.900  1.00  0.00     0.120 A 
ATOM     16  C   UNL     1       8.279  -2.726   4.701  1.00  0.00     0.093 A 
ATOM     17  C   UNL     1       7.000  -3.252   4.906  1.00  0.00     0.131 A 
ENDROOT
BRANCH   6  18
ATOM     18  O   UNL     1       2.910  -6.544   5.562  1.00  0.00    -0.507 OA
ATOM     19  H   UNL     1       2.810  -5.547   5.695  1.00  0.00     0.293 HD
ENDBRANCH   6  18
BRANCH  17  20
ATOM     20  O   UNL     1       5.909  -2.434   4.600  1.00  0.00    -0.507 OA
ATOM     21  H   UNL     1       5.673  -2.146   3.661  1.00  0.00     0.293 HD
ENDBRANCH  17  20
BRANCH  15  22
ATOM     22  O   UNL     1      10.688  -2.990   4.688  1.00  0.00    -0.508 OA
ATOM     23  H   UNL     1      11.328  -3.403   4.020  1.00  0.00     0.293 HD
ENDBRANCH  15  22
TORSDOF 3
ENDMDL
MODEL 5
REMARK VINA RESULT:    -4.248      1.522      6.235
REMARK INTER + INTRA:          -4.620
REMARK INTER:                  -4.620
REMARK INTRA:                   0.000
REMARK UNBOUND:                 0.000
REMARK SMILES Cc1cc(O)c2c(c1)C(=O)c1cc(O)cc(O)c1C2=O
REMARK SMILES IDX 1 1 2 2 8 3 7 4 6 5 4 6 3 7 19 8 20 9 18 10 11 11 9 12 10 13
REMARK SMILES IDX 12 14 13 15 15 16 16 17 5 18 17 20 14 22
REMARK H PARENT 5 19 17 21 14 23
REMARK Flexibility Score: inf
ROOT
ATOM      1  C   UNL     1       4.063 -15.218  12.064  1.00  0.00     0.044 C 
ATOM      2  C   UNL     1       4.254 -16.406  11.166  1.00  0.00    -0.047 A 
ATOM      3  C   UNL     1       3.988 -16.304   9.797  1.00  0.00     0.016 A 
ATOM      4  C   UNL     1       4.121 -17.422   8.956  1.00  0.00     0.038 A 
ATOM      5  C   UNL     1       4.502 -18.670   9.500  1.00  0.00     0.076 A 
ATOM      6  C   UNL     1       4.815 -18.756  10.881  1.00  0.00     0.127 A 
ATOM      7  C   UNL     1       4.656 -17.635  11.701  1.00  0.00     0.050 A 
ATOM      8  C   UNL     1       4.489 -19.857   8.607  1.00  0.00     0.201 C 
ATOM      9  O   UNL     1       4.249 -20.999   9.084  1.00  0.00    -0.288 OA
ATOM     10  C   UNL     1       4.568 -19.675   7.134  1.00  0.00     0.076 A 
ATOM     11  C   UNL     1       4.186 -18.425   6.595  1.00  0.00     0.041 A 
ATOM     12  C   UNL     1       3.866 -17.297   7.502  1.00  0.00     0.194 C 
ATOM     13  O   UNL     1       3.403 -16.222   7.031  1.00  0.00    -0.289 OA
ATOM     14  C   UNL     1       4.115 -18.257   5.202  1.00  0.00     0.059 A 
ATOM     15  C   UNL     1       4.435 -19.309   4.344  1.00  0.00     0.120 A 
ATOM     16  C   UNL     1       4.852 -20.534   4.871  1.00  0.00     0.093 A 
ATOM     17  C   UNL     1       4.950 -20.720   6.254  1.00  0.00     0.131 A 
ENDROOT
BRANCH   6  18
ATOM     18  O   UNL     1       5.316 -19.919  11.470  1.00  0.00    -0.507 OA
ATOM     19  H   UNL     1       5.366 -20.063  12.469  1.00  0.00     0.293 HD
ENDBRANCH   6  18
BRANCH  17  20
ATOM     20  O   UNL     1       5.461 -21.940   6.706  1.00  0.00    -0.507 OA
ATOM     21  H   UNL     1       5.095 -22.436   7.507  1.00  0.00     0.293 HD
ENDBRANCH  17  20
BRANCH  15  22
ATOM     22  O   UNL     1       4.345 -19.124   2.966  1.00  0.00    -0.508 OA
ATOM     23  H   UNL     1       4.960 -18.484   2.476  1.00  0.00     0.293 HD
ENDBRANCH  15  22
TORSDOF 3
ENDMDL
MODEL 6
REMARK VINA RESULT:    -4.190      2.441      5.196
REMARK INTER + INTRA:          -4.558
REMARK INTER:                  -4.558
REMARK INTRA:                   0.000
REMARK UNBOUND:                 0.000
REMARK SMILES Cc1cc(O)c2c(c1)C(=O)c1cc(O)cc(O)c1C2=O
REMARK SMILES IDX 1 1 2 2 8 3 7 4 6 5 4 6 3 7 19 8 20 9 18 10 11 11 9 12 10 13
REMARK SMILES IDX 12 14 13 15 15 16 16 17 5 18 17 20 14 22
REMARK H PARENT 5 19 17 21 14 23
REMARK Flexibility Score: inf
ROOT
ATOM      1  C   UNL     1       3.176 -20.487   9.625  1.00  0.00     0.044 C 
ATOM      2  C   UNL     1       3.541 -19.075   9.269  1.00  0.00    -0.047 A 
ATOM      3  C   UNL     1       3.509 -18.654   7.936  1.00  0.00     0.016 A 
ATOM      4  C   UNL     1       3.891 -17.347   7.587  1.00  0.00     0.038 A 
ATOM      5  C   UNL     1       4.340 -16.456   8.587  1.00  0.00     0.076 A 
ATOM      6  C   UNL     1       4.328 -16.874   9.943  1.00  0.00     0.127 A 
ATOM      7  C   UNL     1       3.962 -18.185  10.263  1.00  0.00     0.050 A 
ATOM      8  C   UNL     1       4.874 -15.136   8.162  1.00  0.00     0.201 C 
ATOM      9  O   UNL     1       5.766 -14.569   8.848  1.00  0.00    -0.288 OA
ATOM     10  C   UNL     1       4.497 -14.580   6.836  1.00  0.00     0.076 A 
ATOM     11  C   UNL     1       4.049 -15.475   5.839  1.00  0.00     0.041 A 
ATOM     12  C   UNL     1       3.824 -16.901   6.175  1.00  0.00     0.194 C 
ATOM     13  O   UNL     1       3.548 -17.728   5.264  1.00  0.00    -0.289 OA
ATOM     14  C   UNL     1       3.815 -15.009   4.535  1.00  0.00     0.059 A 
ATOM     15  C   UNL     1       4.006 -13.664   4.217  1.00  0.00     0.120 A 
ATOM     16  C   UNL     1       4.410 -12.767   5.209  1.00  0.00     0.093 A 
ATOM     17  C   UNL     1       4.629 -13.202   6.520  1.00  0.00     0.131 A 
ENDROOT
BRANCH   6  18
ATOM     18  O   UNL     1       4.638 -16.015  11.000  1.00  0.00    -0.507 OA
ATOM     19  H   UNL     1       5.523 -15.536  11.090  1.00  0.00     0.293 HD
ENDBRANCH   6  18
BRANCH  17  20
ATOM     20  O   UNL     1       4.943 -12.234   7.477  1.00  0.00    -0.507 OA
ATOM     21  H   UNL     1       5.281 -11.310   7.247  1.00  0.00     0.293 HD
ENDBRANCH  17  20
BRANCH  15  22
ATOM     22  O   UNL     1       3.780 -13.227   2.914  1.00  0.00    -0.508 OA
ATOM     23  H   UNL     1       2.924 -13.451   2.421  1.00  0.00     0.293 HD
ENDBRANCH  15  22
TORSDOF 3
ENDMDL
MODEL 7
REMARK VINA RESULT:    -4.141      2.550      4.312
REMARK INTER + INTRA:          -4.504
REMARK INTER:                  -4.504
REMARK INTRA:                   0.000
REMARK UNBOUND:                 0.000
REMARK SMILES Cc1cc(O)c2c(c1)C(=O)c1cc(O)cc(O)c1C2=O
REMARK SMILES IDX 1 1 2 2 8 3 7 4 6 5 4 6 3 7 19 8 20 9 18 10 11 11 9 12 10 13
REMARK SMILES IDX 12 14 13 15 15 16 16 17 5 18 17 20 14 22
REMARK H PARENT 5 19 17 21 14 23
REMARK Flexibility Score: inf
ROOT
ATOM      1  C   UNL     1       5.155 -20.970   8.481  1.00  0.00     0.044 C 
ATOM      2  C   UNL     1       4.865 -19.808   7.576  1.00  0.00    -0.047 A 
ATOM      3  C   UNL     1       4.906 -18.501   8.073  1.00  0.00     0.016 A 
ATOM      4  C   UNL     1       4.592 -17.410   7.246  1.00  0.00     0.038 A 
ATOM      5  C   UNL     1       4.205 -17.632   5.905  1.00  0.00     0.076 A 
ATOM      6  C   UNL     1       4.211 -18.956   5.394  1.00  0.00     0.127 A 
ATOM      7  C   UNL     1       4.507 -20.027   6.242  1.00  0.00     0.050 A 
ATOM      8  C   UNL     1       3.740 -16.468   5.107  1.00  0.00     0.201 C 
ATOM      9  O   UNL     1       2.890 -16.634   4.192  1.00  0.00    -0.288 OA
ATOM     10  C   UNL     1       4.133 -15.093   5.510  1.00  0.00     0.076 A 
ATOM     11  C   UNL     1       4.518 -14.875   6.852  1.00  0.00     0.041 A 
ATOM     12  C   UNL     1       4.668 -16.027   7.773  1.00  0.00     0.194 C 
ATOM     13  O   UNL     1       4.886 -15.829   9.000  1.00  0.00    -0.289 OA
ATOM     14  C   UNL     1       4.762 -13.568   7.306  1.00  0.00     0.059 A 
ATOM     15  C   UNL     1       4.643 -12.482   6.439  1.00  0.00     0.120 A 
ATOM     16  C   UNL     1       4.301 -12.696   5.101  1.00  0.00     0.093 A 
ATOM     17  C   UNL     1       4.073 -13.989   4.620  1.00  0.00     0.131 A 
ENDROOT
BRANCH   6  18
ATOM     18  O   UNL     1       3.961 -19.247   4.051  1.00  0.00    -0.507 OA
ATOM     19  H   UNL     1       4.678 -19.258   3.339  1.00  0.00     0.293 HD
ENDBRANCH   6  18
BRANCH  17  20
ATOM     20  O   UNL     1       3.825 -14.134   3.253  1.00  0.00    -0.507 OA
ATOM     21  H   UNL     1       4.458 -14.599   2.617  1.00  0.00     0.293 HD
ENDBRANCH  17  20
BRANCH  15  22
ATOM     22  O   UNL     1       4.877 -11.194   6.915  1.00  0.00    -0.508 OA
ATOM     23  H   UNL     1       5.500 -10.556   6.433  1.00  0.00     0.293 HD
ENDBRANCH  15  22
TORSDOF 3
ENDMDL
MODEL 8
REMARK VINA RESULT:    -3.948      2.150      5.628
REMARK INTER + INTRA:          -4.294
REMARK INTER:                  -4.294
REMARK INTRA:                   0.000
REMARK UNBOUND:                 0.000
REMARK SMILES Cc1cc(O)c2c(c1)C(=O)c1cc(O)cc(O)c1C2=O
REMARK SMILES IDX 1 1 2 2 8 3 7 4 6 5 4 6 3 7 19 8 20 9 18 10 11 11 9 12 10 13
REMARK SMILES IDX 12 14 13 15 15 16 16 17 5 18 17 20 14 22
REMARK H PARENT 5 19 17 21 14 23
REMARK Flexibility Score: inf
ROOT
ATOM      1  C   UNL     1       4.714 -19.122  11.570  1.00  0.00     0.044 C 
ATOM      2  C   UNL     1       4.580 -19.182  10.076  1.00  0.00    -0.047 A 
ATOM      3  C   UNL     1       4.268 -18.029   9.349  1.00  0.00     0.016 A 
ATOM      4  C   UNL     1       4.097 -18.084   7.956  1.00  0.00     0.038 A 
ATOM      5  C   UNL     1       4.214 -19.320   7.282  1.00  0.00     0.076 A 
ATOM      6  C   UNL     1       4.576 -20.478   8.017  1.00  0.00     0.127 A 
ATOM      7  C   UNL     1       4.722 -20.402   9.406  1.00  0.00     0.050 A 
ATOM      8  C   UNL     1       3.882 -19.364   5.834  1.00  0.00     0.201 C 
ATOM      9  O   UNL     1       3.417 -20.420   5.328  1.00  0.00    -0.288 OA
ATOM     10  C   UNL     1       3.918 -18.114   5.030  1.00  0.00     0.076 A 
ATOM     11  C   UNL     1       3.800 -16.881   5.709  1.00  0.00     0.041 A 
ATOM     12  C   UNL     1       3.796 -16.851   7.191  1.00  0.00     0.194 C 
ATOM     13  O   UNL     1       3.562 -15.771   7.799  1.00  0.00    -0.289 OA
ATOM     14  C   UNL     1       3.691 -15.687   4.976  1.00  0.00     0.059 A 
ATOM     15  C   UNL     1       3.715 -15.706   3.581  1.00  0.00     0.120 A 
ATOM     16  C   UNL     1       3.872 -16.920   2.906  1.00  0.00     0.093 A 
ATOM     17  C   UNL     1       4.003 -18.119   3.613  1.00  0.00     0.131 A 
ENDROOT
BRANCH   6  18
ATOM     18  O   UNL     1       4.832 -21.709   7.409  1.00  0.00    -0.507 OA
ATOM     19  H   UNL     1       5.681 -21.916   6.900  1.00  0.00     0.293 HD
ENDBRANCH   6  18
BRANCH  17  20
ATOM     20  O   UNL     1       4.248 -19.279   2.875  1.00  0.00    -0.507 OA
ATOM     21  H   UNL     1       4.771 -19.292   2.011  1.00  0.00     0.293 HD
ENDBRANCH  17  20
BRANCH  15  22
ATOM     22  O   UNL     1       3.593 -14.512   2.875  1.00  0.00    -0.508 OA
ATOM     23  H   UNL     1       4.400 -13.938   2.660  1.00  0.00     0.293 HD
ENDBRANCH  15  22
TORSDOF 3
ENDMDL
