MODEL 1
REMARK VINA RESULT:    -5.912      0.000      0.000
REMARK INTER + INTRA:          -5.912
REMARK INTER:                  -5.912
REMARK INTRA:                   0.000
REMARK UNBOUND:                 0.000
REMARK SMILES O=c1ccc2ccccc2o1
REMARK SMILES IDX 7 1 8 2 9 3 10 4 5 5 6 6 4 7 3 8 2 9 1 10 11 11
REMARK H PARENT
REMARK Flexibility Score: inf
ROOT
ATOM      1  C   UNL     1      13.999   0.731  28.279  1.00  0.00     0.001 A 
ATOM      2  C   UNL     1      14.767   1.401  27.321  1.00  0.00     0.004 A 
ATOM      3  C   UNL     1      14.268   1.594  26.028  1.00  0.00     0.048 A 
ATOM      4  C   UNL     1      12.997   1.118  25.689  1.00  0.00     0.138 A 
ATOM      5  C   UNL     1      12.220   0.442  26.657  1.00  0.00     0.018 A 
ATOM      6  C   UNL     1      12.726   0.251  27.951  1.00  0.00     0.012 A 
ATOM      7  C   UNL     1      10.954  -0.022  26.290  1.00  0.00     0.019 A 
ATOM      8  C   UNL     1      10.497   0.194  24.989  1.00  0.00     0.094 A 
ATOM      9  C   UNL     1      11.321   0.872  24.085  1.00  0.00     0.336 A 
ATOM     10  O   UNL     1      10.927   1.075  22.907  1.00  0.00    -0.246 OA
ATOM     11  O   UNL     1      12.523   1.302  24.460  1.00  0.00    -0.423 OA
ENDROOT
TORSDOF 0
ENDMDL
MODEL 2
REMARK VINA RESULT:    -5.812      1.872      3.307
REMARK INTER + INTRA:          -5.812
REMARK INTER:                  -5.812
REMARK INTRA:                   0.000
REMARK UNBOUND:                 0.000
REMARK SMILES O=c1ccc2ccccc2o1
REMARK SMILES IDX 7 1 8 2 9 3 10 4 5 5 6 6 4 7 3 8 2 9 1 10 11 11
REMARK H PARENT
REMARK Flexibility Score: inf
ROOT
ATOM      1  C   UNL     1      14.146  -1.654  26.837  1.00  0.00     0.001 A 
ATOM      2  C   UNL     1      12.781  -1.427  26.631  1.00  0.00     0.004 A 
ATOM      3  C   UNL     1      12.345  -0.226  26.059  1.00  0.00     0.048 A 
ATOM      4  C   UNL     1      13.275   0.752  25.691  1.00  0.00     0.138 A 
ATOM      5  C   UNL     1      14.653   0.523  25.898  1.00  0.00     0.018 A 
ATOM      6  C   UNL     1      15.083  -0.683  26.471  1.00  0.00     0.012 A 
ATOM      7  C   UNL     1      15.559   1.518  25.519  1.00  0.00     0.019 A 
ATOM      8  C   UNL     1      15.079   2.699  24.952  1.00  0.00     0.094 A 
ATOM      9  C   UNL     1      13.700   2.856  24.777  1.00  0.00     0.336 A 
ATOM     10  O   UNL     1      13.248   3.916  24.269  1.00  0.00    -0.246 OA
ATOM     11  O   UNL     1      12.860   1.893  25.147  1.00  0.00    -0.423 OA
ENDROOT
TORSDOF 0
ENDMDL
MODEL 3
REMARK VINA RESULT:    -5.787      6.859      7.809
REMARK INTER + INTRA:          -5.787
REMARK INTER:                  -5.787
REMARK INTRA:                   0.000
REMARK UNBOUND:                 0.000
REMARK SMILES O=c1ccc2ccccc2o1
REMARK SMILES IDX 7 1 8 2 9 3 10 4 5 5 6 6 4 7 3 8 2 9 1 10 11 11
REMARK H PARENT
REMARK Flexibility Score: inf
ROOT
ATOM      1  C   UNL     1      12.103   7.178  21.364  1.00  0.00     0.001 A 
ATOM      2  C   UNL     1      12.325   7.568  20.039  1.00  0.00     0.004 A 
ATOM      3  C   UNL     1      11.976   6.716  18.985  1.00  0.00     0.048 A 
ATOM      4  C   UNL     1      11.402   5.468  19.255  1.00  0.00     0.138 A 
ATOM      5  C   UNL     1      11.178   5.074  20.593  1.00  0.00     0.018 A 
ATOM      6  C   UNL     1      11.530   5.933  21.644  1.00  0.00     0.012 A 
ATOM      7  C   UNL     1      10.603   3.822  20.831  1.00  0.00     0.019 A 
ATOM      8  C   UNL     1      10.270   3.006  19.750  1.00  0.00     0.094 A 
ATOM      9  C   UNL     1      10.521   3.462  18.452  1.00  0.00     0.336 A 
ATOM     10  O   UNL     1      10.229   2.739  17.464  1.00  0.00    -0.246 OA
ATOM     11  O   UNL     1      11.070   4.658  18.253  1.00  0.00    -0.423 OA
ENDROOT
TORSDOF 0
ENDMDL
MODEL 4
REMARK VINA RESULT:    -5.767      9.988     11.320
REMARK INTER + INTRA:          -5.767
REMARK INTER:                  -5.767
REMARK INTRA:                   0.000
REMARK UNBOUND:                 0.000
REMARK SMILES O=c1ccc2ccccc2o1
REMARK SMILES IDX 7 1 8 2 9 3 10 4 5 5 6 6 4 7 3 8 2 9 1 10 11 11
REMARK H PARENT
REMARK Flexibility Score: inf
ROOT
ATOM      1  C   UNL     1      18.428  -3.187  34.102  1.00  0.00     0.001 A 
ATOM      2  C   UNL     1      17.118  -2.965  33.662  1.00  0.00     0.004 A 
ATOM      3  C   UNL     1      16.346  -4.029  33.183  1.00  0.00     0.048 A 
ATOM      4  C   UNL     1      16.881  -5.322  33.144  1.00  0.00     0.138 A 
ATOM      5  C   UNL     1      18.203  -5.547  33.589  1.00  0.00     0.018 A 
ATOM      6  C   UNL     1      18.972  -4.475  34.067  1.00  0.00     0.012 A 
ATOM      7  C   UNL     1      18.712  -6.848  33.538  1.00  0.00     0.019 A 
ATOM      8  C   UNL     1      17.905  -7.878  33.054  1.00  0.00     0.094 A 
ATOM      9  C   UNL     1      16.606  -7.581  32.631  1.00  0.00     0.336 A 
ATOM     10  O   UNL     1      15.863  -8.497  32.190  1.00  0.00    -0.246 OA
ATOM     11  O   UNL     1      16.147  -6.333  32.689  1.00  0.00    -0.423 OA
ENDROOT
TORSDOF 0
ENDMDL
MODEL 5
REMARK VINA RESULT:    -5.766      6.604      8.412
REMARK INTER + INTRA:          -5.766
REMARK INTER:                  -5.766
REMARK INTRA:                   0.000
REMARK UNBOUND:                 0.000
REMARK SMILES O=c1ccc2ccccc2o1
REMARK SMILES IDX 7 1 8 2 9 3 10 4 5 5 6 6 4 7 3 8 2 9 1 10 11 11
REMARK H PARENT
REMARK Flexibility Score: inf
ROOT
ATOM      1  C   UNL     1      10.415   3.054  19.185  1.00  0.00     0.001 A 
ATOM      2  C   UNL     1      10.162   3.096  20.560  1.00  0.00     0.004 A 
ATOM      3  C   UNL     1      10.529   4.219  21.311  1.00  0.00     0.048 A 
ATOM      4  C   UNL     1      11.150   5.306  20.686  1.00  0.00     0.138 A 
ATOM      5  C   UNL     1      11.405   5.264  19.297  1.00  0.00     0.018 A 
ATOM      6  C   UNL     1      11.035   4.136  18.551  1.00  0.00     0.012 A 
ATOM      7  C   UNL     1      12.027   6.365  18.700  1.00  0.00     0.019 A 
ATOM      8  C   UNL     1      12.374   7.463  19.487  1.00  0.00     0.094 A 
ATOM      9  C   UNL     1      12.091   7.434  20.856  1.00  0.00     0.336 A 
ATOM     10  O   UNL     1      12.398   8.415  21.582  1.00  0.00    -0.246 OA
ATOM     11  O   UNL     1      11.499   6.373  21.399  1.00  0.00    -0.423 OA
ENDROOT
TORSDOF 0
ENDMDL
MODEL 6
REMARK VINA RESULT:    -5.699     10.331     11.245
REMARK INTER + INTRA:          -5.699
REMARK INTER:                  -5.699
REMARK INTRA:                   0.000
REMARK UNBOUND:                 0.000
REMARK SMILES O=c1ccc2ccccc2o1
REMARK SMILES IDX 7 1 8 2 9 3 10 4 5 5 6 6 4 7 3 8 2 9 1 10 11 11
REMARK H PARENT
REMARK Flexibility Score: inf
ROOT
ATOM      1  C   UNL     1      17.751  -2.493  35.186  1.00  0.00     0.001 A 
ATOM      2  C   UNL     1      17.357  -3.173  36.344  1.00  0.00     0.004 A 
ATOM      3  C   UNL     1      16.672  -4.389  36.249  1.00  0.00     0.048 A 
ATOM      4  C   UNL     1      16.377  -4.930  34.992  1.00  0.00     0.138 A 
ATOM      5  C   UNL     1      16.775  -4.244  33.822  1.00  0.00     0.018 A 
ATOM      6  C   UNL     1      17.462  -3.026  33.925  1.00  0.00     0.012 A 
ATOM      7  C   UNL     1      16.468  -4.809  32.581  1.00  0.00     0.019 A 
ATOM      8  C   UNL     1      15.783  -6.024  32.534  1.00  0.00     0.094 A 
ATOM      9  C   UNL     1      15.421  -6.646  33.734  1.00  0.00     0.336 A 
ATOM     10  O   UNL     1      14.801  -7.742  33.711  1.00  0.00    -0.246 OA
ATOM     11  O   UNL     1      15.725  -6.086  34.902  1.00  0.00    -0.423 OA
ENDROOT
TORSDOF 0
ENDMDL
MODEL 7
REMARK VINA RESULT:    -5.659      2.170      4.434
REMARK INTER + INTRA:          -5.659
REMARK INTER:                  -5.659
REMARK INTRA:                   0.000
REMARK UNBOUND:                 0.000
REMARK SMILES O=c1ccc2ccccc2o1
REMARK SMILES IDX 7 1 8 2 9 3 10 4 5 5 6 6 4 7 3 8 2 9 1 10 11 11
REMARK H PARENT
REMARK Flexibility Score: inf
ROOT
ATOM      1  C   UNL     1      11.748   1.103  24.213  1.00  0.00     0.001 A 
ATOM      2  C   UNL     1      10.817   0.338  24.923  1.00  0.00     0.004 A 
ATOM      3  C   UNL     1      11.070  -0.028  26.250  1.00  0.00     0.048 A 
ATOM      4  C   UNL     1      12.259   0.372  26.871  1.00  0.00     0.138 A 
ATOM      5  C   UNL     1      13.199   1.145  26.155  1.00  0.00     0.018 A 
ATOM      6  C   UNL     1      12.938   1.508  24.825  1.00  0.00     0.012 A 
ATOM      7  C   UNL     1      14.377   1.530  26.801  1.00  0.00     0.019 A 
ATOM      8  C   UNL     1      14.588   1.143  28.125  1.00  0.00     0.094 A 
ATOM      9  C   UNL     1      13.612   0.377  28.772  1.00  0.00     0.336 A 
ATOM     10  O   UNL     1      13.785   0.018  29.966  1.00  0.00    -0.246 OA
ATOM     11  O   UNL     1      12.500   0.024  28.132  1.00  0.00    -0.423 OA
ENDROOT
TORSDOF 0
ENDMDL
MODEL 8
REMARK VINA RESULT:    -5.652      6.764      7.774
REMARK INTER + INTRA:          -5.652
REMARK INTER:                  -5.652
REMARK INTRA:                   0.000
REMARK UNBOUND:                 0.000
REMARK SMILES O=c1ccc2ccccc2o1
REMARK SMILES IDX 7 1 8 2 9 3 10 4 5 5 6 6 4 7 3 8 2 9 1 10 11 11
REMARK H PARENT
REMARK Flexibility Score: inf
ROOT
ATOM      1  C   UNL     1      10.807   7.107  21.667  1.00  0.00     0.001 A 
ATOM      2  C   UNL     1      11.724   6.051  21.696  1.00  0.00     0.004 A 
ATOM      3  C   UNL     1      11.422   4.838  21.069  1.00  0.00     0.048 A 
ATOM      4  C   UNL     1      10.199   4.676  20.409  1.00  0.00     0.138 A 
ATOM      5  C   UNL     1       9.272   5.742  20.379  1.00  0.00     0.018 A 
ATOM      6  C   UNL     1       9.581   6.956  21.010  1.00  0.00     0.012 A 
ATOM      7  C   UNL     1       8.059   5.552  19.712  1.00  0.00     0.019 A 
ATOM      8  C   UNL     1       7.800   4.325  19.100  1.00  0.00     0.094 A 
ATOM      9  C   UNL     1       8.765   3.315  19.171  1.00  0.00     0.336 A 
ATOM     10  O   UNL     1       8.549   2.201  18.626  1.00  0.00    -0.246 OA
ATOM     11  O   UNL     1       9.912   3.522  19.813  1.00  0.00    -0.423 OA
ENDROOT
TORSDOF 0
ENDMDL
MODEL 9
REMARK VINA RESULT:    -5.642     10.374     11.577
REMARK INTER + INTRA:          -5.642
REMARK INTER:                  -5.642
REMARK INTRA:                   0.000
REMARK UNBOUND:                 0.000
REMARK SMILES O=c1ccc2ccccc2o1
REMARK SMILES IDX 7 1 8 2 9 3 10 4 5 5 6 6 4 7 3 8 2 9 1 10 11 11
REMARK H PARENT
REMARK Flexibility Score: inf
ROOT
ATOM      1  C   UNL     1      16.139  -7.369  32.455  1.00  0.00     0.001 A 
ATOM      2  C   UNL     1      17.347  -7.878  32.943  1.00  0.00     0.004 A 
ATOM      3  C   UNL     1      18.285  -7.023  33.533  1.00  0.00     0.048 A 
ATOM      4  C   UNL     1      18.017  -5.654  33.637  1.00  0.00     0.138 A 
ATOM      5  C   UNL     1      16.796  -5.139  33.145  1.00  0.00     0.018 A 
ATOM      6  C   UNL     1      15.861  -6.002  32.555  1.00  0.00     0.012 A 
ATOM      7  C   UNL     1      16.555  -3.768  33.264  1.00  0.00     0.019 A 
ATOM      8  C   UNL     1      17.519  -2.953  33.859  1.00  0.00     0.094 A 
ATOM      9  C   UNL     1      18.704  -3.533  34.323  1.00  0.00     0.336 A 
ATOM     10  O   UNL     1      19.585  -2.814  34.863  1.00  0.00    -0.246 OA
ATOM     11  O   UNL     1      18.909  -4.841  34.198  1.00  0.00    -0.423 OA
ENDROOT
TORSDOF 0
ENDMDL
