MODEL 1
REMARK VINA RESULT:    -2.209      0.000      0.000
REMARK INTER + INTRA:          -2.655
REMARK INTER:                  -2.596
REMARK INTRA:                  -0.059
REMARK UNBOUND:                -0.059
REMARK SMILES CCCCC(=O)[O-]
REMARK SMILES IDX 4 1 5 2 6 3 7 4 3 5 2 6 1 7
REMARK H PARENT
REMARK Flexibility Score: inf
ROOT
ATOM      1  C   UNL     1     -19.941  26.595  -1.340  1.00  0.00     0.053 C 
ENDROOT
BRANCH   1   2
ATOM      2  C   UNL     1     -20.199  25.277  -2.005  1.00  0.00     0.041 C 
ATOM      3  O   UNL     1     -20.659  25.238  -3.177  1.00  0.00    -0.550 OA
ATOM      4  O   UNL     1     -19.899  24.094  -1.342  1.00  0.00    -0.550 OA
ENDBRANCH   1   2
BRANCH   1   5
ATOM      5  C   UNL     1     -20.713  26.726  -0.021  1.00  0.00     0.006 C 
BRANCH   5   6
ATOM      6  C   UNL     1     -22.125  27.293  -0.228  1.00  0.00    -0.003 C 
ATOM      7  C   UNL     1     -22.109  28.819  -0.240  1.00  0.00     0.004 C 
ENDBRANCH   5   6
ENDBRANCH   1   5
TORSDOF 3
ENDMDL
MODEL 2
REMARK VINA RESULT:    -2.197     19.193     19.899
REMARK INTER + INTRA:          -2.642
REMARK INTER:                  -2.611
REMARK INTRA:                  -0.031
REMARK UNBOUND:                -0.059
REMARK SMILES CCCCC(=O)[O-]
REMARK SMILES IDX 4 1 5 2 6 3 7 4 3 5 2 6 1 7
REMARK H PARENT
REMARK Flexibility Score: inf
ROOT
ATOM      1  C   UNL     1     -17.911  34.014 -18.768  1.00  0.00     0.053 C 
ENDROOT
BRANCH   1   2
ATOM      2  C   UNL     1     -19.393  33.832 -18.888  1.00  0.00     0.041 C 
ATOM      3  O   UNL     1     -20.148  34.125 -17.923  1.00  0.00    -0.550 OA
ATOM      4  O   UNL     1     -19.943  33.369 -20.077  1.00  0.00    -0.550 OA
ENDBRANCH   1   2
BRANCH   1   5
ATOM      5  C   UNL     1     -17.171  33.468 -19.995  1.00  0.00     0.006 C 
BRANCH   5   6
ATOM      6  C   UNL     1     -15.804  32.870 -19.630  1.00  0.00    -0.003 C 
ATOM      7  C   UNL     1     -15.068  33.752 -18.626  1.00  0.00     0.004 C 
ENDBRANCH   5   6
ENDBRANCH   1   5
TORSDOF 3
ENDMDL
MODEL 3
REMARK VINA RESULT:    -1.916     20.852     22.031
REMARK INTER + INTRA:          -2.311
REMARK INTER:                  -2.283
REMARK INTRA:                  -0.028
REMARK UNBOUND:                -0.059
REMARK SMILES CCCCC(=O)[O-]
REMARK SMILES IDX 4 1 5 2 6 3 7 4 3 5 2 6 1 7
REMARK H PARENT
REMARK Flexibility Score: inf
ROOT
ATOM      1  C   UNL     1      -3.341  16.712 -10.585  1.00  0.00     0.053 C 
ENDROOT
BRANCH   1   2
ATOM      2  C   UNL     1      -3.974  18.055 -10.780  1.00  0.00     0.041 C 
ATOM      3  O   UNL     1      -3.257  19.086 -10.881  1.00  0.00    -0.550 OA
ATOM      4  O   UNL     1      -5.356  18.164 -10.882  1.00  0.00    -0.550 OA
ENDBRANCH   1   2
BRANCH   1   5
ATOM      5  C   UNL     1      -4.341  15.573 -10.819  1.00  0.00     0.006 C 
BRANCH   5   6
ATOM      6  C   UNL     1      -3.986  14.314 -10.014  1.00  0.00    -0.003 C 
ATOM      7  C   UNL     1      -2.543  13.888 -10.266  1.00  0.00     0.004 C 
ENDBRANCH   5   6
ENDBRANCH   1   5
TORSDOF 3
ENDMDL
MODEL 4
REMARK VINA RESULT:    -1.848     20.908     22.062
REMARK INTER + INTRA:          -2.231
REMARK INTER:                  -2.198
REMARK INTRA:                  -0.033
REMARK UNBOUND:                -0.059
REMARK SMILES CCCCC(=O)[O-]
REMARK SMILES IDX 4 1 5 2 6 3 7 4 3 5 2 6 1 7
REMARK H PARENT
REMARK Flexibility Score: inf
ROOT
ATOM      1  C   UNL     1      -3.397  16.570 -10.627  1.00  0.00     0.053 C 
ENDROOT
BRANCH   1   2
ATOM      2  C   UNL     1      -4.014  17.924 -10.802  1.00  0.00     0.041 C 
ATOM      3  O   UNL     1      -5.264  18.045 -10.895  1.00  0.00    -0.550 OA
ATOM      4  O   UNL     1      -3.209  19.056 -10.829  1.00  0.00    -0.550 OA
ENDBRANCH   1   2
BRANCH   1   5
ATOM      5  C   UNL     1      -4.437  15.451 -10.762  1.00  0.00     0.006 C 
BRANCH   5   6
ATOM      6  C   UNL     1      -3.994  14.159 -10.059  1.00  0.00    -0.003 C 
ATOM      7  C   UNL     1      -2.492  13.936 -10.214  1.00  0.00     0.004 C 
ENDBRANCH   5   6
ENDBRANCH   1   5
TORSDOF 3
ENDMDL
MODEL 5
REMARK VINA RESULT:    -1.644     19.767     21.095
REMARK INTER + INTRA:          -1.992
REMARK INTER:                  -1.970
REMARK INTRA:                  -0.021
REMARK UNBOUND:                -0.059
REMARK SMILES CCCCC(=O)[O-]
REMARK SMILES IDX 4 1 5 2 6 3 7 4 3 5 2 6 1 7
REMARK H PARENT
REMARK Flexibility Score: inf
ROOT
ATOM      1  C   UNL     1      -3.796  18.504 -10.843  1.00  0.00     0.053 C 
ENDROOT
BRANCH   1   2
ATOM      2  C   UNL     1      -4.866  19.537 -11.017  1.00  0.00     0.041 C 
ATOM      3  O   UNL     1      -6.081  19.205 -10.979  1.00  0.00    -0.550 OA
ATOM      4  O   UNL     1      -4.522  20.872 -11.187  1.00  0.00    -0.550 OA
ENDBRANCH   1   2
BRANCH   1   5
ATOM      5  C   UNL     1      -4.375  17.084 -10.827  1.00  0.00     0.006 C 
BRANCH   5   6
ATOM      6  C   UNL     1      -3.319  16.031 -10.456  1.00  0.00    -0.003 C 
ATOM      7  C   UNL     1      -3.938  14.638 -10.369  1.00  0.00     0.004 C 
ENDBRANCH   5   6
ENDBRANCH   1   5
TORSDOF 3
ENDMDL
MODEL 6
REMARK VINA RESULT:    -1.608     18.835     19.990
REMARK INTER + INTRA:          -1.949
REMARK INTER:                  -1.891
REMARK INTRA:                  -0.058
REMARK UNBOUND:                -0.059
REMARK SMILES CCCCC(=O)[O-]
REMARK SMILES IDX 4 1 5 2 6 3 7 4 3 5 2 6 1 7
REMARK H PARENT
REMARK Flexibility Score: inf
ROOT
ATOM      1  C   UNL     1      -6.268  19.739 -10.685  1.00  0.00     0.053 C 
ENDROOT
BRANCH   1   2
ATOM      2  C   UNL     1      -6.140  20.767 -11.768  1.00  0.00     0.041 C 
ATOM      3  O   UNL     1      -5.472  21.817 -11.570  1.00  0.00    -0.550 OA
ATOM      4  O   UNL     1      -6.731  20.550 -13.006  1.00  0.00    -0.550 OA
ENDBRANCH   1   2
BRANCH   1   5
ATOM      5  C   UNL     1      -5.625  18.407 -11.088  1.00  0.00     0.006 C 
BRANCH   5   6
ATOM      6  C   UNL     1      -4.120  18.374 -10.783  1.00  0.00    -0.003 C 
ATOM      7  C   UNL     1      -3.603  16.939 -10.717  1.00  0.00     0.004 C 
ENDBRANCH   5   6
ENDBRANCH   1   5
TORSDOF 3
ENDMDL
MODEL 7
REMARK VINA RESULT:    -1.254     19.548     20.099
REMARK INTER + INTRA:          -1.534
REMARK INTER:                  -1.471
REMARK INTRA:                  -0.063
REMARK UNBOUND:                -0.059
REMARK SMILES CCCCC(=O)[O-]
REMARK SMILES IDX 4 1 5 2 6 3 7 4 3 5 2 6 1 7
REMARK H PARENT
REMARK Flexibility Score: inf
ROOT
ATOM      1  C   UNL     1      -5.544  18.166 -11.110  1.00  0.00     0.053 C 
ENDROOT
BRANCH   1   2
ATOM      2  C   UNL     1      -4.083  18.036 -10.807  1.00  0.00     0.041 C 
ATOM      3  O   UNL     1      -3.343  19.055 -10.808  1.00  0.00    -0.550 OA
ATOM      4  O   UNL     1      -3.546  16.794 -10.493  1.00  0.00    -0.550 OA
ENDBRANCH   1   2
BRANCH   1   5
ATOM      5  C   UNL     1      -6.104  19.515 -10.644  1.00  0.00     0.006 C 
BRANCH   5   6
ATOM      6  C   UNL     1      -6.248  20.515 -11.801  1.00  0.00    -0.003 C 
ATOM      7  C   UNL     1      -5.469  21.797 -11.521  1.00  0.00     0.004 C 
ENDBRANCH   5   6
ENDBRANCH   1   5
TORSDOF 3
ENDMDL
MODEL 8
REMARK VINA RESULT:    -1.236     19.577     20.888
REMARK INTER + INTRA:          -1.512
REMARK INTER:                  -1.490
REMARK INTRA:                  -0.022
REMARK UNBOUND:                -0.059
REMARK SMILES CCCCC(=O)[O-]
REMARK SMILES IDX 4 1 5 2 6 3 7 4 3 5 2 6 1 7
REMARK H PARENT
REMARK Flexibility Score: inf
ROOT
ATOM      1  C   UNL     1      -3.672  17.714 -10.752  1.00  0.00     0.053 C 
ENDROOT
BRANCH   1   2
ATOM      2  C   UNL     1      -3.870  16.230 -10.694  1.00  0.00     0.041 C 
ATOM      3  O   UNL     1      -4.986  15.728 -10.994  1.00  0.00    -0.550 OA
ATOM      4  O   UNL     1      -2.814  15.401 -10.339  1.00  0.00    -0.550 OA
ENDBRANCH   1   2
BRANCH   1   5
ATOM      5  C   UNL     1      -5.008  18.466 -10.772  1.00  0.00     0.006 C 
BRANCH   5   6
ATOM      6  C   UNL     1      -4.836  19.946 -11.145  1.00  0.00    -0.003 C 
ATOM      7  C   UNL     1      -6.169  20.572 -11.544  1.00  0.00     0.004 C 
ENDBRANCH   5   6
ENDBRANCH   1   5
TORSDOF 3
ENDMDL
MODEL 9
REMARK VINA RESULT:    -0.994     20.573     21.811
REMARK INTER + INTRA:          -1.227
REMARK INTER:                  -1.206
REMARK INTRA:                  -0.021
REMARK UNBOUND:                -0.059
REMARK SMILES CCCCC(=O)[O-]
REMARK SMILES IDX 4 1 5 2 6 3 7 4 3 5 2 6 1 7
REMARK H PARENT
REMARK Flexibility Score: inf
ROOT
ATOM      1  C   UNL     1      -3.090  16.421 -10.263  1.00  0.00     0.053 C 
ENDROOT
BRANCH   1   2
ATOM      2  C   UNL     1      -3.560  15.014 -10.474  1.00  0.00     0.041 C 
ATOM      3  O   UNL     1      -4.724  14.792 -10.901  1.00  0.00    -0.550 OA
ATOM      4  O   UNL     1      -2.701  13.950 -10.230  1.00  0.00    -0.550 OA
ENDBRANCH   1   2
BRANCH   1   5
ATOM      5  C   UNL     1      -4.082  17.443 -10.832  1.00  0.00     0.006 C 
BRANCH   5   6
ATOM      6  C   UNL     1      -3.538  18.878 -10.765  1.00  0.00    -0.003 C 
ATOM      7  C   UNL     1      -4.639  19.897 -11.048  1.00  0.00     0.004 C 
ENDBRANCH   5   6
ENDBRANCH   1   5
TORSDOF 3
ENDMDL
