MODEL 1
REMARK VINA RESULT:    20.721      0.000      0.000
REMARK INTER + INTRA:          27.873
REMARK INTER:                  27.990
REMARK INTRA:                  -0.116
REMARK UNBOUND:                -0.116
REMARK SMILES O=c1c(-c2ccc(O)cc2)coc2c([C@H]3O[C@@H](CO)[C@@H](O)[C@@H](O)[C@@H]3O)c(O)ccc12
REMARK SMILES IDX 3 1 11 2 12 3 13 4 30 5 2 6 1 7 29 8 28 9 26 10 14 11 4 12
REMARK SMILES IDX 5 13 6 14 7 15 10 16 9 17 8 18 15 20 24 21 16 22 22 23 17 24
REMARK SMILES IDX 20 25 25 26 23 28 18 30 19 31 21 33 27 35
REMARK H PARENT 8 19 25 27 23 29 19 32 21 34 27 36
REMARK Flexibility Score: inf
ROOT
ATOM      1  C   UNL     1     -20.413 -23.226 -44.931  1.00  0.00     0.065 A 
ATOM      2  C   UNL     1     -19.066 -23.080 -44.567  1.00  0.00     0.208 A 
ATOM      3  O   UNL     1     -18.151 -22.732 -45.461  1.00  0.00    -0.463 OA
ATOM      4  C   UNL     1     -18.426 -22.519 -46.744  1.00  0.00     0.147 A 
ATOM      5  C   UNL     1     -19.760 -22.632 -47.199  1.00  0.00     0.066 A 
ATOM      6  C   UNL     1     -20.763 -22.965 -46.270  1.00  0.00     0.200 A 
ATOM      7  O   UNL     1     -21.972 -23.009 -46.631  1.00  0.00    -0.288 OA
ATOM      8  C   UNL     1     -20.048 -22.424 -48.556  1.00  0.00     0.020 A 
ATOM      9  C   UNL     1     -19.024 -22.122 -49.452  1.00  0.00     0.047 A 
ATOM     10  C   UNL     1     -17.700 -22.003 -49.010  1.00  0.00     0.125 A 
ATOM     11  C   UNL     1     -17.385 -22.183 -47.644  1.00  0.00     0.069 A 
ENDROOT
BRANCH   1  12
ATOM     12  C   UNL     1     -21.413 -23.670 -43.918  1.00  0.00    -0.011 A 
ATOM     13  C   UNL     1     -21.735 -22.842 -42.825  1.00  0.00     0.013 A 
ATOM     14  C   UNL     1     -22.631 -23.278 -41.843  1.00  0.00     0.047 A 
ATOM     15  C   UNL     1     -23.236 -24.533 -41.949  1.00  0.00     0.115 A 
ATOM     16  C   UNL     1     -22.017 -24.938 -44.008  1.00  0.00     0.013 A 
ATOM     17  C   UNL     1     -22.934 -25.357 -43.040  1.00  0.00     0.047 A 
BRANCH  15  18
ATOM     18  O   UNL     1     -24.125 -24.957 -40.962  1.00  0.00    -0.508 OA
ATOM     19  H   UNL     1     -24.050 -25.874 -40.541  1.00  0.00     0.293 HD
ENDBRANCH  15  18
ENDBRANCH   1  12
BRANCH  11  20
ATOM     20  C   UNL     1     -15.976 -21.931 -47.122  1.00  0.00     0.188 C 
ATOM     21  C   UNL     1     -15.146 -23.258 -47.094  1.00  0.00     0.179 C 
ATOM     22  O   UNL     1     -16.032 -21.301 -45.851  1.00  0.00    -0.362 OA
ATOM     23  C   UNL     1     -14.647 -23.604 -45.671  1.00  0.00     0.177 C 
ATOM     24  C   UNL     1     -14.718 -21.043 -45.385  1.00  0.00     0.176 C 
ATOM     25  C   UNL     1     -14.008 -22.371 -44.979  1.00  0.00     0.177 C 
BRANCH  21  26
ATOM     26  O   UNL     1     -14.033 -23.130 -47.944  1.00  0.00    -0.387 OA
ATOM     27  H   UNL     1     -13.356 -22.594 -47.458  1.00  0.00     0.211 HD
ENDBRANCH  21  26
BRANCH  23  28
ATOM     28  O   UNL     1     -15.716 -24.095 -44.904  1.00  0.00    -0.387 OA
ATOM     29  H   UNL     1     -16.056 -23.338 -44.357  1.00  0.00     0.211 HD
ENDBRANCH  23  28
BRANCH  24  30
ATOM     30  C   UNL     1     -14.754 -19.968 -44.282  1.00  0.00     0.191 C 
BRANCH  30  31
ATOM     31  O   UNL     1     -14.006 -20.348 -43.158  1.00  0.00    -0.394 OA
ATOM     32  H   UNL     1     -13.854 -19.525 -42.624  1.00  0.00     0.210 HD
ENDBRANCH  30  31
ENDBRANCH  24  30
BRANCH  25  33
ATOM     33  O   UNL     1     -13.929 -22.555 -43.584  1.00  0.00    -0.388 OA
ATOM     34  H   UNL     1     -13.287 -21.894 -43.218  1.00  0.00     0.211 HD
ENDBRANCH  25  33
ENDBRANCH  11  20
BRANCH  10  35
ATOM     35  O   UNL     1     -16.700 -21.711 -49.938  1.00  0.00    -0.507 OA
ATOM     36  H   UNL     1     -16.341 -20.772 -50.060  1.00  0.00     0.293 HD
ENDBRANCH  10  35
TORSDOF 9
ENDMDL
