MODEL 1
REMARK VINA RESULT:    -7.333      0.000      0.000
REMARK INTER + INTRA:         -13.719
REMARK INTER:                 -12.048
REMARK INTRA:                  -1.671
REMARK UNBOUND:                -1.671
REMARK SMILES C[C@H]1O[C@H](OC[C@H]2O[C@@H](Oc3c(-c4ccc(O)c(O)c4)oc4cc(O)cc(O)c4c3=O)[C@H](O)[C@@H](O)[C@@H]2O)[C@@H](O)[C@@H](O)[C@H]1O
REMARK SMILES IDX 7 1 36 2 34 3 32 4 9 5 8 6 6 7 5 8 4 9 1 10 2 11 42 12 3 13
REMARK SMILES IDX 40 14 38 15 43 16 41 18 39 20 37 22 35 24 10 26 11 27 12 28
REMARK SMILES IDX 30 29 21 30 29 31 31 32 22 33 27 34 23 35 26 36 24 37 13 38
REMARK SMILES IDX 20 39 14 40 18 41 15 42 16 43 19 44 17 46 28 48 25 50 33 52
REMARK H PARENT 43 17 41 19 39 21 37 23 35 25 19 45 17 47 28 49 25 51 33 53
REMARK Flexibility Score: inf
ROOT
ATOM      1  C   UNL     1       5.210 -18.363 -36.475  1.00  0.00     0.180 C 
ATOM      2  C   UNL     1       4.894 -19.834 -36.110  1.00  0.00     0.177 C 
ATOM      3  C   UNL     1       3.486 -20.279 -36.577  1.00  0.00     0.180 C 
ATOM      4  C   UNL     1       2.697 -19.174 -37.260  1.00  0.00     0.214 C 
ATOM      5  C   UNL     1       2.836 -17.853 -36.484  1.00  0.00     0.339 C 
ATOM      6  O   UNL     1       4.160 -17.449 -36.162  1.00  0.00    -0.332 OA
ENDROOT
BRANCH   1   7
ATOM      7  C   UNL     1       5.708 -18.183 -37.922  1.00  0.00     0.198 C 
BRANCH   7   8
ATOM      8  O   UNL     1       6.538 -17.032 -38.010  1.00  0.00    -0.347 OA
BRANCH   8   9
ATOM      9  C   UNL     1       7.918 -17.329 -38.183  1.00  0.00     0.281 C 
ATOM     10  C   UNL     1      10.209 -19.146 -37.567  1.00  0.00     0.041 C 
ATOM     11  C   UNL     1       9.434 -19.032 -38.884  1.00  0.00     0.150 C 
ATOM     12  C   UNL     1      10.131 -18.143 -39.969  1.00  0.00     0.174 C 
ATOM     13  O   UNL     1       8.073 -18.661 -38.690  1.00  0.00    -0.344 OA
ATOM     14  C   UNL     1       9.333 -16.843 -40.290  1.00  0.00     0.179 C 
ATOM     15  C   UNL     1       8.612 -16.225 -39.072  1.00  0.00     0.202 C 
BRANCH  12  16
ATOM     16  O   UNL     1      11.476 -17.871 -39.629  1.00  0.00    -0.388 OA
ATOM     17  H   UNL     1      11.456 -17.206 -38.874  1.00  0.00     0.211 HD
ENDBRANCH  12  16
BRANCH  14  18
ATOM     18  O   UNL     1      10.111 -15.890 -40.966  1.00  0.00    -0.387 OA
ATOM     19  H   UNL     1      10.877 -16.355 -41.388  1.00  0.00     0.211 HD
ENDBRANCH  14  18
BRANCH  15  20
ATOM     20  O   UNL     1       9.484 -15.438 -38.303  1.00  0.00    -0.385 OA
ATOM     21  H   UNL     1       9.257 -15.576 -37.352  1.00  0.00     0.211 HD
ENDBRANCH  15  20
ENDBRANCH   8   9
ENDBRANCH   7   8
ENDBRANCH   1   7
BRANCH   2  22
ATOM     22  O   UNL     1       5.017 -19.980 -34.708  1.00  0.00    -0.387 OA
ATOM     23  H   UNL     1       5.946 -20.281 -34.532  1.00  0.00     0.211 HD
ENDBRANCH   2  22
BRANCH   3  24
ATOM     24  O   UNL     1       3.595 -21.408 -37.402  1.00  0.00    -0.387 OA
ATOM     25  H   UNL     1       4.044 -22.118 -36.879  1.00  0.00     0.211 HD
ENDBRANCH   3  24
BRANCH   5  26
ATOM     26  O   UNL     1       2.215 -16.812 -37.236  1.00  0.00    -0.454 OA
BRANCH  26  27
ATOM     27  C   UNL     1       1.523 -15.788 -36.593  1.00  0.00     0.214 A 
ATOM     28  C   UNL     1       1.985 -14.449 -36.624  1.00  0.00     0.180 A 
ATOM     29  C   UNL     1       0.387 -16.094 -35.851  1.00  0.00     0.239 A 
ATOM     30  O   UNL     1       1.446 -13.563 -35.795  1.00  0.00    -0.452 OA
ATOM     31  C   UNL     1      -0.188 -15.116 -35.018  1.00  0.00     0.111 A 
ATOM     32  O   UNL     1      -0.077 -17.268 -35.901  1.00  0.00    -0.285 OA
ATOM     33  C   UNL     1       0.435 -13.842 -34.983  1.00  0.00     0.146 A 
ATOM     34  C   UNL     1      -1.313 -15.342 -34.181  1.00  0.00     0.134 A 
ATOM     35  C   UNL     1      -0.003 -12.858 -34.089  1.00  0.00     0.094 A 
ATOM     36  C   UNL     1      -1.700 -14.352 -33.254  1.00  0.00     0.093 A 
ATOM     37  C   UNL     1      -1.044 -13.124 -33.205  1.00  0.00     0.123 A 
BRANCH  28  38
ATOM     38  C   UNL     1       3.052 -14.000 -37.554  1.00  0.00     0.025 A 
ATOM     39  C   UNL     1       3.608 -14.894 -38.472  1.00  0.00     0.062 A 
ATOM     40  C   UNL     1       3.582 -12.693 -37.468  1.00  0.00     0.016 A 
ATOM     41  C   UNL     1       4.701 -14.509 -39.274  1.00  0.00     0.158 A 
ATOM     42  C   UNL     1       4.658 -12.309 -38.265  1.00  0.00     0.051 A 
ATOM     43  C   UNL     1       5.230 -13.213 -39.159  1.00  0.00     0.157 A 
BRANCH  41  44
ATOM     44  O   UNL     1       5.275 -15.429 -40.159  1.00  0.00    -0.504 OA
ATOM     45  H   UNL     1       6.252 -15.368 -40.424  1.00  0.00     0.293 HD
ENDBRANCH  41  44
BRANCH  43  46
ATOM     46  O   UNL     1       6.326 -12.832 -39.914  1.00  0.00    -0.504 OA
ATOM     47  H   UNL     1       7.223 -13.320 -39.881  1.00  0.00     0.293 HD
ENDBRANCH  43  46
ENDBRANCH  28  38
BRANCH  34  48
ATOM     48  O   UNL     1      -2.079 -16.503 -34.246  1.00  0.00    -0.507 OA
ATOM     49  H   UNL     1      -1.984 -17.289 -33.610  1.00  0.00     0.293 HD
ENDBRANCH  34  48
BRANCH  37  50
ATOM     50  O   UNL     1      -1.411 -12.174 -32.255  1.00  0.00    -0.508 OA
ATOM     51  H   UNL     1      -2.346 -11.779 -32.249  1.00  0.00     0.293 HD
ENDBRANCH  37  50
ENDBRANCH  26  27
ENDBRANCH   5  26
BRANCH   4  52
ATOM     52  O   UNL     1       1.335 -19.538 -37.296  1.00  0.00    -0.384 OA
ATOM     53  H   UNL     1       1.252 -20.437 -36.901  1.00  0.00     0.211 HD
ENDBRANCH   4  52
TORSDOF 16
ENDMDL
MODEL 2
REMARK VINA RESULT:    -7.301      2.261      8.420
REMARK INTER + INTRA:         -13.667
REMARK INTER:                 -10.666
REMARK INTRA:                  -3.001
REMARK UNBOUND:                -1.671
REMARK SMILES C[C@H]1O[C@H](OC[C@H]2O[C@@H](Oc3c(-c4ccc(O)c(O)c4)oc4cc(O)cc(O)c4c3=O)[C@H](O)[C@@H](O)[C@@H]2O)[C@@H](O)[C@@H](O)[C@H]1O
REMARK SMILES IDX 7 1 36 2 34 3 32 4 9 5 8 6 6 7 5 8 4 9 1 10 2 11 42 12 3 13
REMARK SMILES IDX 40 14 38 15 43 16 41 18 39 20 37 22 35 24 10 26 11 27 12 28
REMARK SMILES IDX 30 29 21 30 29 31 31 32 22 33 27 34 23 35 26 36 24 37 13 38
REMARK SMILES IDX 20 39 14 40 18 41 15 42 16 43 19 44 17 46 28 48 25 50 33 52
REMARK H PARENT 43 17 41 19 39 21 37 23 35 25 19 45 17 47 28 49 25 51 33 53
REMARK Flexibility Score: inf
ROOT
ATOM      1  C   UNL     1       2.597 -18.156 -38.294  1.00  0.00     0.180 C 
ATOM      2  C   UNL     1       3.081 -19.627 -38.298  1.00  0.00     0.177 C 
ATOM      3  C   UNL     1       4.601 -19.759 -38.025  1.00  0.00     0.180 C 
ATOM      4  C   UNL     1       5.303 -18.423 -37.849  1.00  0.00     0.214 C 
ATOM      5  C   UNL     1       4.828 -17.419 -38.912  1.00  0.00     0.339 C 
ATOM      6  O   UNL     1       3.421 -17.273 -39.054  1.00  0.00    -0.332 OA
ENDROOT
BRANCH   1   7
ATOM      7  C   UNL     1       2.323 -17.604 -36.883  1.00  0.00     0.198 C 
BRANCH   7   8
ATOM      8  O   UNL     1       1.634 -16.364 -36.972  1.00  0.00    -0.347 OA
BRANCH   8   9
ATOM      9  C   UNL     1       0.818 -16.076 -35.844  1.00  0.00     0.281 C 
ATOM     10  C   UNL     1      -1.678 -16.668 -34.312  1.00  0.00     0.041 C 
ATOM     11  C   UNL     1      -0.242 -17.062 -33.949  1.00  0.00     0.150 C 
ATOM     12  C   UNL     1       0.445 -16.112 -32.910  1.00  0.00     0.174 C 
ATOM     13  O   UNL     1       0.576 -17.273 -35.095  1.00  0.00    -0.344 OA
ATOM     14  C   UNL     1       1.643 -15.320 -33.515  1.00  0.00     0.179 C 
ATOM     15  C   UNL     1       1.450 -14.908 -34.991  1.00  0.00     0.202 C 
BRANCH  12  16
ATOM     16  O   UNL     1      -0.495 -15.260 -32.286  1.00  0.00    -0.388 OA
ATOM     17  H   UNL     1      -1.329 -15.804 -32.141  1.00  0.00     0.211 HD
ENDBRANCH  12  16
BRANCH  14  18
ATOM     18  O   UNL     1       2.018 -14.226 -32.719  1.00  0.00    -0.387 OA
ATOM     19  H   UNL     1       2.982 -14.050 -32.865  1.00  0.00     0.211 HD
ENDBRANCH  14  18
BRANCH  15  20
ATOM     20  O   UNL     1       0.686 -13.736 -35.102  1.00  0.00    -0.385 OA
ATOM     21  H   UNL     1      -0.024 -13.899 -35.767  1.00  0.00     0.211 HD
ENDBRANCH  15  20
ENDBRANCH   8   9
ENDBRANCH   7   8
ENDBRANCH   1   7
BRANCH   2  22
ATOM     22  O   UNL     1       2.755 -20.199 -39.550  1.00  0.00    -0.387 OA
ATOM     23  H   UNL     1       1.913 -20.706 -39.421  1.00  0.00     0.211 HD
ENDBRANCH   2  22
BRANCH   3  24
ATOM     24  O   UNL     1       4.812 -20.593 -36.918  1.00  0.00    -0.387 OA
ATOM     25  H   UNL     1       5.564 -21.199 -37.138  1.00  0.00     0.211 HD
ENDBRANCH   3  24
BRANCH   5  26
ATOM     26  O   UNL     1       5.389 -16.141 -38.617  1.00  0.00    -0.454 OA
BRANCH  26  27
ATOM     27  C   UNL     1       5.893 -15.335 -39.636  1.00  0.00     0.214 A 
ATOM     28  C   UNL     1       5.116 -14.303 -40.218  1.00  0.00     0.180 A 
ATOM     29  C   UNL     1       7.164 -15.589 -40.139  1.00  0.00     0.239 A 
ATOM     30  O   UNL     1       5.534 -13.739 -41.344  1.00  0.00    -0.452 OA
ATOM     31  C   UNL     1       7.595 -14.938 -41.310  1.00  0.00     0.111 A 
ATOM     32  O   UNL     1       7.891 -16.445 -39.560  1.00  0.00    -0.285 OA
ATOM     33  C   UNL     1       6.690 -14.035 -41.925  1.00  0.00     0.146 A 
ATOM     34  C   UNL     1       8.851 -15.166 -41.934  1.00  0.00     0.134 A 
ATOM     35  C   UNL     1       6.997 -13.443 -43.156  1.00  0.00     0.094 A 
ATOM     36  C   UNL     1       9.113 -14.598 -43.199  1.00  0.00     0.093 A 
ATOM     37  C   UNL     1       8.188 -13.750 -43.805  1.00  0.00     0.123 A 
BRANCH  28  38
ATOM     38  C   UNL     1       3.847 -13.828 -39.610  1.00  0.00     0.025 A 
ATOM     39  C   UNL     1       3.868 -13.078 -38.432  1.00  0.00     0.062 A 
ATOM     40  C   UNL     1       2.599 -14.196 -40.160  1.00  0.00     0.016 A 
ATOM     41  C   UNL     1       2.667 -12.725 -37.786  1.00  0.00     0.158 A 
ATOM     42  C   UNL     1       1.411 -13.843 -39.527  1.00  0.00     0.051 A 
ATOM     43  C   UNL     1       1.436 -13.120 -38.335  1.00  0.00     0.157 A 
BRANCH  41  44
ATOM     44  O   UNL     1       2.705 -12.010 -36.583  1.00  0.00    -0.504 OA
ATOM     45  H   UNL     1       1.948 -12.065 -35.911  1.00  0.00     0.293 HD
ENDBRANCH  41  44
BRANCH  43  46
ATOM     46  O   UNL     1       0.249 -12.812 -37.693  1.00  0.00    -0.504 OA
ATOM     47  H   UNL     1      -0.452 -13.515 -37.451  1.00  0.00     0.293 HD
ENDBRANCH  43  46
ENDBRANCH  28  38
BRANCH  34  48
ATOM     48  O   UNL     1       9.861 -15.918 -41.340  1.00  0.00    -0.507 OA
ATOM     49  H   UNL     1       9.717 -16.567 -40.573  1.00  0.00     0.293 HD
ENDBRANCH  34  48
BRANCH  37  50
ATOM     50  O   UNL     1       8.444 -13.231 -45.073  1.00  0.00    -0.508 OA
ATOM     51  H   UNL     1       9.393 -13.026 -45.369  1.00  0.00     0.293 HD
ENDBRANCH  37  50
ENDBRANCH  26  27
ENDBRANCH   5  26
BRANCH   4  52
ATOM     52  O   UNL     1       6.693 -18.614 -37.993  1.00  0.00    -0.384 OA
ATOM     53  H   UNL     1       7.116 -17.725 -38.048  1.00  0.00     0.211 HD
ENDBRANCH   4  52
TORSDOF 16
ENDMDL
MODEL 3
REMARK VINA RESULT:    -7.172      2.578      4.965
REMARK INTER + INTRA:         -13.455
REMARK INTER:                 -11.397
REMARK INTRA:                  -2.058
REMARK UNBOUND:                -1.671
REMARK SMILES C[C@H]1O[C@H](OC[C@H]2O[C@@H](Oc3c(-c4ccc(O)c(O)c4)oc4cc(O)cc(O)c4c3=O)[C@H](O)[C@@H](O)[C@@H]2O)[C@@H](O)[C@@H](O)[C@H]1O
REMARK SMILES IDX 7 1 36 2 34 3 32 4 9 5 8 6 6 7 5 8 4 9 1 10 2 11 42 12 3 13
REMARK SMILES IDX 40 14 38 15 43 16 41 18 39 20 37 22 35 24 10 26 11 27 12 28
REMARK SMILES IDX 30 29 21 30 29 31 31 32 22 33 27 34 23 35 26 36 24 37 13 38
REMARK SMILES IDX 20 39 14 40 18 41 15 42 16 43 19 44 17 46 28 48 25 50 33 52
REMARK H PARENT 43 17 41 19 39 21 37 23 35 25 19 45 17 47 28 49 25 51 33 53
REMARK Flexibility Score: inf
ROOT
ATOM      1  C   UNL     1       5.096 -19.155 -37.431  1.00  0.00     0.180 C 
ATOM      2  C   UNL     1       4.144 -20.212 -38.042  1.00  0.00     0.177 C 
ATOM      3  C   UNL     1       3.096 -19.593 -39.002  1.00  0.00     0.180 C 
ATOM      4  C   UNL     1       3.196 -18.081 -39.114  1.00  0.00     0.214 C 
ATOM      5  C   UNL     1       3.392 -17.449 -37.726  1.00  0.00     0.339 C 
ATOM      6  O   UNL     1       4.429 -18.000 -36.924  1.00  0.00    -0.332 OA
ENDROOT
BRANCH   1   7
ATOM      7  C   UNL     1       6.267 -18.776 -38.357  1.00  0.00     0.198 C 
BRANCH   7   8
ATOM      8  O   UNL     1       7.230 -18.018 -37.635  1.00  0.00    -0.347 OA
BRANCH   8   9
ATOM      9  C   UNL     1       7.806 -16.957 -38.386  1.00  0.00     0.281 C 
ATOM     10  C   UNL     1      10.192 -15.235 -38.908  1.00  0.00     0.041 C 
ATOM     11  C   UNL     1       9.660 -16.383 -39.773  1.00  0.00     0.150 C 
ATOM     12  C   UNL     1       8.777 -15.925 -40.983  1.00  0.00     0.174 C 
ATOM     13  O   UNL     1       9.021 -17.398 -39.006  1.00  0.00    -0.344 OA
ATOM     14  C   UNL     1       7.290 -16.371 -40.849  1.00  0.00     0.179 C 
ATOM     15  C   UNL     1       6.753 -16.364 -39.401  1.00  0.00     0.202 C 
BRANCH  12  16
ATOM     16  O   UNL     1       8.896 -14.535 -41.213  1.00  0.00    -0.388 OA
ATOM     17  H   UNL     1       9.727 -14.401 -41.763  1.00  0.00     0.211 HD
ENDBRANCH  12  16
BRANCH  14  18
ATOM     18  O   UNL     1       6.440 -15.669 -41.718  1.00  0.00    -0.387 OA
ATOM     19  H   UNL     1       6.940 -14.901 -42.091  1.00  0.00     0.211 HD
ENDBRANCH  14  18
BRANCH  15  20
ATOM     20  O   UNL     1       6.348 -15.079 -39.009  1.00  0.00    -0.385 OA
ATOM     21  H   UNL     1       6.990 -14.751 -38.336  1.00  0.00     0.211 HD
ENDBRANCH  15  20
ENDBRANCH   8   9
ENDBRANCH   7   8
ENDBRANCH   1   7
BRANCH   2  22
ATOM     22  O   UNL     1       3.499 -20.894 -36.984  1.00  0.00    -0.387 OA
ATOM     23  H   UNL     1       3.488 -20.274 -36.210  1.00  0.00     0.211 HD
ENDBRANCH   2  22
BRANCH   3  24
ATOM     24  O   UNL     1       3.190 -20.202 -40.262  1.00  0.00    -0.387 OA
ATOM     25  H   UNL     1       4.151 -20.336 -40.459  1.00  0.00     0.211 HD
ENDBRANCH   3  24
BRANCH   5  26
ATOM     26  O   UNL     1       3.638 -16.053 -37.889  1.00  0.00    -0.454 OA
BRANCH  26  27
ATOM     27  C   UNL     1       2.640 -15.209 -38.373  1.00  0.00     0.214 A 
ATOM     28  C   UNL     1       1.503 -14.883 -37.594  1.00  0.00     0.180 A 
ATOM     29  C   UNL     1       2.730 -14.725 -39.673  1.00  0.00     0.239 A 
ATOM     30  O   UNL     1       0.467 -14.295 -38.180  1.00  0.00    -0.452 OA
ATOM     31  C   UNL     1       1.629 -14.063 -40.250  1.00  0.00     0.111 A 
ATOM     32  O   UNL     1       3.785 -14.937 -40.333  1.00  0.00    -0.285 OA
ATOM     33  C   UNL     1       0.464 -13.919 -39.453  1.00  0.00     0.146 A 
ATOM     34  C   UNL     1       1.598 -13.579 -41.585  1.00  0.00     0.134 A 
ATOM     35  C   UNL     1      -0.710 -13.383 -39.994  1.00  0.00     0.094 A 
ATOM     36  C   UNL     1       0.388 -13.091 -42.120  1.00  0.00     0.093 A 
ATOM     37  C   UNL     1      -0.757 -13.003 -41.331  1.00  0.00     0.123 A 
BRANCH  28  38
ATOM     38  C   UNL     1       1.428 -15.177 -36.140  1.00  0.00     0.025 A 
ATOM     39  C   UNL     1       0.611 -16.208 -35.671  1.00  0.00     0.062 A 
ATOM     40  C   UNL     1       2.110 -14.368 -35.203  1.00  0.00     0.016 A 
ATOM     41  C   UNL     1       0.443 -16.415 -34.287  1.00  0.00     0.158 A 
ATOM     42  C   UNL     1       1.950 -14.575 -33.835  1.00  0.00     0.051 A 
ATOM     43  C   UNL     1       1.110 -15.587 -33.370  1.00  0.00     0.157 A 
BRANCH  41  44
ATOM     44  O   UNL     1      -0.413 -17.425 -33.832  1.00  0.00    -0.504 OA
ATOM     45  H   UNL     1      -0.627 -17.531 -32.846  1.00  0.00     0.293 HD
ENDBRANCH  41  44
BRANCH  43  46
ATOM     46  O   UNL     1       0.927 -15.754 -32.009  1.00  0.00    -0.504 OA
ATOM     47  H   UNL     1       1.456 -15.233 -31.307  1.00  0.00     0.293 HD
ENDBRANCH  43  46
ENDBRANCH  28  38
BRANCH  34  48
ATOM     48  O   UNL     1       2.728 -13.541 -42.398  1.00  0.00    -0.507 OA
ATOM     49  H   UNL     1       3.205 -14.364 -42.755  1.00  0.00     0.293 HD
ENDBRANCH  34  48
BRANCH  37  50
ATOM     50  O   UNL     1      -1.955 -12.559 -41.888  1.00  0.00    -0.508 OA
ATOM     51  H   UNL     1      -2.027 -12.367 -42.882  1.00  0.00     0.293 HD
ENDBRANCH  37  50
ENDBRANCH  26  27
ENDBRANCH   5  26
BRANCH   4  52
ATOM     52  O   UNL     1       2.002 -17.583 -39.675  1.00  0.00    -0.384 OA
ATOM     53  H   UNL     1       1.258 -18.135 -39.341  1.00  0.00     0.211 HD
ENDBRANCH   4  52
TORSDOF 16
ENDMDL
MODEL 4
REMARK VINA RESULT:    -7.143      2.828      8.189
REMARK INTER + INTRA:         -13.408
REMARK INTER:                 -11.158
REMARK INTRA:                  -2.250
REMARK UNBOUND:                -1.671
REMARK SMILES C[C@H]1O[C@H](OC[C@H]2O[C@@H](Oc3c(-c4ccc(O)c(O)c4)oc4cc(O)cc(O)c4c3=O)[C@H](O)[C@@H](O)[C@@H]2O)[C@@H](O)[C@@H](O)[C@H]1O
REMARK SMILES IDX 7 1 36 2 34 3 32 4 9 5 8 6 6 7 5 8 4 9 1 10 2 11 42 12 3 13
REMARK SMILES IDX 40 14 38 15 43 16 41 18 39 20 37 22 35 24 10 26 11 27 12 28
REMARK SMILES IDX 30 29 21 30 29 31 31 32 22 33 27 34 23 35 26 36 24 37 13 38
REMARK SMILES IDX 20 39 14 40 18 41 15 42 16 43 19 44 17 46 28 48 25 50 33 52
REMARK H PARENT 43 17 41 19 39 21 37 23 35 25 19 45 17 47 28 49 25 51 33 53
REMARK Flexibility Score: inf
ROOT
ATOM      1  C   UNL     1       0.373 -16.936 -36.796  1.00  0.00     0.180 C 
ATOM      2  C   UNL     1       0.217 -16.022 -35.556  1.00  0.00     0.177 C 
ATOM      3  C   UNL     1       1.008 -14.696 -35.685  1.00  0.00     0.180 C 
ATOM      4  C   UNL     1       1.799 -14.585 -36.978  1.00  0.00     0.214 C 
ATOM      5  C   UNL     1       2.520 -15.908 -37.285  1.00  0.00     0.339 C 
ATOM      6  O   UNL     1       1.721 -17.084 -37.241  1.00  0.00    -0.332 OA
ENDROOT
BRANCH   1   7
ATOM      7  C   UNL     1      -0.570 -16.564 -37.955  1.00  0.00     0.198 C 
BRANCH   7   8
ATOM      8  O   UNL     1       0.122 -16.658 -39.194  1.00  0.00    -0.347 OA
BRANCH   8   9
ATOM      9  C   UNL     1      -0.281 -15.689 -40.153  1.00  0.00     0.281 C 
ATOM     10  C   UNL     1      -2.099 -13.421 -40.846  1.00  0.00     0.041 C 
ATOM     11  C   UNL     1      -0.611 -13.351 -40.487  1.00  0.00     0.150 C 
ATOM     12  C   UNL     1       0.348 -13.262 -41.722  1.00  0.00     0.174 C 
ATOM     13  O   UNL     1      -0.215 -14.377 -39.582  1.00  0.00    -0.344 OA
ATOM     14  C   UNL     1       1.245 -14.526 -41.884  1.00  0.00     0.179 C 
ATOM     15  C   UNL     1       0.556 -15.848 -41.482  1.00  0.00     0.202 C 
BRANCH  12  16
ATOM     16  O   UNL     1      -0.362 -12.959 -42.907  1.00  0.00    -0.388 OA
ATOM     17  H   UNL     1       0.064 -12.136 -43.298  1.00  0.00     0.211 HD
ENDBRANCH  12  16
BRANCH  14  18
ATOM     18  O   UNL     1       1.823 -14.613 -43.160  1.00  0.00    -0.387 OA
ATOM     19  H   UNL     1       1.428 -13.907 -43.730  1.00  0.00     0.211 HD
ENDBRANCH  14  18
BRANCH  15  20
ATOM     20  O   UNL     1      -0.244 -16.348 -42.522  1.00  0.00    -0.385 OA
ATOM     21  H   UNL     1      -1.032 -15.759 -42.607  1.00  0.00     0.211 HD
ENDBRANCH  15  20
ENDBRANCH   8   9
ENDBRANCH   7   8
ENDBRANCH   1   7
BRANCH   2  22
ATOM     22  O   UNL     1       0.646 -16.742 -34.417  1.00  0.00    -0.387 OA
ATOM     23  H   UNL     1       1.150 -17.529 -34.750  1.00  0.00     0.211 HD
ENDBRANCH   2  22
BRANCH   3  24
ATOM     24  O   UNL     1       0.137 -13.608 -35.528  1.00  0.00    -0.387 OA
ATOM     25  H   UNL     1      -0.167 -13.602 -34.586  1.00  0.00     0.211 HD
ENDBRANCH   3  24
BRANCH   5  26
ATOM     26  O   UNL     1       3.118 -15.815 -38.577  1.00  0.00    -0.454 OA
BRANCH  26  27
ATOM     27  C   UNL     1       4.490 -15.612 -38.709  1.00  0.00     0.214 A 
ATOM     28  C   UNL     1       5.426 -16.601 -38.318  1.00  0.00     0.180 A 
ATOM     29  C   UNL     1       4.956 -14.389 -39.178  1.00  0.00     0.239 A 
ATOM     30  O   UNL     1       6.708 -16.272 -38.221  1.00  0.00    -0.452 OA
ATOM     31  C   UNL     1       6.330 -14.090 -39.104  1.00  0.00     0.111 A 
ATOM     32  O   UNL     1       4.124 -13.545 -39.614  1.00  0.00    -0.285 OA
ATOM     33  C   UNL     1       7.183 -15.077 -38.547  1.00  0.00     0.146 A 
ATOM     34  C   UNL     1       6.899 -12.852 -39.504  1.00  0.00     0.134 A 
ATOM     35  C   UNL     1       8.539 -14.807 -38.328  1.00  0.00     0.094 A 
ATOM     36  C   UNL     1       8.256 -12.587 -39.224  1.00  0.00     0.093 A 
ATOM     37  C   UNL     1       9.065 -13.556 -38.633  1.00  0.00     0.123 A 
BRANCH  28  38
ATOM     38  C   UNL     1       5.022 -17.997 -38.013  1.00  0.00     0.025 A 
ATOM     39  C   UNL     1       4.536 -18.828 -39.025  1.00  0.00     0.062 A 
ATOM     40  C   UNL     1       5.041 -18.481 -36.685  1.00  0.00     0.016 A 
ATOM     41  C   UNL     1       4.041 -20.112 -38.722  1.00  0.00     0.158 A 
ATOM     42  C   UNL     1       4.558 -19.752 -36.385  1.00  0.00     0.051 A 
ATOM     43  C   UNL     1       4.046 -20.567 -37.393  1.00  0.00     0.157 A 
BRANCH  41  44
ATOM     44  O   UNL     1       3.518 -20.916 -39.741  1.00  0.00    -0.504 OA
ATOM     45  H   UNL     1       4.123 -21.456 -40.351  1.00  0.00     0.293 HD
ENDBRANCH  41  44
BRANCH  43  46
ATOM     46  O   UNL     1       3.530 -21.811 -37.075  1.00  0.00    -0.504 OA
ATOM     47  H   UNL     1       3.975 -22.688 -37.356  1.00  0.00     0.293 HD
ENDBRANCH  43  46
ENDBRANCH  28  38
BRANCH  34  48
ATOM     48  O   UNL     1       6.178 -11.878 -40.191  1.00  0.00    -0.507 OA
ATOM     49  H   UNL     1       5.506 -11.251 -39.758  1.00  0.00     0.293 HD
ENDBRANCH  34  48
BRANCH  37  50
ATOM     50  O   UNL     1      10.391 -13.264 -38.324  1.00  0.00    -0.508 OA
ATOM     51  H   UNL     1      10.754 -13.418 -37.389  1.00  0.00     0.293 HD
ENDBRANCH  37  50
ENDBRANCH  26  27
ENDBRANCH   5  26
BRANCH   4  52
ATOM     52  O   UNL     1       2.763 -13.564 -36.839  1.00  0.00    -0.384 OA
ATOM     53  H   UNL     1       2.603 -13.112 -35.978  1.00  0.00     0.211 HD
ENDBRANCH   4  52
TORSDOF 16
ENDMDL
MODEL 5
REMARK VINA RESULT:    -7.085      2.113      8.780
REMARK INTER + INTRA:         -13.312
REMARK INTER:                 -11.145
REMARK INTRA:                  -2.167
REMARK UNBOUND:                -1.671
REMARK SMILES C[C@H]1O[C@H](OC[C@H]2O[C@@H](Oc3c(-c4ccc(O)c(O)c4)oc4cc(O)cc(O)c4c3=O)[C@H](O)[C@@H](O)[C@@H]2O)[C@@H](O)[C@@H](O)[C@H]1O
REMARK SMILES IDX 7 1 36 2 34 3 32 4 9 5 8 6 6 7 5 8 4 9 1 10 2 11 42 12 3 13
REMARK SMILES IDX 40 14 38 15 43 16 41 18 39 20 37 22 35 24 10 26 11 27 12 28
REMARK SMILES IDX 30 29 21 30 29 31 31 32 22 33 27 34 23 35 26 36 24 37 13 38
REMARK SMILES IDX 20 39 14 40 18 41 15 42 16 43 19 44 17 46 28 48 25 50 33 52
REMARK H PARENT 43 17 41 19 39 21 37 23 35 25 19 45 17 47 28 49 25 51 33 53
REMARK Flexibility Score: inf
ROOT
ATOM      1  C   UNL     1       0.270 -14.694 -38.826  1.00  0.00     0.180 C 
ATOM      2  C   UNL     1      -0.745 -15.864 -38.822  1.00  0.00     0.177 C 
ATOM      3  C   UNL     1      -0.184 -17.143 -38.152  1.00  0.00     0.180 C 
ATOM      4  C   UNL     1       1.251 -16.997 -37.675  1.00  0.00     0.214 C 
ATOM      5  C   UNL     1       2.104 -16.285 -38.738  1.00  0.00     0.339 C 
ATOM      6  O   UNL     1       1.580 -15.066 -39.251  1.00  0.00    -0.332 OA
ENDROOT
BRANCH   1   7
ATOM      7  C   UNL     1       0.303 -13.906 -37.503  1.00  0.00     0.198 C 
BRANCH   7   8
ATOM      8  O   UNL     1      -0.894 -14.137 -36.771  1.00  0.00    -0.347 OA
BRANCH   8   9
ATOM      9  C   UNL     1      -0.681 -14.410 -35.392  1.00  0.00     0.281 C 
ATOM     10  C   UNL     1      -1.863 -15.153 -32.750  1.00  0.00     0.041 C 
ATOM     11  C   UNL     1      -1.038 -16.040 -33.688  1.00  0.00     0.150 C 
ATOM     12  C   UNL     1       0.476 -16.156 -33.303  1.00  0.00     0.174 C 
ATOM     13  O   UNL     1      -1.211 -15.700 -35.060  1.00  0.00    -0.344 OA
ATOM     14  C   UNL     1       1.420 -15.503 -34.357  1.00  0.00     0.179 C 
ATOM     15  C   UNL     1       0.844 -14.235 -35.025  1.00  0.00     0.202 C 
BRANCH  12  16
ATOM     16  O   UNL     1       0.717 -15.666 -31.998  1.00  0.00    -0.388 OA
ATOM     17  H   UNL     1       0.778 -14.665 -32.071  1.00  0.00     0.211 HD
ENDBRANCH  12  16
BRANCH  14  18
ATOM     18  O   UNL     1       2.711 -15.280 -33.855  1.00  0.00    -0.387 OA
ATOM     19  H   UNL     1       3.060 -14.442 -34.251  1.00  0.00     0.211 HD
ENDBRANCH  14  18
BRANCH  15  20
ATOM     20  O   UNL     1       1.039 -13.098 -34.224  1.00  0.00    -0.385 OA
ATOM     21  H   UNL     1       1.237 -13.405 -33.307  1.00  0.00     0.211 HD
ENDBRANCH  15  20
ENDBRANCH   8   9
ENDBRANCH   7   8
ENDBRANCH   1   7
BRANCH   2  22
ATOM     22  O   UNL     1      -1.119 -16.132 -40.160  1.00  0.00    -0.387 OA
ATOM     23  H   UNL     1      -0.349 -16.590 -40.585  1.00  0.00     0.211 HD
ENDBRANCH   2  22
BRANCH   3  24
ATOM     24  O   UNL     1      -1.029 -17.539 -37.106  1.00  0.00    -0.387 OA
ATOM     25  H   UNL     1      -1.626 -16.777 -36.898  1.00  0.00     0.211 HD
ENDBRANCH   3  24
BRANCH   5  26
ATOM     26  O   UNL     1       3.396 -16.028 -38.191  1.00  0.00    -0.454 OA
BRANCH  26  27
ATOM     27  C   UNL     1       4.537 -16.141 -38.985  1.00  0.00     0.214 A 
ATOM     28  C   UNL     1       5.313 -17.326 -39.001  1.00  0.00     0.180 A 
ATOM     29  C   UNL     1       4.960 -15.045 -39.730  1.00  0.00     0.239 A 
ATOM     30  O   UNL     1       6.516 -17.300 -39.562  1.00  0.00    -0.452 OA
ATOM     31  C   UNL     1       6.222 -15.069 -40.352  1.00  0.00     0.111 A 
ATOM     32  O   UNL     1       4.219 -14.024 -39.788  1.00  0.00    -0.285 OA
ATOM     33  C   UNL     1       7.009 -16.237 -40.184  1.00  0.00     0.146 A 
ATOM     34  C   UNL     1       6.769 -13.985 -41.088  1.00  0.00     0.134 A 
ATOM     35  C   UNL     1       8.322 -16.289 -40.668  1.00  0.00     0.094 A 
ATOM     36  C   UNL     1       8.111 -14.043 -41.519  1.00  0.00     0.093 A 
ATOM     37  C   UNL     1       8.881 -15.184 -41.303  1.00  0.00     0.123 A 
BRANCH  28  38
ATOM     38  C   UNL     1       4.827 -18.600 -38.413  1.00  0.00     0.025 A 
ATOM     39  C   UNL     1       4.990 -18.853 -37.049  1.00  0.00     0.062 A 
ATOM     40  C   UNL     1       4.273 -19.609 -39.232  1.00  0.00     0.016 A 
ATOM     41  C   UNL     1       4.640 -20.105 -36.506  1.00  0.00     0.158 A 
ATOM     42  C   UNL     1       3.921 -20.846 -38.696  1.00  0.00     0.051 A 
ATOM     43  C   UNL     1       4.112 -21.105 -37.339  1.00  0.00     0.157 A 
BRANCH  41  44
ATOM     44  O   UNL     1       4.848 -20.359 -35.146  1.00  0.00    -0.504 OA
ATOM     45  H   UNL     1       4.807 -21.300 -34.771  1.00  0.00     0.293 HD
ENDBRANCH  41  44
BRANCH  43  46
ATOM     46  O   UNL     1       3.797 -22.352 -36.828  1.00  0.00    -0.504 OA
ATOM     47  H   UNL     1       3.631 -22.521 -35.834  1.00  0.00     0.293 HD
ENDBRANCH  43  46
ENDBRANCH  28  38
BRANCH  34  48
ATOM     48  O   UNL     1       6.027 -12.856 -41.430  1.00  0.00    -0.507 OA
ATOM     49  H   UNL     1       5.059 -12.878 -41.734  1.00  0.00     0.293 HD
ENDBRANCH  34  48
BRANCH  37  50
ATOM     50  O   UNL     1      10.217 -15.209 -41.696  1.00  0.00    -0.508 OA
ATOM     51  H   UNL     1      10.541 -15.870 -42.395  1.00  0.00     0.293 HD
ENDBRANCH  37  50
ENDBRANCH  26  27
ENDBRANCH   5  26
BRANCH   4  52
ATOM     52  O   UNL     1       1.790 -18.280 -37.446  1.00  0.00    -0.384 OA
ATOM     53  H   UNL     1       1.871 -18.735 -38.317  1.00  0.00     0.211 HD
ENDBRANCH   4  52
TORSDOF 16
ENDMDL
MODEL 6
REMARK VINA RESULT:    -6.994      3.027      9.245
REMARK INTER + INTRA:         -13.162
REMARK INTER:                 -10.461
REMARK INTRA:                  -2.701
REMARK UNBOUND:                -1.671
REMARK SMILES C[C@H]1O[C@H](OC[C@H]2O[C@@H](Oc3c(-c4ccc(O)c(O)c4)oc4cc(O)cc(O)c4c3=O)[C@H](O)[C@@H](O)[C@@H]2O)[C@@H](O)[C@@H](O)[C@H]1O
REMARK SMILES IDX 7 1 36 2 34 3 32 4 9 5 8 6 6 7 5 8 4 9 1 10 2 11 42 12 3 13
REMARK SMILES IDX 40 14 38 15 43 16 41 18 39 20 37 22 35 24 10 26 11 27 12 28
REMARK SMILES IDX 30 29 21 30 29 31 31 32 22 33 27 34 23 35 26 36 24 37 13 38
REMARK SMILES IDX 20 39 14 40 18 41 15 42 16 43 19 44 17 46 28 48 25 50 33 52
REMARK H PARENT 43 17 41 19 39 21 37 23 35 25 19 45 17 47 28 49 25 51 33 53
REMARK Flexibility Score: inf
ROOT
ATOM      1  C   UNL     1       1.664 -15.968 -37.964  1.00  0.00     0.180 C 
ATOM      2  C   UNL     1       1.709 -14.499 -37.476  1.00  0.00     0.177 C 
ATOM      3  C   UNL     1       2.708 -13.629 -38.282  1.00  0.00     0.180 C 
ATOM      4  C   UNL     1       3.459 -14.404 -39.352  1.00  0.00     0.214 C 
ATOM      5  C   UNL     1       3.934 -15.760 -38.803  1.00  0.00     0.339 C 
ATOM      6  O   UNL     1       2.951 -16.555 -38.153  1.00  0.00    -0.332 OA
ENDROOT
BRANCH   1   7
ATOM      7  C   UNL     1       0.756 -16.180 -39.189  1.00  0.00     0.198 C 
BRANCH   7   8
ATOM      8  O   UNL     1      -0.296 -15.223 -39.186  1.00  0.00    -0.347 OA
BRANCH   8   9
ATOM      9  C   UNL     1      -0.523 -14.612 -40.449  1.00  0.00     0.281 C 
ATOM     10  C   UNL     1      -2.125 -12.682 -42.072  1.00  0.00     0.041 C 
ATOM     11  C   UNL     1      -0.695 -12.503 -41.549  1.00  0.00     0.150 C 
ATOM     12  C   UNL     1       0.422 -12.816 -42.602  1.00  0.00     0.174 C 
ATOM     13  O   UNL     1      -0.471 -13.186 -40.320  1.00  0.00    -0.344 OA
ATOM     14  C   UNL     1       1.272 -14.067 -42.226  1.00  0.00     0.179 C 
ATOM     15  C   UNL     1       0.475 -15.190 -41.527  1.00  0.00     0.202 C 
BRANCH  12  16
ATOM     16  O   UNL     1      -0.110 -12.907 -43.909  1.00  0.00    -0.388 OA
ATOM     17  H   UNL     1      -0.046 -11.988 -44.313  1.00  0.00     0.211 HD
ENDBRANCH  12  16
BRANCH  14  18
ATOM     18  O   UNL     1       2.010 -14.560 -43.314  1.00  0.00    -0.387 OA
ATOM     19  H   UNL     1       1.392 -15.050 -43.913  1.00  0.00     0.211 HD
ENDBRANCH  14  18
BRANCH  15  20
ATOM     20  O   UNL     1      -0.204 -15.994 -42.456  1.00  0.00    -0.385 OA
ATOM     21  H   UNL     1      -1.143 -16.067 -42.165  1.00  0.00     0.211 HD
ENDBRANCH  15  20
ENDBRANCH   8   9
ENDBRANCH   7   8
ENDBRANCH   1   7
BRANCH   2  22
ATOM     22  O   UNL     1       2.051 -14.496 -36.104  1.00  0.00    -0.387 OA
ATOM     23  H   UNL     1       1.837 -15.400 -35.755  1.00  0.00     0.211 HD
ENDBRANCH   2  22
BRANCH   3  24
ATOM     24  O   UNL     1       2.039 -12.525 -38.830  1.00  0.00    -0.387 OA
ATOM     25  H   UNL     1       2.723 -11.920 -39.211  1.00  0.00     0.211 HD
ENDBRANCH   3  24
BRANCH   5  26
ATOM     26  O   UNL     1       4.493 -16.517 -39.876  1.00  0.00    -0.454 OA
BRANCH  26  27
ATOM     27  C   UNL     1       5.843 -16.863 -39.872  1.00  0.00     0.214 A 
ATOM     28  C   UNL     1       6.338 -17.903 -39.048  1.00  0.00     0.180 A 
ATOM     29  C   UNL     1       6.736 -16.131 -40.647  1.00  0.00     0.239 A 
ATOM     30  O   UNL     1       7.650 -18.025 -38.884  1.00  0.00    -0.452 OA
ATOM     31  C   UNL     1       8.121 -16.318 -40.482  1.00  0.00     0.111 A 
ATOM     32  O   UNL     1       6.283 -15.268 -41.450  1.00  0.00    -0.285 OA
ATOM     33  C   UNL     1       8.539 -17.269 -39.515  1.00  0.00     0.146 A 
ATOM     34  C   UNL     1       9.115 -15.585 -41.183  1.00  0.00     0.134 A 
ATOM     35  C   UNL     1       9.896 -17.423 -39.206  1.00  0.00     0.094 A 
ATOM     36  C   UNL     1      10.470 -15.723 -40.816  1.00  0.00     0.093 A 
ATOM     37  C   UNL     1      10.854 -16.630 -39.830  1.00  0.00     0.123 A 
BRANCH  28  38
ATOM     38  C   UNL     1       5.441 -18.865 -38.359  1.00  0.00     0.025 A 
ATOM     39  C   UNL     1       5.457 -18.970 -36.967  1.00  0.00     0.062 A 
ATOM     40  C   UNL     1       4.622 -19.746 -39.100  1.00  0.00     0.016 A 
ATOM     41  C   UNL     1       4.696 -19.961 -36.315  1.00  0.00     0.158 A 
ATOM     42  C   UNL     1       3.865 -20.722 -38.457  1.00  0.00     0.051 A 
ATOM     43  C   UNL     1       3.906 -20.844 -37.068  1.00  0.00     0.157 A 
BRANCH  41  44
ATOM     44  O   UNL     1       4.755 -20.082 -34.922  1.00  0.00    -0.504 OA
ATOM     45  H   UNL     1       4.042 -19.676 -34.325  1.00  0.00     0.293 HD
ENDBRANCH  41  44
BRANCH  43  46
ATOM     46  O   UNL     1       3.181 -21.845 -36.445  1.00  0.00    -0.504 OA
ATOM     47  H   UNL     1       2.314 -21.670 -35.933  1.00  0.00     0.293 HD
ENDBRANCH  43  46
ENDBRANCH  28  38
BRANCH  34  48
ATOM     48  O   UNL     1       8.815 -14.738 -42.247  1.00  0.00    -0.507 OA
ATOM     49  H   UNL     1       7.916 -14.705 -42.717  1.00  0.00     0.293 HD
ENDBRANCH  34  48
BRANCH  37  50
ATOM     50  O   UNL     1      12.190 -16.723 -39.450  1.00  0.00    -0.508 OA
ATOM     51  H   UNL     1      12.648 -15.957 -38.966  1.00  0.00     0.293 HD
ENDBRANCH  37  50
ENDBRANCH  26  27
ENDBRANCH   5  26
BRANCH   4  52
ATOM     52  O   UNL     1       4.585 -13.656 -39.753  1.00  0.00    -0.384 OA
ATOM     53  H   UNL     1       5.387 -14.206 -39.591  1.00  0.00     0.211 HD
ENDBRANCH   4  52
TORSDOF 16
ENDMDL
MODEL 7
REMARK VINA RESULT:    -6.826      1.976      9.010
REMARK INTER + INTRA:         -12.887
REMARK INTER:                 -11.710
REMARK INTRA:                  -1.177
REMARK UNBOUND:                -1.671
REMARK SMILES C[C@H]1O[C@H](OC[C@H]2O[C@@H](Oc3c(-c4ccc(O)c(O)c4)oc4cc(O)cc(O)c4c3=O)[C@H](O)[C@@H](O)[C@@H]2O)[C@@H](O)[C@@H](O)[C@H]1O
REMARK SMILES IDX 7 1 36 2 34 3 32 4 9 5 8 6 6 7 5 8 4 9 1 10 2 11 42 12 3 13
REMARK SMILES IDX 40 14 38 15 43 16 41 18 39 20 37 22 35 24 10 26 11 27 12 28
REMARK SMILES IDX 30 29 21 30 29 31 31 32 22 33 27 34 23 35 26 36 24 37 13 38
REMARK SMILES IDX 20 39 14 40 18 41 15 42 16 43 19 44 17 46 28 48 25 50 33 52
REMARK H PARENT 43 17 41 19 39 21 37 23 35 25 19 45 17 47 28 49 25 51 33 53
REMARK Flexibility Score: inf
ROOT
ATOM      1  C   UNL     1       2.315 -13.593 -39.403  1.00  0.00     0.180 C 
ATOM      2  C   UNL     1       1.162 -14.318 -40.140  1.00  0.00     0.177 C 
ATOM      3  C   UNL     1       1.174 -15.851 -39.910  1.00  0.00     0.180 C 
ATOM      4  C   UNL     1       2.331 -16.325 -39.046  1.00  0.00     0.214 C 
ATOM      5  C   UNL     1       3.637 -15.629 -39.465  1.00  0.00     0.339 C 
ATOM      6  O   UNL     1       3.589 -14.212 -39.570  1.00  0.00    -0.332 OA
ENDROOT
BRANCH   1   7
ATOM      7  C   UNL     1       2.011 -13.305 -37.921  1.00  0.00     0.198 C 
BRANCH   7   8
ATOM      8  O   UNL     1       0.719 -13.795 -37.586  1.00  0.00    -0.347 OA
BRANCH   8   9
ATOM      9  C   UNL     1       0.635 -14.350 -36.280  1.00  0.00     0.281 C 
ATOM     10  C   UNL     1       0.257 -16.783 -34.587  1.00  0.00     0.041 C 
ATOM     11  C   UNL     1       1.559 -16.018 -34.848  1.00  0.00     0.150 C 
ATOM     12  C   UNL     1       1.954 -15.010 -33.716  1.00  0.00     0.174 C 
ATOM     13  O   UNL     1       1.590 -15.409 -36.135  1.00  0.00    -0.344 OA
ATOM     14  C   UNL     1       1.901 -13.524 -34.184  1.00  0.00     0.179 C 
ATOM     15  C   UNL     1       0.770 -13.217 -35.190  1.00  0.00     0.202 C 
BRANCH  12  16
ATOM     16  O   UNL     1       1.195 -15.226 -32.543  1.00  0.00    -0.388 OA
ATOM     17  H   UNL     1       0.925 -16.194 -32.547  1.00  0.00     0.211 HD
ENDBRANCH  12  16
BRANCH  14  18
ATOM     18  O   UNL     1       1.893 -12.624 -33.108  1.00  0.00    -0.387 OA
ATOM     19  H   UNL     1       2.245 -13.090 -32.308  1.00  0.00     0.211 HD
ENDBRANCH  14  18
BRANCH  15  20
ATOM     20  O   UNL     1      -0.454 -13.001 -34.537  1.00  0.00    -0.385 OA
ATOM     21  H   UNL     1      -1.178 -13.205 -35.176  1.00  0.00     0.211 HD
ENDBRANCH  15  20
ENDBRANCH   8   9
ENDBRANCH   7   8
ENDBRANCH   1   7
BRANCH   2  22
ATOM     22  O   UNL     1       1.263 -14.027 -41.520  1.00  0.00    -0.387 OA
ATOM     23  H   UNL     1       0.406 -13.604 -41.786  1.00  0.00     0.211 HD
ENDBRANCH   2  22
BRANCH   3  24
ATOM     24  O   UNL     1      -0.057 -16.260 -39.378  1.00  0.00    -0.387 OA
ATOM     25  H   UNL     1      -0.759 -15.678 -39.765  1.00  0.00     0.211 HD
ENDBRANCH   3  24
BRANCH   5  26
ATOM     26  O   UNL     1       4.661 -15.979 -38.534  1.00  0.00    -0.454 OA
BRANCH  26  27
ATOM     27  C   UNL     1       5.896 -16.443 -38.981  1.00  0.00     0.214 A 
ATOM     28  C   UNL     1       6.347 -17.753 -38.684  1.00  0.00     0.180 A 
ATOM     29  C   UNL     1       6.735 -15.583 -39.682  1.00  0.00     0.239 A 
ATOM     30  O   UNL     1       7.620 -18.061 -38.904  1.00  0.00    -0.452 OA
ATOM     31  C   UNL     1       8.066 -15.960 -39.940  1.00  0.00     0.111 A 
ATOM     32  O   UNL     1       6.296 -14.450 -40.027  1.00  0.00    -0.285 OA
ATOM     33  C   UNL     1       8.487 -17.229 -39.464  1.00  0.00     0.146 A 
ATOM     34  C   UNL     1       9.016 -15.135 -40.598  1.00  0.00     0.134 A 
ATOM     35  C   UNL     1       9.826 -17.623 -39.574  1.00  0.00     0.094 A 
ATOM     36  C   UNL     1      10.368 -15.535 -40.648  1.00  0.00     0.093 A 
ATOM     37  C   UNL     1      10.768 -16.766 -40.133  1.00  0.00     0.123 A 
BRANCH  28  38
ATOM     38  C   UNL     1       5.445 -18.796 -38.134  1.00  0.00     0.025 A 
ATOM     39  C   UNL     1       5.343 -18.983 -36.754  1.00  0.00     0.062 A 
ATOM     40  C   UNL     1       4.743 -19.671 -38.994  1.00  0.00     0.016 A 
ATOM     41  C   UNL     1       4.581 -20.047 -36.230  1.00  0.00     0.158 A 
ATOM     42  C   UNL     1       3.985 -20.719 -38.478  1.00  0.00     0.051 A 
ATOM     43  C   UNL     1       3.909 -20.921 -37.100  1.00  0.00     0.157 A 
BRANCH  41  44
ATOM     44  O   UNL     1       4.523 -20.247 -34.846  1.00  0.00    -0.504 OA
ATOM     45  H   UNL     1       3.844 -19.762 -34.270  1.00  0.00     0.293 HD
ENDBRANCH  41  44
BRANCH  43  46
ATOM     46  O   UNL     1       3.187 -21.991 -36.602  1.00  0.00    -0.504 OA
ATOM     47  H   UNL     1       2.167 -22.045 -36.648  1.00  0.00     0.293 HD
ENDBRANCH  43  46
ENDBRANCH  28  38
BRANCH  34  48
ATOM     48  O   UNL     1       8.670 -13.941 -41.226  1.00  0.00    -0.507 OA
ATOM     49  H   UNL     1       9.338 -13.286 -41.619  1.00  0.00     0.293 HD
ENDBRANCH  34  48
BRANCH  37  50
ATOM     50  O   UNL     1      12.113 -17.126 -40.152  1.00  0.00    -0.508 OA
ATOM     51  H   UNL     1      12.534 -17.609 -39.365  1.00  0.00     0.293 HD
ENDBRANCH  37  50
ENDBRANCH  26  27
ENDBRANCH   5  26
BRANCH   4  52
ATOM     52  O   UNL     1       2.485 -17.717 -39.211  1.00  0.00    -0.384 OA
ATOM     53  H   UNL     1       2.401 -17.919 -40.171  1.00  0.00     0.211 HD
ENDBRANCH   4  52
TORSDOF 16
ENDMDL
MODEL 8
REMARK VINA RESULT:    -6.219      1.739      9.433
REMARK INTER + INTRA:         -11.888
REMARK INTER:                  -9.563
REMARK INTRA:                  -2.325
REMARK UNBOUND:                -1.671
REMARK SMILES C[C@H]1O[C@H](OC[C@H]2O[C@@H](Oc3c(-c4ccc(O)c(O)c4)oc4cc(O)cc(O)c4c3=O)[C@H](O)[C@@H](O)[C@@H]2O)[C@@H](O)[C@@H](O)[C@H]1O
REMARK SMILES IDX 7 1 36 2 34 3 32 4 9 5 8 6 6 7 5 8 4 9 1 10 2 11 42 12 3 13
REMARK SMILES IDX 40 14 38 15 43 16 41 18 39 20 37 22 35 24 10 26 11 27 12 28
REMARK SMILES IDX 30 29 21 30 29 31 31 32 22 33 27 34 23 35 26 36 24 37 13 38
REMARK SMILES IDX 20 39 14 40 18 41 15 42 16 43 19 44 17 46 28 48 25 50 33 52
REMARK H PARENT 43 17 41 19 39 21 37 23 35 25 19 45 17 47 28 49 25 51 33 53
REMARK Flexibility Score: inf
ROOT
ATOM      1  C   UNL     1       2.190 -14.936 -37.640  1.00  0.00     0.180 C 
ATOM      2  C   UNL     1       2.247 -13.389 -37.594  1.00  0.00     0.177 C 
ATOM      3  C   UNL     1       3.034 -12.782 -38.783  1.00  0.00     0.180 C 
ATOM      4  C   UNL     1       3.616 -13.826 -39.721  1.00  0.00     0.214 C 
ATOM      5  C   UNL     1       4.254 -14.974 -38.921  1.00  0.00     0.339 C 
ATOM      6  O   UNL     1       3.449 -15.554 -37.902  1.00  0.00    -0.332 OA
ENDROOT
BRANCH   1   7
ATOM      7  C   UNL     1       1.085 -15.482 -38.563  1.00  0.00     0.198 C 
BRANCH   7   8
ATOM      8  O   UNL     1      -0.150 -15.537 -37.861  1.00  0.00    -0.347 OA
BRANCH   8   9
ATOM      9  C   UNL     1      -0.029 -15.977 -36.515  1.00  0.00     0.281 C 
ATOM     10  C   UNL     1       0.708 -15.315 -33.696  1.00  0.00     0.041 C 
ATOM     11  C   UNL     1      -0.698 -15.494 -34.278  1.00  0.00     0.150 C 
ATOM     12  C   UNL     1      -1.327 -16.906 -34.025  1.00  0.00     0.174 C 
ATOM     13  O   UNL     1      -0.778 -15.116 -35.648  1.00  0.00    -0.344 OA
ATOM     14  C   UNL     1      -1.525 -17.723 -35.337  1.00  0.00     0.179 C 
ATOM     15  C   UNL     1      -0.423 -17.500 -36.396  1.00  0.00     0.202 C 
BRANCH  12  16
ATOM     16  O   UNL     1      -0.598 -17.630 -33.053  1.00  0.00    -0.388 OA
ATOM     17  H   UNL     1      -0.038 -16.962 -32.552  1.00  0.00     0.211 HD
ENDBRANCH  12  16
BRANCH  14  18
ATOM     18  O   UNL     1      -1.735 -19.089 -35.091  1.00  0.00    -0.387 OA
ATOM     19  H   UNL     1      -1.739 -19.233 -34.112  1.00  0.00     0.211 HD
ENDBRANCH  14  18
BRANCH  15  20
ATOM     20  O   UNL     1       0.707 -18.291 -36.136  1.00  0.00    -0.385 OA
ATOM     21  H   UNL     1       1.083 -18.006 -35.269  1.00  0.00     0.211 HD
ENDBRANCH  15  20
ENDBRANCH   8   9
ENDBRANCH   7   8
ENDBRANCH   1   7
BRANCH   2  22
ATOM     22  O   UNL     1       2.834 -13.002 -36.367  1.00  0.00    -0.387 OA
ATOM     23  H   UNL     1       2.274 -13.394 -35.647  1.00  0.00     0.211 HD
ENDBRANCH   2  22
BRANCH   3  24
ATOM     24  O   UNL     1       2.219 -11.875 -39.476  1.00  0.00    -0.387 OA
ATOM     25  H   UNL     1       1.355 -11.823 -38.997  1.00  0.00     0.211 HD
ENDBRANCH   3  24
BRANCH   5  26
ATOM     26  O   UNL     1       4.645 -16.003 -39.829  1.00  0.00    -0.454 OA
BRANCH  26  27
ATOM     27  C   UNL     1       5.958 -16.471 -39.848  1.00  0.00     0.214 A 
ATOM     28  C   UNL     1       6.367 -17.559 -39.039  1.00  0.00     0.180 A 
ATOM     29  C   UNL     1       6.904 -15.816 -40.630  1.00  0.00     0.239 A 
ATOM     30  O   UNL     1       7.665 -17.802 -38.895  1.00  0.00    -0.452 OA
ATOM     31  C   UNL     1       8.268 -16.132 -40.486  1.00  0.00     0.111 A 
ATOM     32  O   UNL     1       6.521 -14.909 -41.420  1.00  0.00    -0.285 OA
ATOM     33  C   UNL     1       8.610 -17.125 -39.533  1.00  0.00     0.146 A 
ATOM     34  C   UNL     1       9.315 -15.486 -41.196  1.00  0.00     0.134 A 
ATOM     35  C   UNL     1       9.951 -17.407 -39.246  1.00  0.00     0.094 A 
ATOM     36  C   UNL     1      10.657 -15.752 -40.850  1.00  0.00     0.093 A 
ATOM     37  C   UNL     1      10.969 -16.699 -39.877  1.00  0.00     0.123 A 
BRANCH  28  38
ATOM     38  C   UNL     1       5.395 -18.441 -38.345  1.00  0.00     0.025 A 
ATOM     39  C   UNL     1       5.525 -18.696 -36.978  1.00  0.00     0.062 A 
ATOM     40  C   UNL     1       4.376 -19.103 -39.067  1.00  0.00     0.016 A 
ATOM     41  C   UNL     1       4.679 -19.623 -36.338  1.00  0.00     0.158 A 
ATOM     42  C   UNL     1       3.535 -20.015 -38.435  1.00  0.00     0.051 A 
ATOM     43  C   UNL     1       3.688 -20.289 -37.076  1.00  0.00     0.157 A 
BRANCH  41  44
ATOM     44  O   UNL     1       4.850 -19.899 -34.977  1.00  0.00    -0.504 OA
ATOM     45  H   UNL     1       4.247 -19.485 -34.274  1.00  0.00     0.293 HD
ENDBRANCH  41  44
BRANCH  43  46
ATOM     46  O   UNL     1       2.872 -21.229 -36.470  1.00  0.00    -0.504 OA
ATOM     47  H   UNL     1       3.230 -21.965 -35.858  1.00  0.00     0.293 HD
ENDBRANCH  43  46
ENDBRANCH  28  38
BRANCH  34  48
ATOM     48  O   UNL     1       9.080 -14.606 -42.249  1.00  0.00    -0.507 OA
ATOM     49  H   UNL     1       8.213 -14.095 -42.386  1.00  0.00     0.293 HD
ENDBRANCH  34  48
BRANCH  37  50
ATOM     50  O   UNL     1      12.297 -16.918 -39.517  1.00  0.00    -0.508 OA
ATOM     51  H   UNL     1      12.627 -17.850 -39.289  1.00  0.00     0.293 HD
ENDBRANCH  37  50
ENDBRANCH  26  27
ENDBRANCH   5  26
BRANCH   4  52
ATOM     52  O   UNL     1       4.609 -13.222 -40.519  1.00  0.00    -0.384 OA
ATOM     53  H   UNL     1       4.931 -12.420 -40.046  1.00  0.00     0.211 HD
ENDBRANCH   4  52
TORSDOF 16
ENDMDL
MODEL 9
REMARK VINA RESULT:    -5.917      2.232      5.080
REMARK INTER + INTRA:         -11.393
REMARK INTER:                  -8.610
REMARK INTRA:                  -2.783
REMARK UNBOUND:                -1.671
REMARK SMILES C[C@H]1O[C@H](OC[C@H]2O[C@@H](Oc3c(-c4ccc(O)c(O)c4)oc4cc(O)cc(O)c4c3=O)[C@H](O)[C@@H](O)[C@@H]2O)[C@@H](O)[C@@H](O)[C@H]1O
REMARK SMILES IDX 7 1 36 2 34 3 32 4 9 5 8 6 6 7 5 8 4 9 1 10 2 11 42 12 3 13
REMARK SMILES IDX 40 14 38 15 43 16 41 18 39 20 37 22 35 24 10 26 11 27 12 28
REMARK SMILES IDX 30 29 21 30 29 31 31 32 22 33 27 34 23 35 26 36 24 37 13 38
REMARK SMILES IDX 20 39 14 40 18 41 15 42 16 43 19 44 17 46 28 48 25 50 33 52
REMARK H PARENT 43 17 41 19 39 21 37 23 35 25 19 45 17 47 28 49 25 51 33 53
REMARK Flexibility Score: inf
ROOT
ATOM      1  C   UNL     1       3.092 -14.631 -41.009  1.00  0.00     0.180 C 
ATOM      2  C   UNL     1       1.778 -14.138 -41.664  1.00  0.00     0.177 C 
ATOM      3  C   UNL     1       0.873 -13.356 -40.678  1.00  0.00     0.180 C 
ATOM      4  C   UNL     1       1.442 -13.269 -39.272  1.00  0.00     0.214 C 
ATOM      5  C   UNL     1       2.009 -14.630 -38.834  1.00  0.00     0.339 C 
ATOM      6  O   UNL     1       2.907 -15.258 -39.740  1.00  0.00    -0.332 OA
ENDROOT
BRANCH   1   7
ATOM      7  C   UNL     1       4.193 -13.556 -40.957  1.00  0.00     0.198 C 
BRANCH   7   8
ATOM      8  O   UNL     1       5.361 -14.025 -41.618  1.00  0.00    -0.347 OA
BRANCH   8   9
ATOM      9  C   UNL     1       6.361 -14.522 -40.738  1.00  0.00     0.281 C 
ATOM     10  C   UNL     1       8.388 -13.931 -38.624  1.00  0.00     0.041 C 
ATOM     11  C   UNL     1       7.022 -14.606 -38.449  1.00  0.00     0.150 C 
ATOM     12  C   UNL     1       7.078 -16.170 -38.388  1.00  0.00     0.174 C 
ATOM     13  O   UNL     1       6.058 -14.146 -39.389  1.00  0.00    -0.344 OA
ATOM     14  C   UNL     1       6.385 -16.847 -39.610  1.00  0.00     0.179 C 
ATOM     15  C   UNL     1       6.548 -16.077 -40.938  1.00  0.00     0.202 C 
BRANCH  12  16
ATOM     16  O   UNL     1       8.400 -16.634 -38.204  1.00  0.00    -0.388 OA
ATOM     17  H   UNL     1       8.844 -16.000 -37.561  1.00  0.00     0.211 HD
ENDBRANCH  12  16
BRANCH  14  18
ATOM     18  O   UNL     1       6.743 -18.197 -39.749  1.00  0.00    -0.387 OA
ATOM     19  H   UNL     1       6.986 -18.359 -40.695  1.00  0.00     0.211 HD
ENDBRANCH  14  18
BRANCH  15  20
ATOM     20  O   UNL     1       7.780 -16.359 -41.548  1.00  0.00    -0.385 OA
ATOM     21  H   UNL     1       8.019 -15.589 -42.118  1.00  0.00     0.211 HD
ENDBRANCH  15  20
ENDBRANCH   8   9
ENDBRANCH   7   8
ENDBRANCH   1   7
BRANCH   2  22
ATOM     22  O   UNL     1       1.089 -15.261 -42.179  1.00  0.00    -0.387 OA
ATOM     23  H   UNL     1       0.777 -15.787 -41.398  1.00  0.00     0.211 HD
ENDBRANCH   2  22
BRANCH   3  24
ATOM     24  O   UNL     1       0.601 -12.081 -41.195  1.00  0.00    -0.387 OA
ATOM     25  H   UNL     1       0.055 -12.200 -42.013  1.00  0.00     0.211 HD
ENDBRANCH   3  24
BRANCH   5  26
ATOM     26  O   UNL     1       2.671 -14.468 -37.580  1.00  0.00    -0.454 OA
BRANCH  26  27
ATOM     27  C   UNL     1       2.036 -14.825 -36.392  1.00  0.00     0.214 A 
ATOM     28  C   UNL     1       1.795 -16.181 -36.059  1.00  0.00     0.180 A 
ATOM     29  C   UNL     1       1.570 -13.827 -35.542  1.00  0.00     0.239 A 
ATOM     30  O   UNL     1       0.969 -16.461 -35.058  1.00  0.00    -0.452 OA
ATOM     31  C   UNL     1       0.735 -14.164 -34.461  1.00  0.00     0.111 A 
ATOM     32  O   UNL     1       1.867 -12.625 -35.791  1.00  0.00    -0.285 OA
ATOM     33  C   UNL     1       0.408 -15.535 -34.292  1.00  0.00     0.146 A 
ATOM     34  C   UNL     1       0.164 -13.219 -33.569  1.00  0.00     0.134 A 
ATOM     35  C   UNL     1      -0.513 -15.934 -33.317  1.00  0.00     0.094 A 
ATOM     36  C   UNL     1      -0.801 -13.641 -32.630  1.00  0.00     0.093 A 
ATOM     37  C   UNL     1      -1.140 -14.988 -32.512  1.00  0.00     0.123 A 
BRANCH  28  38
ATOM     38  C   UNL     1       2.436 -17.302 -36.792  1.00  0.00     0.025 A 
ATOM     39  C   UNL     1       3.746 -17.681 -36.492  1.00  0.00     0.062 A 
ATOM     40  C   UNL     1       1.767 -17.946 -37.857  1.00  0.00     0.016 A 
ATOM     41  C   UNL     1       4.401 -18.664 -37.262  1.00  0.00     0.158 A 
ATOM     42  C   UNL     1       2.410 -18.922 -38.614  1.00  0.00     0.051 A 
ATOM     43  C   UNL     1       3.729 -19.277 -38.331  1.00  0.00     0.157 A 
BRANCH  41  44
ATOM     44  O   UNL     1       5.729 -19.003 -36.976  1.00  0.00    -0.504 OA
ATOM     45  H   UNL     1       5.986 -19.438 -36.097  1.00  0.00     0.293 HD
ENDBRANCH  41  44
BRANCH  43  46
ATOM     46  O   UNL     1       4.370 -20.218 -39.118  1.00  0.00    -0.504 OA
ATOM     47  H   UNL     1       3.885 -20.783 -39.818  1.00  0.00     0.293 HD
ENDBRANCH  43  46
ENDBRANCH  28  38
BRANCH  34  48
ATOM     48  O   UNL     1       0.531 -11.875 -33.560  1.00  0.00    -0.507 OA
ATOM     49  H   UNL     1       1.366 -11.512 -33.110  1.00  0.00     0.293 HD
ENDBRANCH  34  48
BRANCH  37  50
ATOM     50  O   UNL     1      -2.125 -15.383 -31.610  1.00  0.00    -0.508 OA
ATOM     51  H   UNL     1      -2.354 -14.808 -30.805  1.00  0.00     0.293 HD
ENDBRANCH  37  50
ENDBRANCH  26  27
ENDBRANCH   5  26
BRANCH   4  52
ATOM     52  O   UNL     1       0.412 -12.899 -38.383  1.00  0.00    -0.384 OA
ATOM     53  H   UNL     1      -0.156 -12.235 -38.838  1.00  0.00     0.211 HD
ENDBRANCH   4  52
TORSDOF 16
ENDMDL
