MODEL 1
REMARK VINA RESULT:    -8.066      0.000      0.000
REMARK INTER + INTRA:          -8.906
REMARK INTER:                  -8.773
REMARK INTRA:                  -0.132
REMARK UNBOUND:                -0.132
REMARK SMILES CC(=O)[C@H]1CC[C@H]2[C@@H]3CC=C4C[C@H](O)CC[C@@]4(C)[C@H]3CC[C@@]12C
REMARK SMILES IDX 4 1 5 2 6 3 7 4 22 5 21 6 20 7 19 8 8 9 9 10 10 11 11 12
REMARK SMILES IDX 17 13 16 14 15 15 13 16 12 17 18 18 23 19 2 20 1 21 3 22
REMARK SMILES IDX 14 23
REMARK H PARENT 14 24
REMARK Flexibility Score: inf
ROOT
ATOM      1  C   UNL     1      14.416 -11.707  63.123  1.00  0.00     0.062 C 
ATOM      2  C   UNL     1      13.816 -12.501  64.288  1.00  0.00     0.012 C 
ATOM      3  C   UNL     1      14.531 -12.015  65.548  1.00  0.00     0.005 C 
ATOM      4  C   UNL     1      15.620 -11.025  65.093  1.00  0.00    -0.001 C 
ATOM      5  C   UNL     1      15.852 -11.342  63.590  1.00  0.00    -0.020 C 
ATOM      6  C   UNL     1      16.850 -12.542  63.367  1.00  0.00     0.008 C 
ATOM      7  C   UNL     1      17.729 -12.909  64.574  1.00  0.00     0.005 C 
ATOM      8  C   UNL     1      18.136 -11.656  65.362  1.00  0.00     0.003 C 
ATOM      9  C   UNL     1      16.883 -11.043  66.021  1.00  0.00     0.000 C 
ATOM     10  C   UNL     1      17.260  -9.642  66.518  1.00  0.00     0.031 C 
ATOM     11  C   UNL     1      18.417  -9.724  67.475  1.00  0.00    -0.027 C 
ATOM     12  C   UNL     1      19.346 -10.710  67.433  1.00  0.00    -0.065 C 
ATOM     13  C   UNL     1      19.300 -11.863  66.409  1.00  0.00    -0.008 C 
ATOM     14  C   UNL     1      19.126 -13.194  67.206  1.00  0.00     0.014 C 
ATOM     15  C   UNL     1      20.113 -13.345  68.381  1.00  0.00     0.033 C 
ATOM     16  C   UNL     1      20.068 -12.136  69.335  1.00  0.00     0.118 C 
ATOM     17  C   UNL     1      20.331 -10.831  68.576  1.00  0.00     0.063 C 
ATOM     18  C   UNL     1      20.643 -11.887  65.631  1.00  0.00     0.016 C 
ATOM     19  C   UNL     1      16.346 -10.073  62.846  1.00  0.00     0.012 C 
ENDROOT
BRANCH   1  20
ATOM     20  C   UNL     1      14.319 -12.375  61.755  1.00  0.00     0.133 C 
ATOM     21  C   UNL     1      13.900 -13.809  61.576  1.00  0.00     0.088 C 
ATOM     22  O   UNL     1      14.559 -11.713  60.757  1.00  0.00    -0.300 OA
ENDBRANCH   1  20
BRANCH  16  23
ATOM     23  O   UNL     1      21.035 -12.284  70.341  1.00  0.00    -0.393 OA
ATOM     24  H   UNL     1      20.978 -11.476  70.914  1.00  0.00     0.210 HD
ENDBRANCH  16  23
TORSDOF 2
ENDMDL
MODEL 2
REMARK VINA RESULT:    -7.887      1.879      3.301
REMARK INTER + INTRA:          -8.711
REMARK INTER:                  -8.602
REMARK INTRA:                  -0.109
REMARK UNBOUND:                -0.132
REMARK SMILES CC(=O)[C@H]1CC[C@H]2[C@@H]3CC=C4C[C@H](O)CC[C@@]4(C)[C@H]3CC[C@@]12C
REMARK SMILES IDX 4 1 5 2 6 3 7 4 22 5 21 6 20 7 19 8 8 9 9 10 10 11 11 12
REMARK SMILES IDX 17 13 16 14 15 15 13 16 12 17 18 18 23 19 2 20 1 21 3 22
REMARK SMILES IDX 14 23
REMARK H PARENT 14 24
REMARK Flexibility Score: inf
ROOT
ATOM      1  C   UNL     1      13.691 -12.305  62.475  1.00  0.00     0.062 C 
ATOM      2  C   UNL     1      14.684 -11.982  61.353  1.00  0.00     0.012 C 
ATOM      3  C   UNL     1      16.071 -12.309  61.904  1.00  0.00     0.005 C 
ATOM      4  C   UNL     1      15.885 -12.712  63.379  1.00  0.00    -0.001 C 
ATOM      5  C   UNL     1      14.505 -12.127  63.787  1.00  0.00    -0.020 C 
ATOM      6  C   UNL     1      14.585 -10.610  64.210  1.00  0.00     0.008 C 
ATOM      7  C   UNL     1      15.990 -10.092  64.558  1.00  0.00     0.005 C 
ATOM      8  C   UNL     1      16.819 -11.172  65.266  1.00  0.00     0.003 C 
ATOM      9  C   UNL     1      17.110 -12.318  64.274  1.00  0.00     0.000 C 
ATOM     10  C   UNL     1      17.645 -13.506  65.083  1.00  0.00     0.031 C 
ATOM     11  C   UNL     1      18.873 -13.100  65.852  1.00  0.00    -0.027 C 
ATOM     12  C   UNL     1      19.103 -11.829  66.264  1.00  0.00    -0.065 C 
ATOM     13  C   UNL     1      18.138 -10.663  65.968  1.00  0.00    -0.008 C 
ATOM     14  C   UNL     1      18.902  -9.633  65.078  1.00  0.00     0.014 C 
ATOM     15  C   UNL     1      20.298  -9.262  65.619  1.00  0.00     0.033 C 
ATOM     16  C   UNL     1      21.170 -10.507  65.873  1.00  0.00     0.118 C 
ATOM     17  C   UNL     1      20.466 -11.482  66.823  1.00  0.00     0.063 C 
ATOM     18  C   UNL     1      17.737  -9.999  67.314  1.00  0.00     0.016 C 
ATOM     19  C   UNL     1      13.877 -12.980  64.921  1.00  0.00     0.012 C 
ENDROOT
BRANCH   1  20
ATOM     20  C   UNL     1      12.366 -11.552  62.415  1.00  0.00     0.133 C 
ATOM     21  C   UNL     1      12.091 -10.465  61.412  1.00  0.00     0.088 C 
ATOM     22  O   UNL     1      11.476 -11.863  63.191  1.00  0.00    -0.300 OA
ENDBRANCH   1  20
BRANCH  16  23
ATOM     23  O   UNL     1      22.397 -10.123  66.437  1.00  0.00    -0.393 OA
ATOM     24  H   UNL     1      23.095 -10.311  65.756  1.00  0.00     0.210 HD
ENDBRANCH  16  23
TORSDOF 2
ENDMDL
MODEL 3
REMARK VINA RESULT:    -7.837      1.130      6.867
REMARK INTER + INTRA:          -8.657
REMARK INTER:                  -8.523
REMARK INTRA:                  -0.134
REMARK UNBOUND:                -0.132
REMARK SMILES CC(=O)[C@H]1CC[C@H]2[C@@H]3CC=C4C[C@H](O)CC[C@@]4(C)[C@H]3CC[C@@]12C
REMARK SMILES IDX 4 1 5 2 6 3 7 4 22 5 21 6 20 7 19 8 8 9 9 10 10 11 11 12
REMARK SMILES IDX 17 13 16 14 15 15 13 16 12 17 18 18 23 19 2 20 1 21 3 22
REMARK SMILES IDX 14 23
REMARK H PARENT 14 24
REMARK Flexibility Score: inf
ROOT
ATOM      1  C   UNL     1      20.386 -10.945  67.642  1.00  0.00     0.062 C 
ATOM      2  C   UNL     1      21.103 -11.579  66.445  1.00  0.00     0.012 C 
ATOM      3  C   UNL     1      20.325 -11.145  65.203  1.00  0.00     0.005 C 
ATOM      4  C   UNL     1      19.097 -10.356  65.695  1.00  0.00    -0.001 C 
ATOM      5  C   UNL     1      18.912 -10.780  67.178  1.00  0.00    -0.020 C 
ATOM      6  C   UNL     1      18.108 -12.127  67.332  1.00  0.00     0.008 C 
ATOM      7  C   UNL     1      17.299 -12.562  66.099  1.00  0.00     0.005 C 
ATOM      8  C   UNL     1      16.708 -11.348  65.369  1.00  0.00     0.003 C 
ATOM      9  C   UNL     1      17.854 -10.519  64.754  1.00  0.00     0.000 C 
ATOM     10  C   UNL     1      17.269  -9.169  64.323  1.00  0.00     0.031 C 
ATOM     11  C   UNL     1      16.141  -9.378  63.351  1.00  0.00    -0.027 C 
ATOM     12  C   UNL     1      15.373 -10.495  63.335  1.00  0.00    -0.065 C 
ATOM     13  C   UNL     1      15.592 -11.677  64.302  1.00  0.00    -0.008 C 
ATOM     14  C   UNL     1      15.968 -12.924  63.442  1.00  0.00     0.014 C 
ATOM     15  C   UNL     1      15.020 -13.165  62.250  1.00  0.00     0.033 C 
ATOM     16  C   UNL     1      14.883 -11.917  61.358  1.00  0.00     0.118 C 
ATOM     17  C   UNL     1      14.421 -10.707  62.177  1.00  0.00     0.063 C 
ATOM     18  C   UNL     1      14.265 -11.945  65.064  1.00  0.00     0.016 C 
ATOM     19  C   UNL     1      18.228  -9.639  67.979  1.00  0.00     0.012 C 
ENDROOT
BRANCH   1  20
ATOM     20  C   UNL     1      20.580 -11.658  68.976  1.00  0.00     0.133 C 
ATOM     21  C   UNL     1      21.214 -13.017  69.089  1.00  0.00     0.088 C 
ATOM     22  O   UNL     1      20.236 -11.092  70.003  1.00  0.00    -0.300 OA
ENDBRANCH   1  20
BRANCH  16  23
ATOM     23  O   UNL     1      13.952 -12.160  60.336  1.00  0.00    -0.393 OA
ATOM     24  H   UNL     1      14.419 -11.988  59.477  1.00  0.00     0.210 HD
ENDBRANCH  16  23
TORSDOF 2
ENDMDL
MODEL 4
REMARK VINA RESULT:    -7.667     10.123     12.926
REMARK INTER + INTRA:          -8.471
REMARK INTER:                  -8.391
REMARK INTRA:                  -0.081
REMARK UNBOUND:                -0.132
REMARK SMILES CC(=O)[C@H]1CC[C@H]2[C@@H]3CC=C4C[C@H](O)CC[C@@]4(C)[C@H]3CC[C@@]12C
REMARK SMILES IDX 4 1 5 2 6 3 7 4 22 5 21 6 20 7 19 8 8 9 9 10 10 11 11 12
REMARK SMILES IDX 17 13 16 14 15 15 13 16 12 17 18 18 23 19 2 20 1 21 3 22
REMARK SMILES IDX 14 23
REMARK H PARENT 14 24
REMARK Flexibility Score: inf
ROOT
ATOM      1  C   UNL     1      14.097  -8.436  55.730  1.00  0.00     0.062 C 
ATOM      2  C   UNL     1      14.264  -8.857  57.195  1.00  0.00     0.012 C 
ATOM      3  C   UNL     1      12.982  -9.597  57.573  1.00  0.00     0.005 C 
ATOM      4  C   UNL     1      12.033  -9.501  56.363  1.00  0.00    -0.001 C 
ATOM      5  C   UNL     1      12.562  -8.303  55.529  1.00  0.00    -0.020 C 
ATOM      6  C   UNL     1      12.034  -6.913  56.053  1.00  0.00     0.008 C 
ATOM      7  C   UNL     1      10.804  -6.975  56.975  1.00  0.00     0.005 C 
ATOM      8  C   UNL     1       9.846  -8.093  56.544  1.00  0.00     0.003 C 
ATOM      9  C   UNL     1      10.522  -9.459  56.778  1.00  0.00     0.000 C 
ATOM     10  C   UNL     1       9.689 -10.520  56.049  1.00  0.00     0.031 C 
ATOM     11  C   UNL     1       8.270 -10.500  56.548  1.00  0.00    -0.027 C 
ATOM     12  C   UNL     1       7.678  -9.391  57.055  1.00  0.00    -0.065 C 
ATOM     13  C   UNL     1       8.407  -8.039  57.191  1.00  0.00    -0.008 C 
ATOM     14  C   UNL     1       8.474  -7.691  58.711  1.00  0.00     0.014 C 
ATOM     15  C   UNL     1       7.121  -7.829  59.439  1.00  0.00     0.033 C 
ATOM     16  C   UNL     1       6.492  -9.221  59.232  1.00  0.00     0.118 C 
ATOM     17  C   UNL     1       6.335  -9.533  57.739  1.00  0.00     0.063 C 
ATOM     18  C   UNL     1       7.585  -6.957  56.439  1.00  0.00     0.016 C 
ATOM     19  C   UNL     1      12.205  -8.495  54.031  1.00  0.00     0.012 C 
ENDROOT
BRANCH   1  20
ATOM     20  C   UNL     1      14.925  -7.230  55.297  1.00  0.00     0.133 C 
ATOM     21  C   UNL     1      15.247  -6.088  56.221  1.00  0.00     0.088 C 
ATOM     22  O   UNL     1      15.375  -7.201  54.161  1.00  0.00    -0.300 OA
ENDBRANCH   1  20
BRANCH  16  23
ATOM     23  O   UNL     1       5.231  -9.271  59.845  1.00  0.00    -0.393 OA
ATOM     24  H   UNL     1       4.871 -10.182  59.684  1.00  0.00     0.210 HD
ENDBRANCH  16  23
TORSDOF 2
ENDMDL
MODEL 5
REMARK VINA RESULT:    -7.640      1.596      6.874
REMARK INTER + INTRA:          -8.442
REMARK INTER:                  -8.400
REMARK INTRA:                  -0.042
REMARK UNBOUND:                -0.132
REMARK SMILES CC(=O)[C@H]1CC[C@H]2[C@@H]3CC=C4C[C@H](O)CC[C@@]4(C)[C@H]3CC[C@@]12C
REMARK SMILES IDX 4 1 5 2 6 3 7 4 22 5 21 6 20 7 19 8 8 9 9 10 10 11 11 12
REMARK SMILES IDX 17 13 16 14 15 15 13 16 12 17 18 18 23 19 2 20 1 21 3 22
REMARK SMILES IDX 14 23
REMARK H PARENT 14 24
REMARK Flexibility Score: inf
ROOT
ATOM      1  C   UNL     1      19.483 -11.176  67.738  1.00  0.00     0.062 C 
ATOM      2  C   UNL     1      19.066  -9.705  67.836  1.00  0.00     0.012 C 
ATOM      3  C   UNL     1      17.621  -9.638  67.342  1.00  0.00     0.005 C 
ATOM      4  C   UNL     1      17.248 -11.051  66.855  1.00  0.00    -0.001 C 
ATOM      5  C   UNL     1      18.604 -11.763  66.599  1.00  0.00    -0.020 C 
ATOM      6  C   UNL     1      19.209 -11.433  65.181  1.00  0.00     0.008 C 
ATOM      7  C   UNL     1      18.221 -10.849  64.157  1.00  0.00     0.005 C 
ATOM      8  C   UNL     1      16.828 -11.473  64.316  1.00  0.00     0.003 C 
ATOM      9  C   UNL     1      16.226 -11.032  65.666  1.00  0.00     0.000 C 
ATOM     10  C   UNL     1      15.001 -11.914  65.937  1.00  0.00     0.031 C 
ATOM     11  C   UNL     1      14.011 -11.789  64.811  1.00  0.00    -0.027 C 
ATOM     12  C   UNL     1      14.369 -11.484  63.540  1.00  0.00    -0.065 C 
ATOM     13  C   UNL     1      15.829 -11.212  63.121  1.00  0.00    -0.008 C 
ATOM     14  C   UNL     1      15.907  -9.736  62.619  1.00  0.00     0.014 C 
ATOM     15  C   UNL     1      14.810  -9.369  61.600  1.00  0.00     0.033 C 
ATOM     16  C   UNL     1      13.397  -9.683  62.130  1.00  0.00     0.118 C 
ATOM     17  C   UNL     1      13.283 -11.157  62.538  1.00  0.00     0.063 C 
ATOM     18  C   UNL     1      16.200 -12.180  61.966  1.00  0.00     0.016 C 
ATOM     19  C   UNL     1      18.447 -13.296  66.785  1.00  0.00     0.012 C 
ENDROOT
BRANCH   1  20
ATOM     20  C   UNL     1      20.983 -11.425  67.607  1.00  0.00     0.133 C 
ATOM     21  C   UNL     1      21.654 -12.661  68.141  1.00  0.00     0.088 C 
ATOM     22  O   UNL     1      21.667 -10.604  67.016  1.00  0.00    -0.300 OA
ENDBRANCH   1  20
BRANCH  16  23
ATOM     23  O   UNL     1      12.442  -9.406  61.140  1.00  0.00    -0.393 OA
ATOM     24  H   UNL     1      12.746  -9.866  60.314  1.00  0.00     0.210 HD
ENDBRANCH  16  23
TORSDOF 2
ENDMDL
MODEL 6
REMARK VINA RESULT:    -7.432      1.880      2.908
REMARK INTER + INTRA:          -8.216
REMARK INTER:                  -8.154
REMARK INTRA:                  -0.061
REMARK UNBOUND:                -0.132
REMARK SMILES CC(=O)[C@H]1CC[C@H]2[C@@H]3CC=C4C[C@H](O)CC[C@@]4(C)[C@H]3CC[C@@]12C
REMARK SMILES IDX 4 1 5 2 6 3 7 4 22 5 21 6 20 7 19 8 8 9 9 10 10 11 11 12
REMARK SMILES IDX 17 13 16 14 15 15 13 16 12 17 18 18 23 19 2 20 1 21 3 22
REMARK SMILES IDX 14 23
REMARK H PARENT 14 24
REMARK Flexibility Score: inf
ROOT
ATOM      1  C   UNL     1      13.363 -10.248  61.875  1.00  0.00     0.062 C 
ATOM      2  C   UNL     1      13.156  -8.974  62.702  1.00  0.00     0.012 C 
ATOM      3  C   UNL     1      14.535  -8.581  63.230  1.00  0.00     0.005 C 
ATOM      4  C   UNL     1      15.514  -9.690  62.801  1.00  0.00    -0.001 C 
ATOM      5  C   UNL     1      14.620 -10.922  62.494  1.00  0.00    -0.020 C 
ATOM      6  C   UNL     1      14.250 -11.746  63.786  1.00  0.00     0.008 C 
ATOM      7  C   UNL     1      15.133 -11.482  65.017  1.00  0.00     0.005 C 
ATOM      8  C   UNL     1      16.591 -11.231  64.608  1.00  0.00     0.003 C 
ATOM      9  C   UNL     1      16.678  -9.902  63.830  1.00  0.00     0.000 C 
ATOM     10  C   UNL     1      18.059  -9.844  63.166  1.00  0.00     0.031 C 
ATOM     11  C   UNL     1      19.140  -9.960  64.205  1.00  0.00    -0.027 C 
ATOM     12  C   UNL     1      18.971 -10.612  65.381  1.00  0.00    -0.065 C 
ATOM     13  C   UNL     1      17.643 -11.285  65.784  1.00  0.00    -0.008 C 
ATOM     14  C   UNL     1      17.116 -10.559  67.061  1.00  0.00     0.014 C 
ATOM     15  C   UNL     1      18.179 -10.398  68.167  1.00  0.00     0.033 C 
ATOM     16  C   UNL     1      19.457  -9.713  67.646  1.00  0.00     0.118 C 
ATOM     17  C   UNL     1      20.036 -10.474  66.448  1.00  0.00     0.063 C 
ATOM     18  C   UNL     1      17.924 -12.778  66.106  1.00  0.00     0.016 C 
ATOM     19  C   UNL     1      15.306 -11.832  61.441  1.00  0.00     0.012 C 
ENDROOT
BRANCH   1  20
ATOM     20  C   UNL     1      12.137 -11.145  61.735  1.00  0.00     0.133 C 
ATOM     21  C   UNL     1      11.959 -12.109  60.594  1.00  0.00     0.088 C 
ATOM     22  O   UNL     1      11.276 -11.105  62.600  1.00  0.00    -0.300 OA
ENDBRANCH   1  20
BRANCH  16  23
ATOM     23  O   UNL     1      20.420  -9.661  68.665  1.00  0.00    -0.393 OA
ATOM     24  H   UNL     1      20.415 -10.549  69.109  1.00  0.00     0.210 HD
ENDBRANCH  16  23
TORSDOF 2
ENDMDL
MODEL 7
REMARK VINA RESULT:    -7.413      1.556      6.936
REMARK INTER + INTRA:          -8.195
REMARK INTER:                  -8.061
REMARK INTRA:                  -0.134
REMARK UNBOUND:                -0.132
REMARK SMILES CC(=O)[C@H]1CC[C@H]2[C@@H]3CC=C4C[C@H](O)CC[C@@]4(C)[C@H]3CC[C@@]12C
REMARK SMILES IDX 4 1 5 2 6 3 7 4 22 5 21 6 20 7 19 8 8 9 9 10 10 11 11 12
REMARK SMILES IDX 17 13 16 14 15 15 13 16 12 17 18 18 23 19 2 20 1 21 3 22
REMARK SMILES IDX 14 23
REMARK H PARENT 14 24
REMARK Flexibility Score: inf
ROOT
ATOM      1  C   UNL     1      19.791 -11.991  66.605  1.00  0.00     0.062 C 
ATOM      2  C   UNL     1      19.247 -13.355  67.044  1.00  0.00     0.012 C 
ATOM      3  C   UNL     1      18.356 -13.845  65.904  1.00  0.00     0.005 C 
ATOM      4  C   UNL     1      18.298 -12.713  64.861  1.00  0.00    -0.001 C 
ATOM      5  C   UNL     1      18.717 -11.431  65.631  1.00  0.00    -0.020 C 
ATOM      6  C   UNL     1      17.520 -10.771  66.415  1.00  0.00     0.008 C 
ATOM      7  C   UNL     1      16.114 -11.211  65.974  1.00  0.00     0.005 C 
ATOM      8  C   UNL     1      16.057 -11.441  64.458  1.00  0.00     0.003 C 
ATOM      9  C   UNL     1      16.929 -12.661  64.097  1.00  0.00     0.000 C 
ATOM     10  C   UNL     1      17.112 -12.666  62.575  1.00  0.00     0.031 C 
ATOM     11  C   UNL     1      15.773 -12.709  61.891  1.00  0.00    -0.027 C 
ATOM     12  C   UNL     1      14.641 -12.209  62.445  1.00  0.00    -0.065 C 
ATOM     13  C   UNL     1      14.607 -11.563  63.845  1.00  0.00    -0.008 C 
ATOM     14  C   UNL     1      13.675 -12.434  64.744  1.00  0.00     0.014 C 
ATOM     15  C   UNL     1      12.315 -12.759  64.094  1.00  0.00     0.033 C 
ATOM     16  C   UNL     1      12.477 -13.402  62.703  1.00  0.00     0.118 C 
ATOM     17  C   UNL     1      13.314 -12.508  61.782  1.00  0.00     0.063 C 
ATOM     18  C   UNL     1      14.022 -10.130  63.714  1.00  0.00     0.016 C 
ATOM     19  C   UNL     1      19.365 -10.410  64.657  1.00  0.00     0.012 C 
ENDROOT
BRANCH   1  20
ATOM     20  C   UNL     1      20.205 -11.055  67.737  1.00  0.00     0.133 C 
ATOM     21  C   UNL     1      19.885 -11.330  69.180  1.00  0.00     0.088 C 
ATOM     22  O   UNL     1      20.851 -10.054  67.467  1.00  0.00    -0.300 OA
ENDBRANCH   1  20
BRANCH  16  23
ATOM     23  O   UNL     1      11.216 -13.607  62.121  1.00  0.00    -0.393 OA
ATOM     24  H   UNL     1      11.362 -13.681  61.142  1.00  0.00     0.210 HD
ENDBRANCH  16  23
TORSDOF 2
ENDMDL
MODEL 8
REMARK VINA RESULT:    -7.344      4.136      8.033
REMARK INTER + INTRA:          -8.120
REMARK INTER:                  -7.982
REMARK INTRA:                  -0.139
REMARK UNBOUND:                -0.132
REMARK SMILES CC(=O)[C@H]1CC[C@H]2[C@@H]3CC=C4C[C@H](O)CC[C@@]4(C)[C@H]3CC[C@@]12C
REMARK SMILES IDX 4 1 5 2 6 3 7 4 22 5 21 6 20 7 19 8 8 9 9 10 10 11 11 12
REMARK SMILES IDX 17 13 16 14 15 15 13 16 12 17 18 18 23 19 2 20 1 21 3 22
REMARK SMILES IDX 14 23
REMARK H PARENT 14 24
REMARK Flexibility Score: inf
ROOT
ATOM      1  C   UNL     1      15.629 -12.297  63.527  1.00  0.00     0.062 C 
ATOM      2  C   UNL     1      15.125 -11.861  64.907  1.00  0.00     0.012 C 
ATOM      3  C   UNL     1      13.795 -11.148  64.669  1.00  0.00     0.005 C 
ATOM      4  C   UNL     1      13.591 -11.074  63.144  1.00  0.00    -0.001 C 
ATOM      5  C   UNL     1      15.006 -11.273  62.537  1.00  0.00    -0.020 C 
ATOM      6  C   UNL     1      15.844  -9.939  62.490  1.00  0.00     0.008 C 
ATOM      7  C   UNL     1      15.032  -8.640  62.633  1.00  0.00     0.005 C 
ATOM      8  C   UNL     1      13.668  -8.762  61.941  1.00  0.00     0.003 C 
ATOM      9  C   UNL     1      12.806  -9.792  62.699  1.00  0.00     0.000 C 
ATOM     10  C   UNL     1      11.599 -10.127  61.813  1.00  0.00     0.031 C 
ATOM     11  C   UNL     1      10.829  -8.876  61.490  1.00  0.00    -0.027 C 
ATOM     12  C   UNL     1      11.398  -7.647  61.438  1.00  0.00    -0.065 C 
ATOM     13  C   UNL     1      12.894  -7.403  61.726  1.00  0.00    -0.008 C 
ATOM     14  C   UNL     1      12.987  -6.484  62.984  1.00  0.00     0.014 C 
ATOM     15  C   UNL     1      12.079  -5.239  62.911  1.00  0.00     0.033 C 
ATOM     16  C   UNL     1      10.611  -5.609  62.621  1.00  0.00     0.118 C 
ATOM     17  C   UNL     1      10.500  -6.434  61.334  1.00  0.00     0.063 C 
ATOM     18  C   UNL     1      13.522  -6.683  60.501  1.00  0.00     0.016 C 
ATOM     19  C   UNL     1      14.897 -11.903  61.122  1.00  0.00     0.012 C 
ENDROOT
BRANCH   1  20
ATOM     20  C   UNL     1      17.137 -12.491  63.411  1.00  0.00     0.133 C 
ATOM     21  C   UNL     1      18.104 -12.009  64.458  1.00  0.00     0.088 C 
ATOM     22  O   UNL     1      17.582 -13.090  62.444  1.00  0.00    -0.300 OA
ENDBRANCH   1  20
BRANCH  16  23
ATOM     23  O   UNL     1       9.842  -4.443  62.486  1.00  0.00    -0.393 OA
ATOM     24  H   UNL     1       8.914  -4.734  62.290  1.00  0.00     0.210 HD
ENDBRANCH  16  23
TORSDOF 2
ENDMDL
MODEL 9
REMARK VINA RESULT:    -7.176      1.669      6.976
REMARK INTER + INTRA:          -7.938
REMARK INTER:                  -7.789
REMARK INTRA:                  -0.149
REMARK UNBOUND:                -0.132
REMARK SMILES CC(=O)[C@H]1CC[C@H]2[C@@H]3CC=C4C[C@H](O)CC[C@@]4(C)[C@H]3CC[C@@]12C
REMARK SMILES IDX 4 1 5 2 6 3 7 4 22 5 21 6 20 7 19 8 8 9 9 10 10 11 11 12
REMARK SMILES IDX 17 13 16 14 15 15 13 16 12 17 18 18 23 19 2 20 1 21 3 22
REMARK SMILES IDX 14 23
REMARK H PARENT 14 24
REMARK Flexibility Score: inf
ROOT
ATOM      1  C   UNL     1      19.452 -10.157  65.745  1.00  0.00     0.062 C 
ATOM      2  C   UNL     1      19.878 -10.235  64.275  1.00  0.00     0.012 C 
ATOM      3  C   UNL     1      18.621  -9.952  63.453  1.00  0.00     0.005 C 
ATOM      4  C   UNL     1      17.452  -9.824  64.448  1.00  0.00    -0.001 C 
ATOM      5  C   UNL     1      17.944 -10.529  65.741  1.00  0.00    -0.020 C 
ATOM      6  C   UNL     1      17.739 -12.092  65.701  1.00  0.00     0.008 C 
ATOM      7  C   UNL     1      16.746 -12.604  64.644  1.00  0.00     0.005 C 
ATOM      8  C   UNL     1      15.572 -11.631  64.471  1.00  0.00     0.003 C 
ATOM      9  C   UNL     1      16.090 -10.318  63.849  1.00  0.00     0.000 C 
ATOM     10  C   UNL     1      14.979  -9.270  63.990  1.00  0.00     0.031 C 
ATOM     11  C   UNL     1      13.721  -9.753  63.320  1.00  0.00    -0.027 C 
ATOM     12  C   UNL     1      13.413 -11.065  63.181  1.00  0.00    -0.065 C 
ATOM     13  C   UNL     1      14.332 -12.201  63.676  1.00  0.00    -0.008 C 
ATOM     14  C   UNL     1      14.779 -13.024  62.428  1.00  0.00     0.014 C 
ATOM     15  C   UNL     1      13.613 -13.426  61.501  1.00  0.00     0.033 C 
ATOM     16  C   UNL     1      12.769 -12.210  61.071  1.00  0.00     0.118 C 
ATOM     17  C   UNL     1      12.247 -11.448  62.294  1.00  0.00     0.063 C 
ATOM     18  C   UNL     1      13.521 -13.107  64.642  1.00  0.00     0.016 C 
ATOM     19  C   UNL     1      17.243  -9.917  66.983  1.00  0.00     0.012 C 
ENDROOT
BRANCH   1  20
ATOM     20  C   UNL     1      20.322 -10.943  66.722  1.00  0.00     0.133 C 
ATOM     21  C   UNL     1      21.250 -12.042  66.284  1.00  0.00     0.088 C 
ATOM     22  O   UNL     1      20.290 -10.650  67.907  1.00  0.00    -0.300 OA
ENDBRANCH   1  20
BRANCH  16  23
ATOM     23  O   UNL     1      11.680 -12.634  60.296  1.00  0.00    -0.393 OA
ATOM     24  H   UNL     1      11.422 -13.532  60.632  1.00  0.00     0.210 HD
ENDBRANCH  16  23
TORSDOF 2
ENDMDL
