MODEL 1
REMARK VINA RESULT:     0.534      0.000      0.000
REMARK INTER + INTRA:           0.803
REMARK INTER:                   0.581
REMARK INTRA:                   0.222
REMARK UNBOUND:                 0.222
REMARK SMILES C[C@@H]1[C@@H](C)CC[C@]2(C(=O)[O-])CC[C@]3(C)C(=CC[C@H]4[C@@]5(C)CC[C@@H](O)C(C)(C)[C@H]5CC[C@@]43C)[C@@H]12
REMARK SMILES IDX 7 1 6 2 11 3 33 4 5 5 12 6 15 7 2 8 3 9 13 10 16 11 1 12
REMARK SMILES IDX 4 13 14 14 31 15 17 16 18 17 30 18 32 19 19 20 29 21 28 22
REMARK SMILES IDX 21 23 20 24 25 25 22 26 23 27 26 28 27 29 8 30 9 31 10 32
REMARK SMILES IDX 24 33
REMARK H PARENT 24 34
REMARK Flexibility Score: inf
ROOT
ATOM      1  C   UNL     1      10.664  34.035  -7.834  1.00  0.00     0.017 C 
ATOM      2  C   UNL     1      10.958  35.170  -8.888  1.00  0.00     0.014 C 
ATOM      3  C   UNL     1      12.030  33.438  -7.307  1.00  0.00     0.014 C 
ATOM      4  C   UNL     1       9.780  32.912  -8.492  1.00  0.00     0.030 C 
ATOM      5  C   UNL     1      10.039  35.181 -10.123  1.00  0.00     0.004 C 
ATOM      6  C   UNL     1      12.210  31.921  -7.515  1.00  0.00     0.013 C 
ATOM      7  C   UNL     1       9.677  31.713  -7.533  1.00  0.00    -0.063 C 
ATOM      8  C   UNL     1       8.433  33.448  -9.104  1.00  0.00    -0.003 C 
ATOM      9  C   UNL     1       8.576  34.846  -9.797  1.00  0.00    -0.011 C 
ATOM     10  C   UNL     1      10.986  31.024  -7.105  1.00  0.00    -0.006 C 
ATOM     11  C   UNL     1       8.499  31.201  -7.092  1.00  0.00    -0.027 C 
ATOM     12  C   UNL     1       7.875  32.432 -10.125  1.00  0.00     0.008 C 
ATOM     13  C   UNL     1       7.893  35.982  -9.013  1.00  0.00     0.008 C 
ATOM     14  C   UNL     1      11.060  29.793  -8.078  1.00  0.00     0.017 C 
ATOM     15  C   UNL     1      10.972  30.584  -5.512  1.00  0.00    -0.020 C 
ATOM     16  C   UNL     1       8.483  30.222  -5.948  1.00  0.00     0.032 C 
ATOM     17  C   UNL     1       9.514  30.730  -4.916  1.00  0.00     0.006 C 
ATOM     18  C   UNL     1      11.830  31.502  -4.594  1.00  0.00     0.008 C 
ATOM     19  C   UNL     1      11.551  29.139  -5.391  1.00  0.00     0.012 C 
ATOM     20  C   UNL     1       9.250  30.380  -3.386  1.00  0.00    -0.025 C 
ATOM     21  C   UNL     1      11.795  31.100  -3.110  1.00  0.00     0.005 C 
ATOM     22  C   UNL     1      10.378  31.036  -2.457  1.00  0.00     0.003 C 
ATOM     23  C   UNL     1       9.099  28.842  -3.170  1.00  0.00     0.010 C 
ATOM     24  C   UNL     1       7.879  31.041  -3.008  1.00  0.00     0.012 C 
ATOM     25  C   UNL     1      10.433  30.476  -0.953  1.00  0.00    -0.006 C 
ATOM     26  C   UNL     1       9.063  28.421  -1.699  1.00  0.00     0.033 C 
ATOM     27  C   UNL     1      10.292  28.922  -0.923  1.00  0.00     0.120 C 
ATOM     28  C   UNL     1       9.330  31.123  -0.052  1.00  0.00     0.014 C 
ATOM     29  C   UNL     1      11.771  30.856  -0.242  1.00  0.00     0.014 C 
ENDROOT
BRANCH   1  30
ATOM     30  C   UNL     1       9.969  34.659  -6.623  1.00  0.00     0.048 C 
ATOM     31  O   UNL     1       9.577  33.964  -5.650  1.00  0.00    -0.550 OA
ATOM     32  O   UNL     1       9.792  36.037  -6.561  1.00  0.00    -0.550 OA
ENDBRANCH   1  30
BRANCH  27  33
ATOM     33  O   UNL     1      11.443  28.316  -1.454  1.00  0.00    -0.393 OA
ATOM     34  H   UNL     1      11.237  27.352  -1.571  1.00  0.00     0.210 HD
ENDBRANCH  27  33
TORSDOF 2
ENDMDL
MODEL 2
REMARK VINA RESULT:     1.809      2.065      7.416
REMARK INTER + INTRA:           2.190
REMARK INTER:                   1.364
REMARK INTRA:                   0.826
REMARK UNBOUND:                 0.222
REMARK SMILES C[C@@H]1[C@@H](C)CC[C@]2(C(=O)[O-])CC[C@]3(C)C(=CC[C@H]4[C@@]5(C)CC[C@@H](O)C(C)(C)[C@H]5CC[C@@]43C)[C@@H]12
REMARK SMILES IDX 7 1 6 2 11 3 33 4 5 5 12 6 15 7 2 8 3 9 13 10 16 11 1 12
REMARK SMILES IDX 4 13 14 14 31 15 17 16 18 17 30 18 32 19 19 20 29 21 28 22
REMARK SMILES IDX 21 23 20 24 25 25 22 26 23 27 26 28 27 29 8 30 9 31 10 32
REMARK SMILES IDX 24 33
REMARK H PARENT 24 34
REMARK Flexibility Score: inf
ROOT
ATOM      1  C   UNL     1       9.434  29.486  -1.700  1.00  0.00     0.017 C 
ATOM      2  C   UNL     1       8.995  28.883  -0.311  1.00  0.00     0.014 C 
ATOM      3  C   UNL     1       9.414  28.348  -2.799  1.00  0.00     0.014 C 
ATOM      4  C   UNL     1      10.869  30.118  -1.578  1.00  0.00     0.030 C 
ATOM      5  C   UNL     1       9.798  29.375   0.906  1.00  0.00     0.004 C 
ATOM      6  C   UNL     1      10.753  28.108  -3.524  1.00  0.00     0.013 C 
ATOM      7  C   UNL     1      11.378  30.509  -2.977  1.00  0.00    -0.063 C 
ATOM      8  C   UNL     1      10.982  31.212  -0.451  1.00  0.00    -0.003 C 
ATOM      9  C   UNL     1      10.160  30.866   0.838  1.00  0.00    -0.011 C 
ATOM     10  C   UNL     1      11.497  29.396  -4.033  1.00  0.00    -0.006 C 
ATOM     11  C   UNL     1      11.778  31.765  -3.308  1.00  0.00    -0.027 C 
ATOM     12  C   UNL     1      12.463  31.422  -0.066  1.00  0.00     0.008 C 
ATOM     13  C   UNL     1       8.922  31.762   1.022  1.00  0.00     0.008 C 
ATOM     14  C   UNL     1      13.020  29.020  -3.966  1.00  0.00     0.017 C 
ATOM     15  C   UNL     1      11.024  29.900  -5.534  1.00  0.00    -0.020 C 
ATOM     16  C   UNL     1      11.991  32.131  -4.754  1.00  0.00     0.032 C 
ATOM     17  C   UNL     1      10.844  31.472  -5.551  1.00  0.00     0.006 C 
ATOM     18  C   UNL     1       9.626  29.372  -5.969  1.00  0.00     0.008 C 
ATOM     19  C   UNL     1      12.061  29.383  -6.581  1.00  0.00     0.012 C 
ATOM     20  C   UNL     1      10.373  32.196  -6.888  1.00  0.00    -0.025 C 
ATOM     21  C   UNL     1       9.184  29.864  -7.358  1.00  0.00     0.005 C 
ATOM     22  C   UNL     1       9.141  31.413  -7.548  1.00  0.00     0.003 C 
ATOM     23  C   UNL     1      11.565  32.401  -7.875  1.00  0.00     0.010 C 
ATOM     24  C   UNL     1       9.864  33.619  -6.470  1.00  0.00     0.012 C 
ATOM     25  C   UNL     1       8.803  31.825  -9.062  1.00  0.00    -0.006 C 
ATOM     26  C   UNL     1      11.144  32.889  -9.264  1.00  0.00     0.033 C 
ATOM     27  C   UNL     1      10.104  31.963  -9.913  1.00  0.00     0.120 C 
ATOM     28  C   UNL     1       7.983  33.155  -9.134  1.00  0.00     0.014 C 
ATOM     29  C   UNL     1       7.878  30.774  -9.756  1.00  0.00     0.014 C 
ENDROOT
BRANCH   1  30
ATOM     30  C   UNL     1       8.398  30.524  -2.134  1.00  0.00     0.048 C 
ATOM     31  O   UNL     1       7.875  31.324  -1.314  1.00  0.00    -0.550 OA
ATOM     32  O   UNL     1       8.041  30.627  -3.474  1.00  0.00    -0.550 OA
ENDBRANCH   1  30
BRANCH  27  33
ATOM     33  O   UNL     1      10.686  30.702 -10.125  1.00  0.00    -0.393 OA
ATOM     34  H   UNL     1      11.594  30.730  -9.724  1.00  0.00     0.210 HD
ENDBRANCH  27  33
TORSDOF 2
ENDMDL
MODEL 3
REMARK VINA RESULT:     1.986      1.962      7.670
REMARK INTER + INTRA:           2.382
REMARK INTER:                   1.916
REMARK INTRA:                   0.465
REMARK UNBOUND:                 0.222
REMARK SMILES C[C@@H]1[C@@H](C)CC[C@]2(C(=O)[O-])CC[C@]3(C)C(=CC[C@H]4[C@@]5(C)CC[C@@H](O)C(C)(C)[C@H]5CC[C@@]43C)[C@@H]12
REMARK SMILES IDX 7 1 6 2 11 3 33 4 5 5 12 6 15 7 2 8 3 9 13 10 16 11 1 12
REMARK SMILES IDX 4 13 14 14 31 15 17 16 18 17 30 18 32 19 19 20 29 21 28 22
REMARK SMILES IDX 21 23 20 24 25 25 22 26 23 27 26 28 27 29 8 30 9 31 10 32
REMARK SMILES IDX 24 33
REMARK H PARENT 24 34
REMARK Flexibility Score: inf
ROOT
ATOM      1  C   UNL     1      10.852  28.066  -2.052  1.00  0.00     0.017 C 
ATOM      2  C   UNL     1      11.048  26.995  -0.911  1.00  0.00     0.014 C 
ATOM      3  C   UNL     1      12.022  27.933  -3.107  1.00  0.00     0.014 C 
ATOM      4  C   UNL     1      10.823  29.510  -1.428  1.00  0.00     0.030 C 
ATOM      5  C   UNL     1      10.757  27.490   0.517  1.00  0.00     0.004 C 
ATOM      6  C   UNL     1      12.860  29.208  -3.326  1.00  0.00     0.013 C 
ATOM      7  C   UNL     1      10.848  30.556  -2.557  1.00  0.00    -0.063 C 
ATOM      8  C   UNL     1       9.726  29.694  -0.315  1.00  0.00    -0.003 C 
ATOM      9  C   UNL     1       9.551  28.436   0.603  1.00  0.00    -0.011 C 
ATOM     10  C   UNL     1      12.046  30.538  -3.524  1.00  0.00    -0.006 C 
ATOM     11  C   UNL     1       9.905  31.522  -2.709  1.00  0.00    -0.027 C 
ATOM     12  C   UNL     1      10.065  30.918   0.564  1.00  0.00     0.008 C 
ATOM     13  C   UNL     1       8.225  27.692   0.360  1.00  0.00     0.008 C 
ATOM     14  C   UNL     1      12.977  31.658  -2.939  1.00  0.00     0.017 C 
ATOM     15  C   UNL     1      11.595  30.827  -5.088  1.00  0.00    -0.020 C 
ATOM     16  C   UNL     1       9.842  32.320  -3.984  1.00  0.00     0.032 C 
ATOM     17  C   UNL     1      10.095  31.329  -5.141  1.00  0.00     0.006 C 
ATOM     18  C   UNL     1      11.584  29.559  -5.989  1.00  0.00     0.008 C 
ATOM     19  C   UNL     1      12.609  31.834  -5.718  1.00  0.00     0.012 C 
ATOM     20  C   UNL     1       9.425  31.658  -6.546  1.00  0.00    -0.025 C 
ATOM     21  C   UNL     1      11.143  29.833  -7.437  1.00  0.00     0.005 C 
ATOM     22  C   UNL     1       9.739  30.498  -7.605  1.00  0.00     0.003 C 
ATOM     23  C   UNL     1       9.834  33.076  -7.055  1.00  0.00     0.010 C 
ATOM     24  C   UNL     1       7.875  31.677  -6.308  1.00  0.00     0.012 C 
ATOM     25  C   UNL     1       9.429  30.868  -9.136  1.00  0.00    -0.006 C 
ATOM     26  C   UNL     1       9.404  33.367  -8.495  1.00  0.00     0.033 C 
ATOM     27  C   UNL     1       9.923  32.308  -9.480  1.00  0.00     0.120 C 
ATOM     28  C   UNL     1       7.904  30.743  -9.466  1.00  0.00     0.014 C 
ATOM     29  C   UNL     1      10.112  29.871 -10.125  1.00  0.00     0.014 C 
ENDROOT
BRANCH   1  30
ATOM     30  C   UNL     1       9.556  27.752  -2.801  1.00  0.00     0.048 C 
ATOM     31  O   UNL     1       8.746  26.879  -2.393  1.00  0.00    -0.550 OA
ATOM     32  O   UNL     1       9.228  28.470  -3.946  1.00  0.00    -0.550 OA
ENDBRANCH   1  30
BRANCH  27  33
ATOM     33  O   UNL     1      11.328  32.351  -9.496  1.00  0.00    -0.393 OA
ATOM     34  H   UNL     1      11.643  31.885  -8.678  1.00  0.00     0.210 HD
ENDBRANCH  27  33
TORSDOF 2
ENDMDL
MODEL 4
REMARK VINA RESULT:     3.030      1.925      7.342
REMARK INTER + INTRA:           3.517
REMARK INTER:                   3.298
REMARK INTRA:                   0.219
REMARK UNBOUND:                 0.222
REMARK SMILES C[C@@H]1[C@@H](C)CC[C@]2(C(=O)[O-])CC[C@]3(C)C(=CC[C@H]4[C@@]5(C)CC[C@@H](O)C(C)(C)[C@H]5CC[C@@]43C)[C@@H]12
REMARK SMILES IDX 7 1 6 2 11 3 33 4 5 5 12 6 15 7 2 8 3 9 13 10 16 11 1 12
REMARK SMILES IDX 4 13 14 14 31 15 17 16 18 17 30 18 32 19 19 20 29 21 28 22
REMARK SMILES IDX 21 23 20 24 25 25 22 26 23 27 26 28 27 29 8 30 9 31 10 32
REMARK SMILES IDX 24 33
REMARK H PARENT 24 34
REMARK Flexibility Score: inf
ROOT
ATOM      1  C   UNL     1      12.016  30.164  -2.970  1.00  0.00     0.017 C 
ATOM      2  C   UNL     1      12.842  29.516  -1.793  1.00  0.00     0.014 C 
ATOM      3  C   UNL     1      11.623  31.646  -2.585  1.00  0.00     0.014 C 
ATOM      4  C   UNL     1      10.732  29.302  -3.257  1.00  0.00     0.030 C 
ATOM      5  C   UNL     1      12.497  28.051  -1.472  1.00  0.00     0.004 C 
ATOM      6  C   UNL     1      10.112  31.950  -2.589  1.00  0.00     0.013 C 
ATOM      7  C   UNL     1       9.825  30.050  -4.252  1.00  0.00    -0.063 C 
ATOM      8  C   UNL     1      11.044  27.794  -3.579  1.00  0.00    -0.003 C 
ATOM      9  C   UNL     1      12.213  27.202  -2.720  1.00  0.00    -0.011 C 
ATOM     10  C   UNL     1       9.316  31.445  -3.847  1.00  0.00    -0.006 C 
ATOM     11  C   UNL     1       9.410  29.524  -5.434  1.00  0.00    -0.027 C 
ATOM     12  C   UNL     1       9.777  26.936  -3.368  1.00  0.00     0.008 C 
ATOM     13  C   UNL     1      13.493  26.946  -3.537  1.00  0.00     0.008 C 
ATOM     14  C   UNL     1       7.875  31.140  -3.301  1.00  0.00     0.017 C 
ATOM     15  C   UNL     1       9.312  32.505  -5.116  1.00  0.00    -0.020 C 
ATOM     16  C   UNL     1       8.768  30.409  -6.468  1.00  0.00     0.032 C 
ATOM     17  C   UNL     1       9.563  31.733  -6.474  1.00  0.00     0.006 C 
ATOM     18  C   UNL     1      10.467  33.547  -5.074  1.00  0.00     0.008 C 
ATOM     19  C   UNL     1       7.969  33.302  -5.093  1.00  0.00     0.012 C 
ATOM     20  C   UNL     1       9.621  32.546  -7.841  1.00  0.00    -0.025 C 
ATOM     21  C   UNL     1      10.470  34.516  -6.269  1.00  0.00     0.005 C 
ATOM     22  C   UNL     1      10.535  33.852  -7.681  1.00  0.00     0.003 C 
ATOM     23  C   UNL     1       8.190  32.863  -8.377  1.00  0.00     0.010 C 
ATOM     24  C   UNL     1      10.314  31.606  -8.889  1.00  0.00     0.012 C 
ATOM     25  C   UNL     1      10.394  34.932  -8.860  1.00  0.00    -0.006 C 
ATOM     26  C   UNL     1       8.172  33.827  -9.566  1.00  0.00     0.033 C 
ATOM     27  C   UNL     1       8.899  35.145  -9.256  1.00  0.00     0.120 C 
ATOM     28  C   UNL     1      11.219  34.522 -10.125  1.00  0.00     0.014 C 
ATOM     29  C   UNL     1      10.990  36.317  -8.453  1.00  0.00     0.014 C 
ENDROOT
BRANCH   1  30
ATOM     30  C   UNL     1      12.915  30.261  -4.203  1.00  0.00     0.048 C 
ATOM     31  O   UNL     1      12.487  30.694  -5.305  1.00  0.00    -0.550 OA
ATOM     32  O   UNL     1      14.255  29.902  -4.113  1.00  0.00    -0.550 OA
ENDBRANCH   1  30
BRANCH  27  33
ATOM     33  O   UNL     1       8.211  35.812  -8.227  1.00  0.00    -0.393 OA
ATOM     34  H   UNL     1       8.278  36.784  -8.417  1.00  0.00     0.210 HD
ENDBRANCH  27  33
TORSDOF 2
ENDMDL
