MODEL 1
REMARK VINA RESULT:    -3.415      0.000      0.000
REMARK INTER + INTRA:          -4.458
REMARK INTER:                  -4.214
REMARK INTRA:                  -0.244
REMARK UNBOUND:                -0.244
REMARK SMILES CCCCC=CC(C)=O
REMARK SMILES IDX 4 1 3 2 2 3 1 4 5 5 6 6 7 7 9 8 8 9
REMARK H PARENT
REMARK Flexibility Score: inf
ROOT
ATOM      1  C   UNL     1       1.518  79.903 -30.376  1.00  0.00     0.027 C 
ENDROOT
BRANCH   1   2
ATOM      2  C   UNL     1       0.055  79.962 -29.919  1.00  0.00     0.004 C 
BRANCH   2   3
ATOM      3  C   UNL     1      -0.861  80.395 -31.069  1.00  0.00    -0.003 C 
ATOM      4  C   UNL     1      -0.509  79.661 -32.360  1.00  0.00     0.004 C 
ENDBRANCH   2   3
ENDBRANCH   1   2
BRANCH   1   5
ATOM      5  C   UNL     1       2.103  78.538 -30.150  1.00  0.00    -0.023 C 
ATOM      6  C   UNL     1       1.463  77.616 -29.422  1.00  0.00     0.042 C 
BRANCH   6   7
ATOM      7  C   UNL     1       1.994  76.258 -29.183  1.00  0.00     0.152 C 
ATOM      8  O   UNL     1       1.409  75.519 -28.346  1.00  0.00    -0.295 OA
ATOM      9  C   UNL     1       3.201  75.729 -29.898  1.00  0.00     0.093 C 
ENDBRANCH   6   7
ENDBRANCH   1   5
TORSDOF 4
ENDMDL
MODEL 2
REMARK VINA RESULT:    -3.327      2.201      4.635
REMARK INTER + INTRA:          -4.349
REMARK INTER:                  -4.091
REMARK INTRA:                  -0.258
REMARK UNBOUND:                -0.244
REMARK SMILES CCCCC=CC(C)=O
REMARK SMILES IDX 4 1 3 2 2 3 1 4 5 5 6 6 7 7 9 8 8 9
REMARK H PARENT
REMARK Flexibility Score: inf
ROOT
ATOM      1  C   UNL     1       3.616  78.819 -30.107  1.00  0.00     0.027 C 
ENDROOT
BRANCH   1   2
ATOM      2  C   UNL     1       3.922  77.456 -30.738  1.00  0.00     0.004 C 
BRANCH   2   3
ATOM      3  C   UNL     1       3.823  76.335 -29.698  1.00  0.00    -0.003 C 
ATOM      4  C   UNL     1       2.656  75.400 -30.004  1.00  0.00     0.004 C 
ENDBRANCH   2   3
ENDBRANCH   1   2
BRANCH   1   5
ATOM      5  C   UNL     1       2.420  79.460 -30.750  1.00  0.00    -0.023 C 
ATOM      6  C   UNL     1       1.176  79.197 -30.330  1.00  0.00     0.042 C 
BRANCH   6   7
ATOM      7  C   UNL     1      -0.028  79.812 -30.924  1.00  0.00     0.152 C 
ATOM      8  O   UNL     1      -0.784  80.498 -30.185  1.00  0.00    -0.295 OA
ATOM      9  C   UNL     1      -0.384  79.649 -32.371  1.00  0.00     0.093 C 
ENDBRANCH   6   7
ENDBRANCH   1   5
TORSDOF 4
ENDMDL
MODEL 3
REMARK VINA RESULT:    -3.327     15.241     17.061
REMARK INTER + INTRA:          -4.348
REMARK INTER:                  -4.087
REMARK INTRA:                  -0.262
REMARK UNBOUND:                -0.244
REMARK SMILES CCCCC=CC(C)=O
REMARK SMILES IDX 4 1 3 2 2 3 1 4 5 5 6 6 7 7 9 8 8 9
REMARK H PARENT
REMARK Flexibility Score: inf
ROOT
ATOM      1  C   UNL     1      15.038  66.008 -29.809  1.00  0.00     0.027 C 
ENDROOT
BRANCH   1   2
ATOM      2  C   UNL     1      15.816  67.199 -29.235  1.00  0.00     0.004 C 
BRANCH   2   3
ATOM      3  C   UNL     1      14.860  68.260 -28.677  1.00  0.00    -0.003 C 
ATOM      4  C   UNL     1      15.133  69.627 -29.297  1.00  0.00     0.004 C 
ENDBRANCH   2   3
ENDBRANCH   1   2
BRANCH   1   5
ATOM      5  C   UNL     1      13.574  66.112 -29.493  1.00  0.00    -0.023 C 
ATOM      6  C   UNL     1      12.640  65.786 -30.395  1.00  0.00     0.042 C 
BRANCH   6   7
ATOM      7  C   UNL     1      11.190  65.861 -30.126  1.00  0.00     0.152 C 
ATOM      8  O   UNL     1      10.404  65.207 -30.862  1.00  0.00    -0.295 OA
ATOM      9  C   UNL     1      10.620  66.686 -29.012  1.00  0.00     0.093 C 
ENDBRANCH   6   7
ENDBRANCH   1   5
TORSDOF 4
ENDMDL
MODEL 4
REMARK VINA RESULT:    -3.283     14.394     16.477
REMARK INTER + INTRA:          -4.294
REMARK INTER:                  -4.108
REMARK INTRA:                  -0.186
REMARK UNBOUND:                -0.244
REMARK SMILES CCCCC=CC(C)=O
REMARK SMILES IDX 4 1 3 2 2 3 1 4 5 5 6 6 7 7 9 8 8 9
REMARK H PARENT
REMARK Flexibility Score: inf
ROOT
ATOM      1  C   UNL     1      14.486  68.507 -29.517  1.00  0.00     0.027 C 
ENDROOT
BRANCH   1   2
ATOM      2  C   UNL     1      15.637  67.540 -29.214  1.00  0.00     0.004 C 
BRANCH   2   3
ATOM      3  C   UNL     1      15.121  66.105 -29.065  1.00  0.00    -0.003 C 
ATOM      4  C   UNL     1      14.069  65.785 -30.123  1.00  0.00     0.004 C 
ENDBRANCH   2   3
ENDBRANCH   1   2
BRANCH   1   5
ATOM      5  C   UNL     1      14.413  69.604 -28.495  1.00  0.00    -0.023 C 
ATOM      6  C   UNL     1      13.254  69.949 -27.921  1.00  0.00     0.042 C 
BRANCH   6   7
ATOM      7  C   UNL     1      13.136  71.012 -26.903  1.00  0.00     0.152 C 
ATOM      8  O   UNL     1      12.447  70.788 -25.872  1.00  0.00    -0.295 OA
ATOM      9  C   UNL     1      13.804  72.346 -27.051  1.00  0.00     0.093 C 
ENDBRANCH   6   7
ENDBRANCH   1   5
TORSDOF 4
ENDMDL
MODEL 5
REMARK VINA RESULT:    -3.274     15.246     17.014
REMARK INTER + INTRA:          -4.283
REMARK INTER:                  -4.078
REMARK INTRA:                  -0.205
REMARK UNBOUND:                -0.244
REMARK SMILES CCCCC=CC(C)=O
REMARK SMILES IDX 4 1 3 2 2 3 1 4 5 5 6 6 7 7 9 8 8 9
REMARK H PARENT
REMARK Flexibility Score: inf
ROOT
ATOM      1  C   UNL     1      14.494  65.711 -30.130  1.00  0.00     0.027 C 
ENDROOT
BRANCH   1   2
ATOM      2  C   UNL     1      13.155  64.976 -29.992  1.00  0.00     0.004 C 
BRANCH   2   3
ATOM      3  C   UNL     1      12.234  65.287 -31.177  1.00  0.00    -0.003 C 
ATOM      4  C   UNL     1      10.770  65.300 -30.749  1.00  0.00     0.004 C 
ENDBRANCH   2   3
ENDBRANCH   1   2
BRANCH   1   5
ATOM      5  C   UNL     1      14.564  66.890 -29.203  1.00  0.00    -0.023 C 
ATOM      6  C   UNL     1      14.187  68.112 -29.598  1.00  0.00     0.042 C 
BRANCH   6   7
ATOM      7  C   UNL     1      14.228  69.298 -28.719  1.00  0.00     0.152 C 
ATOM      8  O   UNL     1      15.247  70.039 -28.750  1.00  0.00    -0.295 OA
ATOM      9  C   UNL     1      13.104  69.652 -27.792  1.00  0.00     0.093 C 
ENDBRANCH   6   7
ENDBRANCH   1   5
TORSDOF 4
ENDMDL
MODEL 6
REMARK VINA RESULT:    -3.161      4.654      6.229
REMARK INTER + INTRA:          -4.144
REMARK INTER:                  -4.003
REMARK INTRA:                  -0.141
REMARK UNBOUND:                -0.244
REMARK SMILES CCCCC=CC(C)=O
REMARK SMILES IDX 4 1 3 2 2 3 1 4 5 5 6 6 7 7 9 8 8 9
REMARK H PARENT
REMARK Flexibility Score: inf
ROOT
ATOM      1  C   UNL     1       4.192  74.625 -29.352  1.00  0.00     0.027 C 
ENDROOT
BRANCH   1   2
ATOM      2  C   UNL     1       3.118  75.543 -29.948  1.00  0.00     0.004 C 
BRANCH   2   3
ATOM      3  C   UNL     1       1.758  74.838 -29.994  1.00  0.00    -0.003 C 
ATOM      4  C   UNL     1       1.639  73.797 -28.883  1.00  0.00     0.004 C 
ENDBRANCH   2   3
ENDBRANCH   1   2
BRANCH   1   5
ATOM      5  C   UNL     1       5.555  74.967 -29.880  1.00  0.00    -0.023 C 
ATOM      6  C   UNL     1       6.522  74.046 -29.966  1.00  0.00     0.042 C 
BRANCH   6   7
ATOM      7  C   UNL     1       7.873  74.334 -30.489  1.00  0.00     0.152 C 
ATOM      8  O   UNL     1       8.146  75.512 -30.843  1.00  0.00    -0.295 OA
ATOM      9  C   UNL     1       8.929  73.277 -30.617  1.00  0.00     0.093 C 
ENDBRANCH   6   7
ENDBRANCH   1   5
TORSDOF 4
ENDMDL
MODEL 7
REMARK VINA RESULT:    -3.130     14.226     15.796
REMARK INTER + INTRA:          -4.106
REMARK INTER:                  -3.902
REMARK INTRA:                  -0.204
REMARK UNBOUND:                -0.244
REMARK SMILES CCCCC=CC(C)=O
REMARK SMILES IDX 4 1 3 2 2 3 1 4 5 5 6 6 7 7 9 8 8 9
REMARK H PARENT
REMARK Flexibility Score: inf
ROOT
ATOM      1  C   UNL     1      12.712  68.648 -28.700  1.00  0.00     0.027 C 
ENDROOT
BRANCH   1   2
ATOM      2  C   UNL     1      13.673  68.265 -29.832  1.00  0.00     0.004 C 
BRANCH   2   3
ATOM      3  C   UNL     1      15.132  68.453 -29.400  1.00  0.00    -0.003 C 
ATOM      4  C   UNL     1      15.813  67.109 -29.159  1.00  0.00     0.004 C 
ENDBRANCH   2   3
ENDBRANCH   1   2
BRANCH   1   5
ATOM      5  C   UNL     1      13.326  69.671 -27.789  1.00  0.00    -0.023 C 
ATOM      6  C   UNL     1      12.593  70.653 -27.248  1.00  0.00     0.042 C 
BRANCH   6   7
ATOM      7  C   UNL     1      13.151  71.674 -26.338  1.00  0.00     0.152 C 
ATOM      8  O   UNL     1      13.019  71.512 -25.095  1.00  0.00    -0.295 OA
ATOM      9  C   UNL     1      13.864  72.894 -26.837  1.00  0.00     0.093 C 
ENDBRANCH   6   7
ENDBRANCH   1   5
TORSDOF 4
ENDMDL
MODEL 8
REMARK VINA RESULT:    -3.124     14.684     15.414
REMARK INTER + INTRA:          -4.099
REMARK INTER:                  -3.884
REMARK INTRA:                  -0.214
REMARK UNBOUND:                -0.244
REMARK SMILES CCCCC=CC(C)=O
REMARK SMILES IDX 4 1 3 2 2 3 1 4 5 5 6 6 7 7 9 8 8 9
REMARK H PARENT
REMARK Flexibility Score: inf
ROOT
ATOM      1  C   UNL     1      13.285  76.011 -22.829  1.00  0.00     0.027 C 
ENDROOT
BRANCH   1   2
ATOM      2  C   UNL     1      14.050  77.260 -23.283  1.00  0.00     0.004 C 
BRANCH   2   3
ATOM      3  C   UNL     1      15.097  76.906 -24.345  1.00  0.00    -0.003 C 
ATOM      4  C   UNL     1      14.859  75.508 -24.909  1.00  0.00     0.004 C 
ENDBRANCH   2   3
ENDBRANCH   1   2
BRANCH   1   5
ATOM      5  C   UNL     1      12.988  76.061 -21.358  1.00  0.00    -0.023 C 
ATOM      6  C   UNL     1      12.875  77.225 -20.707  1.00  0.00     0.042 C 
BRANCH   6   7
ATOM      7  C   UNL     1      12.572  77.323 -19.265  1.00  0.00     0.152 C 
ATOM      8  O   UNL     1      12.232  78.441 -18.794  1.00  0.00    -0.295 OA
ATOM      9  C   UNL     1      12.657  76.144 -18.343  1.00  0.00     0.093 C 
ENDBRANCH   6   7
ENDBRANCH   1   5
TORSDOF 4
ENDMDL
MODEL 9
REMARK VINA RESULT:    -3.091      8.790     10.305
REMARK INTER + INTRA:          -4.058
REMARK INTER:                  -3.898
REMARK INTRA:                  -0.161
REMARK UNBOUND:                -0.244
REMARK SMILES CCCCC=CC(C)=O
REMARK SMILES IDX 4 1 3 2 2 3 1 4 5 5 6 6 7 7 9 8 8 9
REMARK H PARENT
REMARK Flexibility Score: inf
ROOT
ATOM      1  C   UNL     1       5.486  68.777 -29.964  1.00  0.00     0.027 C 
ENDROOT
BRANCH   1   2
ATOM      2  C   UNL     1       4.360  68.222 -30.846  1.00  0.00     0.004 C 
BRANCH   2   3
ATOM      3  C   UNL     1       4.797  68.154 -32.313  1.00  0.00    -0.003 C 
ATOM      4  C   UNL     1       4.872  66.709 -32.800  1.00  0.00     0.004 C 
ENDBRANCH   2   3
ENDBRANCH   1   2
BRANCH   1   5
ATOM      5  C   UNL     1       5.916  70.139 -30.426  1.00  0.00    -0.023 C 
ATOM      6  C   UNL     1       6.787  70.872 -29.721  1.00  0.00     0.042 C 
BRANCH   6   7
ATOM      7  C   UNL     1       7.248  72.211 -30.141  1.00  0.00     0.152 C 
ATOM      8  O   UNL     1       6.431  73.170 -30.105  1.00  0.00    -0.295 OA
ATOM      9  C   UNL     1       8.648  72.470 -30.610  1.00  0.00     0.093 C 
ENDBRANCH   6   7
ENDBRANCH   1   5
TORSDOF 4
ENDMDL
