MODEL 1
REMARK VINA RESULT:    -4.861      0.000      0.000
REMARK INTER + INTRA:          -8.802
REMARK INTER:                  -7.418
REMARK INTRA:                  -1.384
REMARK UNBOUND:                -1.384
REMARK SMILES OC[C@@H]1O[C@](CO)(O[C@@H]2O[C@H](CO)[C@H](O)[C@H](O)[C@@H]2O)[C@H](O)[C@@H]1O
REMARK SMILES IDX 8 1 9 2 11 3 14 4 10 5 16 6 18 7 12 8 13 9 15 11 17 13 19 15
REMARK SMILES IDX 5 17 20 18 4 19 22 20 3 21 6 22 7 23 21 25 23 27 2 29 1 30
REMARK H PARENT 13 10 15 12 17 14 19 16 7 24 21 26 23 28 1 31
REMARK Flexibility Score: inf
ROOT
ATOM      1  O   UNL     1     129.782 144.371 107.930  1.00  0.00    -0.313 OA
ENDROOT
BRANCH   1   2
ATOM      2  C   UNL     1     130.082 144.697 109.283  1.00  0.00     0.285 C 
ATOM      3  C   UNL     1     129.208 142.718 110.319  1.00  0.00     0.178 C 
ATOM      4  C   UNL     1     128.009 143.491 110.932  1.00  0.00     0.177 C 
ATOM      5  O   UNL     1     130.347 143.524 110.038  1.00  0.00    -0.341 OA
ATOM      6  C   UNL     1     127.685 144.802 110.194  1.00  0.00     0.179 C 
ATOM      7  C   UNL     1     128.983 145.581 109.915  1.00  0.00     0.202 C 
BRANCH   3   8
ATOM      8  C   UNL     1     128.874 141.729 109.180  1.00  0.00     0.191 C 
BRANCH   8   9
ATOM      9  O   UNL     1     128.113 140.642 109.628  1.00  0.00    -0.394 OA
ATOM     10  H   UNL     1     127.267 141.026 109.978  1.00  0.00     0.210 HD
ENDBRANCH   8   9
ENDBRANCH   3   8
BRANCH   4  11
ATOM     11  O   UNL     1     126.875 142.663 111.006  1.00  0.00    -0.387 OA
ATOM     12  H   UNL     1     127.041 142.016 111.740  1.00  0.00     0.211 HD
ENDBRANCH   4  11
BRANCH   6  13
ATOM     13  O   UNL     1     126.875 144.572 109.060  1.00  0.00    -0.387 OA
ATOM     14  H   UNL     1     126.582 145.436 108.668  1.00  0.00     0.211 HD
ENDBRANCH   6  13
BRANCH   7  15
ATOM     15  O   UNL     1     128.711 146.695 109.102  1.00  0.00    -0.385 OA
ATOM     16  H   UNL     1     127.725 146.761 109.020  1.00  0.00     0.211 HD
ENDBRANCH   7  15
ENDBRANCH   1   2
BRANCH   1  17
ATOM     17  C   UNL     1     130.457 145.187 106.970  1.00  0.00     0.224 C 
ATOM     18  C   UNL     1     131.579 144.358 106.312  1.00  0.00     0.208 C 
ATOM     19  O   UNL     1     131.050 146.323 107.589  1.00  0.00    -0.337 OA
ATOM     20  C   UNL     1     132.683 145.368 106.121  1.00  0.00     0.180 C 
ATOM     21  C   UNL     1     132.416 146.386 107.234  1.00  0.00     0.179 C 
BRANCH  17  22
ATOM     22  C   UNL     1     129.440 145.657 105.897  1.00  0.00     0.225 C 
BRANCH  22  23
ATOM     23  O   UNL     1     128.123 145.493 106.349  1.00  0.00    -0.391 OA
ATOM     24  H   UNL     1     127.720 144.788 105.779  1.00  0.00     0.210 HD
ENDBRANCH  22  23
ENDBRANCH  17  22
BRANCH  18  25
ATOM     25  O   UNL     1     132.000 143.328 107.172  1.00  0.00    -0.385 OA
ATOM     26  H   UNL     1     131.383 143.326 107.948  1.00  0.00     0.211 HD
ENDBRANCH  18  25
BRANCH  20  27
ATOM     27  O   UNL     1     133.956 144.775 106.196  1.00  0.00    -0.387 OA
ATOM     28  H   UNL     1     134.459 145.087 105.399  1.00  0.00     0.211 HD
ENDBRANCH  20  27
BRANCH  21  29
ATOM     29  C   UNL     1     133.265 146.175 108.503  1.00  0.00     0.191 C 
BRANCH  29  30
ATOM     30  O   UNL     1     134.538 146.748 108.362  1.00  0.00    -0.394 OA
ATOM     31  H   UNL     1     135.195 146.039 108.586  1.00  0.00     0.210 HD
ENDBRANCH  29  30
ENDBRANCH  21  29
ENDBRANCH   1  17
TORSDOF 13
ENDMDL
MODEL 2
REMARK VINA RESULT:    -4.838     15.293     18.312
REMARK INTER + INTRA:          -8.768
REMARK INTER:                  -6.931
REMARK INTRA:                  -1.837
REMARK UNBOUND:                -1.384
REMARK SMILES OC[C@@H]1O[C@](CO)(O[C@@H]2O[C@H](CO)[C@H](O)[C@H](O)[C@@H]2O)[C@H](O)[C@@H]1O
REMARK SMILES IDX 8 1 9 2 11 3 14 4 10 5 16 6 18 7 12 8 13 9 15 11 17 13 19 15
REMARK SMILES IDX 5 17 20 18 4 19 22 20 3 21 6 22 7 23 21 25 23 27 2 29 1 30
REMARK H PARENT 13 10 15 12 17 14 19 16 7 24 21 26 23 28 1 31
REMARK Flexibility Score: inf
ROOT
ATOM      1  O   UNL     1     144.900 144.941 118.174  1.00  0.00    -0.313 OA
ENDROOT
BRANCH   1   2
ATOM      2  C   UNL     1     146.291 144.637 118.160  1.00  0.00     0.285 C 
ATOM      3  C   UNL     1     146.356 143.229 120.101  1.00  0.00     0.178 C 
ATOM      4  C   UNL     1     147.117 144.298 120.930  1.00  0.00     0.177 C 
ATOM      5  O   UNL     1     146.529 143.342 118.692  1.00  0.00    -0.341 OA
ATOM      6  C   UNL     1     146.946 145.728 120.389  1.00  0.00     0.179 C 
ATOM      7  C   UNL     1     147.124 145.735 118.860  1.00  0.00     0.202 C 
BRANCH   3   8
ATOM      8  C   UNL     1     144.889 142.963 120.508  1.00  0.00     0.191 C 
BRANCH   8   9
ATOM      9  O   UNL     1     144.235 144.130 120.922  1.00  0.00    -0.394 OA
ATOM     10  H   UNL     1     143.565 143.843 121.597  1.00  0.00     0.210 HD
ENDBRANCH   8   9
ENDBRANCH   3   8
BRANCH   4  11
ATOM     11  O   UNL     1     146.747 144.225 122.285  1.00  0.00    -0.387 OA
ATOM     12  H   UNL     1     147.555 144.456 122.815  1.00  0.00     0.211 HD
ENDBRANCH   4  11
BRANCH   6  13
ATOM     13  O   UNL     1     145.747 146.316 120.849  1.00  0.00    -0.387 OA
ATOM     14  H   UNL     1     145.112 145.613 121.143  1.00  0.00     0.211 HD
ENDBRANCH   6  13
BRANCH   7  15
ATOM     15  O   UNL     1     146.809 147.004 118.344  1.00  0.00    -0.385 OA
ATOM     16  H   UNL     1     147.658 147.408 118.029  1.00  0.00     0.211 HD
ENDBRANCH   7  15
ENDBRANCH   1   2
BRANCH   1  17
ATOM     17  C   UNL     1     144.279 144.885 116.887  1.00  0.00     0.224 C 
ATOM     18  C   UNL     1     142.796 144.497 117.068  1.00  0.00     0.208 C 
ATOM     19  O   UNL     1     144.895 143.904 116.062  1.00  0.00    -0.337 OA
ATOM     20  C   UNL     1     142.526 143.614 115.874  1.00  0.00     0.180 C 
ATOM     21  C   UNL     1     143.906 143.031 115.557  1.00  0.00     0.179 C 
BRANCH  17  22
ATOM     22  C   UNL     1     144.388 146.274 116.207  1.00  0.00     0.225 C 
BRANCH  22  23
ATOM     23  O   UNL     1     145.595 146.393 115.503  1.00  0.00    -0.391 OA
ATOM     24  H   UNL     1     145.641 145.609 114.898  1.00  0.00     0.210 HD
ENDBRANCH  22  23
ENDBRANCH  17  22
BRANCH  18  25
ATOM     25  O   UNL     1     142.617 143.774 118.262  1.00  0.00    -0.385 OA
ATOM     26  H   UNL     1     143.246 144.154 118.928  1.00  0.00     0.211 HD
ENDBRANCH  18  25
BRANCH  20  27
ATOM     27  O   UNL     1     141.553 142.638 116.152  1.00  0.00    -0.387 OA
ATOM     28  H   UNL     1     141.194 142.847 117.053  1.00  0.00     0.211 HD
ENDBRANCH  20  27
BRANCH  21  29
ATOM     29  C   UNL     1     144.148 141.623 116.139  1.00  0.00     0.191 C 
BRANCH  29  30
ATOM     30  O   UNL     1     145.439 141.513 116.675  1.00  0.00    -0.394 OA
ATOM     31  H   UNL     1     146.028 141.205 115.938  1.00  0.00     0.210 HD
ENDBRANCH  29  30
ENDBRANCH  21  29
ENDBRANCH   1  17
TORSDOF 13
ENDMDL
MODEL 3
REMARK VINA RESULT:    -4.783     13.149     15.094
REMARK INTER + INTRA:          -8.683
REMARK INTER:                  -6.980
REMARK INTRA:                  -1.703
REMARK UNBOUND:                -1.384
REMARK SMILES OC[C@@H]1O[C@](CO)(O[C@@H]2O[C@H](CO)[C@H](O)[C@H](O)[C@@H]2O)[C@H](O)[C@@H]1O
REMARK SMILES IDX 8 1 9 2 11 3 14 4 10 5 16 6 18 7 12 8 13 9 15 11 17 13 19 15
REMARK SMILES IDX 5 17 20 18 4 19 22 20 3 21 6 22 7 23 21 25 23 27 2 29 1 30
REMARK H PARENT 13 10 15 12 17 14 19 16 7 24 21 26 23 28 1 31
REMARK Flexibility Score: inf
ROOT
ATOM      1  O   UNL     1     144.423 143.689 109.732  1.00  0.00    -0.313 OA
ENDROOT
BRANCH   1   2
ATOM      2  C   UNL     1     143.625 143.650 108.554  1.00  0.00     0.285 C 
ATOM      3  C   UNL     1     142.909 141.366 108.696  1.00  0.00     0.178 C 
ATOM      4  C   UNL     1     143.799 140.945 107.495  1.00  0.00     0.177 C 
ATOM      5  O   UNL     1     142.544 142.742 108.707  1.00  0.00    -0.341 OA
ATOM      6  C   UNL     1     144.970 141.907 107.236  1.00  0.00     0.179 C 
ATOM      7  C   UNL     1     144.476 143.364 107.296  1.00  0.00     0.202 C 
BRANCH   3   8
ATOM      8  C   UNL     1     143.345 140.847 110.085  1.00  0.00     0.191 C 
BRANCH   8   9
ATOM      9  O   UNL     1     144.724 140.972 110.288  1.00  0.00    -0.394 OA
ATOM     10  H   UNL     1     144.988 141.829 109.861  1.00  0.00     0.210 HD
ENDBRANCH   8   9
ENDBRANCH   3   8
BRANCH   4  11
ATOM     11  O   UNL     1     144.258 139.627 107.661  1.00  0.00    -0.387 OA
ATOM     12  H   UNL     1     143.728 139.230 108.401  1.00  0.00     0.211 HD
ENDBRANCH   4  11
BRANCH   6  13
ATOM     13  O   UNL     1     146.072 141.620 108.071  1.00  0.00    -0.387 OA
ATOM     14  H   UNL     1     145.793 141.632 109.022  1.00  0.00     0.211 HD
ENDBRANCH   6  13
BRANCH   7  15
ATOM     15  O   UNL     1     145.567 144.247 107.222  1.00  0.00    -0.385 OA
ATOM     16  H   UNL     1     146.369 143.701 107.017  1.00  0.00     0.211 HD
ENDBRANCH   7  15
ENDBRANCH   1   2
BRANCH   1  17
ATOM     17  C   UNL     1     144.114 144.775 110.610  1.00  0.00     0.224 C 
ATOM     18  C   UNL     1     145.421 145.516 110.962  1.00  0.00     0.208 C 
ATOM     19  O   UNL     1     143.530 144.308 111.820  1.00  0.00    -0.337 OA
ATOM     20  C   UNL     1     145.213 145.906 112.406  1.00  0.00     0.180 C 
ATOM     21  C   UNL     1     144.246 144.835 112.917  1.00  0.00     0.179 C 
BRANCH  17  22
ATOM     22  C   UNL     1     143.128 145.740 109.900  1.00  0.00     0.225 C 
BRANCH  22  23
ATOM     23  O   UNL     1     143.785 146.903 109.475  1.00  0.00    -0.391 OA
ATOM     24  H   UNL     1     144.267 147.255 110.267  1.00  0.00     0.210 HD
ENDBRANCH  22  23
ENDBRANCH  17  22
BRANCH  18  25
ATOM     25  O   UNL     1     146.525 144.653 110.843  1.00  0.00    -0.385 OA
ATOM     26  H   UNL     1     146.988 144.650 111.720  1.00  0.00     0.211 HD
ENDBRANCH  18  25
BRANCH  20  27
ATOM     27  O   UNL     1     146.425 145.955 113.116  1.00  0.00    -0.387 OA
ATOM     28  H   UNL     1     146.662 145.017 113.334  1.00  0.00     0.211 HD
ENDBRANCH  20  27
BRANCH  21  29
ATOM     29  C   UNL     1     144.928 143.671 113.664  1.00  0.00     0.191 C 
BRANCH  29  30
ATOM     30  O   UNL     1     145.307 142.653 112.777  1.00  0.00    -0.394 OA
ATOM     31  H   UNL     1     144.786 141.847 113.029  1.00  0.00     0.210 HD
ENDBRANCH  29  30
ENDBRANCH  21  29
ENDBRANCH   1  17
TORSDOF 13
ENDMDL
MODEL 4
REMARK VINA RESULT:    -4.778     13.361     14.997
REMARK INTER + INTRA:          -8.675
REMARK INTER:                  -6.761
REMARK INTRA:                  -1.914
REMARK UNBOUND:                -1.384
REMARK SMILES OC[C@@H]1O[C@](CO)(O[C@@H]2O[C@H](CO)[C@H](O)[C@H](O)[C@@H]2O)[C@H](O)[C@@H]1O
REMARK SMILES IDX 8 1 9 2 11 3 14 4 10 5 16 6 18 7 12 8 13 9 15 11 17 13 19 15
REMARK SMILES IDX 5 17 20 18 4 19 22 20 3 21 6 22 7 23 21 25 23 27 2 29 1 30
REMARK H PARENT 13 10 15 12 17 14 19 16 7 24 21 26 23 28 1 31
REMARK Flexibility Score: inf
ROOT
ATOM      1  O   UNL     1     144.519 142.963 110.488  1.00  0.00    -0.313 OA
ENDROOT
BRANCH   1   2
ATOM      2  C   UNL     1     143.388 143.090 111.344  1.00  0.00     0.285 C 
ATOM      3  C   UNL     1     144.033 145.107 112.470  1.00  0.00     0.178 C 
ATOM      4  C   UNL     1     144.314 144.352 113.797  1.00  0.00     0.177 C 
ATOM      5  O   UNL     1     143.106 144.457 111.607  1.00  0.00    -0.341 OA
ATOM      6  C   UNL     1     144.586 142.851 113.601  1.00  0.00     0.179 C 
ATOM      7  C   UNL     1     143.550 142.252 112.632  1.00  0.00     0.202 C 
BRANCH   3   8
ATOM      8  C   UNL     1     145.266 145.661 111.723  1.00  0.00     0.191 C 
BRANCH   8   9
ATOM      9  O   UNL     1     146.303 144.723 111.644  1.00  0.00    -0.394 OA
ATOM     10  H   UNL     1     147.006 145.138 111.080  1.00  0.00     0.210 HD
ENDBRANCH   8   9
ENDBRANCH   3   8
BRANCH   4  11
ATOM     11  O   UNL     1     145.366 144.966 114.499  1.00  0.00    -0.387 OA
ATOM     12  H   UNL     1     146.203 144.744 114.013  1.00  0.00     0.211 HD
ENDBRANCH   4  11
BRANCH   6  13
ATOM     13  O   UNL     1     145.933 142.609 113.252  1.00  0.00    -0.387 OA
ATOM     14  H   UNL     1     146.145 143.042 112.385  1.00  0.00     0.211 HD
ENDBRANCH   6  13
BRANCH   7  15
ATOM     15  O   UNL     1     143.890 140.924 112.323  1.00  0.00    -0.385 OA
ATOM     16  H   UNL     1     143.691 140.789 111.361  1.00  0.00     0.211 HD
ENDBRANCH   7  15
ENDBRANCH   1   2
BRANCH   1  17
ATOM     17  C   UNL     1     144.190 142.672 109.127  1.00  0.00     0.224 C 
ATOM     18  C   UNL     1     145.358 143.123 108.226  1.00  0.00     0.208 C 
ATOM     19  O   UNL     1     143.020 143.373 108.720  1.00  0.00    -0.337 OA
ATOM     20  C   UNL     1     144.657 143.644 106.995  1.00  0.00     0.180 C 
ATOM     21  C   UNL     1     143.295 144.090 107.535  1.00  0.00     0.179 C 
BRANCH  17  22
ATOM     22  C   UNL     1     143.956 141.146 108.974  1.00  0.00     0.225 C 
BRANCH  22  23
ATOM     23  O   UNL     1     144.962 140.418 109.625  1.00  0.00    -0.391 OA
ATOM     24  H   UNL     1     145.421 139.890 108.921  1.00  0.00     0.210 HD
ENDBRANCH  22  23
ENDBRANCH  17  22
BRANCH  18  25
ATOM     25  O   UNL     1     146.090 144.152 108.845  1.00  0.00    -0.385 OA
ATOM     26  H   UNL     1     147.031 143.843 108.906  1.00  0.00     0.211 HD
ENDBRANCH  18  25
BRANCH  20  27
ATOM     27  O   UNL     1     145.382 144.678 106.376  1.00  0.00    -0.387 OA
ATOM     28  H   UNL     1     145.658 144.335 105.486  1.00  0.00     0.211 HD
ENDBRANCH  20  27
BRANCH  21  29
ATOM     29  C   UNL     1     143.196 145.598 107.838  1.00  0.00     0.191 C 
BRANCH  29  30
ATOM     30  O   UNL     1     143.895 145.926 109.009  1.00  0.00    -0.394 OA
ATOM     31  H   UNL     1     143.250 145.842 109.758  1.00  0.00     0.210 HD
ENDBRANCH  29  30
ENDBRANCH  21  29
ENDBRANCH   1  17
TORSDOF 13
ENDMDL
MODEL 5
REMARK VINA RESULT:    -4.593     15.423     17.799
REMARK INTER + INTRA:          -8.394
REMARK INTER:                  -6.615
REMARK INTRA:                  -1.779
REMARK UNBOUND:                -1.384
REMARK SMILES OC[C@@H]1O[C@](CO)(O[C@@H]2O[C@H](CO)[C@H](O)[C@H](O)[C@@H]2O)[C@H](O)[C@@H]1O
REMARK SMILES IDX 8 1 9 2 11 3 14 4 10 5 16 6 18 7 12 8 13 9 15 11 17 13 19 15
REMARK SMILES IDX 5 17 20 18 4 19 22 20 3 21 6 22 7 23 21 25 23 27 2 29 1 30
REMARK H PARENT 13 10 15 12 17 14 19 16 7 24 21 26 23 28 1 31
REMARK Flexibility Score: inf
ROOT
ATOM      1  O   UNL     1     145.116 144.208 116.883  1.00  0.00    -0.313 OA
ENDROOT
BRANCH   1   2
ATOM      2  C   UNL     1     143.792 144.275 116.364  1.00  0.00     0.285 C 
ATOM      3  C   UNL     1     143.101 142.038 116.889  1.00  0.00     0.178 C 
ATOM      4  C   UNL     1     143.120 141.613 115.396  1.00  0.00     0.177 C 
ATOM      5  O   UNL     1     142.918 143.434 117.103  1.00  0.00    -0.341 OA
ATOM      6  C   UNL     1     144.013 142.506 114.517  1.00  0.00     0.179 C 
ATOM      7  C   UNL     1     143.758 143.989 114.845  1.00  0.00     0.202 C 
BRANCH   3   8
ATOM      8  C   UNL     1     144.202 141.431 117.787  1.00  0.00     0.191 C 
BRANCH   8   9
ATOM      9  O   UNL     1     145.429 141.321 117.121  1.00  0.00    -0.394 OA
ATOM     10  H   UNL     1     145.383 140.477 116.600  1.00  0.00     0.210 HD
ENDBRANCH   8   9
ENDBRANCH   3   8
BRANCH   4  11
ATOM     11  O   UNL     1     143.486 140.261 115.273  1.00  0.00    -0.387 OA
ATOM     12  H   UNL     1     142.855 139.742 115.838  1.00  0.00     0.211 HD
ENDBRANCH   4  11
BRANCH   6  13
ATOM     13  O   UNL     1     145.367 142.109 114.581  1.00  0.00    -0.387 OA
ATOM     14  H   UNL     1     145.609 141.868 115.512  1.00  0.00     0.211 HD
ENDBRANCH   6  13
BRANCH   7  15
ATOM     15  O   UNL     1     144.683 144.799 114.165  1.00  0.00    -0.385 OA
ATOM     16  H   UNL     1     145.065 145.427 114.831  1.00  0.00     0.211 HD
ENDBRANCH   7  15
ENDBRANCH   1   2
BRANCH   1  17
ATOM     17  C   UNL     1     145.386 145.159 117.916  1.00  0.00     0.224 C 
ATOM     18  C   UNL     1     146.697 144.763 118.626  1.00  0.00     0.208 C 
ATOM     19  O   UNL     1     144.344 145.174 118.884  1.00  0.00    -0.337 OA
ATOM     20  C   UNL     1     146.424 145.118 120.068  1.00  0.00     0.180 C 
ATOM     21  C   UNL     1     144.901 145.000 120.171  1.00  0.00     0.179 C 
BRANCH  17  22
ATOM     22  C   UNL     1     145.525 146.569 117.286  1.00  0.00     0.225 C 
BRANCH  22  23
ATOM     23  O   UNL     1     146.198 146.505 116.058  1.00  0.00    -0.391 OA
ATOM     24  H   UNL     1     145.954 145.633 115.653  1.00  0.00     0.210 HD
ENDBRANCH  22  23
ENDBRANCH  17  22
BRANCH  18  25
ATOM     25  O   UNL     1     146.929 143.381 118.499  1.00  0.00    -0.385 OA
ATOM     26  H   UNL     1     146.148 142.917 118.896  1.00  0.00     0.211 HD
ENDBRANCH  18  25
BRANCH  20  27
ATOM     27  O   UNL     1     147.115 144.275 120.956  1.00  0.00    -0.387 OA
ATOM     28  H   UNL     1     146.438 143.666 121.350  1.00  0.00     0.211 HD
ENDBRANCH  20  27
BRANCH  21  29
ATOM     29  C   UNL     1     144.407 143.656 120.744  1.00  0.00     0.191 C 
BRANCH  29  30
ATOM     30  O   UNL     1     144.621 143.588 122.129  1.00  0.00    -0.394 OA
ATOM     31  H   UNL     1     145.270 144.304 122.352  1.00  0.00     0.210 HD
ENDBRANCH  29  30
ENDBRANCH  21  29
ENDBRANCH   1  17
TORSDOF 13
ENDMDL
MODEL 6
REMARK VINA RESULT:    -4.533      2.279      4.594
REMARK INTER + INTRA:          -8.302
REMARK INTER:                  -6.460
REMARK INTRA:                  -1.843
REMARK UNBOUND:                -1.384
REMARK SMILES OC[C@@H]1O[C@](CO)(O[C@@H]2O[C@H](CO)[C@H](O)[C@H](O)[C@@H]2O)[C@H](O)[C@@H]1O
REMARK SMILES IDX 8 1 9 2 11 3 14 4 10 5 16 6 18 7 12 8 13 9 15 11 17 13 19 15
REMARK SMILES IDX 5 17 20 18 4 19 22 20 3 21 6 22 7 23 21 25 23 27 2 29 1 30
REMARK H PARENT 13 10 15 12 17 14 19 16 7 24 21 26 23 28 1 31
REMARK Flexibility Score: inf
ROOT
ATOM      1  O   UNL     1     128.348 142.124 108.238  1.00  0.00    -0.313 OA
ENDROOT
BRANCH   1   2
ATOM      2  C   UNL     1     129.692 141.722 107.993  1.00  0.00     0.285 C 
ATOM      3  C   UNL     1     129.235 139.670 106.839  1.00  0.00     0.178 C 
ATOM      4  C   UNL     1     129.733 138.813 108.034  1.00  0.00     0.177 C 
ATOM      5  O   UNL     1     129.785 140.982 106.785  1.00  0.00    -0.341 OA
ATOM      6  C   UNL     1     129.705 139.561 109.377  1.00  0.00     0.179 C 
ATOM      7  C   UNL     1     130.294 140.973 109.203  1.00  0.00     0.202 C 
BRANCH   3   8
ATOM      8  C   UNL     1     127.715 139.642 106.564  1.00  0.00     0.191 C 
BRANCH   8   9
ATOM      9  O   UNL     1     126.963 139.603 107.745  1.00  0.00    -0.394 OA
ATOM     10  H   UNL     1     126.112 140.072 107.543  1.00  0.00     0.210 HD
ENDBRANCH   8   9
ENDBRANCH   3   8
BRANCH   4  11
ATOM     11  O   UNL     1     129.008 137.610 108.113  1.00  0.00    -0.387 OA
ATOM     12  H   UNL     1     129.145 137.136 107.251  1.00  0.00     0.211 HD
ENDBRANCH   4  11
BRANCH   6  13
ATOM     13  O   UNL     1     128.423 139.522 109.967  1.00  0.00    -0.387 OA
ATOM     14  H   UNL     1     127.750 139.906 109.347  1.00  0.00     0.211 HD
ENDBRANCH   6  13
BRANCH   7  15
ATOM     15  O   UNL     1     130.123 141.716 110.384  1.00  0.00    -0.385 OA
ATOM     16  H   UNL     1     129.558 142.499 110.156  1.00  0.00     0.211 HD
ENDBRANCH   7  15
ENDBRANCH   1   2
BRANCH   1  17
ATOM     17  C   UNL     1     128.198 143.519 108.516  1.00  0.00     0.224 C 
ATOM     18  C   UNL     1     127.267 144.140 107.455  1.00  0.00     0.208 C 
ATOM     19  O   UNL     1     129.450 144.192 108.456  1.00  0.00    -0.337 OA
ATOM     20  C   UNL     1     127.867 145.507 107.233  1.00  0.00     0.180 C 
ATOM     21  C   UNL     1     129.343 145.297 107.583  1.00  0.00     0.179 C 
BRANCH  17  22
ATOM     22  C   UNL     1     127.587 143.693 109.931  1.00  0.00     0.225 C 
BRANCH  22  23
ATOM     23  O   UNL     1     127.217 142.453 110.472  1.00  0.00    -0.391 OA
ATOM     24  H   UNL     1     127.966 142.172 111.058  1.00  0.00     0.210 HD
ENDBRANCH  22  23
ENDBRANCH  17  22
BRANCH  18  25
ATOM     25  O   UNL     1     127.304 143.390 106.265  1.00  0.00    -0.385 OA
ATOM     26  H   UNL     1     126.527 142.774 106.287  1.00  0.00     0.211 HD
ENDBRANCH  18  25
BRANCH  20  27
ATOM     27  O   UNL     1     127.661 145.964 105.919  1.00  0.00    -0.387 OA
ATOM     28  H   UNL     1     128.095 145.304 105.319  1.00  0.00     0.211 HD
ENDBRANCH  20  27
BRANCH  21  29
ATOM     29  C   UNL     1     130.255 145.052 106.363  1.00  0.00     0.191 C 
BRANCH  29  30
ATOM     30  O   UNL     1     130.572 146.256 105.719  1.00  0.00    -0.394 OA
ATOM     31  H   UNL     1     130.868 146.887 106.425  1.00  0.00     0.210 HD
ENDBRANCH  29  30
ENDBRANCH  21  29
ENDBRANCH   1  17
TORSDOF 13
ENDMDL
MODEL 7
REMARK VINA RESULT:    -4.520     12.612     15.129
REMARK INTER + INTRA:          -8.282
REMARK INTER:                  -6.259
REMARK INTRA:                  -2.022
REMARK UNBOUND:                -1.384
REMARK SMILES OC[C@@H]1O[C@](CO)(O[C@@H]2O[C@H](CO)[C@H](O)[C@H](O)[C@@H]2O)[C@H](O)[C@@H]1O
REMARK SMILES IDX 8 1 9 2 11 3 14 4 10 5 16 6 18 7 12 8 13 9 15 11 17 13 19 15
REMARK SMILES IDX 5 17 20 18 4 19 22 20 3 21 6 22 7 23 21 25 23 27 2 29 1 30
REMARK H PARENT 13 10 15 12 17 14 19 16 7 24 21 26 23 28 1 31
REMARK Flexibility Score: inf
ROOT
ATOM      1  O   UNL     1     144.821 143.328 110.467  1.00  0.00    -0.313 OA
ENDROOT
BRANCH   1   2
ATOM      2  C   UNL     1     143.991 143.667 109.361  1.00  0.00     0.285 C 
ATOM      3  C   UNL     1     142.870 141.562 109.112  1.00  0.00     0.178 C 
ATOM      4  C   UNL     1     143.626 141.243 107.793  1.00  0.00     0.177 C 
ATOM      5  O   UNL     1     142.767 142.950 109.412  1.00  0.00    -0.341 OA
ATOM      6  C   UNL     1     144.946 142.018 107.642  1.00  0.00     0.179 C 
ATOM      7  C   UNL     1     144.732 143.496 108.016  1.00  0.00     0.202 C 
BRANCH   3   8
ATOM      8  C   UNL     1     143.249 140.706 110.341  1.00  0.00     0.191 C 
BRANCH   8   9
ATOM      9  O   UNL     1     144.632 140.516 110.449  1.00  0.00    -0.394 OA
ATOM     10  H   UNL     1     145.036 141.011 109.689  1.00  0.00     0.210 HD
ENDBRANCH   8   9
ENDBRANCH   3   8
BRANCH   4  11
ATOM     11  O   UNL     1     143.838 139.858 107.670  1.00  0.00    -0.387 OA
ATOM     12  H   UNL     1     143.394 139.430 108.449  1.00  0.00     0.211 HD
ENDBRANCH   4  11
BRANCH   6  13
ATOM     13  O   UNL     1     146.003 141.380 108.328  1.00  0.00    -0.387 OA
ATOM     14  H   UNL     1     146.869 141.801 108.089  1.00  0.00     0.211 HD
ENDBRANCH   6  13
BRANCH   7  15
ATOM     15  O   UNL     1     145.965 144.171 108.037  1.00  0.00    -0.385 OA
ATOM     16  H   UNL     1     146.423 143.966 107.181  1.00  0.00     0.211 HD
ENDBRANCH   7  15
ENDBRANCH   1   2
BRANCH   1  17
ATOM     17  C   UNL     1     144.780 144.273 111.539  1.00  0.00     0.224 C 
ATOM     18  C   UNL     1     145.185 143.561 112.846  1.00  0.00     0.208 C 
ATOM     19  O   UNL     1     143.469 144.799 111.709  1.00  0.00    -0.337 OA
ATOM     20  C   UNL     1     144.293 144.207 113.878  1.00  0.00     0.180 C 
ATOM     21  C   UNL     1     143.076 144.643 113.057  1.00  0.00     0.179 C 
BRANCH  17  22
ATOM     22  C   UNL     1     145.765 145.432 111.235  1.00  0.00     0.225 C 
BRANCH  22  23
ATOM     23  O   UNL     1     146.955 144.944 110.677  1.00  0.00    -0.391 OA
ATOM     24  H   UNL     1     146.987 143.977 110.895  1.00  0.00     0.210 HD
ENDBRANCH  22  23
ENDBRANCH  17  22
BRANCH  18  25
ATOM     25  O   UNL     1     144.917 142.182 112.761  1.00  0.00    -0.385 OA
ATOM     26  H   UNL     1     145.730 141.750 112.392  1.00  0.00     0.211 HD
ENDBRANCH  18  25
BRANCH  20  27
ATOM     27  O   UNL     1     143.977 143.325 114.926  1.00  0.00    -0.387 OA
ATOM     28  H   UNL     1     142.995 143.385 115.058  1.00  0.00     0.211 HD
ENDBRANCH  20  27
BRANCH  21  29
ATOM     29  C   UNL     1     141.888 143.661 113.113  1.00  0.00     0.191 C 
BRANCH  29  30
ATOM     30  O   UNL     1     141.334 143.465 111.840  1.00  0.00    -0.394 OA
ATOM     31  H   UNL     1     141.940 143.912 111.194  1.00  0.00     0.210 HD
ENDBRANCH  29  30
ENDBRANCH  21  29
ENDBRANCH   1  17
TORSDOF 13
ENDMDL
MODEL 8
REMARK VINA RESULT:    -4.467     12.540     14.662
REMARK INTER + INTRA:          -8.201
REMARK INTER:                  -6.006
REMARK INTRA:                  -2.194
REMARK UNBOUND:                -1.384
REMARK SMILES OC[C@@H]1O[C@](CO)(O[C@@H]2O[C@H](CO)[C@H](O)[C@H](O)[C@@H]2O)[C@H](O)[C@@H]1O
REMARK SMILES IDX 8 1 9 2 11 3 14 4 10 5 16 6 18 7 12 8 13 9 15 11 17 13 19 15
REMARK SMILES IDX 5 17 20 18 4 19 22 20 3 21 6 22 7 23 21 25 23 27 2 29 1 30
REMARK H PARENT 13 10 15 12 17 14 19 16 7 24 21 26 23 28 1 31
REMARK Flexibility Score: inf
ROOT
ATOM      1  O   UNL     1     144.069 143.692 109.832  1.00  0.00    -0.313 OA
ENDROOT
BRANCH   1   2
ATOM      2  C   UNL     1     142.965 143.910 108.960  1.00  0.00     0.285 C 
ATOM      3  C   UNL     1     143.398 142.136 107.404  1.00  0.00     0.178 C 
ATOM      4  C   UNL     1     143.821 143.131 106.289  1.00  0.00     0.177 C 
ATOM      5  O   UNL     1     142.527 142.687 108.386  1.00  0.00    -0.341 OA
ATOM      6  C   UNL     1     144.269 144.500 106.829  1.00  0.00     0.179 C 
ATOM      7  C   UNL     1     143.278 144.991 107.900  1.00  0.00     0.202 C 
BRANCH   3   8
ATOM      8  C   UNL     1     144.525 141.273 108.015  1.00  0.00     0.191 C 
BRANCH   8   9
ATOM      9  O   UNL     1     145.675 142.022 108.292  1.00  0.00    -0.394 OA
ATOM     10  H   UNL     1     146.377 141.682 107.678  1.00  0.00     0.210 HD
ENDBRANCH   8   9
ENDBRANCH   3   8
BRANCH   4  11
ATOM     11  O   UNL     1     144.816 142.562 105.474  1.00  0.00    -0.387 OA
ATOM     12  H   UNL     1     144.557 141.615 105.326  1.00  0.00     0.211 HD
ENDBRANCH   4  11
BRANCH   6  13
ATOM     13  O   UNL     1     145.621 144.480 107.236  1.00  0.00    -0.387 OA
ATOM     14  H   UNL     1     146.054 143.638 106.942  1.00  0.00     0.211 HD
ENDBRANCH   6  13
BRANCH   7  15
ATOM     15  O   UNL     1     143.767 146.159 108.510  1.00  0.00    -0.385 OA
ATOM     16  H   UNL     1     143.041 146.512 109.086  1.00  0.00     0.211 HD
ENDBRANCH   7  15
ENDBRANCH   1   2
BRANCH   1  17
ATOM     17  C   UNL     1     143.765 143.886 111.216  1.00  0.00     0.224 C 
ATOM     18  C   UNL     1     144.421 142.753 112.032  1.00  0.00     0.208 C 
ATOM     19  O   UNL     1     142.362 143.842 111.444  1.00  0.00    -0.337 OA
ATOM     20  C   UNL     1     143.405 142.481 113.115  1.00  0.00     0.180 C 
ATOM     21  C   UNL     1     142.085 142.905 112.465  1.00  0.00     0.179 C 
BRANCH  17  22
ATOM     22  C   UNL     1     144.320 145.261 111.671  1.00  0.00     0.225 C 
BRANCH  22  23
ATOM     23  O   UNL     1     145.398 145.657 110.867  1.00  0.00    -0.391 OA
ATOM     24  H   UNL     1     145.383 146.649 110.852  1.00  0.00     0.210 HD
ENDBRANCH  22  23
ENDBRANCH  17  22
BRANCH  18  25
ATOM     25  O   UNL     1     144.601 141.609 111.232  1.00  0.00    -0.385 OA
ATOM     26  H   UNL     1     145.052 141.905 110.400  1.00  0.00     0.211 HD
ENDBRANCH  18  25
BRANCH  20  27
ATOM     27  O   UNL     1     143.422 141.136 113.525  1.00  0.00    -0.387 OA
ATOM     28  H   UNL     1     143.857 141.119 114.417  1.00  0.00     0.211 HD
ENDBRANCH  20  27
BRANCH  21  29
ATOM     29  C   UNL     1     141.274 141.742 111.858  1.00  0.00     0.191 C 
BRANCH  29  30
ATOM     30  O   UNL     1     141.977 141.128 110.811  1.00  0.00    -0.394 OA
ATOM     31  H   UNL     1     142.635 141.793 110.482  1.00  0.00     0.210 HD
ENDBRANCH  29  30
ENDBRANCH  21  29
ENDBRANCH   1  17
TORSDOF 13
ENDMDL
MODEL 9
REMARK VINA RESULT:    -4.410     14.585     17.223
REMARK INTER + INTRA:          -8.115
REMARK INTER:                  -6.584
REMARK INTRA:                  -1.530
REMARK UNBOUND:                -1.384
REMARK SMILES OC[C@@H]1O[C@](CO)(O[C@@H]2O[C@H](CO)[C@H](O)[C@H](O)[C@@H]2O)[C@H](O)[C@@H]1O
REMARK SMILES IDX 8 1 9 2 11 3 14 4 10 5 16 6 18 7 12 8 13 9 15 11 17 13 19 15
REMARK SMILES IDX 5 17 20 18 4 19 22 20 3 21 6 22 7 23 21 25 23 27 2 29 1 30
REMARK H PARENT 13 10 15 12 17 14 19 16 7 24 21 26 23 28 1 31
REMARK Flexibility Score: inf
ROOT
ATOM      1  O   UNL     1     144.740 143.985 116.522  1.00  0.00    -0.313 OA
ENDROOT
BRANCH   1   2
ATOM      2  C   UNL     1     144.009 143.640 117.695  1.00  0.00     0.285 C 
ATOM      3  C   UNL     1     144.636 145.512 119.056  1.00  0.00     0.178 C 
ATOM      4  C   UNL     1     145.530 144.631 119.970  1.00  0.00     0.177 C 
ATOM      5  O   UNL     1     143.594 144.806 118.391  1.00  0.00    -0.341 OA
ATOM      6  C   UNL     1     145.986 143.323 119.301  1.00  0.00     0.179 C 
ATOM      7  C   UNL     1     144.796 142.655 118.589  1.00  0.00     0.202 C 
BRANCH   3   8
ATOM      8  C   UNL     1     145.372 146.508 118.133  1.00  0.00     0.191 C 
BRANCH   8   9
ATOM      9  O   UNL     1     146.626 146.031 117.731  1.00  0.00    -0.394 OA
ATOM     10  H   UNL     1     146.602 145.048 117.869  1.00  0.00     0.210 HD
ENDBRANCH   8   9
ENDBRANCH   3   8
BRANCH   4  11
ATOM     11  O   UNL     1     146.632 145.368 120.438  1.00  0.00    -0.387 OA
ATOM     12  H   UNL     1     146.269 146.092 121.012  1.00  0.00     0.211 HD
ENDBRANCH   4  11
BRANCH   6  13
ATOM     13  O   UNL     1     147.125 143.526 118.489  1.00  0.00    -0.387 OA
ATOM     14  H   UNL     1     147.415 144.473 118.538  1.00  0.00     0.211 HD
ENDBRANCH   6  13
BRANCH   7  15
ATOM     15  O   UNL     1     145.239 141.549 117.843  1.00  0.00    -0.385 OA
ATOM     16  H   UNL     1     144.782 141.590 116.964  1.00  0.00     0.211 HD
ENDBRANCH   7  15
ENDBRANCH   1   2
BRANCH   1  17
ATOM     17  C   UNL     1     143.942 144.057 115.338  1.00  0.00     0.224 C 
ATOM     18  C   UNL     1     144.039 142.712 114.590  1.00  0.00     0.208 C 
ATOM     19  O   UNL     1     144.406 145.083 114.469  1.00  0.00    -0.337 OA
ATOM     20  C   UNL     1     144.032 143.128 113.139  1.00  0.00     0.180 C 
ATOM     21  C   UNL     1     144.619 144.541 113.181  1.00  0.00     0.179 C 
BRANCH  17  22
ATOM     22  C   UNL     1     142.469 144.343 115.734  1.00  0.00     0.225 C 
BRANCH  22  23
ATOM     23  O   UNL     1     142.203 145.720 115.708  1.00  0.00    -0.391 OA
ATOM     24  H   UNL     1     142.430 146.029 114.794  1.00  0.00     0.210 HD
ENDBRANCH  22  23
ENDBRANCH  17  22
BRANCH  18  25
ATOM     25  O   UNL     1     145.244 142.057 114.905  1.00  0.00    -0.385 OA
ATOM     26  H   UNL     1     145.440 141.435 114.158  1.00  0.00     0.211 HD
ENDBRANCH  18  25
BRANCH  20  27
ATOM     27  O   UNL     1     144.765 142.239 112.334  1.00  0.00    -0.387 OA
ATOM     28  H   UNL     1     144.107 141.615 111.930  1.00  0.00     0.211 HD
ENDBRANCH  20  27
BRANCH  21  29
ATOM     29  C   UNL     1     146.126 144.612 112.861  1.00  0.00     0.191 C 
BRANCH  29  30
ATOM     30  O   UNL     1     146.356 144.485 111.484  1.00  0.00    -0.394 OA
ATOM     31  H   UNL     1     145.469 144.366 111.056  1.00  0.00     0.210 HD
ENDBRANCH  29  30
ENDBRANCH  21  29
ENDBRANCH   1  17
TORSDOF 13
ENDMDL
