MODEL 1
REMARK VINA RESULT:    -7.153      0.000      0.000
REMARK INTER + INTRA:          -8.801
REMARK INTER:                  -8.617
REMARK INTRA:                  -0.184
REMARK UNBOUND:                -0.184
REMARK SMILES Oc1cc(O)c2c(c1)O[C@H](c1ccc(O)c(O)c1)[C@@H](O)C2
REMARK SMILES IDX 21 1 19 2 10 3 9 4 7 5 8 6 2 7 3 8 4 9 6 10 20 11 11 13
REMARK SMILES IDX 18 14 12 15 16 16 13 17 14 18 17 19 15 21 5 23 1 25
REMARK H PARENT 20 12 17 20 15 22 5 24 1 26
REMARK Flexibility Score: inf
ROOT
ATOM      1  C   UNL     1     -11.868 -42.750  -9.527  1.00  0.00     0.079 C 
ATOM      2  C   UNL     1     -11.134 -43.006  -8.197  1.00  0.00     0.164 C 
ATOM      3  C   UNL     1     -11.962 -43.958  -7.319  1.00  0.00     0.232 C 
ATOM      4  O   UNL     1     -13.265 -43.413  -7.109  1.00  0.00    -0.482 OA
ATOM      5  C   UNL     1     -13.965 -42.741  -8.116  1.00  0.00     0.131 A 
ATOM      6  C   UNL     1     -15.303 -42.403  -7.902  1.00  0.00     0.093 A 
ATOM      7  C   UNL     1     -16.032 -41.745  -8.895  1.00  0.00     0.122 A 
ATOM      8  C   UNL     1     -15.421 -41.435 -10.115  1.00  0.00     0.092 A 
ATOM      9  C   UNL     1     -14.082 -41.769 -10.348  1.00  0.00     0.126 A 
ATOM     10  C   UNL     1     -13.327 -42.395  -9.327  1.00  0.00     0.039 A 
ENDROOT
BRANCH   2  11
ATOM     11  O   UNL     1      -9.874 -43.571  -8.452  1.00  0.00    -0.389 OA
ATOM     12  H   UNL     1      -9.505 -43.854  -7.574  1.00  0.00     0.211 HD
ENDBRANCH   2  11
BRANCH   3  13
ATOM     13  C   UNL     1     -11.291 -44.194  -5.986  1.00  0.00    -0.001 A 
ATOM     14  C   UNL     1     -10.542 -43.174  -5.380  1.00  0.00     0.057 A 
ATOM     15  C   UNL     1     -11.449 -45.416  -5.314  1.00  0.00     0.012 A 
ATOM     16  C   UNL     1      -9.936 -43.368  -4.131  1.00  0.00     0.157 A 
ATOM     17  C   UNL     1     -10.849 -45.620  -4.071  1.00  0.00     0.050 A 
ATOM     18  C   UNL     1     -10.090 -44.610  -3.470  1.00  0.00     0.157 A 
BRANCH  16  19
ATOM     19  O   UNL     1      -9.201 -42.312  -3.591  1.00  0.00    -0.504 OA
ATOM     20  H   UNL     1      -9.158 -42.100  -2.605  1.00  0.00     0.293 HD
ENDBRANCH  16  19
BRANCH  18  21
ATOM     21  O   UNL     1      -9.515 -44.879  -2.226  1.00  0.00    -0.504 OA
ATOM     22  H   UNL     1      -8.798 -44.308  -1.801  1.00  0.00     0.293 HD
ENDBRANCH  18  21
ENDBRANCH   3  13
BRANCH   9  23
ATOM     23  O   UNL     1     -13.540 -41.474 -11.601  1.00  0.00    -0.507 OA
ATOM     24  H   UNL     1     -14.040 -40.965 -12.318  1.00  0.00     0.293 HD
ENDBRANCH   9  23
BRANCH   7  25
ATOM     25  O   UNL     1     -17.365 -41.413  -8.663  1.00  0.00    -0.508 OA
ATOM     26  H   UNL     1     -17.847 -40.728  -9.231  1.00  0.00     0.293 HD
ENDBRANCH   7  25
TORSDOF 6
ENDMDL
MODEL 2
REMARK VINA RESULT:    -7.125      8.675     10.380
REMARK INTER + INTRA:          -8.768
REMARK INTER:                  -8.731
REMARK INTRA:                  -0.036
REMARK UNBOUND:                -0.184
REMARK SMILES Oc1cc(O)c2c(c1)O[C@H](c1ccc(O)c(O)c1)[C@@H](O)C2
REMARK SMILES IDX 21 1 19 2 10 3 9 4 7 5 8 6 2 7 3 8 4 9 6 10 20 11 11 13
REMARK SMILES IDX 18 14 12 15 16 16 13 17 14 18 17 19 15 21 5 23 1 25
REMARK H PARENT 20 12 17 20 15 22 5 24 1 26
REMARK Flexibility Score: inf
ROOT
ATOM      1  C   UNL     1     -18.870 -44.860  -0.834  1.00  0.00     0.079 C 
ATOM      2  C   UNL     1     -18.853 -45.245   0.658  1.00  0.00     0.164 C 
ATOM      3  C   UNL     1     -17.575 -44.709   1.322  1.00  0.00     0.232 C 
ATOM      4  O   UNL     1     -16.427 -45.205   0.633  1.00  0.00    -0.482 OA
ATOM      5  C   UNL     1     -16.389 -45.334  -0.759  1.00  0.00     0.131 A 
ATOM      6  C   UNL     1     -15.175 -45.644  -1.378  1.00  0.00     0.093 A 
ATOM      7  C   UNL     1     -15.103 -45.765  -2.767  1.00  0.00     0.122 A 
ATOM      8  C   UNL     1     -16.250 -45.562  -3.543  1.00  0.00     0.092 A 
ATOM      9  C   UNL     1     -17.474 -45.250  -2.940  1.00  0.00     0.126 A 
ATOM     10  C   UNL     1     -17.561 -45.171  -1.529  1.00  0.00     0.039 A 
ENDROOT
BRANCH   2  11
ATOM     11  O   UNL     1     -19.982 -44.709   1.299  1.00  0.00    -0.389 OA
ATOM     12  H   UNL     1     -20.333 -43.993   0.707  1.00  0.00     0.211 HD
ENDBRANCH   2  11
BRANCH   3  13
ATOM     13  C   UNL     1     -17.506 -45.109   2.777  1.00  0.00    -0.001 A 
ATOM     14  C   UNL     1     -16.622 -46.117   3.192  1.00  0.00     0.057 A 
ATOM     15  C   UNL     1     -18.284 -44.445   3.737  1.00  0.00     0.012 A 
ATOM     16  C   UNL     1     -16.526 -46.480   4.542  1.00  0.00     0.157 A 
ATOM     17  C   UNL     1     -18.197 -44.800   5.084  1.00  0.00     0.050 A 
ATOM     18  C   UNL     1     -17.327 -45.814   5.500  1.00  0.00     0.157 A 
BRANCH  16  19
ATOM     19  O   UNL     1     -15.630 -47.495   4.883  1.00  0.00    -0.504 OA
ATOM     20  H   UNL     1     -15.751 -48.464   4.627  1.00  0.00     0.293 HD
ENDBRANCH  16  19
BRANCH  18  21
ATOM     21  O   UNL     1     -17.288 -46.122   6.862  1.00  0.00    -0.504 OA
ATOM     22  H   UNL     1     -17.106 -45.445   7.589  1.00  0.00     0.293 HD
ENDBRANCH  18  21
ENDBRANCH   3  13
BRANCH   9  23
ATOM     23  O   UNL     1     -18.573 -45.015  -3.768  1.00  0.00    -0.507 OA
ATOM     24  H   UNL     1     -19.017 -45.735  -4.322  1.00  0.00     0.293 HD
ENDBRANCH   9  23
BRANCH   7  25
ATOM     25  O   UNL     1     -13.885 -46.076  -3.367  1.00  0.00    -0.508 OA
ATOM     26  H   UNL     1     -13.004 -45.783  -2.963  1.00  0.00     0.293 HD
ENDBRANCH   7  25
TORSDOF 6
ENDMDL
MODEL 3
REMARK VINA RESULT:    -7.116      1.925      6.867
REMARK INTER + INTRA:          -8.756
REMARK INTER:                  -8.389
REMARK INTRA:                  -0.367
REMARK UNBOUND:                -0.184
REMARK SMILES Oc1cc(O)c2c(c1)O[C@H](c1ccc(O)c(O)c1)[C@@H](O)C2
REMARK SMILES IDX 21 1 19 2 10 3 9 4 7 5 8 6 2 7 3 8 4 9 6 10 20 11 11 13
REMARK SMILES IDX 18 14 12 15 16 16 13 17 14 18 17 19 15 21 5 23 1 25
REMARK H PARENT 20 12 17 20 15 22 5 24 1 26
REMARK Flexibility Score: inf
ROOT
ATOM      1  C   UNL     1      -9.788 -43.875  -6.381  1.00  0.00     0.079 C 
ATOM      2  C   UNL     1     -11.061 -43.416  -7.118  1.00  0.00     0.164 C 
ATOM      3  C   UNL     1     -11.556 -42.087  -6.525  1.00  0.00     0.232 C 
ATOM      4  O   UNL     1     -11.778 -42.234  -5.123  1.00  0.00    -0.482 OA
ATOM      5  C   UNL     1     -10.932 -42.993  -4.308  1.00  0.00     0.131 A 
ATOM      6  C   UNL     1     -11.099 -42.940  -2.922  1.00  0.00     0.093 A 
ATOM      7  C   UNL     1     -10.259 -43.674  -2.082  1.00  0.00     0.122 A 
ATOM      8  C   UNL     1      -9.238 -44.458  -2.632  1.00  0.00     0.092 A 
ATOM      9  C   UNL     1      -9.056 -44.521  -4.019  1.00  0.00     0.126 A 
ATOM     10  C   UNL     1      -9.933 -43.814  -4.875  1.00  0.00     0.039 A 
ENDROOT
BRANCH   2  11
ATOM     11  O   UNL     1     -10.785 -43.253  -8.485  1.00  0.00    -0.389 OA
ATOM     12  H   UNL     1     -10.293 -44.065  -8.776  1.00  0.00     0.211 HD
ENDBRANCH   2  11
BRANCH   3  13
ATOM     13  C   UNL     1     -12.831 -41.631  -7.196  1.00  0.00    -0.001 A 
ATOM     14  C   UNL     1     -12.858 -40.430  -7.923  1.00  0.00     0.057 A 
ATOM     15  C   UNL     1     -13.986 -42.425  -7.146  1.00  0.00     0.012 A 
ATOM     16  C   UNL     1     -14.025 -40.008  -8.573  1.00  0.00     0.157 A 
ATOM     17  C   UNL     1     -15.154 -42.012  -7.790  1.00  0.00     0.050 A 
ATOM     18  C   UNL     1     -15.189 -40.810  -8.503  1.00  0.00     0.157 A 
BRANCH  16  19
ATOM     19  O   UNL     1     -13.982 -38.800  -9.272  1.00  0.00    -0.504 OA
ATOM     20  H   UNL     1     -13.969 -37.893  -8.831  1.00  0.00     0.293 HD
ENDBRANCH  16  19
BRANCH  18  21
ATOM     21  O   UNL     1     -16.389 -40.454  -9.123  1.00  0.00    -0.504 OA
ATOM     22  H   UNL     1     -16.810 -39.538  -9.054  1.00  0.00     0.293 HD
ENDBRANCH  18  21
ENDBRANCH   3  13
BRANCH   9  23
ATOM     23  O   UNL     1      -7.993 -45.284  -4.507  1.00  0.00    -0.507 OA
ATOM     24  H   UNL     1      -7.450 -45.026  -5.320  1.00  0.00     0.293 HD
ENDBRANCH   9  23
BRANCH   7  25
ATOM     25  O   UNL     1     -10.441 -43.610  -0.702  1.00  0.00    -0.508 OA
ATOM     26  H   UNL     1     -10.720 -42.752  -0.243  1.00  0.00     0.293 HD
ENDBRANCH   7  25
TORSDOF 6
ENDMDL
MODEL 4
REMARK VINA RESULT:    -6.988      4.220      8.055
REMARK INTER + INTRA:          -8.602
REMARK INTER:                  -8.235
REMARK INTRA:                  -0.367
REMARK UNBOUND:                -0.184
REMARK SMILES Oc1cc(O)c2c(c1)O[C@H](c1ccc(O)c(O)c1)[C@@H](O)C2
REMARK SMILES IDX 21 1 19 2 10 3 9 4 7 5 8 6 2 7 3 8 4 9 6 10 20 11 11 13
REMARK SMILES IDX 18 14 12 15 16 16 13 17 14 18 17 19 15 21 5 23 1 25
REMARK H PARENT 20 12 17 20 15 22 5 24 1 26
REMARK Flexibility Score: inf
ROOT
ATOM      1  C   UNL     1     -13.899 -48.224  -3.957  1.00  0.00     0.079 C 
ATOM      2  C   UNL     1     -14.313 -47.173  -5.005  1.00  0.00     0.164 C 
ATOM      3  C   UNL     1     -13.887 -45.773  -4.536  1.00  0.00     0.232 C 
ATOM      4  O   UNL     1     -14.455 -45.497  -3.256  1.00  0.00    -0.482 OA
ATOM      5  C   UNL     1     -14.561 -46.473  -2.260  1.00  0.00     0.131 A 
ATOM      6  C   UNL     1     -14.950 -46.089  -0.974  1.00  0.00     0.093 A 
ATOM      7  C   UNL     1     -15.049 -47.038   0.045  1.00  0.00     0.122 A 
ATOM      8  C   UNL     1     -14.747 -48.378  -0.222  1.00  0.00     0.092 A 
ATOM      9  C   UNL     1     -14.354 -48.780  -1.504  1.00  0.00     0.126 A 
ATOM     10  C   UNL     1     -14.295 -47.828  -2.550  1.00  0.00     0.039 A 
ENDROOT
BRANCH   2  11
ATOM     11  O   UNL     1     -13.705 -47.467  -6.237  1.00  0.00    -0.389 OA
ATOM     12  H   UNL     1     -14.380 -47.280  -6.940  1.00  0.00     0.211 HD
ENDBRANCH   2  11
BRANCH   3  13
ATOM     13  C   UNL     1     -14.318 -44.712  -5.522  1.00  0.00    -0.001 A 
ATOM     14  C   UNL     1     -15.678 -44.397  -5.673  1.00  0.00     0.057 A 
ATOM     15  C   UNL     1     -13.365 -43.994  -6.260  1.00  0.00     0.012 A 
ATOM     16  C   UNL     1     -16.091 -43.396  -6.562  1.00  0.00     0.157 A 
ATOM     17  C   UNL     1     -13.767 -42.996  -7.150  1.00  0.00     0.050 A 
ATOM     18  C   UNL     1     -15.122 -42.689  -7.312  1.00  0.00     0.157 A 
BRANCH  16  19
ATOM     19  O   UNL     1     -17.460 -43.140  -6.665  1.00  0.00    -0.504 OA
ATOM     20  H   UNL     1     -17.923 -42.881  -7.524  1.00  0.00     0.293 HD
ENDBRANCH  16  19
BRANCH  18  21
ATOM     21  O   UNL     1     -15.458 -41.682  -8.220  1.00  0.00    -0.504 OA
ATOM     22  H   UNL     1     -15.335 -40.696  -8.040  1.00  0.00     0.293 HD
ENDBRANCH  18  21
ENDBRANCH   3  13
BRANCH   9  23
ATOM     23  O   UNL     1     -14.021 -50.122  -1.698  1.00  0.00    -0.507 OA
ATOM     24  H   UNL     1     -13.108 -50.430  -2.005  1.00  0.00     0.293 HD
ENDBRANCH   9  23
BRANCH   7  25
ATOM     25  O   UNL     1     -15.441 -46.638   1.321  1.00  0.00    -0.508 OA
ATOM     26  H   UNL     1     -16.397 -46.374   1.523  1.00  0.00     0.293 HD
ENDBRANCH   7  25
TORSDOF 6
ENDMDL
MODEL 5
REMARK VINA RESULT:    -6.986      1.713      2.889
REMARK INTER + INTRA:          -8.600
REMARK INTER:                  -8.246
REMARK INTRA:                  -0.354
REMARK UNBOUND:                -0.184
REMARK SMILES Oc1cc(O)c2c(c1)O[C@H](c1ccc(O)c(O)c1)[C@@H](O)C2
REMARK SMILES IDX 21 1 19 2 10 3 9 4 7 5 8 6 2 7 3 8 4 9 6 10 20 11 11 13
REMARK SMILES IDX 18 14 12 15 16 16 13 17 14 18 17 19 15 21 5 23 1 25
REMARK H PARENT 20 12 17 20 15 22 5 24 1 26
REMARK Flexibility Score: inf
ROOT
ATOM      1  C   UNL     1     -14.831 -42.004  -6.960  1.00  0.00     0.079 C 
ATOM      2  C   UNL     1     -13.727 -42.837  -6.281  1.00  0.00     0.164 C 
ATOM      3  C   UNL     1     -12.456 -41.988  -6.123  1.00  0.00     0.232 C 
ATOM      4  O   UNL     1     -12.041 -41.496  -7.397  1.00  0.00    -0.482 OA
ATOM      5  C   UNL     1     -12.954 -41.062  -8.364  1.00  0.00     0.131 A 
ATOM      6  C   UNL     1     -12.475 -40.418  -9.508  1.00  0.00     0.093 A 
ATOM      7  C   UNL     1     -13.363 -39.961 -10.483  1.00  0.00     0.122 A 
ATOM      8  C   UNL     1     -14.740 -40.137 -10.307  1.00  0.00     0.092 A 
ATOM      9  C   UNL     1     -15.237 -40.777  -9.166  1.00  0.00     0.126 A 
ATOM     10  C   UNL     1     -14.338 -41.283  -8.196  1.00  0.00     0.039 A 
ENDROOT
BRANCH   2  11
ATOM     11  O   UNL     1     -14.168 -43.270  -5.020  1.00  0.00    -0.389 OA
ATOM     12  H   UNL     1     -14.798 -44.021  -5.180  1.00  0.00     0.211 HD
ENDBRANCH   2  11
BRANCH   3  13
ATOM     13  C   UNL     1     -11.337 -42.790  -5.500  1.00  0.00    -0.001 A 
ATOM     14  C   UNL     1     -10.724 -42.350  -4.317  1.00  0.00     0.057 A 
ATOM     15  C   UNL     1     -10.932 -44.008  -6.067  1.00  0.00     0.012 A 
ATOM     16  C   UNL     1      -9.705 -43.097  -3.712  1.00  0.00     0.157 A 
ATOM     17  C   UNL     1      -9.916 -44.759  -5.472  1.00  0.00     0.050 A 
ATOM     18  C   UNL     1      -9.294 -44.316  -4.300  1.00  0.00     0.157 A 
BRANCH  16  19
ATOM     19  O   UNL     1      -9.136 -42.595  -2.539  1.00  0.00    -0.504 OA
ATOM     20  H   UNL     1      -8.967 -43.149  -1.713  1.00  0.00     0.293 HD
ENDBRANCH  16  19
BRANCH  18  21
ATOM     21  O   UNL     1      -8.283 -45.113  -3.757  1.00  0.00    -0.504 OA
ATOM     22  H   UNL     1      -8.275 -46.122  -3.801  1.00  0.00     0.293 HD
ENDBRANCH  18  21
ENDBRANCH   3  13
BRANCH   9  23
ATOM     23  O   UNL     1     -16.623 -40.884  -9.023  1.00  0.00    -0.507 OA
ATOM     24  H   UNL     1     -17.161 -40.321  -8.379  1.00  0.00     0.293 HD
ENDBRANCH   9  23
BRANCH   7  25
ATOM     25  O   UNL     1     -12.868 -39.323 -11.618  1.00  0.00    -0.508 OA
ATOM     26  H   UNL     1     -13.288 -39.461 -12.529  1.00  0.00     0.293 HD
ENDBRANCH   7  25
TORSDOF 6
ENDMDL
MODEL 6
REMARK VINA RESULT:    -6.882      2.431      6.760
REMARK INTER + INTRA:          -8.475
REMARK INTER:                  -8.099
REMARK INTRA:                  -0.376
REMARK UNBOUND:                -0.184
REMARK SMILES Oc1cc(O)c2c(c1)O[C@H](c1ccc(O)c(O)c1)[C@@H](O)C2
REMARK SMILES IDX 21 1 19 2 10 3 9 4 7 5 8 6 2 7 3 8 4 9 6 10 20 11 11 13
REMARK SMILES IDX 18 14 12 15 16 16 13 17 14 18 17 19 15 21 5 23 1 25
REMARK H PARENT 20 12 17 20 15 22 5 24 1 26
REMARK Flexibility Score: inf
ROOT
ATOM      1  C   UNL     1     -11.913 -45.631  -5.928  1.00  0.00     0.079 C 
ATOM      2  C   UNL     1     -12.086 -44.540  -7.002  1.00  0.00     0.164 C 
ATOM      3  C   UNL     1     -10.842 -43.637  -7.034  1.00  0.00     0.232 C 
ATOM      4  O   UNL     1     -10.617 -43.078  -5.740  1.00  0.00    -0.482 OA
ATOM      5  C   UNL     1     -10.816 -43.809  -4.565  1.00  0.00     0.131 A 
ATOM      6  C   UNL     1     -10.396 -43.264  -3.348  1.00  0.00     0.093 A 
ATOM      7  C   UNL     1     -10.567 -43.977  -2.160  1.00  0.00     0.122 A 
ATOM      8  C   UNL     1     -11.151 -45.249  -2.191  1.00  0.00     0.092 A 
ATOM      9  C   UNL     1     -11.576 -45.810  -3.400  1.00  0.00     0.126 A 
ATOM     10  C   UNL     1     -11.445 -45.072  -4.601  1.00  0.00     0.039 A 
ENDROOT
BRANCH   2  11
ATOM     11  O   UNL     1     -12.272 -45.137  -8.259  1.00  0.00    -0.389 OA
ATOM     12  H   UNL     1     -11.455 -44.943  -8.791  1.00  0.00     0.211 HD
ENDBRANCH   2  11
BRANCH   3  13
ATOM     13  C   UNL     1     -10.998 -42.527  -8.047  1.00  0.00    -0.001 A 
ATOM     14  C   UNL     1     -12.020 -41.576  -7.902  1.00  0.00     0.057 A 
ATOM     15  C   UNL     1     -10.095 -42.403  -9.114  1.00  0.00     0.012 A 
ATOM     16  C   UNL     1     -12.160 -40.524  -8.817  1.00  0.00     0.157 A 
ATOM     17  C   UNL     1     -10.228 -41.359 -10.032  1.00  0.00     0.050 A 
ATOM     18  C   UNL     1     -11.253 -40.417  -9.898  1.00  0.00     0.157 A 
BRANCH  16  19
ATOM     19  O   UNL     1     -13.203 -39.617  -8.615  1.00  0.00    -0.504 OA
ATOM     20  H   UNL     1     -13.073 -38.671  -8.289  1.00  0.00     0.293 HD
ENDBRANCH  16  19
BRANCH  18  21
ATOM     21  O   UNL     1     -11.332 -39.399 -10.851  1.00  0.00    -0.504 OA
ATOM     22  H   UNL     1     -11.938 -38.596 -10.770  1.00  0.00     0.293 HD
ENDBRANCH  18  21
ENDBRANCH   3  13
BRANCH   9  23
ATOM     23  O   UNL     1     -12.110 -47.100  -3.374  1.00  0.00    -0.507 OA
ATOM     24  H   UNL     1     -12.569 -47.529  -4.166  1.00  0.00     0.293 HD
ENDBRANCH   9  23
BRANCH   7  25
ATOM     25  O   UNL     1     -10.145 -43.418  -0.956  1.00  0.00    -0.508 OA
ATOM     26  H   UNL     1      -9.768 -43.989  -0.210  1.00  0.00     0.293 HD
ENDBRANCH   7  25
TORSDOF 6
ENDMDL
MODEL 7
REMARK VINA RESULT:    -6.881      7.973     10.960
REMARK INTER + INTRA:          -8.473
REMARK INTER:                  -8.877
REMARK INTRA:                   0.403
REMARK UNBOUND:                -0.184
REMARK SMILES Oc1cc(O)c2c(c1)O[C@H](c1ccc(O)c(O)c1)[C@@H](O)C2
REMARK SMILES IDX 21 1 19 2 10 3 9 4 7 5 8 6 2 7 3 8 4 9 6 10 20 11 11 13
REMARK SMILES IDX 18 14 12 15 16 16 13 17 14 18 17 19 15 21 5 23 1 25
REMARK H PARENT 20 12 17 20 15 22 5 24 1 26
REMARK Flexibility Score: inf
ROOT
ATOM      1  C   UNL     1     -18.559 -44.057   1.450  1.00  0.00     0.079 C 
ATOM      2  C   UNL     1     -17.976 -44.011   0.025  1.00  0.00     0.164 C 
ATOM      3  C   UNL     1     -17.708 -45.440  -0.476  1.00  0.00     0.232 C 
ATOM      4  O   UNL     1     -16.837 -46.115   0.432  1.00  0.00    -0.482 OA
ATOM      5  C   UNL     1     -16.935 -45.958   1.818  1.00  0.00     0.131 A 
ATOM      6  C   UNL     1     -16.180 -46.790   2.649  1.00  0.00     0.093 A 
ATOM      7  C   UNL     1     -16.268 -46.667   4.037  1.00  0.00     0.122 A 
ATOM      8  C   UNL     1     -17.126 -45.713   4.597  1.00  0.00     0.092 A 
ATOM      9  C   UNL     1     -17.890 -44.872   3.780  1.00  0.00     0.126 A 
ATOM     10  C   UNL     1     -17.770 -44.964   2.372  1.00  0.00     0.039 A 
ENDROOT
BRANCH   2  11
ATOM     11  O   UNL     1     -18.880 -43.369  -0.836  1.00  0.00    -0.389 OA
ATOM     12  H   UNL     1     -18.392 -43.191  -1.683  1.00  0.00     0.211 HD
ENDBRANCH   2  11
BRANCH   3  13
ATOM     13  C   UNL     1     -17.093 -45.429  -1.856  1.00  0.00    -0.001 A 
ATOM     14  C   UNL     1     -17.507 -44.483  -2.807  1.00  0.00     0.057 A 
ATOM     15  C   UNL     1     -16.067 -46.327  -2.187  1.00  0.00     0.012 A 
ATOM     16  C   UNL     1     -16.926 -44.442  -4.082  1.00  0.00     0.157 A 
ATOM     17  C   UNL     1     -15.484 -46.295  -3.455  1.00  0.00     0.050 A 
ATOM     18  C   UNL     1     -15.903 -45.362  -4.410  1.00  0.00     0.157 A 
BRANCH  16  19
ATOM     19  O   UNL     1     -17.391 -43.479  -4.980  1.00  0.00    -0.504 OA
ATOM     20  H   UNL     1     -18.167 -42.862  -4.794  1.00  0.00     0.293 HD
ENDBRANCH  16  19
BRANCH  18  21
ATOM     21  O   UNL     1     -15.280 -45.384  -5.659  1.00  0.00    -0.504 OA
ATOM     22  H   UNL     1     -15.081 -44.559  -6.206  1.00  0.00     0.293 HD
ENDBRANCH  18  21
ENDBRANCH   3  13
BRANCH   9  23
ATOM     23  O   UNL     1     -18.761 -43.971   4.396  1.00  0.00    -0.507 OA
ATOM     24  H   UNL     1     -19.264 -44.178   5.248  1.00  0.00     0.293 HD
ENDBRANCH   9  23
BRANCH   7  25
ATOM     25  O   UNL     1     -15.508 -47.503   4.851  1.00  0.00    -0.508 OA
ATOM     26  H   UNL     1     -15.826 -48.431   5.103  1.00  0.00     0.293 HD
ENDBRANCH   7  25
TORSDOF 6
ENDMDL
MODEL 8
REMARK VINA RESULT:    -6.870      7.035      9.471
REMARK INTER + INTRA:          -8.460
REMARK INTER:                  -8.177
REMARK INTRA:                  -0.283
REMARK UNBOUND:                -0.184
REMARK SMILES Oc1cc(O)c2c(c1)O[C@H](c1ccc(O)c(O)c1)[C@@H](O)C2
REMARK SMILES IDX 21 1 19 2 10 3 9 4 7 5 8 6 2 7 3 8 4 9 6 10 20 11 11 13
REMARK SMILES IDX 18 14 12 15 16 16 13 17 14 18 17 19 15 21 5 23 1 25
REMARK H PARENT 20 12 17 20 15 22 5 24 1 26
REMARK Flexibility Score: inf
ROOT
ATOM      1  C   UNL     1     -17.273 -44.110  -0.228  1.00  0.00     0.079 C 
ATOM      2  C   UNL     1     -15.843 -44.000  -0.790  1.00  0.00     0.164 C 
ATOM      3  C   UNL     1     -15.008 -45.205  -0.329  1.00  0.00     0.232 C 
ATOM      4  O   UNL     1     -15.013 -45.281   1.096  1.00  0.00    -0.482 OA
ATOM      5  C   UNL     1     -16.153 -44.998   1.855  1.00  0.00     0.131 A 
ATOM      6  C   UNL     1     -16.142 -45.275   3.225  1.00  0.00     0.093 A 
ATOM      7  C   UNL     1     -17.270 -45.017   4.005  1.00  0.00     0.122 A 
ATOM      8  C   UNL     1     -18.421 -44.489   3.410  1.00  0.00     0.092 A 
ATOM      9  C   UNL     1     -18.451 -44.206   2.040  1.00  0.00     0.126 A 
ATOM     10  C   UNL     1     -17.294 -44.425   1.253  1.00  0.00     0.039 A 
ENDROOT
BRANCH   2  11
ATOM     11  O   UNL     1     -15.886 -43.961  -2.193  1.00  0.00    -0.389 OA
ATOM     12  H   UNL     1     -16.408 -43.153  -2.440  1.00  0.00     0.211 HD
ENDBRANCH   2  11
BRANCH   3  13
ATOM     13  C   UNL     1     -13.584 -45.105  -0.826  1.00  0.00    -0.001 A 
ATOM     14  C   UNL     1     -12.636 -44.356  -0.112  1.00  0.00     0.057 A 
ATOM     15  C   UNL     1     -13.180 -45.799  -1.976  1.00  0.00     0.012 A 
ATOM     16  C   UNL     1     -11.306 -44.277  -0.544  1.00  0.00     0.157 A 
ATOM     17  C   UNL     1     -11.857 -45.725  -2.417  1.00  0.00     0.050 A 
ATOM     18  C   UNL     1     -10.913 -44.969  -1.714  1.00  0.00     0.157 A 
BRANCH  16  19
ATOM     19  O   UNL     1     -10.418 -43.509   0.212  1.00  0.00    -0.504 OA
ATOM     20  H   UNL     1     -10.436 -42.501   0.252  1.00  0.00     0.293 HD
ENDBRANCH  16  19
BRANCH  18  21
ATOM     21  O   UNL     1      -9.607 -44.935  -2.209  1.00  0.00    -0.504 OA
ATOM     22  H   UNL     1      -9.318 -45.376  -3.070  1.00  0.00     0.293 HD
ENDBRANCH  18  21
ENDBRANCH   3  13
BRANCH   9  23
ATOM     23  O   UNL     1     -19.642 -43.723   1.494  1.00  0.00    -0.507 OA
ATOM     24  H   UNL     1     -20.485 -43.584   2.034  1.00  0.00     0.293 HD
ENDBRANCH   9  23
BRANCH   7  25
ATOM     25  O   UNL     1     -17.241 -45.298   5.370  1.00  0.00    -0.508 OA
ATOM     26  H   UNL     1     -17.933 -44.918   6.004  1.00  0.00     0.293 HD
ENDBRANCH   7  25
TORSDOF 6
ENDMDL
MODEL 9
REMARK VINA RESULT:    -6.853      3.035      6.916
REMARK INTER + INTRA:          -8.440
REMARK INTER:                  -8.082
REMARK INTRA:                  -0.358
REMARK UNBOUND:                -0.184
REMARK SMILES Oc1cc(O)c2c(c1)O[C@H](c1ccc(O)c(O)c1)[C@@H](O)C2
REMARK SMILES IDX 21 1 19 2 10 3 9 4 7 5 8 6 2 7 3 8 4 9 6 10 20 11 11 13
REMARK SMILES IDX 18 14 12 15 16 16 13 17 14 18 17 19 15 21 5 23 1 25
REMARK H PARENT 20 12 17 20 15 22 5 24 1 26
REMARK Flexibility Score: inf
ROOT
ATOM      1  C   UNL     1      -9.967 -43.440  -3.776  1.00  0.00     0.079 C 
ATOM      2  C   UNL     1      -9.921 -43.894  -5.247  1.00  0.00     0.164 C 
ATOM      3  C   UNL     1     -11.350 -44.115  -5.770  1.00  0.00     0.232 C 
ATOM      4  O   UNL     1     -12.026 -45.063  -4.944  1.00  0.00    -0.482 OA
ATOM      5  C   UNL     1     -11.868 -45.089  -3.554  1.00  0.00     0.131 A 
ATOM      6  C   UNL     1     -12.701 -45.913  -2.793  1.00  0.00     0.093 A 
ATOM      7  C   UNL     1     -12.578 -45.949  -1.403  1.00  0.00     0.122 A 
ATOM      8  C   UNL     1     -11.623 -45.146  -0.769  1.00  0.00     0.092 A 
ATOM      9  C   UNL     1     -10.782 -44.313  -1.515  1.00  0.00     0.126 A 
ATOM     10  C   UNL     1     -10.874 -44.307  -2.928  1.00  0.00     0.039 A 
ENDROOT
BRANCH   2  11
ATOM     11  O   UNL     1      -9.278 -42.917  -6.025  1.00  0.00    -0.389 OA
ATOM     12  H   UNL     1      -9.080 -42.155  -5.420  1.00  0.00     0.211 HD
ENDBRANCH   2  11
BRANCH   3  13
ATOM     13  C   UNL     1     -11.339 -44.605  -7.199  1.00  0.00    -0.001 A 
ATOM     14  C   UNL     1     -10.613 -45.755  -7.548  1.00  0.00     0.057 A 
ATOM     15  C   UNL     1     -12.093 -43.949  -8.184  1.00  0.00     0.012 A 
ATOM     16  C   UNL     1     -10.616 -46.238  -8.863  1.00  0.00     0.157 A 
ATOM     17  C   UNL     1     -12.101 -44.422  -9.497  1.00  0.00     0.050 A 
ATOM     18  C   UNL     1     -11.369 -45.560  -9.851  1.00  0.00     0.157 A 
BRANCH  16  19
ATOM     19  O   UNL     1      -9.867 -47.383  -9.140  1.00  0.00    -0.504 OA
ATOM     20  H   UNL     1     -10.229 -48.323  -9.080  1.00  0.00     0.293 HD
ENDBRANCH  16  19
BRANCH  18  21
ATOM     21  O   UNL     1     -11.418 -45.979 -11.182  1.00  0.00    -0.504 OA
ATOM     22  H   UNL     1     -10.633 -46.379 -11.677  1.00  0.00     0.293 HD
ENDBRANCH  18  21
ENDBRANCH   3  13
BRANCH   9  23
ATOM     23  O   UNL     1      -9.880 -43.500  -0.824  1.00  0.00    -0.507 OA
ATOM     24  H   UNL     1     -10.143 -42.632  -0.379  1.00  0.00     0.293 HD
ENDBRANCH   9  23
BRANCH   7  25
ATOM     25  O   UNL     1     -13.415 -46.779  -0.660  1.00  0.00    -0.508 OA
ATOM     26  H   UNL     1     -14.288 -46.442  -0.274  1.00  0.00     0.293 HD
ENDBRANCH   7  25
TORSDOF 6
ENDMDL
