MODEL 1
REMARK VINA RESULT:    -3.978      0.000      0.000
REMARK INTER + INTRA:          -9.852
REMARK INTER:                  -7.234
REMARK INTRA:                  -2.618
REMARK UNBOUND:                -2.618
REMARK SMILES CCCCCCCCCCCCCCCC(=O)[O-]
REMARK SMILES IDX 9 1 10 2 11 3 12 4 13 5 14 6 15 7 16 8 17 9 18 10 8 11 7 12
REMARK SMILES IDX 6 13 5 14 4 15 3 16 2 17 1 18
REMARK H PARENT
REMARK Flexibility Score: inf
ROOT
ATOM      1  C   UNL     1     -20.615  43.496  -8.886  1.00  0.00     0.000 C 
ENDROOT
BRANCH   1   2
ATOM      2  C   UNL     1     -20.416  45.021  -8.965  1.00  0.00     0.000 C 
BRANCH   2   3
ATOM      3  C   UNL     1     -20.038  45.633  -7.606  1.00  0.00     0.000 C 
BRANCH   3   4
ATOM      4  C   UNL     1     -20.125  44.613  -6.456  1.00  0.00     0.000 C 
BRANCH   4   5
ATOM      5  C   UNL     1     -18.783  44.429  -5.729  1.00  0.00     0.000 C 
BRANCH   5   6
ATOM      6  C   UNL     1     -17.803  45.584  -5.985  1.00  0.00     0.006 C 
BRANCH   6   7
ATOM      7  C   UNL     1     -16.355  45.090  -5.950  1.00  0.00     0.053 C 
BRANCH   7   8
ATOM      8  C   UNL     1     -15.408  46.247  -5.885  1.00  0.00     0.041 C 
ATOM      9  O   UNL     1     -14.556  46.420  -6.798  1.00  0.00    -0.550 OA
ATOM     10  O   UNL     1     -15.431  47.106  -4.794  1.00  0.00    -0.550 OA
ENDBRANCH   7   8
ENDBRANCH   6   7
ENDBRANCH   5   6
ENDBRANCH   4   5
ENDBRANCH   3   4
ENDBRANCH   2   3
ENDBRANCH   1   2
BRANCH   1  11
ATOM     11  C   UNL     1     -19.539  42.710  -9.658  1.00  0.00     0.000 C 
BRANCH  11  12
ATOM     12  C   UNL     1     -18.253  42.414  -8.864  1.00  0.00    -0.000 C 
BRANCH  12  13
ATOM     13  C   UNL     1     -17.098  43.362  -9.218  1.00  0.00    -0.000 C 
BRANCH  13  14
ATOM     14  C   UNL     1     -17.178  43.802 -10.687  1.00  0.00    -0.000 C 
BRANCH  14  15
ATOM     15  C   UNL     1     -17.036  45.323 -10.858  1.00  0.00    -0.000 C 
BRANCH  15  16
ATOM     16  C   UNL     1     -16.809  46.050  -9.521  1.00  0.00    -0.000 C 
BRANCH  16  17
ATOM     17  C   UNL     1     -17.211  47.532  -9.582  1.00  0.00    -0.003 C 
ATOM     18  C   UNL     1     -16.926  48.164 -10.945  1.00  0.00     0.004 C 
ENDBRANCH  16  17
ENDBRANCH  15  16
ENDBRANCH  14  15
ENDBRANCH  13  14
ENDBRANCH  12  13
ENDBRANCH  11  12
ENDBRANCH   1  11
TORSDOF 14
ENDMDL
MODEL 2
REMARK VINA RESULT:    -3.942      1.551      4.700
REMARK INTER + INTRA:          -9.787
REMARK INTER:                  -7.090
REMARK INTRA:                  -2.696
REMARK UNBOUND:                -2.618
REMARK SMILES CCCCCCCCCCCCCCCC(=O)[O-]
REMARK SMILES IDX 9 1 10 2 11 3 12 4 13 5 14 6 15 7 16 8 17 9 18 10 8 11 7 12
REMARK SMILES IDX 6 13 5 14 4 15 3 16 2 17 1 18
REMARK H PARENT
REMARK Flexibility Score: inf
ROOT
ATOM      1  C   UNL     1     -16.463  44.562  -6.702  1.00  0.00     0.000 C 
ENDROOT
BRANCH   1   2
ATOM      2  C   UNL     1     -16.869  43.250  -7.397  1.00  0.00     0.000 C 
BRANCH   2   3
ATOM      3  C   UNL     1     -16.878  43.376  -8.930  1.00  0.00     0.000 C 
BRANCH   3   4
ATOM      4  C   UNL     1     -16.497  44.790  -9.405  1.00  0.00     0.000 C 
BRANCH   4   5
ATOM      5  C   UNL     1     -17.462  45.334 -10.471  1.00  0.00     0.000 C 
BRANCH   5   6
ATOM      6  C   UNL     1     -17.606  46.862 -10.420  1.00  0.00     0.006 C 
BRANCH   6   7
ATOM      7  C   UNL     1     -17.108  47.413  -9.081  1.00  0.00     0.053 C 
BRANCH   7   8
ATOM      8  C   UNL     1     -15.957  48.346  -9.294  1.00  0.00     0.041 C 
ATOM      9  O   UNL     1     -14.810  48.045  -8.868  1.00  0.00    -0.550 OA
ATOM     10  O   UNL     1     -16.159  49.570  -9.919  1.00  0.00    -0.550 OA
ENDBRANCH   7   8
ENDBRANCH   6   7
ENDBRANCH   5   6
ENDBRANCH   4   5
ENDBRANCH   3   4
ENDBRANCH   2   3
ENDBRANCH   1   2
BRANCH   1  11
ATOM     11  C   UNL     1     -17.608  45.184  -5.881  1.00  0.00     0.000 C 
BRANCH  11  12
ATOM     12  C   UNL     1     -18.721  44.203  -5.467  1.00  0.00    -0.000 C 
BRANCH  12  13
ATOM     13  C   UNL     1     -20.085  44.550  -6.081  1.00  0.00    -0.000 C 
BRANCH  13  14
ATOM     14  C   UNL     1     -19.943  45.636  -7.157  1.00  0.00    -0.000 C 
BRANCH  14  15
ATOM     15  C   UNL     1     -20.602  45.240  -8.488  1.00  0.00    -0.000 C 
BRANCH  15  16
ATOM     16  C   UNL     1     -20.646  43.716  -8.696  1.00  0.00    -0.000 C 
BRANCH  16  17
ATOM     17  C   UNL     1     -20.449  43.317 -10.167  1.00  0.00    -0.003 C 
ATOM     18  C   UNL     1     -19.920  41.891 -10.326  1.00  0.00     0.004 C 
ENDBRANCH  16  17
ENDBRANCH  15  16
ENDBRANCH  14  15
ENDBRANCH  13  14
ENDBRANCH  12  13
ENDBRANCH  11  12
ENDBRANCH   1  11
TORSDOF 14
ENDMDL
MODEL 3
REMARK VINA RESULT:    -3.938      1.365      3.694
REMARK INTER + INTRA:          -9.779
REMARK INTER:                  -7.259
REMARK INTRA:                  -2.520
REMARK UNBOUND:                -2.618
REMARK SMILES CCCCCCCCCCCCCCCC(=O)[O-]
REMARK SMILES IDX 9 1 10 2 11 3 12 4 13 5 14 6 15 7 16 8 17 9 18 10 8 11 7 12
REMARK SMILES IDX 6 13 5 14 4 15 3 16 2 17 1 18
REMARK H PARENT
REMARK Flexibility Score: inf
ROOT
ATOM      1  C   UNL     1     -19.874  44.698  -5.547  1.00  0.00     0.000 C 
ENDROOT
BRANCH   1   2
ATOM      2  C   UNL     1     -18.373  44.360  -5.613  1.00  0.00     0.000 C 
BRANCH   2   3
ATOM      3  C   UNL     1     -17.510  45.585  -5.958  1.00  0.00     0.000 C 
BRANCH   3   4
ATOM      4  C   UNL     1     -18.268  46.911  -5.765  1.00  0.00     0.000 C 
BRANCH   4   5
ATOM      5  C   UNL     1     -18.320  47.753  -7.050  1.00  0.00     0.000 C 
BRANCH   5   6
ATOM      6  C   UNL     1     -17.720  47.025  -8.263  1.00  0.00     0.006 C 
BRANCH   6   7
ATOM      7  C   UNL     1     -16.563  47.828  -8.864  1.00  0.00     0.053 C 
BRANCH   7   8
ATOM      8  C   UNL     1     -15.258  47.149  -8.592  1.00  0.00     0.041 C 
ATOM      9  O   UNL     1     -14.756  47.180  -7.436  1.00  0.00    -0.550 OA
ATOM     10  O   UNL     1     -14.569  46.523  -9.624  1.00  0.00    -0.550 OA
ENDBRANCH   7   8
ENDBRANCH   6   7
ENDBRANCH   5   6
ENDBRANCH   4   5
ENDBRANCH   3   4
ENDBRANCH   2   3
ENDBRANCH   1   2
BRANCH   1  11
ATOM     11  C   UNL     1     -20.662  44.164  -6.757  1.00  0.00     0.000 C 
BRANCH  11  12
ATOM     12  C   UNL     1     -20.887  45.182  -7.891  1.00  0.00    -0.000 C 
BRANCH  12  13
ATOM     13  C   UNL     1     -20.278  44.736  -9.228  1.00  0.00    -0.000 C 
BRANCH  13  14
ATOM     14  C   UNL     1     -20.367  43.212  -9.390  1.00  0.00    -0.000 C 
BRANCH  14  15
ATOM     15  C   UNL     1     -18.988  42.553  -9.558  1.00  0.00    -0.000 C 
BRANCH  15  16
ATOM     16  C   UNL     1     -17.913  43.545 -10.036  1.00  0.00    -0.000 C 
BRANCH  16  17
ATOM     17  C   UNL     1     -16.720  43.628  -9.072  1.00  0.00    -0.003 C 
ATOM     18  C   UNL     1     -16.776  42.568  -7.971  1.00  0.00     0.004 C 
ENDBRANCH  16  17
ENDBRANCH  15  16
ENDBRANCH  14  15
ENDBRANCH  13  14
ENDBRANCH  12  13
ENDBRANCH  11  12
ENDBRANCH   1  11
TORSDOF 14
ENDMDL
MODEL 4
REMARK VINA RESULT:    -3.919      1.639      3.987
REMARK INTER + INTRA:          -9.744
REMARK INTER:                  -7.288
REMARK INTRA:                  -2.456
REMARK UNBOUND:                -2.618
REMARK SMILES CCCCCCCCCCCCCCCC(=O)[O-]
REMARK SMILES IDX 9 1 10 2 11 3 12 4 13 5 14 6 15 7 16 8 17 9 18 10 8 11 7 12
REMARK SMILES IDX 6 13 5 14 4 15 3 16 2 17 1 18
REMARK H PARENT
REMARK Flexibility Score: inf
ROOT
ATOM      1  C   UNL     1     -17.397  44.225  -6.001  1.00  0.00     0.000 C 
ENDROOT
BRANCH   1   2
ATOM      2  C   UNL     1     -16.121  45.074  -5.852  1.00  0.00     0.000 C 
BRANCH   2   3
ATOM      3  C   UNL     1     -16.420  46.583  -5.836  1.00  0.00     0.000 C 
BRANCH   3   4
ATOM      4  C   UNL     1     -17.927  46.885  -5.918  1.00  0.00     0.000 C 
BRANCH   4   5
ATOM      5  C   UNL     1     -18.306  47.655  -7.193  1.00  0.00     0.000 C 
BRANCH   5   6
ATOM      6  C   UNL     1     -17.627  47.093  -8.452  1.00  0.00     0.006 C 
BRANCH   6   7
ATOM      7  C   UNL     1     -16.790  48.170  -9.148  1.00  0.00     0.053 C 
BRANCH   7   8
ATOM      8  C   UNL     1     -15.517  47.586  -9.674  1.00  0.00     0.041 C 
ATOM      9  O   UNL     1     -15.013  48.023 -10.744  1.00  0.00    -0.550 OA
ATOM     10  O   UNL     1     -14.912  46.525  -9.012  1.00  0.00    -0.550 OA
ENDBRANCH   7   8
ENDBRANCH   6   7
ENDBRANCH   5   6
ENDBRANCH   4   5
ENDBRANCH   3   4
ENDBRANCH   2   3
ENDBRANCH   1   2
BRANCH   1  11
ATOM     11  C   UNL     1     -17.249  43.100  -7.042  1.00  0.00     0.000 C 
BRANCH  11  12
ATOM     12  C   UNL     1     -16.632  43.532  -8.386  1.00  0.00    -0.000 C 
BRANCH  12  13
ATOM     13  C   UNL     1     -17.637  43.498  -9.546  1.00  0.00    -0.000 C 
BRANCH  13  14
ATOM     14  C   UNL     1     -18.754  42.479  -9.276  1.00  0.00    -0.000 C 
BRANCH  14  15
ATOM     15  C   UNL     1     -20.157  43.096  -9.389  1.00  0.00    -0.000 C 
BRANCH  15  16
ATOM     16  C   UNL     1     -20.131  44.634  -9.365  1.00  0.00    -0.000 C 
BRANCH  16  17
ATOM     17  C   UNL     1     -20.973  45.218  -8.220  1.00  0.00    -0.003 C 
ATOM     18  C   UNL     1     -20.634  44.598  -6.863  1.00  0.00     0.004 C 
ENDBRANCH  16  17
ENDBRANCH  15  16
ENDBRANCH  14  15
ENDBRANCH  13  14
ENDBRANCH  12  13
ENDBRANCH  11  12
ENDBRANCH   1  11
TORSDOF 14
ENDMDL
MODEL 5
REMARK VINA RESULT:    -3.887      1.694      3.706
REMARK INTER + INTRA:          -9.687
REMARK INTER:                  -7.188
REMARK INTRA:                  -2.499
REMARK UNBOUND:                -2.618
REMARK SMILES CCCCCCCCCCCCCCCC(=O)[O-]
REMARK SMILES IDX 9 1 10 2 11 3 12 4 13 5 14 6 15 7 16 8 17 9 18 10 8 11 7 12
REMARK SMILES IDX 6 13 5 14 4 15 3 16 2 17 1 18
REMARK H PARENT
REMARK Flexibility Score: inf
ROOT
ATOM      1  C   UNL     1     -19.753  44.345  -6.391  1.00  0.00     0.000 C 
ENDROOT
BRANCH   1   2
ATOM      2  C   UNL     1     -19.892  45.699  -7.111  1.00  0.00     0.000 C 
BRANCH   2   3
ATOM      3  C   UNL     1     -19.235  46.849  -6.328  1.00  0.00     0.000 C 
BRANCH   3   4
ATOM      4  C   UNL     1     -18.269  47.674  -7.197  1.00  0.00     0.000 C 
BRANCH   4   5
ATOM      5  C   UNL     1     -17.783  46.903  -8.435  1.00  0.00     0.000 C 
BRANCH   5   6
ATOM      6  C   UNL     1     -16.895  47.753  -9.355  1.00  0.00     0.006 C 
BRANCH   6   7
ATOM      7  C   UNL     1     -16.259  46.891 -10.449  1.00  0.00     0.053 C 
BRANCH   7   8
ATOM      8  C   UNL     1     -14.926  46.378 -10.003  1.00  0.00     0.041 C 
ATOM      9  O   UNL     1     -14.423  45.360 -10.550  1.00  0.00    -0.550 OA
ATOM     10  O   UNL     1     -14.260  46.991  -8.949  1.00  0.00    -0.550 OA
ENDBRANCH   7   8
ENDBRANCH   6   7
ENDBRANCH   5   6
ENDBRANCH   4   5
ENDBRANCH   3   4
ENDBRANCH   2   3
ENDBRANCH   1   2
BRANCH   1  11
ATOM     11  C   UNL     1     -18.487  44.256  -5.520  1.00  0.00     0.000 C 
BRANCH  11  12
ATOM     12  C   UNL     1     -17.175  44.033  -6.296  1.00  0.00    -0.000 C 
BRANCH  12  13
ATOM     13  C   UNL     1     -17.284  42.923  -7.352  1.00  0.00    -0.000 C 
BRANCH  13  14
ATOM     14  C   UNL     1     -16.700  43.384  -8.695  1.00  0.00    -0.000 C 
BRANCH  14  15
ATOM     15  C   UNL     1     -17.744  43.391  -9.824  1.00  0.00    -0.000 C 
BRANCH  15  16
ATOM     16  C   UNL     1     -18.986  42.546  -9.486  1.00  0.00    -0.000 C 
BRANCH  16  17
ATOM     17  C   UNL     1     -20.294  43.224  -9.922  1.00  0.00    -0.003 C 
ATOM     18  C   UNL     1     -20.063  44.587 -10.575  1.00  0.00     0.004 C 
ENDBRANCH  16  17
ENDBRANCH  15  16
ENDBRANCH  14  15
ENDBRANCH  13  14
ENDBRANCH  12  13
ENDBRANCH  11  12
ENDBRANCH   1  11
TORSDOF 14
ENDMDL
MODEL 6
REMARK VINA RESULT:    -3.870      1.330      4.194
REMARK INTER + INTRA:          -9.656
REMARK INTER:                  -7.340
REMARK INTRA:                  -2.316
REMARK UNBOUND:                -2.618
REMARK SMILES CCCCCCCCCCCCCCCC(=O)[O-]
REMARK SMILES IDX 9 1 10 2 11 3 12 4 13 5 14 6 15 7 16 8 17 9 18 10 8 11 7 12
REMARK SMILES IDX 6 13 5 14 4 15 3 16 2 17 1 18
REMARK H PARENT
REMARK Flexibility Score: inf
ROOT
ATOM      1  C   UNL     1     -17.256  42.828  -7.383  1.00  0.00     0.000 C 
ENDROOT
BRANCH   1   2
ATOM      2  C   UNL     1     -16.138  43.098  -8.406  1.00  0.00     0.000 C 
BRANCH   2   3
ATOM      3  C   UNL     1     -16.669  43.734  -9.701  1.00  0.00     0.000 C 
BRANCH   3   4
ATOM      4  C   UNL     1     -16.694  45.272  -9.633  1.00  0.00     0.000 C 
BRANCH   4   5
ATOM      5  C   UNL     1     -15.308  45.895  -9.869  1.00  0.00     0.000 C 
BRANCH   5   6
ATOM      6  C   UNL     1     -14.755  46.606  -8.625  1.00  0.00     0.006 C 
BRANCH   6   7
ATOM      7  C   UNL     1     -15.876  46.915  -7.629  1.00  0.00     0.053 C 
BRANCH   7   8
ATOM      8  C   UNL     1     -15.403  46.701  -6.225  1.00  0.00     0.041 C 
ATOM      9  O   UNL     1     -14.289  46.153  -6.008  1.00  0.00    -0.550 OA
ATOM     10  O   UNL     1     -16.213  47.061  -5.155  1.00  0.00    -0.550 OA
ENDBRANCH   7   8
ENDBRANCH   6   7
ENDBRANCH   5   6
ENDBRANCH   4   5
ENDBRANCH   3   4
ENDBRANCH   2   3
ENDBRANCH   1   2
BRANCH   1  11
ATOM     11  C   UNL     1     -17.407  43.958  -6.348  1.00  0.00     0.000 C 
BRANCH  11  12
ATOM     12  C   UNL     1     -18.666  43.871  -5.466  1.00  0.00    -0.000 C 
BRANCH  12  13
ATOM     13  C   UNL     1     -19.702  44.958  -5.787  1.00  0.00    -0.000 C 
BRANCH  13  14
ATOM     14  C   UNL     1     -19.408  45.611  -7.146  1.00  0.00    -0.000 C 
BRANCH  14  15
ATOM     15  C   UNL     1     -20.604  45.540  -8.109  1.00  0.00    -0.000 C 
BRANCH  15  16
ATOM     16  C   UNL     1     -20.316  44.671  -9.346  1.00  0.00    -0.000 C 
BRANCH  16  17
ATOM     17  C   UNL     1     -20.494  43.171  -9.066  1.00  0.00    -0.003 C 
ATOM     18  C   UNL     1     -19.987  42.293 -10.210  1.00  0.00     0.004 C 
ENDBRANCH  16  17
ENDBRANCH  15  16
ENDBRANCH  14  15
ENDBRANCH  13  14
ENDBRANCH  12  13
ENDBRANCH  11  12
ENDBRANCH   1  11
TORSDOF 14
ENDMDL
MODEL 7
REMARK VINA RESULT:    -3.830      1.480      4.265
REMARK INTER + INTRA:          -9.583
REMARK INTER:                  -7.116
REMARK INTRA:                  -2.467
REMARK UNBOUND:                -2.618
REMARK SMILES CCCCCCCCCCCCCCCC(=O)[O-]
REMARK SMILES IDX 9 1 10 2 11 3 12 4 13 5 14 6 15 7 16 8 17 9 18 10 8 11 7 12
REMARK SMILES IDX 6 13 5 14 4 15 3 16 2 17 1 18
REMARK H PARENT
REMARK Flexibility Score: inf
ROOT
ATOM      1  C   UNL     1     -20.421  43.091  -9.098  1.00  0.00     0.000 C 
ENDROOT
BRANCH   1   2
ATOM      2  C   UNL     1     -19.183  42.382  -9.675  1.00  0.00     0.000 C 
BRANCH   2   3
ATOM      3  C   UNL     1     -17.877  43.132  -9.361  1.00  0.00     0.000 C 
BRANCH   3   4
ATOM      4  C   UNL     1     -17.137  43.582 -10.634  1.00  0.00     0.000 C 
BRANCH   4   5
ATOM      5  C   UNL     1     -16.955  45.107 -10.701  1.00  0.00     0.000 C 
BRANCH   5   6
ATOM      6  C   UNL     1     -16.810  45.751  -9.314  1.00  0.00     0.006 C 
BRANCH   6   7
ATOM      7  C   UNL     1     -17.372  47.175  -9.312  1.00  0.00     0.053 C 
BRANCH   7   8
ATOM      8  C   UNL     1     -16.298  48.163  -9.645  1.00  0.00     0.041 C 
ATOM      9  O   UNL     1     -16.455  48.972 -10.598  1.00  0.00    -0.550 OA
ATOM     10  O   UNL     1     -15.103  48.157  -8.937  1.00  0.00    -0.550 OA
ENDBRANCH   7   8
ENDBRANCH   6   7
ENDBRANCH   5   6
ENDBRANCH   4   5
ENDBRANCH   3   4
ENDBRANCH   2   3
ENDBRANCH   1   2
BRANCH   1  11
ATOM     11  C   UNL     1     -20.397  44.614  -9.321  1.00  0.00     0.000 C 
BRANCH  11  12
ATOM     12  C   UNL     1     -20.469  45.463  -8.038  1.00  0.00    -0.000 C 
BRANCH  12  13
ATOM     13  C   UNL     1     -20.326  44.629  -6.757  1.00  0.00    -0.000 C 
BRANCH  13  14
ATOM     14  C   UNL     1     -19.112  45.086  -5.936  1.00  0.00    -0.000 C 
BRANCH  14  15
ATOM     15  C   UNL     1     -18.004  44.022  -5.875  1.00  0.00    -0.000 C 
BRANCH  15  16
ATOM     16  C   UNL     1     -16.593  44.634  -5.928  1.00  0.00    -0.000 C 
BRANCH  16  17
ATOM     17  C   UNL     1     -16.607  46.160  -5.744  1.00  0.00    -0.003 C 
ATOM     18  C   UNL     1     -15.202  46.754  -5.637  1.00  0.00     0.004 C 
ENDBRANCH  16  17
ENDBRANCH  15  16
ENDBRANCH  14  15
ENDBRANCH  13  14
ENDBRANCH  12  13
ENDBRANCH  11  12
ENDBRANCH   1  11
TORSDOF 14
ENDMDL
MODEL 8
REMARK VINA RESULT:    -3.806      1.243      3.722
REMARK INTER + INTRA:          -9.540
REMARK INTER:                  -7.114
REMARK INTRA:                  -2.425
REMARK UNBOUND:                -2.618
REMARK SMILES CCCCCCCCCCCCCCCC(=O)[O-]
REMARK SMILES IDX 9 1 10 2 11 3 12 4 13 5 14 6 15 7 16 8 17 9 18 10 8 11 7 12
REMARK SMILES IDX 6 13 5 14 4 15 3 16 2 17 1 18
REMARK H PARENT
REMARK Flexibility Score: inf
ROOT
ATOM      1  C   UNL     1     -18.018  42.740  -9.210  1.00  0.00     0.000 C 
ENDROOT
BRANCH   1   2
ATOM      2  C   UNL     1     -17.163  43.868  -9.816  1.00  0.00     0.000 C 
BRANCH   2   3
ATOM      3  C   UNL     1     -16.680  44.872  -8.757  1.00  0.00     0.000 C 
BRANCH   3   4
ATOM      4  C   UNL     1     -16.865  46.334  -9.204  1.00  0.00     0.000 C 
BRANCH   4   5
ATOM      5  C   UNL     1     -15.797  47.270  -8.617  1.00  0.00     0.000 C 
BRANCH   5   6
ATOM      6  C   UNL     1     -14.643  46.510  -7.945  1.00  0.00     0.006 C 
BRANCH   6   7
ATOM      7  C   UNL     1     -14.202  47.213  -6.659  1.00  0.00     0.053 C 
BRANCH   7   8
ATOM      8  C   UNL     1     -14.832  46.566  -5.465  1.00  0.00     0.041 C 
ATOM      9  O   UNL     1     -15.339  45.416  -5.562  1.00  0.00    -0.550 OA
ATOM     10  O   UNL     1     -14.905  47.251  -4.259  1.00  0.00    -0.550 OA
ENDBRANCH   7   8
ENDBRANCH   6   7
ENDBRANCH   5   6
ENDBRANCH   4   5
ENDBRANCH   3   4
ENDBRANCH   2   3
ENDBRANCH   1   2
BRANCH   1  11
ATOM     11  C   UNL     1     -19.455  42.714  -9.763  1.00  0.00     0.000 C 
BRANCH  11  12
ATOM     12  C   UNL     1     -20.509  43.399  -8.874  1.00  0.00    -0.000 C 
BRANCH  12  13
ATOM     13  C   UNL     1     -20.606  44.912  -9.116  1.00  0.00    -0.000 C 
BRANCH  13  14
ATOM     14  C   UNL     1     -20.325  45.694  -7.824  1.00  0.00    -0.000 C 
BRANCH  14  15
ATOM     15  C   UNL     1     -19.940  44.780  -6.650  1.00  0.00    -0.000 C 
BRANCH  15  16
ATOM     16  C   UNL     1     -18.824  45.379  -5.776  1.00  0.00    -0.000 C 
BRANCH  16  17
ATOM     17  C   UNL     1     -18.544  46.853  -6.108  1.00  0.00    -0.003 C 
ATOM     18  C   UNL     1     -18.350  47.712  -4.858  1.00  0.00     0.004 C 
ENDBRANCH  16  17
ENDBRANCH  15  16
ENDBRANCH  14  15
ENDBRANCH  13  14
ENDBRANCH  12  13
ENDBRANCH  11  12
ENDBRANCH   1  11
TORSDOF 14
ENDMDL
MODEL 9
REMARK VINA RESULT:    -3.784      1.934      3.969
REMARK INTER + INTRA:          -9.499
REMARK INTER:                  -7.153
REMARK INTRA:                  -2.346
REMARK UNBOUND:                -2.618
REMARK SMILES CCCCCCCCCCCCCCCC(=O)[O-]
REMARK SMILES IDX 9 1 10 2 11 3 12 4 13 5 14 6 15 7 16 8 17 9 18 10 8 11 7 12
REMARK SMILES IDX 6 13 5 14 4 15 3 16 2 17 1 18
REMARK H PARENT
REMARK Flexibility Score: inf
ROOT
ATOM      1  C   UNL     1     -16.537  43.530  -8.887  1.00  0.00     0.000 C 
ENDROOT
BRANCH   1   2
ATOM      2  C   UNL     1     -17.766  42.643  -8.616  1.00  0.00     0.000 C 
BRANCH   2   3
ATOM      3  C   UNL     1     -18.854  42.804  -9.691  1.00  0.00     0.000 C 
BRANCH   3   4
ATOM      4  C   UNL     1     -20.213  43.213  -9.096  1.00  0.00     0.000 C 
BRANCH   4   5
ATOM      5  C   UNL     1     -20.371  44.737  -8.979  1.00  0.00     0.000 C 
BRANCH   5   6
ATOM      6  C   UNL     1     -20.684  45.195  -7.546  1.00  0.00     0.006 C 
BRANCH   6   7
ATOM      7  C   UNL     1     -19.395  45.450  -6.760  1.00  0.00     0.053 C 
BRANCH   7   8
ATOM      8  C   UNL     1     -19.228  44.426  -5.681  1.00  0.00     0.041 C 
ATOM      9  O   UNL     1     -18.088  43.952  -5.429  1.00  0.00    -0.550 OA
ATOM     10  O   UNL     1     -20.337  43.958  -4.988  1.00  0.00    -0.550 OA
ENDBRANCH   7   8
ENDBRANCH   6   7
ENDBRANCH   5   6
ENDBRANCH   4   5
ENDBRANCH   3   4
ENDBRANCH   2   3
ENDBRANCH   1   2
BRANCH   1  11
ATOM     11  C   UNL     1     -16.420  43.958 -10.361  1.00  0.00     0.000 C 
BRANCH  11  12
ATOM     12  C   UNL     1     -16.231  45.470 -10.588  1.00  0.00    -0.000 C 
BRANCH  12  13
ATOM     13  C   UNL     1     -17.373  46.312 -10.003  1.00  0.00    -0.000 C 
BRANCH  13  14
ATOM     14  C   UNL     1     -16.877  47.173  -8.832  1.00  0.00    -0.000 C 
BRANCH  14  15
ATOM     15  C   UNL     1     -15.365  47.445  -8.896  1.00  0.00    -0.000 C 
BRANCH  15  16
ATOM     16  C   UNL     1     -14.605  46.844  -7.701  1.00  0.00    -0.000 C 
BRANCH  16  17
ATOM     17  C   UNL     1     -15.548  46.251  -6.642  1.00  0.00    -0.003 C 
ATOM     18  C   UNL     1     -15.015  46.416  -5.219  1.00  0.00     0.004 C 
ENDBRANCH  16  17
ENDBRANCH  15  16
ENDBRANCH  14  15
ENDBRANCH  13  14
ENDBRANCH  12  13
ENDBRANCH  11  12
ENDBRANCH   1  11
TORSDOF 14
ENDMDL
