MODEL 1
REMARK VINA RESULT:     4.736      0.000      0.000
REMARK INTER + INTRA:           7.145
REMARK INTER:                   7.505
REMARK INTRA:                  -0.361
REMARK UNBOUND:                -0.361
REMARK SMILES CCCCCCCCCCCC(=O)[O-]
REMARK SMILES IDX 7 1 8 2 9 3 10 4 11 5 12 6 13 7 14 8 6 9 5 10 4 11 3 12 2 13
REMARK SMILES IDX 1 14
REMARK H PARENT
REMARK Flexibility Score: inf
ROOT
ATOM      1  C   UNL     1       9.109  47.374   9.586  1.00  0.00     0.000 C 
ENDROOT
BRANCH   1   2
ATOM      2  C   UNL     1       7.849  47.897   8.878  1.00  0.00     0.000 C 
BRANCH   2   3
ATOM      3  C   UNL     1       7.724  49.427   8.946  1.00  0.00     0.000 C 
BRANCH   3   4
ATOM      4  C   UNL     1       6.261  49.904   8.906  1.00  0.00     0.006 C 
BRANCH   4   5
ATOM      5  C   UNL     1       5.270  48.733   8.949  1.00  0.00     0.053 C 
BRANCH   5   6
ATOM      6  C   UNL     1       4.682  48.554  10.315  1.00  0.00     0.041 C 
ATOM      7  O   UNL     1       3.541  49.016  10.580  1.00  0.00    -0.550 OA
ATOM      8  O   UNL     1       5.379  47.846  11.286  1.00  0.00    -0.550 OA
ENDBRANCH   5   6
ENDBRANCH   4   5
ENDBRANCH   3   4
ENDBRANCH   2   3
ENDBRANCH   1   2
BRANCH   1   9
ATOM      9  C   UNL     1      10.378  47.899   8.899  1.00  0.00     0.000 C 
BRANCH   9  10
ATOM     10  C   UNL     1      11.515  46.863   8.875  1.00  0.00    -0.000 C 
BRANCH  10  11
ATOM     11  C   UNL     1      12.935  47.458   8.945  1.00  0.00    -0.000 C 
BRANCH  11  12
ATOM     12  C   UNL     1      14.056  46.398   8.891  1.00  0.00    -0.000 C 
BRANCH  12  13
ATOM     13  C   UNL     1      13.926  45.352  10.008  1.00  0.00    -0.003 C 
ATOM     14  C   UNL     1      13.641  43.968   9.435  1.00  0.00     0.004 C 
ENDBRANCH  12  13
ENDBRANCH  11  12
ENDBRANCH  10  11
ENDBRANCH   9  10
ENDBRANCH   1   9
TORSDOF 10
ENDMDL
MODEL 2
REMARK VINA RESULT:     6.495      1.231      2.429
REMARK INTER + INTRA:           9.931
REMARK INTER:                   9.861
REMARK INTRA:                   0.070
REMARK UNBOUND:                -0.361
REMARK SMILES CCCCCCCCCCCC(=O)[O-]
REMARK SMILES IDX 7 1 8 2 9 3 10 4 11 5 12 6 13 7 14 8 6 9 5 10 4 11 3 12 2 13
REMARK SMILES IDX 1 14
REMARK H PARENT
REMARK Flexibility Score: inf
ROOT
ATOM      1  C   UNL     1      11.921  47.201   9.700  1.00  0.00     0.000 C 
ENDROOT
BRANCH   1   2
ATOM      2  C   UNL     1      10.626  47.329   8.882  1.00  0.00     0.000 C 
BRANCH   2   3
ATOM      3  C   UNL     1       9.455  47.878   9.711  1.00  0.00     0.000 C 
BRANCH   3   4
ATOM      4  C   UNL     1       8.107  47.770   8.976  1.00  0.00     0.006 C 
BRANCH   4   5
ATOM      5  C   UNL     1       7.393  49.124   8.877  1.00  0.00     0.053 C 
BRANCH   5   6
ATOM      6  C   UNL     1       5.977  49.042   9.360  1.00  0.00     0.041 C 
ATOM      7  O   UNL     1       5.492  47.937   9.717  1.00  0.00    -0.550 OA
ATOM      8  O   UNL     1       5.203  50.193   9.449  1.00  0.00    -0.550 OA
ENDBRANCH   5   6
ENDBRANCH   4   5
ENDBRANCH   3   4
ENDBRANCH   2   3
ENDBRANCH   1   2
BRANCH   1   9
ATOM      9  C   UNL     1      13.135  47.655   8.876  1.00  0.00     0.000 C 
BRANCH   9  10
ATOM     10  C   UNL     1      14.448  47.615   9.676  1.00  0.00    -0.000 C 
BRANCH  10  11
ATOM     11  C   UNL     1      15.639  46.979   8.935  1.00  0.00    -0.000 C 
BRANCH  11  12
ATOM     12  C   UNL     1      15.648  45.436   8.980  1.00  0.00    -0.000 C 
BRANCH  12  13
ATOM     13  C   UNL     1      14.237  44.840   8.875  1.00  0.00    -0.003 C 
ATOM     14  C   UNL     1      13.987  43.818   9.979  1.00  0.00     0.004 C 
ENDBRANCH  12  13
ENDBRANCH  11  12
ENDBRANCH  10  11
ENDBRANCH   9  10
ENDBRANCH   1   9
TORSDOF 10
ENDMDL
MODEL 3
REMARK VINA RESULT:     6.519      3.591      7.195
REMARK INTER + INTRA:           9.969
REMARK INTER:                   9.134
REMARK INTRA:                   0.835
REMARK UNBOUND:                -0.361
REMARK SMILES CCCCCCCCCCCC(=O)[O-]
REMARK SMILES IDX 7 1 8 2 9 3 10 4 11 5 12 6 13 7 14 8 6 9 5 10 4 11 3 12 2 13
REMARK SMILES IDX 1 14
REMARK H PARENT
REMARK Flexibility Score: inf
ROOT
ATOM      1  C   UNL     1       4.692  49.597   9.144  1.00  0.00     0.000 C 
ENDROOT
BRANCH   1   2
ATOM      2  C   UNL     1       6.096  49.017   8.913  1.00  0.00     0.000 C 
BRANCH   2   3
ATOM      3  C   UNL     1       6.105  47.481   8.898  1.00  0.00     0.000 C 
BRANCH   3   4
ATOM      4  C   UNL     1       7.529  46.898   8.878  1.00  0.00     0.006 C 
BRANCH   4   5
ATOM      5  C   UNL     1       8.587  47.941   9.264  1.00  0.00     0.053 C 
BRANCH   5   6
ATOM      6  C   UNL     1       8.369  48.466  10.651  1.00  0.00     0.041 C 
ATOM      7  O   UNL     1       8.274  47.670  11.621  1.00  0.00    -0.550 OA
ATOM      8  O   UNL     1       8.306  49.835  10.875  1.00  0.00    -0.550 OA
ENDBRANCH   5   6
ENDBRANCH   4   5
ENDBRANCH   3   4
ENDBRANCH   2   3
ENDBRANCH   1   2
BRANCH   1   9
ATOM      9  C   UNL     1       3.871  48.689  10.072  1.00  0.00     0.000 C 
BRANCH   9  10
ATOM     10  C   UNL     1       4.670  48.211  11.296  1.00  0.00    -0.000 C 
BRANCH  10  11
ATOM     11  C   UNL     1       3.812  47.793  12.506  1.00  0.00    -0.000 C 
BRANCH  11  12
ATOM     12  C   UNL     1       4.521  47.978  13.865  1.00  0.00    -0.000 C 
BRANCH  12  13
ATOM     13  C   UNL     1       3.530  48.196  15.017  1.00  0.00    -0.003 C 
ATOM     14  C   UNL     1       2.830  46.894  15.395  1.00  0.00     0.004 C 
ENDBRANCH  12  13
ENDBRANCH  11  12
ENDBRANCH  10  11
ENDBRANCH   9  10
ENDBRANCH   1   9
TORSDOF 10
ENDMDL
