MODEL 1
REMARK VINA RESULT:    -5.019      0.000      0.000
REMARK INTER + INTRA:          -5.312
REMARK INTER:                  -5.312
REMARK INTRA:                   0.000
REMARK UNBOUND:                 0.000
REMARK SMILES O=c1ccc2cc(O)c(O)cc2o1
REMARK SMILES IDX 4 1 3 2 2 3 1 4 13 5 12 6 11 7 9 8 7 9 6 10 5 11 8 12 10 14
REMARK H PARENT 8 13 10 15
REMARK Flexibility Score: inf
ROOT
ATOM      1  C   UNL     1       4.820 -16.969  14.402  1.00  0.00     0.019 A 
ATOM      2  C   UNL     1       6.206 -16.935  14.255  1.00  0.00     0.094 A 
ATOM      3  C   UNL     1       6.874 -15.715  14.401  1.00  0.00     0.336 A 
ATOM      4  O   UNL     1       8.125 -15.663  14.272  1.00  0.00    -0.246 OA
ATOM      5  O   UNL     1       6.194 -14.604  14.676  1.00  0.00    -0.423 OA
ATOM      6  C   UNL     1       4.872 -14.592  14.823  1.00  0.00     0.142 A 
ATOM      7  C   UNL     1       4.211 -13.394  15.111  1.00  0.00     0.098 A 
ATOM      8  C   UNL     1       2.817 -13.375  15.269  1.00  0.00     0.161 A 
ATOM      9  C   UNL     1       2.080 -14.566  15.135  1.00  0.00     0.158 A 
ATOM     10  C   UNL     1       2.739 -15.768  14.847  1.00  0.00     0.062 A 
ATOM     11  C   UNL     1       4.132 -15.787  14.690  1.00  0.00     0.022 A 
ENDROOT
BRANCH   9  12
ATOM     12  O   UNL     1       0.694 -14.576  15.286  1.00  0.00    -0.504 OA
ATOM     13  H   UNL     1       0.072 -14.212  14.573  1.00  0.00     0.293 HD
ENDBRANCH   9  12
BRANCH   8  14
ATOM     14  O   UNL     1       2.163 -12.179  15.556  1.00  0.00    -0.504 OA
ATOM     15  H   UNL     1       1.913 -11.522  14.826  1.00  0.00     0.293 HD
ENDBRANCH   8  14
TORSDOF 2
ENDMDL
MODEL 2
REMARK VINA RESULT:    -4.818      2.142      2.525
REMARK INTER + INTRA:          -5.100
REMARK INTER:                  -5.100
REMARK INTRA:                   0.000
REMARK UNBOUND:                 0.000
REMARK SMILES O=c1ccc2cc(O)c(O)cc2o1
REMARK SMILES IDX 4 1 3 2 2 3 1 4 13 5 12 6 11 7 9 8 7 9 6 10 5 11 8 12 10 14
REMARK H PARENT 8 13 10 15
REMARK Flexibility Score: inf
ROOT
ATOM      1  C   UNL     1       4.999 -17.199  16.678  1.00  0.00     0.019 A 
ATOM      2  C   UNL     1       5.477 -18.140  15.768  1.00  0.00     0.094 A 
ATOM      3  C   UNL     1       5.021 -18.098  14.446  1.00  0.00     0.336 A 
ATOM      4  O   UNL     1       5.441 -18.939  13.609  1.00  0.00    -0.246 OA
ATOM      5  O   UNL     1       4.144 -17.172  14.065  1.00  0.00    -0.423 OA
ATOM      6  C   UNL     1       3.662 -16.256  14.901  1.00  0.00     0.142 A 
ATOM      7  C   UNL     1       2.742 -15.307  14.445  1.00  0.00     0.098 A 
ATOM      8  C   UNL     1       2.231 -14.338  15.322  1.00  0.00     0.161 A 
ATOM      9  C   UNL     1       2.645 -14.321  16.666  1.00  0.00     0.158 A 
ATOM     10  C   UNL     1       3.567 -15.270  17.126  1.00  0.00     0.062 A 
ATOM     11  C   UNL     1       4.078 -16.237  16.251  1.00  0.00     0.022 A 
ENDROOT
BRANCH   9  12
ATOM     12  O   UNL     1       2.153 -13.369  17.559  1.00  0.00    -0.504 OA
ATOM     13  H   UNL     1       2.671 -13.085  18.382  1.00  0.00     0.293 HD
ENDBRANCH   9  12
BRANCH   8  14
ATOM     14  O   UNL     1       1.314 -13.395  14.862  1.00  0.00    -0.504 OA
ATOM     15  H   UNL     1       1.110 -12.553  15.388  1.00  0.00     0.293 HD
ENDBRANCH   8  14
TORSDOF 2
ENDMDL
MODEL 3
REMARK VINA RESULT:    -4.816      1.140      2.262
REMARK INTER + INTRA:          -5.097
REMARK INTER:                  -5.097
REMARK INTRA:                   0.000
REMARK UNBOUND:                 0.000
REMARK SMILES O=c1ccc2cc(O)c(O)cc2o1
REMARK SMILES IDX 4 1 3 2 2 3 1 4 13 5 12 6 11 7 9 8 7 9 6 10 5 11 8 12 10 14
REMARK H PARENT 8 13 10 15
REMARK Flexibility Score: inf
ROOT
ATOM      1  C   UNL     1       6.263 -14.593  14.753  1.00  0.00     0.019 A 
ATOM      2  C   UNL     1       6.900 -15.798  14.465  1.00  0.00     0.094 A 
ATOM      3  C   UNL     1       6.127 -16.954  14.307  1.00  0.00     0.336 A 
ATOM      4  O   UNL     1       6.684 -18.052  14.047  1.00  0.00    -0.246 OA
ATOM      5  O   UNL     1       4.803 -16.900  14.431  1.00  0.00    -0.423 OA
ATOM      6  C   UNL     1       4.155 -15.770  14.705  1.00  0.00     0.142 A 
ATOM      7  C   UNL     1       2.762 -15.774  14.824  1.00  0.00     0.098 A 
ATOM      8  C   UNL     1       2.074 -14.586  15.113  1.00  0.00     0.161 A 
ATOM      9  C   UNL     1       2.787 -13.386  15.285  1.00  0.00     0.158 A 
ATOM     10  C   UNL     1       4.183 -13.379  15.167  1.00  0.00     0.062 A 
ATOM     11  C   UNL     1       4.871 -14.565  14.878  1.00  0.00     0.022 A 
ENDROOT
BRANCH   9  12
ATOM     12  O   UNL     1       2.128 -12.191  15.573  1.00  0.00    -0.504 OA
ATOM     13  H   UNL     1       1.591 -12.065  16.424  1.00  0.00     0.293 HD
ENDBRANCH   9  12
BRANCH   8  14
ATOM     14  O   UNL     1       0.685 -14.595  15.230  1.00  0.00    -0.504 OA
ATOM     15  H   UNL     1       0.227 -14.813  16.108  1.00  0.00     0.293 HD
ENDBRANCH   8  14
TORSDOF 2
ENDMDL
MODEL 4
REMARK VINA RESULT:    -4.488      1.896      1.965
REMARK INTER + INTRA:          -4.751
REMARK INTER:                  -4.751
REMARK INTRA:                   0.000
REMARK UNBOUND:                 0.000
REMARK SMILES O=c1ccc2cc(O)c(O)cc2o1
REMARK SMILES IDX 4 1 3 2 2 3 1 4 13 5 12 6 11 7 9 8 7 9 6 10 5 11 8 12 10 14
REMARK H PARENT 8 13 10 15
REMARK Flexibility Score: inf
ROOT
ATOM      1  C   UNL     1       4.649 -17.237  14.283  1.00  0.00     0.019 A 
ATOM      2  C   UNL     1       5.768 -17.872  14.819  1.00  0.00     0.094 A 
ATOM      3  C   UNL     1       6.184 -17.535  16.112  1.00  0.00     0.336 A 
ATOM      4  O   UNL     1       7.192 -18.097  16.614  1.00  0.00    -0.246 OA
ATOM      5  O   UNL     1       5.520 -16.622  16.817  1.00  0.00    -0.423 OA
ATOM      6  C   UNL     1       4.448 -15.992  16.342  1.00  0.00     0.142 A 
ATOM      7  C   UNL     1       3.791 -15.041  17.128  1.00  0.00     0.098 A 
ATOM      8  C   UNL     1       2.660 -14.374  16.634  1.00  0.00     0.161 A 
ATOM      9  C   UNL     1       2.185 -14.662  15.341  1.00  0.00     0.158 A 
ATOM     10  C   UNL     1       2.841 -15.615  14.551  1.00  0.00     0.062 A 
ATOM     11  C   UNL     1       3.971 -16.281  15.045  1.00  0.00     0.022 A 
ENDROOT
BRANCH   9  12
ATOM     12  O   UNL     1       1.064 -14.014  14.825  1.00  0.00    -0.504 OA
ATOM     13  H   UNL     1       0.122 -14.258  15.110  1.00  0.00     0.293 HD
ENDBRANCH   9  12
BRANCH   8  14
ATOM     14  O   UNL     1       2.008 -13.426  17.421  1.00  0.00    -0.504 OA
ATOM     15  H   UNL     1       1.839 -13.582  18.408  1.00  0.00     0.293 HD
ENDBRANCH   8  14
TORSDOF 2
ENDMDL
MODEL 5
REMARK VINA RESULT:    -4.482      2.808      5.318
REMARK INTER + INTRA:          -4.744
REMARK INTER:                  -4.744
REMARK INTRA:                   0.000
REMARK UNBOUND:                 0.000
REMARK SMILES O=c1ccc2cc(O)c(O)cc2o1
REMARK SMILES IDX 4 1 3 2 2 3 1 4 13 5 12 6 11 7 9 8 7 9 6 10 5 11 8 12 10 14
REMARK H PARENT 8 13 10 15
REMARK Flexibility Score: inf
ROOT
ATOM      1  C   UNL     1       3.884 -16.156  16.752  1.00  0.00     0.019 A 
ATOM      2  C   UNL     1       3.177 -15.191  16.037  1.00  0.00     0.094 A 
ATOM      3  C   UNL     1       3.101 -15.300  14.644  1.00  0.00     0.336 A 
ATOM      4  O   UNL     1       2.467 -14.439  13.980  1.00  0.00    -0.246 OA
ATOM      5  O   UNL     1       3.695 -16.311  14.014  1.00  0.00    -0.423 OA
ATOM      6  C   UNL     1       4.380 -17.253  14.658  1.00  0.00     0.142 A 
ATOM      7  C   UNL     1       4.983 -18.291  13.944  1.00  0.00     0.098 A 
ATOM      8  C   UNL     1       5.706 -19.287  14.618  1.00  0.00     0.161 A 
ATOM      9  C   UNL     1       5.825 -19.241  16.019  1.00  0.00     0.158 A 
ATOM     10  C   UNL     1       5.221 -18.202  16.738  1.00  0.00     0.062 A 
ATOM     11  C   UNL     1       4.499 -17.207  16.065  1.00  0.00     0.022 A 
ENDROOT
BRANCH   9  12
ATOM     12  O   UNL     1       6.537 -20.218  16.713  1.00  0.00    -0.504 OA
ATOM     13  H   UNL     1       6.440 -20.345  17.714  1.00  0.00     0.293 HD
ENDBRANCH   9  12
BRANCH   8  14
ATOM     14  O   UNL     1       6.306 -20.321  13.901  1.00  0.00    -0.504 OA
ATOM     15  H   UNL     1       7.238 -20.228  13.514  1.00  0.00     0.293 HD
ENDBRANCH   8  14
TORSDOF 2
ENDMDL
MODEL 6
REMARK VINA RESULT:    -4.283      1.170      4.501
REMARK INTER + INTRA:          -4.534
REMARK INTER:                  -4.534
REMARK INTRA:                   0.000
REMARK UNBOUND:                 0.000
REMARK SMILES O=c1ccc2cc(O)c(O)cc2o1
REMARK SMILES IDX 4 1 3 2 2 3 1 4 13 5 12 6 11 7 9 8 7 9 6 10 5 11 8 12 10 14
REMARK H PARENT 8 13 10 15
REMARK Flexibility Score: inf
ROOT
ATOM      1  C   UNL     1       2.682 -15.609  15.150  1.00  0.00     0.019 A 
ATOM      2  C   UNL     1       2.170 -14.346  15.442  1.00  0.00     0.094 A 
ATOM      3  C   UNL     1       3.027 -13.241  15.404  1.00  0.00     0.336 A 
ATOM      4  O   UNL     1       2.584 -12.092  15.664  1.00  0.00    -0.246 OA
ATOM      5  O   UNL     1       4.312 -13.396  15.095  1.00  0.00    -0.423 OA
ATOM      6  C   UNL     1       4.842 -14.584  14.811  1.00  0.00     0.142 A 
ATOM      7  C   UNL     1       6.199 -14.686  14.493  1.00  0.00     0.098 A 
ATOM      8  C   UNL     1       6.763 -15.935  14.192  1.00  0.00     0.161 A 
ATOM      9  C   UNL     1       5.960 -17.090  14.211  1.00  0.00     0.158 A 
ATOM     10  C   UNL     1       4.599 -16.990  14.528  1.00  0.00     0.062 A 
ATOM     11  C   UNL     1       4.036 -15.743  14.829  1.00  0.00     0.022 A 
ENDROOT
BRANCH   9  12
ATOM     12  O   UNL     1       6.495 -18.344  13.915  1.00  0.00    -0.504 OA
ATOM     13  H   UNL     1       7.050 -18.509  13.084  1.00  0.00     0.293 HD
ENDBRANCH   9  12
BRANCH   8  14
ATOM     14  O   UNL     1       8.117 -16.032  13.875  1.00  0.00    -0.504 OA
ATOM     15  H   UNL     1       8.736 -16.659  14.377  1.00  0.00     0.293 HD
ENDBRANCH   8  14
TORSDOF 2
ENDMDL
MODEL 7
REMARK VINA RESULT:    -4.256     13.693     15.148
REMARK INTER + INTRA:          -4.505
REMARK INTER:                  -4.505
REMARK INTRA:                   0.000
REMARK UNBOUND:                 0.000
REMARK SMILES O=c1ccc2cc(O)c(O)cc2o1
REMARK SMILES IDX 4 1 3 2 2 3 1 4 13 5 12 6 11 7 9 8 7 9 6 10 5 11 8 12 10 14
REMARK H PARENT 8 13 10 15
REMARK Flexibility Score: inf
ROOT
ATOM      1  C   UNL     1       1.069 -24.714   2.126  1.00  0.00     0.019 A 
ATOM      2  C   UNL     1      -0.190 -25.313   2.132  1.00  0.00     0.094 A 
ATOM      3  C   UNL     1      -0.806 -25.585   3.358  1.00  0.00     0.336 A 
ATOM      4  O   UNL     1      -1.942 -26.125   3.386  1.00  0.00    -0.246 OA
ATOM      5  O   UNL     1      -0.198 -25.274   4.501  1.00  0.00    -0.423 OA
ATOM      6  C   UNL     1       1.003 -24.702   4.540  1.00  0.00     0.142 A 
ATOM      7  C   UNL     1       1.594 -24.398   5.770  1.00  0.00     0.098 A 
ATOM      8  C   UNL     1       2.859 -23.795   5.818  1.00  0.00     0.161 A 
ATOM      9  C   UNL     1       3.538 -23.494   4.623  1.00  0.00     0.158 A 
ATOM     10  C   UNL     1       2.949 -23.796   3.389  1.00  0.00     0.062 A 
ATOM     11  C   UNL     1       1.684 -24.399   3.341  1.00  0.00     0.022 A 
ENDROOT
BRANCH   9  12
ATOM     12  O   UNL     1       4.797 -22.894   4.642  1.00  0.00    -0.504 OA
ATOM     13  H   UNL     1       5.171 -22.455   5.475  1.00  0.00     0.293 HD
ENDBRANCH   9  12
BRANCH   8  14
ATOM     14  O   UNL     1       3.444 -23.494   7.047  1.00  0.00    -0.504 OA
ATOM     15  H   UNL     1       3.361 -22.573   7.463  1.00  0.00     0.293 HD
ENDBRANCH   8  14
TORSDOF 2
ENDMDL
MODEL 8
REMARK VINA RESULT:    -4.238      1.829      4.752
REMARK INTER + INTRA:          -4.486
REMARK INTER:                  -4.486
REMARK INTRA:                   0.000
REMARK UNBOUND:                 0.000
REMARK SMILES O=c1ccc2cc(O)c(O)cc2o1
REMARK SMILES IDX 4 1 3 2 2 3 1 4 13 5 12 6 11 7 9 8 7 9 6 10 5 11 8 12 10 14
REMARK H PARENT 8 13 10 15
REMARK Flexibility Score: inf
ROOT
ATOM      1  C   UNL     1       6.183 -13.646  15.115  1.00  0.00     0.019 A 
ATOM      2  C   UNL     1       5.193 -12.741  15.490  1.00  0.00     0.094 A 
ATOM      3  C   UNL     1       3.861 -13.168  15.526  1.00  0.00     0.336 A 
ATOM      4  O   UNL     1       2.952 -12.365  15.862  1.00  0.00    -0.246 OA
ATOM      5  O   UNL     1       3.547 -14.422  15.207  1.00  0.00    -0.423 OA
ATOM      6  C   UNL     1       4.462 -15.318  14.843  1.00  0.00     0.142 A 
ATOM      7  C   UNL     1       4.074 -16.621  14.518  1.00  0.00     0.098 A 
ATOM      8  C   UNL     1       5.032 -17.570  14.135  1.00  0.00     0.161 A 
ATOM      9  C   UNL     1       6.391 -17.210  14.075  1.00  0.00     0.158 A 
ATOM     10  C   UNL     1       6.783 -15.905  14.401  1.00  0.00     0.062 A 
ATOM     11  C   UNL     1       5.826 -14.957  14.784  1.00  0.00     0.022 A 
ENDROOT
BRANCH   9  12
ATOM     12  O   UNL     1       7.365 -18.133  13.697  1.00  0.00    -0.504 OA
ATOM     13  H   UNL     1       7.162 -19.122  13.605  1.00  0.00     0.293 HD
ENDBRANCH   9  12
BRANCH   8  14
ATOM     14  O   UNL     1       4.640 -18.868  13.812  1.00  0.00    -0.504 OA
ATOM     15  H   UNL     1       4.447 -19.142  12.855  1.00  0.00     0.293 HD
ENDBRANCH   8  14
TORSDOF 2
ENDMDL
MODEL 9
REMARK VINA RESULT:    -4.234      2.494      4.345
REMARK INTER + INTRA:          -4.481
REMARK INTER:                  -4.481
REMARK INTRA:                   0.000
REMARK UNBOUND:                 0.000
REMARK SMILES O=c1ccc2cc(O)c(O)cc2o1
REMARK SMILES IDX 4 1 3 2 2 3 1 4 13 5 12 6 11 7 9 8 7 9 6 10 5 11 8 12 10 14
REMARK H PARENT 8 13 10 15
REMARK Flexibility Score: inf
ROOT
ATOM      1  C   UNL     1       4.309 -14.382  15.218  1.00  0.00     0.019 A 
ATOM      2  C   UNL     1       4.926 -13.150  15.426  1.00  0.00     0.094 A 
ATOM      3  C   UNL     1       6.286 -13.014  15.131  1.00  0.00     0.336 A 
ATOM      4  O   UNL     1       6.862 -11.909  15.312  1.00  0.00    -0.246 OA
ATOM      5  O   UNL     1       6.979 -14.047  14.658  1.00  0.00    -0.423 OA
ATOM      6  C   UNL     1       6.430 -15.240  14.445  1.00  0.00     0.142 A 
ATOM      7  C   UNL     1       7.207 -16.290  13.947  1.00  0.00     0.098 A 
ATOM      8  C   UNL     1       6.633 -17.550  13.720  1.00  0.00     0.161 A 
ATOM      9  C   UNL     1       5.269 -17.759  13.996  1.00  0.00     0.158 A 
ATOM     10  C   UNL     1       4.487 -16.709  14.494  1.00  0.00     0.062 A 
ATOM     11  C   UNL     1       5.061 -15.451  14.721  1.00  0.00     0.022 A 
ENDROOT
BRANCH   9  12
ATOM     12  O   UNL     1       4.673 -19.001  13.779  1.00  0.00    -0.504 OA
ATOM     13  H   UNL     1       4.850 -19.795  14.384  1.00  0.00     0.293 HD
ENDBRANCH   9  12
BRANCH   8  14
ATOM     14  O   UNL     1       7.412 -18.593  13.224  1.00  0.00    -0.504 OA
ATOM     15  H   UNL     1       7.010 -19.336  12.663  1.00  0.00     0.293 HD
ENDBRANCH   8  14
TORSDOF 2
ENDMDL
