MODEL 1
REMARK VINA RESULT:    -7.113      0.000      0.000
REMARK INTER + INTRA:          -8.625
REMARK INTER:                  -8.360
REMARK INTRA:                  -0.265
REMARK UNBOUND:                -0.265
REMARK SMILES O=c1cc(-c2ccc(O)c(O)c2)oc2cc(O)cc(O)c12
REMARK SMILES IDX 4 1 3 2 2 3 1 4 21 5 19 6 18 7 16 8 15 9 14 10 13 11 5 12
REMARK SMILES IDX 6 13 7 14 8 15 12 16 10 17 9 18 11 20 20 22 17 24
REMARK H PARENT 9 19 11 21 20 23 17 25
REMARK Flexibility Score: inf
ROOT
ATOM      1  C   UNL     1     -24.940  16.515 -37.311  1.00  0.00     0.138 A 
ATOM      2  C   UNL     1     -25.361  17.844 -37.481  1.00  0.00     0.100 A 
ATOM      3  C   UNL     1     -24.942  18.558 -38.605  1.00  0.00     0.197 A 
ATOM      4  O   UNL     1     -25.324  19.751 -38.748  1.00  0.00    -0.289 OA
ATOM      5  C   UNL     1     -24.101  17.938 -39.551  1.00  0.00     0.107 A 
ATOM      6  C   UNL     1     -23.632  18.590 -40.716  1.00  0.00     0.134 A 
ATOM      7  C   UNL     1     -22.792  17.904 -41.606  1.00  0.00     0.093 A 
ATOM      8  C   UNL     1     -22.414  16.580 -41.352  1.00  0.00     0.123 A 
ATOM      9  C   UNL     1     -22.873  15.934 -40.203  1.00  0.00     0.094 A 
ATOM     10  C   UNL     1     -23.712  16.599 -39.304  1.00  0.00     0.146 A 
ATOM     11  O   UNL     1     -24.137  15.961 -38.218  1.00  0.00    -0.456 OA
ENDROOT
BRANCH   1  12
ATOM     12  C   UNL     1     -25.352  15.707 -36.137  1.00  0.00     0.021 A 
ATOM     13  C   UNL     1     -26.149  14.554 -36.274  1.00  0.00     0.016 A 
ATOM     14  C   UNL     1     -26.515  13.808 -35.150  1.00  0.00     0.051 A 
ATOM     15  C   UNL     1     -26.087  14.192 -33.874  1.00  0.00     0.157 A 
ATOM     16  C   UNL     1     -24.915  16.078 -34.852  1.00  0.00     0.062 A 
ATOM     17  C   UNL     1     -25.281  15.333 -33.726  1.00  0.00     0.158 A 
BRANCH  15  18
ATOM     18  O   UNL     1     -26.454  13.445 -32.756  1.00  0.00    -0.504 OA
ATOM     19  H   UNL     1     -27.215  13.734 -32.152  1.00  0.00     0.293 HD
ENDBRANCH  15  18
BRANCH  17  20
ATOM     20  O   UNL     1     -24.834  15.740 -32.469  1.00  0.00    -0.504 OA
ATOM     21  H   UNL     1     -24.805  15.109 -31.678  1.00  0.00     0.293 HD
ENDBRANCH  17  20
ENDBRANCH   1  12
BRANCH   6  22
ATOM     22  O   UNL     1     -23.994  19.908 -40.995  1.00  0.00    -0.507 OA
ATOM     23  H   UNL     1     -24.891  20.286 -40.713  1.00  0.00     0.293 HD
ENDBRANCH   6  22
BRANCH   8  24
ATOM     24  O   UNL     1     -21.580  15.899 -42.234  1.00  0.00    -0.508 OA
ATOM     25  H   UNL     1     -21.757  15.892 -43.233  1.00  0.00     0.293 HD
ENDBRANCH   8  24
TORSDOF 5
ENDMDL
MODEL 2
REMARK VINA RESULT:    -7.077      8.477      9.896
REMARK INTER + INTRA:          -8.583
REMARK INTER:                  -8.288
REMARK INTRA:                  -0.295
REMARK UNBOUND:                -0.265
REMARK SMILES O=c1cc(-c2ccc(O)c(O)c2)oc2cc(O)cc(O)c12
REMARK SMILES IDX 4 1 3 2 2 3 1 4 21 5 19 6 18 7 16 8 15 9 14 10 13 11 5 12
REMARK SMILES IDX 6 13 7 14 8 15 12 16 10 17 9 18 11 20 20 22 17 24
REMARK H PARENT 9 19 11 21 20 23 17 25
REMARK Flexibility Score: inf
ROOT
ATOM      1  C   UNL     1     -17.243  12.457 -34.542  1.00  0.00     0.138 A 
ATOM      2  C   UNL     1     -17.535  11.154 -34.104  1.00  0.00     0.100 A 
ATOM      3  C   UNL     1     -18.176  10.266 -34.969  1.00  0.00     0.197 A 
ATOM      4  O   UNL     1     -18.435   9.100 -34.567  1.00  0.00    -0.289 OA
ATOM      5  C   UNL     1     -18.524  10.689 -36.268  1.00  0.00     0.107 A 
ATOM      6  C   UNL     1     -19.174   9.853 -37.207  1.00  0.00     0.134 A 
ATOM      7  C   UNL     1     -19.492  10.352 -38.478  1.00  0.00     0.093 A 
ATOM      8  C   UNL     1     -19.172  11.669 -38.828  1.00  0.00     0.123 A 
ATOM      9  C   UNL     1     -18.532  12.498 -37.905  1.00  0.00     0.094 A 
ATOM     10  C   UNL     1     -18.205  12.020 -36.632  1.00  0.00     0.146 A 
ATOM     11  O   UNL     1     -17.594  12.828 -35.772  1.00  0.00    -0.456 OA
ENDROOT
BRANCH   1  12
ATOM     12  C   UNL     1     -16.564  13.444 -33.666  1.00  0.00     0.021 A 
ATOM     13  C   UNL     1     -16.415  14.791 -34.046  1.00  0.00     0.016 A 
ATOM     14  C   UNL     1     -15.778  15.700 -33.196  1.00  0.00     0.051 A 
ATOM     15  C   UNL     1     -15.287  15.284 -31.953  1.00  0.00     0.157 A 
ATOM     16  C   UNL     1     -16.079  13.037 -32.410  1.00  0.00     0.062 A 
ATOM     17  C   UNL     1     -15.440  13.945 -31.558  1.00  0.00     0.158 A 
BRANCH  15  18
ATOM     18  O   UNL     1     -14.652  16.194 -31.109  1.00  0.00    -0.504 OA
ATOM     19  H   UNL     1     -13.652  16.162 -30.952  1.00  0.00     0.293 HD
ENDBRANCH  15  18
BRANCH  17  20
ATOM     20  O   UNL     1     -14.967  13.500 -30.325  1.00  0.00    -0.504 OA
ATOM     21  H   UNL     1     -14.063  13.778 -29.962  1.00  0.00     0.293 HD
ENDBRANCH  17  20
ENDBRANCH   1  12
BRANCH   6  22
ATOM     22  O   UNL     1     -19.505   8.536 -36.886  1.00  0.00    -0.507 OA
ATOM     23  H   UNL     1     -18.861   7.770 -37.050  1.00  0.00     0.293 HD
ENDBRANCH   6  22
BRANCH   8  24
ATOM     24  O   UNL     1     -19.488  12.165 -40.090  1.00  0.00    -0.508 OA
ATOM     25  H   UNL     1     -20.349  12.673 -40.259  1.00  0.00     0.293 HD
ENDBRANCH   8  24
TORSDOF 5
ENDMDL
MODEL 3
REMARK VINA RESULT:    -7.007      3.073      5.048
REMARK INTER + INTRA:          -8.501
REMARK INTER:                  -8.208
REMARK INTRA:                  -0.293
REMARK UNBOUND:                -0.265
REMARK SMILES O=c1cc(-c2ccc(O)c(O)c2)oc2cc(O)cc(O)c12
REMARK SMILES IDX 4 1 3 2 2 3 1 4 21 5 19 6 18 7 16 8 15 9 14 10 13 11 5 12
REMARK SMILES IDX 6 13 7 14 8 15 12 16 10 17 9 18 11 20 20 22 17 24
REMARK H PARENT 9 19 11 21 20 23 17 25
REMARK Flexibility Score: inf
ROOT
ATOM      1  C   UNL     1     -23.335  15.516 -39.521  1.00  0.00     0.138 A 
ATOM      2  C   UNL     1     -24.050  15.965 -38.399  1.00  0.00     0.100 A 
ATOM      3  C   UNL     1     -24.470  17.295 -38.340  1.00  0.00     0.197 A 
ATOM      4  O   UNL     1     -25.109  17.690 -37.328  1.00  0.00    -0.289 OA
ATOM      5  C   UNL     1     -24.166  18.169 -39.403  1.00  0.00     0.107 A 
ATOM      6  C   UNL     1     -24.553  19.530 -39.423  1.00  0.00     0.134 A 
ATOM      7  C   UNL     1     -24.208  20.335 -40.518  1.00  0.00     0.093 A 
ATOM      8  C   UNL     1     -23.483  19.805 -41.591  1.00  0.00     0.123 A 
ATOM      9  C   UNL     1     -23.097  18.464 -41.576  1.00  0.00     0.094 A 
ATOM     10  C   UNL     1     -23.433  17.643 -40.495  1.00  0.00     0.146 A 
ATOM     11  O   UNL     1     -23.056  16.369 -40.505  1.00  0.00    -0.456 OA
ENDROOT
BRANCH   1  12
ATOM     12  C   UNL     1     -22.864  14.113 -39.640  1.00  0.00     0.021 A 
ATOM     13  C   UNL     1     -23.706  13.022 -39.352  1.00  0.00     0.016 A 
ATOM     14  C   UNL     1     -23.238  11.712 -39.482  1.00  0.00     0.051 A 
ATOM     15  C   UNL     1     -21.926  11.467 -39.905  1.00  0.00     0.157 A 
ATOM     16  C   UNL     1     -21.551  13.858 -40.078  1.00  0.00     0.062 A 
ATOM     17  C   UNL     1     -21.080  12.547 -40.207  1.00  0.00     0.158 A 
BRANCH  15  18
ATOM     18  O   UNL     1     -21.462  10.158 -40.032  1.00  0.00    -0.504 OA
ATOM     19  H   UNL     1     -22.079   9.364 -39.911  1.00  0.00     0.293 HD
ENDBRANCH  15  18
BRANCH  17  20
ATOM     20  O   UNL     1     -19.770  12.337 -40.636  1.00  0.00    -0.504 OA
ATOM     21  H   UNL     1     -19.082  11.870 -40.058  1.00  0.00     0.293 HD
ENDBRANCH  17  20
ENDBRANCH   1  12
BRANCH   6  22
ATOM     22  O   UNL     1     -25.277  20.085 -38.366  1.00  0.00    -0.507 OA
ATOM     23  H   UNL     1     -26.096  20.661 -38.526  1.00  0.00     0.293 HD
ENDBRANCH   6  22
BRANCH   8  24
ATOM     24  O   UNL     1     -23.138  20.605 -42.679  1.00  0.00    -0.508 OA
ATOM     25  H   UNL     1     -23.282  20.292 -43.632  1.00  0.00     0.293 HD
ENDBRANCH   8  24
TORSDOF 5
ENDMDL
MODEL 4
REMARK VINA RESULT:    -6.990      1.829      2.589
REMARK INTER + INTRA:          -8.481
REMARK INTER:                  -8.164
REMARK INTRA:                  -0.317
REMARK UNBOUND:                -0.265
REMARK SMILES O=c1cc(-c2ccc(O)c(O)c2)oc2cc(O)cc(O)c12
REMARK SMILES IDX 4 1 3 2 2 3 1 4 21 5 19 6 18 7 16 8 15 9 14 10 13 11 5 12
REMARK SMILES IDX 6 13 7 14 8 15 12 16 10 17 9 18 11 20 20 22 17 24
REMARK H PARENT 9 19 11 21 20 23 17 25
REMARK Flexibility Score: inf
ROOT
ATOM      1  C   UNL     1     -24.996  16.832 -37.013  1.00  0.00     0.138 A 
ATOM      2  C   UNL     1     -25.516  16.647 -38.305  1.00  0.00     0.100 A 
ATOM      3  C   UNL     1     -25.158  17.533 -39.323  1.00  0.00     0.197 A 
ATOM      4  O   UNL     1     -25.631  17.359 -40.478  1.00  0.00    -0.289 OA
ATOM      5  C   UNL     1     -24.282  18.600 -39.040  1.00  0.00     0.107 A 
ATOM      6  C   UNL     1     -23.868  19.542 -40.013  1.00  0.00     0.134 A 
ATOM      7  C   UNL     1     -22.999  20.580 -39.649  1.00  0.00     0.093 A 
ATOM      8  C   UNL     1     -22.536  20.694 -38.333  1.00  0.00     0.123 A 
ATOM      9  C   UNL     1     -22.943  19.769 -37.370  1.00  0.00     0.094 A 
ATOM     10  C   UNL     1     -23.808  18.726 -37.712  1.00  0.00     0.146 A 
ATOM     11  O   UNL     1     -24.180  17.857 -36.777  1.00  0.00    -0.456 OA
ENDROOT
BRANCH   1  12
ATOM     12  C   UNL     1     -25.343  15.924 -35.892  1.00  0.00     0.021 A 
ATOM     13  C   UNL     1     -25.976  14.685 -36.111  1.00  0.00     0.016 A 
ATOM     14  C   UNL     1     -26.282  13.846 -35.036  1.00  0.00     0.051 A 
ATOM     15  C   UNL     1     -25.955  14.223 -33.728  1.00  0.00     0.157 A 
ATOM     16  C   UNL     1     -25.005  16.288 -34.576  1.00  0.00     0.062 A 
ATOM     17  C   UNL     1     -25.312  15.450 -33.498  1.00  0.00     0.158 A 
BRANCH  15  18
ATOM     18  O   UNL     1     -26.263  13.383 -32.659  1.00  0.00    -0.504 OA
ATOM     19  H   UNL     1     -27.185  13.375 -32.239  1.00  0.00     0.293 HD
ENDBRANCH  15  18
BRANCH  17  20
ATOM     20  O   UNL     1     -24.969  15.852 -32.208  1.00  0.00    -0.504 OA
ATOM     21  H   UNL     1     -24.681  16.800 -31.998  1.00  0.00     0.293 HD
ENDBRANCH  17  20
ENDBRANCH   1  12
BRANCH   6  22
ATOM     22  O   UNL     1     -24.313  19.451 -41.333  1.00  0.00    -0.507 OA
ATOM     23  H   UNL     1     -25.298  19.375 -41.559  1.00  0.00     0.293 HD
ENDBRANCH   6  22
BRANCH   8  24
ATOM     24  O   UNL     1     -21.673  21.726 -37.971  1.00  0.00    -0.508 OA
ATOM     25  H   UNL     1     -21.921  22.699 -38.114  1.00  0.00     0.293 HD
ENDBRANCH   8  24
TORSDOF 5
ENDMDL
MODEL 5
REMARK VINA RESULT:    -6.949      2.398      7.310
REMARK INTER + INTRA:          -8.433
REMARK INTER:                  -8.140
REMARK INTRA:                  -0.293
REMARK UNBOUND:                -0.265
REMARK SMILES O=c1cc(-c2ccc(O)c(O)c2)oc2cc(O)cc(O)c12
REMARK SMILES IDX 4 1 3 2 2 3 1 4 21 5 19 6 18 7 16 8 15 9 14 10 13 11 5 12
REMARK SMILES IDX 6 13 7 14 8 15 12 16 10 17 9 18 11 20 20 22 17 24
REMARK H PARENT 9 19 11 21 20 23 17 25
REMARK Flexibility Score: inf
ROOT
ATOM      1  C   UNL     1     -23.790  18.709 -38.653  1.00  0.00     0.138 A 
ATOM      2  C   UNL     1     -25.152  18.517 -38.936  1.00  0.00     0.100 A 
ATOM      3  C   UNL     1     -25.916  17.694 -38.106  1.00  0.00     0.197 A 
ATOM      4  O   UNL     1     -27.138  17.527 -38.369  1.00  0.00    -0.289 OA
ATOM      5  C   UNL     1     -25.310  17.066 -37.000  1.00  0.00     0.107 A 
ATOM      6  C   UNL     1     -26.011  16.218 -36.110  1.00  0.00     0.134 A 
ATOM      7  C   UNL     1     -25.333  15.625 -35.035  1.00  0.00     0.093 A 
ATOM      8  C   UNL     1     -23.969  15.865 -34.834  1.00  0.00     0.123 A 
ATOM      9  C   UNL     1     -23.272  16.699 -35.710  1.00  0.00     0.094 A 
ATOM     10  C   UNL     1     -23.930  17.301 -36.787  1.00  0.00     0.146 A 
ATOM     11  O   UNL     1     -23.245  18.093 -37.606  1.00  0.00    -0.456 OA
ENDROOT
BRANCH   1  12
ATOM     12  C   UNL     1     -22.929  19.572 -39.500  1.00  0.00     0.021 A 
ATOM     13  C   UNL     1     -21.640  19.962 -39.089  1.00  0.00     0.016 A 
ATOM     14  C   UNL     1     -20.848  20.768 -39.912  1.00  0.00     0.051 A 
ATOM     15  C   UNL     1     -21.323  21.191 -41.159  1.00  0.00     0.157 A 
ATOM     16  C   UNL     1     -23.393  19.990 -40.761  1.00  0.00     0.062 A 
ATOM     17  C   UNL     1     -22.602  20.798 -41.585  1.00  0.00     0.158 A 
BRANCH  15  18
ATOM     18  O   UNL     1     -20.530  21.996 -41.976  1.00  0.00    -0.504 OA
ATOM     19  H   UNL     1     -20.369  21.767 -42.949  1.00  0.00     0.293 HD
ENDBRANCH  15  18
BRANCH  17  20
ATOM     20  O   UNL     1     -23.103  21.198 -42.823  1.00  0.00    -0.504 OA
ATOM     21  H   UNL     1     -23.077  20.593 -43.635  1.00  0.00     0.293 HD
ENDBRANCH  17  20
ENDBRANCH   1  12
BRANCH   6  22
ATOM     22  O   UNL     1     -27.372  15.962 -36.286  1.00  0.00    -0.507 OA
ATOM     23  H   UNL     1     -28.082  16.594 -35.935  1.00  0.00     0.293 HD
ENDBRANCH   6  22
BRANCH   8  24
ATOM     24  O   UNL     1     -23.294  15.276 -33.767  1.00  0.00    -0.508 OA
ATOM     25  H   UNL     1     -22.501  15.729 -33.327  1.00  0.00     0.293 HD
ENDBRANCH   8  24
TORSDOF 5
ENDMDL
MODEL 6
REMARK VINA RESULT:    -6.914      3.398      7.553
REMARK INTER + INTRA:          -8.393
REMARK INTER:                  -8.074
REMARK INTRA:                  -0.318
REMARK UNBOUND:                -0.265
REMARK SMILES O=c1cc(-c2ccc(O)c(O)c2)oc2cc(O)cc(O)c12
REMARK SMILES IDX 4 1 3 2 2 3 1 4 21 5 19 6 18 7 16 8 15 9 14 10 13 11 5 12
REMARK SMILES IDX 6 13 7 14 8 15 12 16 10 17 9 18 11 20 20 22 17 24
REMARK H PARENT 9 19 11 21 20 23 17 25
REMARK Flexibility Score: inf
ROOT
ATOM      1  C   UNL     1     -22.546  12.923 -37.206  1.00  0.00     0.138 A 
ATOM      2  C   UNL     1     -22.739  12.083 -36.096  1.00  0.00     0.100 A 
ATOM      3  C   UNL     1     -23.583  12.494 -35.063  1.00  0.00     0.197 A 
ATOM      4  O   UNL     1     -23.749  11.734 -34.071  1.00  0.00    -0.289 OA
ATOM      5  C   UNL     1     -24.227  13.745 -35.146  1.00  0.00     0.107 A 
ATOM      6  C   UNL     1     -25.098  14.236 -34.145  1.00  0.00     0.134 A 
ATOM      7  C   UNL     1     -25.696  15.495 -34.300  1.00  0.00     0.093 A 
ATOM      8  C   UNL     1     -25.440  16.270 -35.437  1.00  0.00     0.123 A 
ATOM      9  C   UNL     1     -24.580  15.791 -36.427  1.00  0.00     0.094 A 
ATOM     10  C   UNL     1     -23.975  14.537 -36.292  1.00  0.00     0.146 A 
ATOM     11  O   UNL     1     -23.162  14.102 -37.249  1.00  0.00    -0.456 OA
ENDROOT
BRANCH   1  12
ATOM     12  C   UNL     1     -21.660  12.539 -38.333  1.00  0.00     0.021 A 
ATOM     13  C   UNL     1     -20.932  11.334 -38.326  1.00  0.00     0.016 A 
ATOM     14  C   UNL     1     -20.113  10.995 -39.406  1.00  0.00     0.051 A 
ATOM     15  C   UNL     1     -20.011  11.847 -40.513  1.00  0.00     0.157 A 
ATOM     16  C   UNL     1     -21.563  13.383 -39.455  1.00  0.00     0.062 A 
ATOM     17  C   UNL     1     -20.742  13.045 -40.537  1.00  0.00     0.158 A 
BRANCH  15  18
ATOM     18  O   UNL     1     -19.191  11.505 -41.588  1.00  0.00    -0.504 OA
ATOM     19  H   UNL     1     -19.578  11.253 -42.490  1.00  0.00     0.293 HD
ENDBRANCH  15  18
BRANCH  17  20
ATOM     20  O   UNL     1     -20.666  13.913 -41.626  1.00  0.00    -0.504 OA
ATOM     21  H   UNL     1     -20.005  14.679 -41.660  1.00  0.00     0.293 HD
ENDBRANCH  17  20
ENDBRANCH   1  12
BRANCH   6  22
ATOM     22  O   UNL     1     -25.373  13.484 -33.001  1.00  0.00    -0.507 OA
ATOM     23  H   UNL     1     -24.876  12.624 -32.797  1.00  0.00     0.293 HD
ENDBRANCH   6  22
BRANCH   8  24
ATOM     24  O   UNL     1     -26.032  17.521 -35.592  1.00  0.00    -0.508 OA
ATOM     25  H   UNL     1     -25.974  18.030 -36.467  1.00  0.00     0.293 HD
ENDBRANCH   8  24
TORSDOF 5
ENDMDL
MODEL 7
REMARK VINA RESULT:    -6.876      3.562      5.827
REMARK INTER + INTRA:          -8.347
REMARK INTER:                  -8.077
REMARK INTRA:                  -0.270
REMARK UNBOUND:                -0.265
REMARK SMILES O=c1cc(-c2ccc(O)c(O)c2)oc2cc(O)cc(O)c12
REMARK SMILES IDX 4 1 3 2 2 3 1 4 21 5 19 6 18 7 16 8 15 9 14 10 13 11 5 12
REMARK SMILES IDX 6 13 7 14 8 15 12 16 10 17 9 18 11 20 20 22 17 24
REMARK H PARENT 9 19 11 21 20 23 17 25
REMARK Flexibility Score: inf
ROOT
ATOM      1  C   UNL     1     -21.951  14.671 -39.584  1.00  0.00     0.138 A 
ATOM      2  C   UNL     1     -21.748  15.623 -40.596  1.00  0.00     0.100 A 
ATOM      3  C   UNL     1     -22.675  16.653 -40.767  1.00  0.00     0.197 A 
ATOM      4  O   UNL     1     -22.484  17.501 -41.679  1.00  0.00    -0.289 OA
ATOM      5  C   UNL     1     -23.803  16.720 -39.925  1.00  0.00     0.107 A 
ATOM      6  C   UNL     1     -24.789  17.729 -40.030  1.00  0.00     0.134 A 
ATOM      7  C   UNL     1     -25.886  17.723 -39.156  1.00  0.00     0.093 A 
ATOM      8  C   UNL     1     -26.014  16.727 -38.181  1.00  0.00     0.123 A 
ATOM      9  C   UNL     1     -25.045  15.729 -38.074  1.00  0.00     0.094 A 
ATOM     10  C   UNL     1     -23.943  15.718 -38.935  1.00  0.00     0.146 A 
ATOM     11  O   UNL     1     -23.033  14.757 -38.812  1.00  0.00    -0.456 OA
ENDROOT
BRANCH   1  12
ATOM     12  C   UNL     1     -21.000  13.554 -39.356  1.00  0.00     0.021 A 
ATOM     13  C   UNL     1     -20.930  12.451 -40.228  1.00  0.00     0.016 A 
ATOM     14  C   UNL     1     -20.018  11.419 -39.993  1.00  0.00     0.051 A 
ATOM     15  C   UNL     1     -19.156  11.472 -38.891  1.00  0.00     0.157 A 
ATOM     16  C   UNL     1     -20.121  13.607 -38.259  1.00  0.00     0.062 A 
ATOM     17  C   UNL     1     -19.207  12.574 -38.021  1.00  0.00     0.158 A 
BRANCH  15  18
ATOM     18  O   UNL     1     -18.248  10.440 -38.660  1.00  0.00    -0.504 OA
ATOM     19  H   UNL     1     -18.488   9.642 -38.083  1.00  0.00     0.293 HD
ENDBRANCH  15  18
BRANCH  17  20
ATOM     20  O   UNL     1     -18.359  12.660 -36.918  1.00  0.00    -0.504 OA
ATOM     21  H   UNL     1     -17.817  13.492 -36.719  1.00  0.00     0.293 HD
ENDBRANCH  17  20
ENDBRANCH   1  12
BRANCH   6  22
ATOM     22  O   UNL     1     -24.686  18.735 -40.992  1.00  0.00    -0.507 OA
ATOM     23  H   UNL     1     -25.109  18.641 -41.909  1.00  0.00     0.293 HD
ENDBRANCH   6  22
BRANCH   8  24
ATOM     24  O   UNL     1     -27.104  16.720 -37.313  1.00  0.00    -0.508 OA
ATOM     25  H   UNL     1     -27.970  16.250 -37.554  1.00  0.00     0.293 HD
ENDBRANCH   8  24
TORSDOF 5
ENDMDL
MODEL 8
REMARK VINA RESULT:    -6.683      4.644      6.127
REMARK INTER + INTRA:          -8.121
REMARK INTER:                  -7.825
REMARK INTRA:                  -0.295
REMARK UNBOUND:                -0.265
REMARK SMILES O=c1cc(-c2ccc(O)c(O)c2)oc2cc(O)cc(O)c12
REMARK SMILES IDX 4 1 3 2 2 3 1 4 21 5 19 6 18 7 16 8 15 9 14 10 13 11 5 12
REMARK SMILES IDX 6 13 7 14 8 15 12 16 10 17 9 18 11 20 20 22 17 24
REMARK H PARENT 9 19 11 21 20 23 17 25
REMARK Flexibility Score: inf
ROOT
ATOM      1  C   UNL     1     -22.105  13.477 -36.582  1.00  0.00     0.138 A 
ATOM      2  C   UNL     1     -21.451  12.690 -35.619  1.00  0.00     0.100 A 
ATOM      3  C   UNL     1     -20.451  11.803 -36.021  1.00  0.00     0.197 A 
ATOM      4  O   UNL     1     -19.871  11.100 -35.150  1.00  0.00    -0.289 OA
ATOM      5  C   UNL     1     -20.114  11.707 -37.386  1.00  0.00     0.107 A 
ATOM      6  C   UNL     1     -19.113  10.835 -37.878  1.00  0.00     0.134 A 
ATOM      7  C   UNL     1     -18.841  10.794 -39.253  1.00  0.00     0.093 A 
ATOM      8  C   UNL     1     -19.550  11.608 -40.144  1.00  0.00     0.123 A 
ATOM      9  C   UNL     1     -20.539  12.469 -39.664  1.00  0.00     0.094 A 
ATOM     10  C   UNL     1     -20.824  12.526 -38.297  1.00  0.00     0.146 A 
ATOM     11  O   UNL     1     -21.769  13.355 -37.864  1.00  0.00    -0.456 OA
ENDROOT
BRANCH   1  12
ATOM     12  C   UNL     1     -23.175  14.436 -36.213  1.00  0.00     0.021 A 
ATOM     13  C   UNL     1     -23.881  15.168 -37.187  1.00  0.00     0.016 A 
ATOM     14  C   UNL     1     -24.891  16.058 -36.810  1.00  0.00     0.051 A 
ATOM     15  C   UNL     1     -25.219  16.228 -35.460  1.00  0.00     0.157 A 
ATOM     16  C   UNL     1     -23.520  14.603 -34.859  1.00  0.00     0.062 A 
ATOM     17  C   UNL     1     -24.530  15.495 -34.480  1.00  0.00     0.158 A 
BRANCH  15  18
ATOM     18  O   UNL     1     -26.226  17.118 -35.089  1.00  0.00    -0.504 OA
ATOM     19  H   UNL     1     -27.076  16.798 -34.640  1.00  0.00     0.293 HD
ENDBRANCH  15  18
BRANCH  17  20
ATOM     20  O   UNL     1     -24.835  15.637 -33.127  1.00  0.00    -0.504 OA
ATOM     21  H   UNL     1     -25.048  14.842 -32.537  1.00  0.00     0.293 HD
ENDBRANCH  17  20
ENDBRANCH   1  12
BRANCH   6  22
ATOM     22  O   UNL     1     -18.390  10.013 -37.012  1.00  0.00    -0.507 OA
ATOM     23  H   UNL     1     -18.793   9.659 -36.153  1.00  0.00     0.293 HD
ENDBRANCH   6  22
BRANCH   8  24
ATOM     24  O   UNL     1     -19.281  11.568 -41.510  1.00  0.00    -0.508 OA
ATOM     25  H   UNL     1     -19.834  12.098 -42.175  1.00  0.00     0.293 HD
ENDBRANCH   8  24
TORSDOF 5
ENDMDL
MODEL 9
REMARK VINA RESULT:    -6.674      2.115      7.149
REMARK INTER + INTRA:          -8.110
REMARK INTER:                  -7.845
REMARK INTRA:                  -0.265
REMARK UNBOUND:                -0.265
REMARK SMILES O=c1cc(-c2ccc(O)c(O)c2)oc2cc(O)cc(O)c12
REMARK SMILES IDX 4 1 3 2 2 3 1 4 21 5 19 6 18 7 16 8 15 9 14 10 13 11 5 12
REMARK SMILES IDX 6 13 7 14 8 15 12 16 10 17 9 18 11 20 20 22 17 24
REMARK H PARENT 9 19 11 21 20 23 17 25
REMARK Flexibility Score: inf
ROOT
ATOM      1  C   UNL     1     -23.291  17.926 -38.182  1.00  0.00     0.138 A 
ATOM      2  C   UNL     1     -22.245  17.864 -37.246  1.00  0.00     0.100 A 
ATOM      3  C   UNL     1     -22.369  17.035 -36.130  1.00  0.00     0.197 A 
ATOM      4  O   UNL     1     -21.426  16.988 -35.296  1.00  0.00    -0.289 OA
ATOM      5  C   UNL     1     -23.543  16.275 -35.956  1.00  0.00     0.107 A 
ATOM      6  C   UNL     1     -23.750  15.411 -34.854  1.00  0.00     0.134 A 
ATOM      7  C   UNL     1     -24.950  14.692 -34.750  1.00  0.00     0.093 A 
ATOM      8  C   UNL     1     -25.945  14.822 -35.726  1.00  0.00     0.123 A 
ATOM      9  C   UNL     1     -25.746  15.674 -36.813  1.00  0.00     0.094 A 
ATOM     10  C   UNL     1     -24.557  16.399 -36.936  1.00  0.00     0.146 A 
ATOM     11  O   UNL     1     -24.391  17.202 -37.982  1.00  0.00    -0.456 OA
ENDROOT
BRANCH   1  12
ATOM     12  C   UNL     1     -23.215  18.789 -39.386  1.00  0.00     0.021 A 
ATOM     13  C   UNL     1     -23.197  18.247 -40.686  1.00  0.00     0.016 A 
ATOM     14  C   UNL     1     -23.134  19.085 -41.802  1.00  0.00     0.051 A 
ATOM     15  C   UNL     1     -23.095  20.476 -41.643  1.00  0.00     0.157 A 
ATOM     16  C   UNL     1     -23.190  20.188 -39.236  1.00  0.00     0.062 A 
ATOM     17  C   UNL     1     -23.126  21.029 -40.353  1.00  0.00     0.158 A 
BRANCH  15  18
ATOM     18  O   UNL     1     -23.031  21.308 -42.760  1.00  0.00    -0.504 OA
ATOM     19  H   UNL     1     -22.690  20.972 -43.653  1.00  0.00     0.293 HD
ENDBRANCH  15  18
BRANCH  17  20
ATOM     20  O   UNL     1     -23.094  22.409 -40.160  1.00  0.00    -0.504 OA
ATOM     21  H   UNL     1     -23.195  22.827 -39.243  1.00  0.00     0.293 HD
ENDBRANCH  17  20
ENDBRANCH   1  12
BRANCH   6  22
ATOM     22  O   UNL     1     -22.775  15.261 -33.867  1.00  0.00    -0.507 OA
ATOM     23  H   UNL     1     -22.483  14.347 -33.540  1.00  0.00     0.293 HD
ENDBRANCH   6  22
BRANCH   8  24
ATOM     24  O   UNL     1     -27.137  14.109 -35.623  1.00  0.00    -0.508 OA
ATOM     25  H   UNL     1     -27.270  13.400 -34.911  1.00  0.00     0.293 HD
ENDBRANCH   8  24
TORSDOF 5
ENDMDL
