MODEL 1
REMARK VINA RESULT:    -3.794      0.000      0.000
REMARK INTER + INTRA:         -12.867
REMARK INTER:                 -10.004
REMARK INTRA:                  -2.862
REMARK UNBOUND:                -2.862
REMARK SMILES CCCCCCCCCCCCCCCCCCCCCCCCCCCCCC(=O)[O-]
REMARK SMILES IDX 16 1 17 2 18 3 19 4 20 5 21 6 22 7 23 8 24 9 25 10 26 11
REMARK SMILES IDX 27 12 28 13 29 14 30 15 31 16 32 17 15 18 14 19 13 20 12 21
REMARK SMILES IDX 11 22 10 23 9 24 8 25 7 26 6 27 5 28 4 29 3 30 2 31 1 32
REMARK H PARENT
REMARK Flexibility Score: inf
ROOT
ATOM      1  C   UNL     1      46.474  34.182 -12.797  1.00  0.00     0.000 C 
ENDROOT
BRANCH   1   2
ATOM      2  C   UNL     1      45.201  35.039 -12.915  1.00  0.00     0.000 C 
BRANCH   2   3
ATOM      3  C   UNL     1      45.172  36.212 -11.924  1.00  0.00     0.000 C 
BRANCH   3   4
ATOM      4  C   UNL     1      44.758  37.514 -12.627  1.00  0.00     0.000 C 
BRANCH   4   5
ATOM      5  C   UNL     1      43.296  37.500 -13.105  1.00  0.00     0.000 C 
BRANCH   5   6
ATOM      6  C   UNL     1      42.287  38.125 -12.125  1.00  0.00     0.000 C 
BRANCH   6   7
ATOM      7  C   UNL     1      41.827  37.145 -11.035  1.00  0.00     0.000 C 
BRANCH   7   8
ATOM      8  C   UNL     1      40.993  37.866  -9.966  1.00  0.00     0.000 C 
BRANCH   8   9
ATOM      9  C   UNL     1      41.661  37.851  -8.582  1.00  0.00     0.000 C 
BRANCH   9  10
ATOM     10  C   UNL     1      43.185  38.031  -8.657  1.00  0.00     0.000 C 
BRANCH  10  11
ATOM     11  C   UNL     1      43.825  37.909  -7.268  1.00  0.00     0.000 C 
BRANCH  11  12
ATOM     12  C   UNL     1      44.756  36.692  -7.141  1.00  0.00     0.000 C 
BRANCH  12  13
ATOM     13  C   UNL     1      44.547  35.633  -8.243  1.00  0.00     0.006 C 
BRANCH  13  14
ATOM     14  C   UNL     1      45.785  34.748  -8.441  1.00  0.00     0.053 C 
BRANCH  14  15
ATOM     15  C   UNL     1      45.564  33.397  -7.836  1.00  0.00     0.041 C 
ATOM     16  O   UNL     1      46.500  32.554  -7.809  1.00  0.00    -0.550 OA
ATOM     17  O   UNL     1      44.340  33.086  -7.258  1.00  0.00    -0.550 OA
ENDBRANCH  14  15
ENDBRANCH  13  14
ENDBRANCH  12  13
ENDBRANCH  11  12
ENDBRANCH  10  11
ENDBRANCH   9  10
ENDBRANCH   8   9
ENDBRANCH   7   8
ENDBRANCH   6   7
ENDBRANCH   5   6
ENDBRANCH   4   5
ENDBRANCH   3   4
ENDBRANCH   2   3
ENDBRANCH   1   2
BRANCH   1  18
ATOM     18  C   UNL     1      47.360  34.143 -14.056  1.00  0.00     0.000 C 
BRANCH  18  19
ATOM     19  C   UNL     1      48.731  34.807 -13.844  1.00  0.00     0.000 C 
BRANCH  19  20
ATOM     20  C   UNL     1      48.636  36.160 -13.116  1.00  0.00     0.000 C 
BRANCH  20  21
ATOM     21  C   UNL     1      48.113  37.331 -13.972  1.00  0.00     0.000 C 
BRANCH  21  22
ATOM     22  C   UNL     1      47.445  36.925 -15.300  1.00  0.00     0.000 C 
BRANCH  22  23
ATOM     23  C   UNL     1      47.307  38.061 -16.333  1.00  0.00     0.000 C 
BRANCH  23  24
ATOM     24  C   UNL     1      48.435  38.125 -17.382  1.00  0.00    -0.000 C 
BRANCH  24  25
ATOM     25  C   UNL     1      49.863  38.096 -16.805  1.00  0.00    -0.000 C 
BRANCH  25  26
ATOM     26  C   UNL     1      50.533  36.706 -16.783  1.00  0.00    -0.000 C 
BRANCH  26  27
ATOM     27  C   UNL     1      51.943  36.671 -16.166  1.00  0.00    -0.000 C 
BRANCH  27  28
ATOM     28  C   UNL     1      52.717  38.001 -16.235  1.00  0.00    -0.000 C 
BRANCH  28  29
ATOM     29  C   UNL     1      54.052  37.907 -17.003  1.00  0.00    -0.000 C 
BRANCH  29  30
ATOM     30  C   UNL     1      53.851  37.684 -18.510  1.00  0.00    -0.000 C 
BRANCH  30  31
ATOM     31  C   UNL     1      54.528  36.387 -18.968  1.00  0.00    -0.003 C 
ATOM     32  C   UNL     1      55.290  36.595 -20.273  1.00  0.00     0.004 C 
ENDBRANCH  30  31
ENDBRANCH  29  30
ENDBRANCH  28  29
ENDBRANCH  27  28
ENDBRANCH  26  27
ENDBRANCH  25  26
ENDBRANCH  24  25
ENDBRANCH  23  24
ENDBRANCH  22  23
ENDBRANCH  21  22
ENDBRANCH  20  21
ENDBRANCH  19  20
ENDBRANCH  18  19
ENDBRANCH   1  18
TORSDOF 28
ENDMDL
MODEL 2
REMARK VINA RESULT:    -3.791      1.433      3.411
REMARK INTER + INTRA:         -12.858
REMARK INTER:                  -8.824
REMARK INTRA:                  -4.035
REMARK UNBOUND:                -2.862
REMARK SMILES CCCCCCCCCCCCCCCCCCCCCCCCCCCCCC(=O)[O-]
REMARK SMILES IDX 16 1 17 2 18 3 19 4 20 5 21 6 22 7 23 8 24 9 25 10 26 11
REMARK SMILES IDX 27 12 28 13 29 14 30 15 31 16 32 17 15 18 14 19 13 20 12 21
REMARK SMILES IDX 11 22 10 23 9 24 8 25 7 26 6 27 5 28 4 29 3 30 2 31 1 32
REMARK H PARENT
REMARK Flexibility Score: inf
ROOT
ATOM      1  C   UNL     1      46.814  34.627 -12.326  1.00  0.00     0.000 C 
ENDROOT
BRANCH   1   2
ATOM      2  C   UNL     1      45.730  35.709 -12.168  1.00  0.00     0.000 C 
BRANCH   2   3
ATOM      3  C   UNL     1      46.282  37.043 -11.646  1.00  0.00     0.000 C 
BRANCH   3   4
ATOM      4  C   UNL     1      45.181  38.113 -11.600  1.00  0.00     0.000 C 
BRANCH   4   5
ATOM      5  C   UNL     1      44.021  37.822 -12.568  1.00  0.00     0.000 C 
BRANCH   5   6
ATOM      6  C   UNL     1      42.617  38.100 -12.001  1.00  0.00     0.000 C 
BRANCH   6   7
ATOM      7  C   UNL     1      42.238  37.153 -10.852  1.00  0.00     0.000 C 
BRANCH   7   8
ATOM      8  C   UNL     1      41.343  37.863  -9.827  1.00  0.00     0.000 C 
BRANCH   8   9
ATOM      9  C   UNL     1      42.015  38.010  -8.452  1.00  0.00     0.000 C 
BRANCH   9  10
ATOM     10  C   UNL     1      43.538  37.818  -8.513  1.00  0.00     0.000 C 
BRANCH  10  11
ATOM     11  C   UNL     1      44.103  37.450  -7.135  1.00  0.00     0.000 C 
BRANCH  11  12
ATOM     12  C   UNL     1      44.928  36.152  -7.152  1.00  0.00     0.000 C 
BRANCH  12  13
ATOM     13  C   UNL     1      45.388  35.729  -8.562  1.00  0.00     0.006 C 
BRANCH  13  14
ATOM     14  C   UNL     1      45.002  34.280  -8.889  1.00  0.00     0.053 C 
BRANCH  14  15
ATOM     15  C   UNL     1      45.268  33.390  -7.715  1.00  0.00     0.041 C 
ATOM     16  O   UNL     1      44.316  32.990  -6.994  1.00  0.00    -0.550 OA
ATOM     17  O   UNL     1      46.562  32.964  -7.445  1.00  0.00    -0.550 OA
ENDBRANCH  14  15
ENDBRANCH  13  14
ENDBRANCH  12  13
ENDBRANCH  11  12
ENDBRANCH  10  11
ENDBRANCH   9  10
ENDBRANCH   8   9
ENDBRANCH   7   8
ENDBRANCH   6   7
ENDBRANCH   5   6
ENDBRANCH   4   5
ENDBRANCH   3   4
ENDBRANCH   2   3
ENDBRANCH   1   2
BRANCH   1  18
ATOM     18  C   UNL     1      47.333  34.422 -13.761  1.00  0.00     0.000 C 
BRANCH  18  19
ATOM     19  C   UNL     1      48.668  35.138 -14.024  1.00  0.00     0.000 C 
BRANCH  19  20
ATOM     20  C   UNL     1      49.527  35.289 -12.756  1.00  0.00     0.000 C 
BRANCH  20  21
ATOM     21  C   UNL     1      49.994  36.726 -12.447  1.00  0.00     0.000 C 
BRANCH  21  22
ATOM     22  C   UNL     1      50.445  37.546 -13.671  1.00  0.00     0.000 C 
BRANCH  22  23
ATOM     23  C   UNL     1      51.871  38.125 -13.577  1.00  0.00     0.000 C 
BRANCH  23  24
ATOM     24  C   UNL     1      52.944  37.334 -14.353  1.00  0.00    -0.000 C 
BRANCH  24  25
ATOM     25  C   UNL     1      52.502  36.820 -15.736  1.00  0.00    -0.000 C 
BRANCH  25  26
ATOM     26  C   UNL     1      52.279  37.913 -16.801  1.00  0.00    -0.000 C 
BRANCH  26  27
ATOM     27  C   UNL     1      50.854  37.980 -17.380  1.00  0.00    -0.000 C 
BRANCH  27  28
ATOM     28  C   UNL     1      49.818  37.094 -16.661  1.00  0.00    -0.000 C 
BRANCH  28  29
ATOM     29  C   UNL     1      48.739  36.512 -17.598  1.00  0.00    -0.000 C 
BRANCH  29  30
ATOM     30  C   UNL     1      47.347  37.109 -17.336  1.00  0.00    -0.000 C 
BRANCH  30  31
ATOM     31  C   UNL     1      47.392  38.125 -16.189  1.00  0.00    -0.003 C 
ATOM     32  C   UNL     1      46.272  37.870 -15.184  1.00  0.00     0.004 C 
ENDBRANCH  30  31
ENDBRANCH  29  30
ENDBRANCH  28  29
ENDBRANCH  27  28
ENDBRANCH  26  27
ENDBRANCH  25  26
ENDBRANCH  24  25
ENDBRANCH  23  24
ENDBRANCH  22  23
ENDBRANCH  21  22
ENDBRANCH  20  21
ENDBRANCH  19  20
ENDBRANCH  18  19
ENDBRANCH   1  18
TORSDOF 28
ENDMDL
MODEL 3
REMARK VINA RESULT:    -3.390      1.197      2.076
REMARK INTER + INTRA:         -11.802
REMARK INTER:                  -9.781
REMARK INTRA:                  -2.020
REMARK UNBOUND:                -2.862
REMARK SMILES CCCCCCCCCCCCCCCCCCCCCCCCCCCCCC(=O)[O-]
REMARK SMILES IDX 16 1 17 2 18 3 19 4 20 5 21 6 22 7 23 8 24 9 25 10 26 11
REMARK SMILES IDX 27 12 28 13 29 14 30 15 31 16 32 17 15 18 14 19 13 20 12 21
REMARK SMILES IDX 11 22 10 23 9 24 8 25 7 26 6 27 5 28 4 29 3 30 2 31 1 32
REMARK H PARENT
REMARK Flexibility Score: inf
ROOT
ATOM      1  C   UNL     1      47.446  35.634 -14.369  1.00  0.00     0.000 C 
ENDROOT
BRANCH   1   2
ATOM      2  C   UNL     1      46.712  34.595 -13.502  1.00  0.00     0.000 C 
BRANCH   2   3
ATOM      3  C   UNL     1      45.184  34.735 -13.560  1.00  0.00     0.000 C 
BRANCH   3   4
ATOM      4  C   UNL     1      44.674  35.650 -12.437  1.00  0.00     0.000 C 
BRANCH   4   5
ATOM      5  C   UNL     1      43.969  36.912 -12.964  1.00  0.00     0.000 C 
BRANCH   5   6
ATOM      6  C   UNL     1      42.473  37.013 -12.620  1.00  0.00     0.000 C 
BRANCH   6   7
ATOM      7  C   UNL     1      42.166  38.125 -11.606  1.00  0.00     0.000 C 
BRANCH   7   8
ATOM      8  C   UNL     1      40.944  37.765 -10.749  1.00  0.00     0.000 C 
BRANCH   8   9
ATOM      9  C   UNL     1      41.284  37.635  -9.255  1.00  0.00     0.000 C 
BRANCH   9  10
ATOM     10  C   UNL     1      42.486  36.713  -8.998  1.00  0.00     0.000 C 
BRANCH  10  11
ATOM     11  C   UNL     1      43.652  37.487  -8.371  1.00  0.00     0.000 C 
BRANCH  11  12
ATOM     12  C   UNL     1      45.027  36.909  -8.746  1.00  0.00     0.000 C 
BRANCH  12  13
ATOM     13  C   UNL     1      45.045  35.371  -8.850  1.00  0.00     0.006 C 
BRANCH  13  14
ATOM     14  C   UNL     1      45.542  34.707  -7.558  1.00  0.00     0.053 C 
BRANCH  14  15
ATOM     15  C   UNL     1      45.906  33.277  -7.811  1.00  0.00     0.041 C 
ATOM     16  O   UNL     1      47.110  32.909  -7.751  1.00  0.00    -0.550 OA
ATOM     17  O   UNL     1      44.912  32.341  -8.067  1.00  0.00    -0.550 OA
ENDBRANCH  14  15
ENDBRANCH  13  14
ENDBRANCH  12  13
ENDBRANCH  11  12
ENDBRANCH  10  11
ENDBRANCH   9  10
ENDBRANCH   8   9
ENDBRANCH   7   8
ENDBRANCH   6   7
ENDBRANCH   5   6
ENDBRANCH   4   5
ENDBRANCH   3   4
ENDBRANCH   2   3
ENDBRANCH   1   2
BRANCH   1  18
ATOM     18  C   UNL     1      47.510  37.055 -13.778  1.00  0.00     0.000 C 
BRANCH  18  19
ATOM     19  C   UNL     1      46.947  38.125 -14.729  1.00  0.00     0.000 C 
BRANCH  19  20
ATOM     20  C   UNL     1      47.563  38.058 -16.139  1.00  0.00     0.000 C 
BRANCH  20  21
ATOM     21  C   UNL     1      47.212  36.794 -16.949  1.00  0.00     0.000 C 
BRANCH  21  22
ATOM     22  C   UNL     1      48.420  36.016 -17.506  1.00  0.00     0.000 C 
BRANCH  22  23
ATOM     23  C   UNL     1      49.793  36.660 -17.229  1.00  0.00     0.000 C 
BRANCH  23  24
ATOM     24  C   UNL     1      50.703  35.862 -16.273  1.00  0.00    -0.000 C 
BRANCH  24  25
ATOM     25  C   UNL     1      50.673  36.329 -14.805  1.00  0.00    -0.000 C 
BRANCH  25  26
ATOM     26  C   UNL     1      50.980  37.824 -14.586  1.00  0.00    -0.000 C 
BRANCH  26  27
ATOM     27  C   UNL     1      52.337  38.123 -13.923  1.00  0.00    -0.000 C 
BRANCH  27  28
ATOM     28  C   UNL     1      53.567  37.868 -14.816  1.00  0.00    -0.000 C 
BRANCH  28  29
ATOM     29  C   UNL     1      53.260  37.919 -16.327  1.00  0.00    -0.000 C 
BRANCH  29  30
ATOM     30  C   UNL     1      54.529  38.067 -17.181  1.00  0.00    -0.000 C 
BRANCH  30  31
ATOM     31  C   UNL     1      54.194  38.023 -18.676  1.00  0.00    -0.003 C 
ATOM     32  C   UNL     1      55.266  37.271 -19.459  1.00  0.00     0.004 C 
ENDBRANCH  30  31
ENDBRANCH  29  30
ENDBRANCH  28  29
ENDBRANCH  27  28
ENDBRANCH  26  27
ENDBRANCH  25  26
ENDBRANCH  24  25
ENDBRANCH  23  24
ENDBRANCH  22  23
ENDBRANCH  21  22
ENDBRANCH  20  21
ENDBRANCH  19  20
ENDBRANCH  18  19
ENDBRANCH   1  18
TORSDOF 28
ENDMDL
MODEL 4
REMARK VINA RESULT:    -3.240      1.562      3.834
REMARK INTER + INTRA:         -11.405
REMARK INTER:                  -8.139
REMARK INTRA:                  -3.266
REMARK UNBOUND:                -2.862
REMARK SMILES CCCCCCCCCCCCCCCCCCCCCCCCCCCCCC(=O)[O-]
REMARK SMILES IDX 16 1 17 2 18 3 19 4 20 5 21 6 22 7 23 8 24 9 25 10 26 11
REMARK SMILES IDX 27 12 28 13 29 14 30 15 31 16 32 17 15 18 14 19 13 20 12 21
REMARK SMILES IDX 11 22 10 23 9 24 8 25 7 26 6 27 5 28 4 29 3 30 2 31 1 32
REMARK H PARENT
REMARK Flexibility Score: inf
ROOT
ATOM      1  C   UNL     1      48.661  37.765 -16.557  1.00  0.00     0.000 C 
ENDROOT
BRANCH   1   2
ATOM      2  C   UNL     1      47.693  37.674 -15.364  1.00  0.00     0.000 C 
BRANCH   2   3
ATOM      3  C   UNL     1      46.218  37.794 -15.774  1.00  0.00     0.000 C 
BRANCH   3   4
ATOM      4  C   UNL     1      45.333  38.100 -14.557  1.00  0.00     0.000 C 
BRANCH   4   5
ATOM      5  C   UNL     1      44.416  36.926 -14.171  1.00  0.00     0.000 C 
BRANCH   5   6
ATOM      6  C   UNL     1      44.078  36.832 -12.672  1.00  0.00     0.000 C 
BRANCH   6   7
ATOM      7  C   UNL     1      43.202  37.995 -12.182  1.00  0.00     0.000 C 
BRANCH   7   8
ATOM      8  C   UNL     1      41.784  37.511 -11.849  1.00  0.00     0.000 C 
BRANCH   8   9
ATOM      9  C   UNL     1      41.236  38.125 -10.550  1.00  0.00     0.000 C 
BRANCH   9  10
ATOM     10  C   UNL     1      41.248  37.135  -9.376  1.00  0.00     0.000 C 
BRANCH  10  11
ATOM     11  C   UNL     1      42.517  37.300  -8.528  1.00  0.00     0.000 C 
BRANCH  11  12
ATOM     12  C   UNL     1      43.718  36.520  -9.088  1.00  0.00     0.000 C 
BRANCH  12  13
ATOM     13  C   UNL     1      43.883  35.114  -8.475  1.00  0.00     0.006 C 
BRANCH  13  14
ATOM     14  C   UNL     1      45.230  34.947  -7.759  1.00  0.00     0.053 C 
BRANCH  14  15
ATOM     15  C   UNL     1      45.706  33.532  -7.862  1.00  0.00     0.041 C 
ATOM     16  O   UNL     1      46.906  33.246  -7.605  1.00  0.00    -0.550 OA
ATOM     17  O   UNL     1      44.814  32.521  -8.197  1.00  0.00    -0.550 OA
ENDBRANCH  14  15
ENDBRANCH  13  14
ENDBRANCH  12  13
ENDBRANCH  11  12
ENDBRANCH  10  11
ENDBRANCH   9  10
ENDBRANCH   8   9
ENDBRANCH   7   8
ENDBRANCH   6   7
ENDBRANCH   5   6
ENDBRANCH   4   5
ENDBRANCH   3   4
ENDBRANCH   2   3
ENDBRANCH   1   2
BRANCH   1  18
ATOM     18  C   UNL     1      49.113  36.413 -17.142  1.00  0.00     0.000 C 
BRANCH  18  19
ATOM     19  C   UNL     1      48.132  35.270 -16.834  1.00  0.00     0.000 C 
BRANCH  19  20
ATOM     20  C   UNL     1      48.717  34.221 -15.871  1.00  0.00     0.000 C 
BRANCH  20  21
ATOM     21  C   UNL     1      48.278  34.363 -14.400  1.00  0.00     0.000 C 
BRANCH  21  22
ATOM     22  C   UNL     1      46.792  34.057 -14.127  1.00  0.00     0.000 C 
BRANCH  22  23
ATOM     23  C   UNL     1      46.333  34.301 -12.676  1.00  0.00     0.000 C 
BRANCH  23  24
ATOM     24  C   UNL     1      47.363  35.022 -11.782  1.00  0.00    -0.000 C 
BRANCH  24  25
ATOM     25  C   UNL     1      46.807  36.214 -10.980  1.00  0.00    -0.000 C 
BRANCH  25  26
ATOM     26  C   UNL     1      47.655  37.501 -11.045  1.00  0.00    -0.000 C 
BRANCH  26  27
ATOM     27  C   UNL     1      49.053  37.330 -11.668  1.00  0.00    -0.000 C 
BRANCH  27  28
ATOM     28  C   UNL     1      49.257  38.052 -13.014  1.00  0.00    -0.000 C 
BRANCH  28  29
ATOM     29  C   UNL     1      50.729  38.104 -13.477  1.00  0.00    -0.000 C 
BRANCH  29  30
ATOM     30  C   UNL     1      51.079  36.973 -14.456  1.00  0.00    -0.000 C 
BRANCH  30  31
ATOM     31  C   UNL     1      52.507  37.132 -14.990  1.00  0.00    -0.003 C 
ATOM     32  C   UNL     1      52.520  37.215 -16.514  1.00  0.00     0.004 C 
ENDBRANCH  30  31
ENDBRANCH  29  30
ENDBRANCH  28  29
ENDBRANCH  27  28
ENDBRANCH  26  27
ENDBRANCH  25  26
ENDBRANCH  24  25
ENDBRANCH  23  24
ENDBRANCH  22  23
ENDBRANCH  21  22
ENDBRANCH  20  21
ENDBRANCH  19  20
ENDBRANCH  18  19
ENDBRANCH   1  18
TORSDOF 28
ENDMDL
MODEL 5
REMARK VINA RESULT:    -3.195      1.637      4.298
REMARK INTER + INTRA:         -11.286
REMARK INTER:                 -10.301
REMARK INTRA:                  -0.985
REMARK UNBOUND:                -2.862
REMARK SMILES CCCCCCCCCCCCCCCCCCCCCCCCCCCCCC(=O)[O-]
REMARK SMILES IDX 16 1 17 2 18 3 19 4 20 5 21 6 22 7 23 8 24 9 25 10 26 11
REMARK SMILES IDX 27 12 28 13 29 14 30 15 31 16 32 17 15 18 14 19 13 20 12 21
REMARK SMILES IDX 11 22 10 23 9 24 8 25 7 26 6 27 5 28 4 29 3 30 2 31 1 32
REMARK H PARENT
REMARK Flexibility Score: inf
ROOT
ATOM      1  C   UNL     1      48.364  35.716 -12.608  1.00  0.00     0.000 C 
ENDROOT
BRANCH   1   2
ATOM      2  C   UNL     1      47.756  35.687 -11.194  1.00  0.00     0.000 C 
BRANCH   2   3
ATOM      3  C   UNL     1      47.795  37.053 -10.493  1.00  0.00     0.000 C 
BRANCH   3   4
ATOM      4  C   UNL     1      47.090  38.124 -11.339  1.00  0.00     0.000 C 
BRANCH   4   5
ATOM      5  C   UNL     1      45.564  37.934 -11.397  1.00  0.00     0.000 C 
BRANCH   5   6
ATOM      6  C   UNL     1      45.031  37.364 -12.723  1.00  0.00     0.000 C 
BRANCH   6   7
ATOM      7  C   UNL     1      43.527  37.053 -12.678  1.00  0.00     0.000 C 
BRANCH   7   8
ATOM      8  C   UNL     1      42.768  38.125 -11.883  1.00  0.00     0.000 C 
BRANCH   8   9
ATOM      9  C   UNL     1      41.516  37.571 -11.183  1.00  0.00     0.000 C 
BRANCH   9  10
ATOM     10  C   UNL     1      41.463  37.932  -9.691  1.00  0.00     0.000 C 
BRANCH  10  11
ATOM     11  C   UNL     1      42.606  37.260  -8.920  1.00  0.00     0.000 C 
BRANCH  11  12
ATOM     12  C   UNL     1      43.130  35.989  -9.609  1.00  0.00     0.000 C 
BRANCH  12  13
ATOM     13  C   UNL     1      43.755  34.968  -8.636  1.00  0.00     0.006 C 
BRANCH  13  14
ATOM     14  C   UNL     1      45.153  34.521  -9.082  1.00  0.00     0.053 C 
BRANCH  14  15
ATOM     15  C   UNL     1      45.746  33.580  -8.080  1.00  0.00     0.041 C 
ATOM     16  O   UNL     1      46.996  33.448  -7.997  1.00  0.00    -0.550 OA
ATOM     17  O   UNL     1      44.920  32.884  -7.206  1.00  0.00    -0.550 OA
ENDBRANCH  14  15
ENDBRANCH  13  14
ENDBRANCH  12  13
ENDBRANCH  11  12
ENDBRANCH  10  11
ENDBRANCH   9  10
ENDBRANCH   8   9
ENDBRANCH   7   8
ENDBRANCH   6   7
ENDBRANCH   5   6
ENDBRANCH   4   5
ENDBRANCH   3   4
ENDBRANCH   2   3
ENDBRANCH   1   2
BRANCH   1  18
ATOM     18  C   UNL     1      49.871  36.024 -12.669  1.00  0.00     0.000 C 
BRANCH  18  19
ATOM     19  C   UNL     1      50.230  37.047 -13.760  1.00  0.00     0.000 C 
BRANCH  19  20
ATOM     20  C   UNL     1      51.413  37.951 -13.369  1.00  0.00     0.000 C 
BRANCH  20  21
ATOM     21  C   UNL     1      52.578  37.982 -14.380  1.00  0.00     0.000 C 
BRANCH  21  22
ATOM     22  C   UNL     1      52.748  36.705 -15.224  1.00  0.00     0.000 C 
BRANCH  22  23
ATOM     23  C   UNL     1      52.095  36.755 -16.619  1.00  0.00     0.000 C 
BRANCH  23  24
ATOM     24  C   UNL     1      50.553  36.726 -16.616  1.00  0.00    -0.000 C 
BRANCH  24  25
ATOM     25  C   UNL     1      49.876  38.106 -16.723  1.00  0.00    -0.000 C 
BRANCH  25  26
ATOM     26  C   UNL     1      48.548  38.125 -17.507  1.00  0.00    -0.000 C 
BRANCH  26  27
ATOM     27  C   UNL     1      47.350  37.489 -16.778  1.00  0.00    -0.000 C 
BRANCH  27  28
ATOM     28  C   UNL     1      46.909  36.118 -17.327  1.00  0.00    -0.000 C 
BRANCH  28  29
ATOM     29  C   UNL     1      47.894  34.973 -17.007  1.00  0.00    -0.000 C 
BRANCH  29  30
ATOM     30  C   UNL     1      47.680  34.386 -15.603  1.00  0.00    -0.000 C 
BRANCH  30  31
ATOM     31  C   UNL     1      46.347  34.854 -15.009  1.00  0.00    -0.003 C 
ATOM     32  C   UNL     1      46.101  34.222 -13.642  1.00  0.00     0.004 C 
ENDBRANCH  30  31
ENDBRANCH  29  30
ENDBRANCH  28  29
ENDBRANCH  27  28
ENDBRANCH  26  27
ENDBRANCH  25  26
ENDBRANCH  24  25
ENDBRANCH  23  24
ENDBRANCH  22  23
ENDBRANCH  21  22
ENDBRANCH  20  21
ENDBRANCH  19  20
ENDBRANCH  18  19
ENDBRANCH   1  18
TORSDOF 28
ENDMDL
MODEL 6
REMARK VINA RESULT:    -3.177      1.933      2.762
REMARK INTER + INTRA:         -11.239
REMARK INTER:                  -8.729
REMARK INTRA:                  -2.510
REMARK UNBOUND:                -2.862
REMARK SMILES CCCCCCCCCCCCCCCCCCCCCCCCCCCCCC(=O)[O-]
REMARK SMILES IDX 16 1 17 2 18 3 19 4 20 5 21 6 22 7 23 8 24 9 25 10 26 11
REMARK SMILES IDX 27 12 28 13 29 14 30 15 31 16 32 17 15 18 14 19 13 20 12 21
REMARK SMILES IDX 11 22 10 23 9 24 8 25 7 26 6 27 5 28 4 29 3 30 2 31 1 32
REMARK H PARENT
REMARK Flexibility Score: inf
ROOT
ATOM      1  C   UNL     1      46.405  34.503 -13.890  1.00  0.00     0.000 C 
ENDROOT
BRANCH   1   2
ATOM      2  C   UNL     1      45.884  35.879 -13.435  1.00  0.00     0.000 C 
BRANCH   2   3
ATOM      3  C   UNL     1      44.359  35.919 -13.265  1.00  0.00     0.000 C 
BRANCH   3   4
ATOM      4  C   UNL     1      43.812  37.328 -13.542  1.00  0.00     0.000 C 
BRANCH   4   5
ATOM      5  C   UNL     1      43.443  38.091 -12.257  1.00  0.00     0.000 C 
BRANCH   5   6
ATOM      6  C   UNL     1      44.466  37.970 -11.114  1.00  0.00     0.000 C 
BRANCH   6   7
ATOM      7  C   UNL     1      43.807  37.906  -9.727  1.00  0.00     0.000 C 
BRANCH   7   8
ATOM      8  C   UNL     1      42.663  36.882  -9.710  1.00  0.00     0.000 C 
BRANCH   8   9
ATOM      9  C   UNL     1      43.100  35.513  -9.162  1.00  0.00     0.000 C 
BRANCH   9  10
ATOM     10  C   UNL     1      44.615  35.428  -8.919  1.00  0.00     0.000 C 
BRANCH  10  11
ATOM     11  C   UNL     1      44.926  34.625  -7.649  1.00  0.00     0.000 C 
BRANCH  11  12
ATOM     12  C   UNL     1      46.239  33.831  -7.748  1.00  0.00     0.000 C 
BRANCH  12  13
ATOM     13  C   UNL     1      46.982  34.026  -9.086  1.00  0.00     0.006 C 
BRANCH  13  14
ATOM     14  C   UNL     1      48.083  35.091  -8.989  1.00  0.00     0.053 C 
BRANCH  14  15
ATOM     15  C   UNL     1      48.119  35.921 -10.234  1.00  0.00     0.041 C 
ATOM     16  O   UNL     1      48.926  35.642 -11.160  1.00  0.00    -0.550 OA
ATOM     17  O   UNL     1      47.228  36.975 -10.392  1.00  0.00    -0.550 OA
ENDBRANCH  14  15
ENDBRANCH  13  14
ENDBRANCH  12  13
ENDBRANCH  11  12
ENDBRANCH  10  11
ENDBRANCH   9  10
ENDBRANCH   8   9
ENDBRANCH   7   8
ENDBRANCH   6   7
ENDBRANCH   5   6
ENDBRANCH   4   5
ENDBRANCH   3   4
ENDBRANCH   2   3
ENDBRANCH   1   2
BRANCH   1  18
ATOM     18  C   UNL     1      47.466  34.538 -15.005  1.00  0.00     0.000 C 
BRANCH  18  19
ATOM     19  C   UNL     1      46.959  35.207 -16.294  1.00  0.00     0.000 C 
BRANCH  19  20
ATOM     20  C   UNL     1      48.099  35.744 -17.178  1.00  0.00     0.000 C 
BRANCH  20  21
ATOM     21  C   UNL     1      48.933  36.882 -16.556  1.00  0.00     0.000 C 
BRANCH  21  22
ATOM     22  C   UNL     1      48.176  37.779 -15.556  1.00  0.00     0.000 C 
BRANCH  22  23
ATOM     23  C   UNL     1      48.867  37.958 -14.190  1.00  0.00     0.000 C 
BRANCH  23  24
ATOM     24  C   UNL     1      50.072  37.027 -13.945  1.00  0.00    -0.000 C 
BRANCH  24  25
ATOM     25  C   UNL     1      51.446  37.724 -13.963  1.00  0.00    -0.000 C 
BRANCH  25  26
ATOM     26  C   UNL     1      51.960  38.125 -15.361  1.00  0.00    -0.000 C 
BRANCH  26  27
ATOM     27  C   UNL     1      52.799  37.052 -16.080  1.00  0.00    -0.000 C 
BRANCH  27  28
ATOM     28  C   UNL     1      54.105  37.568 -16.716  1.00  0.00    -0.000 C 
BRANCH  28  29
ATOM     29  C   UNL     1      54.070  37.617 -18.258  1.00  0.00    -0.000 C 
BRANCH  29  30
ATOM     30  C   UNL     1      55.390  38.122 -18.862  1.00  0.00    -0.000 C 
BRANCH  30  31
ATOM     31  C   UNL     1      56.035  37.049 -19.746  1.00  0.00    -0.003 C 
ATOM     32  C   UNL     1      54.993  36.060 -20.261  1.00  0.00     0.004 C 
ENDBRANCH  30  31
ENDBRANCH  29  30
ENDBRANCH  28  29
ENDBRANCH  27  28
ENDBRANCH  26  27
ENDBRANCH  25  26
ENDBRANCH  24  25
ENDBRANCH  23  24
ENDBRANCH  22  23
ENDBRANCH  21  22
ENDBRANCH  20  21
ENDBRANCH  19  20
ENDBRANCH  18  19
ENDBRANCH   1  18
TORSDOF 28
ENDMDL
MODEL 7
REMARK VINA RESULT:    -3.151      2.084      4.033
REMARK INTER + INTRA:         -11.171
REMARK INTER:                  -8.268
REMARK INTRA:                  -2.904
REMARK UNBOUND:                -2.862
REMARK SMILES CCCCCCCCCCCCCCCCCCCCCCCCCCCCCC(=O)[O-]
REMARK SMILES IDX 16 1 17 2 18 3 19 4 20 5 21 6 22 7 23 8 24 9 25 10 26 11
REMARK SMILES IDX 27 12 28 13 29 14 30 15 31 16 32 17 15 18 14 19 13 20 12 21
REMARK SMILES IDX 11 22 10 23 9 24 8 25 7 26 6 27 5 28 4 29 3 30 2 31 1 32
REMARK H PARENT
REMARK Flexibility Score: inf
ROOT
ATOM      1  C   UNL     1      44.086  36.083 -13.567  1.00  0.00     0.000 C 
ENDROOT
BRANCH   1   2
ATOM      2  C   UNL     1      42.956  36.265 -12.537  1.00  0.00     0.000 C 
BRANCH   2   3
ATOM      3  C   UNL     1      42.771  37.725 -12.098  1.00  0.00     0.000 C 
BRANCH   3   4
ATOM      4  C   UNL     1      41.855  37.817 -10.869  1.00  0.00     0.000 C 
BRANCH   4   5
ATOM      5  C   UNL     1      42.632  37.999  -9.553  1.00  0.00     0.000 C 
BRANCH   5   6
ATOM      6  C   UNL     1      44.158  38.123  -9.712  1.00  0.00     0.000 C 
BRANCH   6   7
ATOM      7  C   UNL     1      44.935  37.440  -8.577  1.00  0.00     0.000 C 
BRANCH   7   8
ATOM      8  C   UNL     1      44.108  36.309  -7.949  1.00  0.00     0.000 C 
BRANCH   8   9
ATOM      9  C   UNL     1      43.725  35.218  -8.963  1.00  0.00     0.000 C 
BRANCH   9  10
ATOM     10  C   UNL     1      43.749  33.808  -8.353  1.00  0.00     0.000 C 
BRANCH  10  11
ATOM     11  C   UNL     1      44.670  33.752  -7.127  1.00  0.00     0.000 C 
BRANCH  11  12
ATOM     12  C   UNL     1      45.880  32.825  -7.328  1.00  0.00     0.000 C 
BRANCH  12  13
ATOM     13  C   UNL     1      46.703  33.145  -8.593  1.00  0.00     0.006 C 
BRANCH  13  14
ATOM     14  C   UNL     1      47.391  34.514  -8.509  1.00  0.00     0.053 C 
BRANCH  14  15
ATOM     15  C   UNL     1      47.490  35.134  -9.868  1.00  0.00     0.041 C 
ATOM     16  O   UNL     1      48.512  35.796 -10.190  1.00  0.00    -0.550 OA
ATOM     17  O   UNL     1      46.473  34.942 -10.795  1.00  0.00    -0.550 OA
ENDBRANCH  14  15
ENDBRANCH  13  14
ENDBRANCH  12  13
ENDBRANCH  11  12
ENDBRANCH  10  11
ENDBRANCH   9  10
ENDBRANCH   8   9
ENDBRANCH   7   8
ENDBRANCH   6   7
ENDBRANCH   5   6
ENDBRANCH   4   5
ENDBRANCH   3   4
ENDBRANCH   2   3
ENDBRANCH   1   2
BRANCH   1  18
ATOM     18  C   UNL     1      45.439  36.704 -13.175  1.00  0.00     0.000 C 
BRANCH  18  19
ATOM     19  C   UNL     1      45.723  38.029 -13.901  1.00  0.00     0.000 C 
BRANCH  19  20
ATOM     20  C   UNL     1      47.161  38.121 -14.442  1.00  0.00     0.000 C 
BRANCH  20  21
ATOM     21  C   UNL     1      48.270  38.056 -13.373  1.00  0.00     0.000 C 
BRANCH  21  22
ATOM     22  C   UNL     1      49.017  36.711 -13.283  1.00  0.00     0.000 C 
BRANCH  22  23
ATOM     23  C   UNL     1      50.550  36.824 -13.165  1.00  0.00     0.000 C 
BRANCH  23  24
ATOM     24  C   UNL     1      51.153  38.111 -13.764  1.00  0.00    -0.000 C 
BRANCH  24  25
ATOM     25  C   UNL     1      51.515  38.026 -15.259  1.00  0.00    -0.000 C 
BRANCH  25  26
ATOM     26  C   UNL     1      52.278  36.752 -15.677  1.00  0.00    -0.000 C 
BRANCH  26  27
ATOM     27  C   UNL     1      52.166  36.383 -17.168  1.00  0.00    -0.000 C 
BRANCH  27  28
ATOM     28  C   UNL     1      50.787  35.849 -17.603  1.00  0.00    -0.000 C 
BRANCH  28  29
ATOM     29  C   UNL     1      50.052  35.053 -16.503  1.00  0.00    -0.000 C 
BRANCH  29  30
ATOM     30  C   UNL     1      48.574  34.808 -16.842  1.00  0.00    -0.000 C 
BRANCH  30  31
ATOM     31  C   UNL     1      47.719  36.031 -16.489  1.00  0.00    -0.003 C 
ATOM     32  C   UNL     1      46.980  36.558 -17.715  1.00  0.00     0.004 C 
ENDBRANCH  30  31
ENDBRANCH  29  30
ENDBRANCH  28  29
ENDBRANCH  27  28
ENDBRANCH  26  27
ENDBRANCH  25  26
ENDBRANCH  24  25
ENDBRANCH  23  24
ENDBRANCH  22  23
ENDBRANCH  21  22
ENDBRANCH  20  21
ENDBRANCH  19  20
ENDBRANCH  18  19
ENDBRANCH   1  18
TORSDOF 28
ENDMDL
MODEL 8
REMARK VINA RESULT:    -2.982      1.533      3.754
REMARK INTER + INTRA:         -10.726
REMARK INTER:                  -7.865
REMARK INTRA:                  -2.861
REMARK UNBOUND:                -2.862
REMARK SMILES CCCCCCCCCCCCCCCCCCCCCCCCCCCCCC(=O)[O-]
REMARK SMILES IDX 16 1 17 2 18 3 19 4 20 5 21 6 22 7 23 8 24 9 25 10 26 11
REMARK SMILES IDX 27 12 28 13 29 14 30 15 31 16 32 17 15 18 14 19 13 20 12 21
REMARK SMILES IDX 11 22 10 23 9 24 8 25 7 26 6 27 5 28 4 29 3 30 2 31 1 32
REMARK H PARENT
REMARK Flexibility Score: inf
ROOT
ATOM      1  C   UNL     1      43.341  36.977 -13.199  1.00  0.00     0.000 C 
ENDROOT
BRANCH   1   2
ATOM      2  C   UNL     1      43.972  35.573 -13.148  1.00  0.00     0.000 C 
BRANCH   2   3
ATOM      3  C   UNL     1      44.664  35.272 -11.811  1.00  0.00     0.000 C 
BRANCH   3   4
ATOM      4  C   UNL     1      45.922  34.417 -12.024  1.00  0.00     0.000 C 
BRANCH   4   5
ATOM      5  C   UNL     1      46.332  34.312 -13.504  1.00  0.00     0.000 C 
BRANCH   5   6
ATOM      6  C   UNL     1      47.836  34.497 -13.775  1.00  0.00     0.000 C 
BRANCH   6   7
ATOM      7  C   UNL     1      48.350  35.886 -13.369  1.00  0.00     0.000 C 
BRANCH   7   8
ATOM      8  C   UNL     1      48.987  35.850 -11.972  1.00  0.00     0.000 C 
BRANCH   8   9
ATOM      9  C   UNL     1      48.672  37.105 -11.142  1.00  0.00     0.000 C 
BRANCH   9  10
ATOM     10  C   UNL     1      47.237  37.610 -11.353  1.00  0.00     0.000 C 
BRANCH  10  11
ATOM     11  C   UNL     1      46.587  38.000 -10.019  1.00  0.00     0.000 C 
BRANCH  11  12
ATOM     12  C   UNL     1      45.130  37.525  -9.900  1.00  0.00     0.000 C 
BRANCH  12  13
ATOM     13  C   UNL     1      44.799  36.873  -8.541  1.00  0.00     0.006 C 
BRANCH  13  14
ATOM     14  C   UNL     1      44.078  35.528  -8.702  1.00  0.00     0.053 C 
BRANCH  14  15
ATOM     15  C   UNL     1      44.724  34.483  -7.847  1.00  0.00     0.041 C 
ATOM     16  O   UNL     1      45.849  34.699  -7.322  1.00  0.00    -0.550 OA
ATOM     17  O   UNL     1      44.063  33.289  -7.590  1.00  0.00    -0.550 OA
ENDBRANCH  14  15
ENDBRANCH  13  14
ENDBRANCH  12  13
ENDBRANCH  11  12
ENDBRANCH  10  11
ENDBRANCH   9  10
ENDBRANCH   8   9
ENDBRANCH   7   8
ENDBRANCH   6   7
ENDBRANCH   5   6
ENDBRANCH   4   5
ENDBRANCH   3   4
ENDBRANCH   2   3
ENDBRANCH   1   2
BRANCH   1  18
ATOM     18  C   UNL     1      44.273  38.099 -13.693  1.00  0.00     0.000 C 
BRANCH  18  19
ATOM     19  C   UNL     1      44.834  37.835 -15.101  1.00  0.00     0.000 C 
BRANCH  19  20
ATOM     20  C   UNL     1      46.346  38.108 -15.204  1.00  0.00     0.000 C 
BRANCH  20  21
ATOM     21  C   UNL     1      47.149  37.059 -16.000  1.00  0.00     0.000 C 
BRANCH  21  22
ATOM     22  C   UNL     1      48.247  37.632 -16.917  1.00  0.00     0.000 C 
BRANCH  22  23
ATOM     23  C   UNL     1      49.686  37.467 -16.391  1.00  0.00     0.000 C 
BRANCH  23  24
ATOM     24  C   UNL     1      49.957  38.125 -15.023  1.00  0.00    -0.000 C 
BRANCH  24  25
ATOM     25  C   UNL     1      51.271  37.697 -14.343  1.00  0.00    -0.000 C 
BRANCH  25  26
ATOM     26  C   UNL     1      52.349  37.137 -15.293  1.00  0.00    -0.000 C 
BRANCH  26  27
ATOM     27  C   UNL     1      53.491  38.112 -15.634  1.00  0.00    -0.000 C 
BRANCH  27  28
ATOM     28  C   UNL     1      54.365  37.695 -16.832  1.00  0.00    -0.000 C 
BRANCH  28  29
ATOM     29  C   UNL     1      53.625  36.829 -17.873  1.00  0.00    -0.000 C 
BRANCH  29  30
ATOM     30  C   UNL     1      54.025  37.172 -19.317  1.00  0.00    -0.000 C 
BRANCH  30  31
ATOM     31  C   UNL     1      55.438  36.669 -19.629  1.00  0.00    -0.003 C 
ATOM     32  C   UNL     1      55.465  35.872 -20.930  1.00  0.00     0.004 C 
ENDBRANCH  30  31
ENDBRANCH  29  30
ENDBRANCH  28  29
ENDBRANCH  27  28
ENDBRANCH  26  27
ENDBRANCH  25  26
ENDBRANCH  24  25
ENDBRANCH  23  24
ENDBRANCH  22  23
ENDBRANCH  21  22
ENDBRANCH  20  21
ENDBRANCH  19  20
ENDBRANCH  18  19
ENDBRANCH   1  18
TORSDOF 28
ENDMDL
