MODEL 1
REMARK VINA RESULT:    -6.905      0.000      0.000
REMARK INTER + INTRA:          -8.583
REMARK INTER:                  -8.318
REMARK INTRA:                  -0.266
REMARK UNBOUND:                -0.266
REMARK SMILES O=c1c(O)c(-c2ccc(O)c(O)c2)oc2cc(O)cc(O)c12
REMARK SMILES IDX 5 1 3 2 2 3 1 4 22 5 20 6 19 7 17 8 16 9 15 10 14 11 6 12
REMARK SMILES IDX 7 13 8 14 9 15 13 16 11 17 10 18 12 20 4 22 21 24 18 26
REMARK H PARENT 10 19 12 21 4 23 21 25 18 27
REMARK Flexibility Score: inf
ROOT
ATOM      1  C   UNL     1     -37.782   4.840  79.628  1.00  0.00     0.180 A 
ATOM      2  C   UNL     1     -38.376   4.985  80.894  1.00  0.00     0.208 A 
ATOM      3  C   UNL     1     -39.693   4.535  81.083  1.00  0.00     0.238 A 
ATOM      4  O   UNL     1     -40.238   4.717  82.202  1.00  0.00    -0.285 OA
ATOM      5  C   UNL     1     -40.392   3.932  80.011  1.00  0.00     0.111 A 
ATOM      6  C   UNL     1     -41.715   3.404  80.101  1.00  0.00     0.134 A 
ATOM      7  C   UNL     1     -42.358   2.948  78.943  1.00  0.00     0.093 A 
ATOM      8  C   UNL     1     -41.704   2.939  77.712  1.00  0.00     0.123 A 
ATOM      9  C   UNL     1     -40.388   3.398  77.623  1.00  0.00     0.094 A 
ATOM     10  C   UNL     1     -39.734   3.893  78.754  1.00  0.00     0.146 A 
ATOM     11  O   UNL     1     -38.486   4.330  78.625  1.00  0.00    -0.452 OA
ENDROOT
BRANCH   1  12
ATOM     12  C   UNL     1     -36.390   5.267  79.358  1.00  0.00     0.025 A 
ATOM     13  C   UNL     1     -35.292   4.539  79.851  1.00  0.00     0.016 A 
ATOM     14  C   UNL     1     -33.987   4.947  79.563  1.00  0.00     0.051 A 
ATOM     15  C   UNL     1     -33.760   6.078  78.767  1.00  0.00     0.157 A 
ATOM     16  C   UNL     1     -36.156   6.388  78.544  1.00  0.00     0.062 A 
ATOM     17  C   UNL     1     -34.846   6.798  78.255  1.00  0.00     0.158 A 
BRANCH  15  18
ATOM     18  O   UNL     1     -32.460   6.490  78.480  1.00  0.00    -0.504 OA
ATOM     19  H   UNL     1     -32.165   6.688  77.530  1.00  0.00     0.293 HD
ENDBRANCH  15  18
BRANCH  17  20
ATOM     20  O   UNL     1     -34.617   7.918  77.458  1.00  0.00    -0.504 OA
ATOM     21  H   UNL     1     -35.256   8.705  77.454  1.00  0.00     0.293 HD
ENDBRANCH  17  20
ENDBRANCH   1  12
BRANCH   2  22
ATOM     22  O   UNL     1     -37.675   5.604  81.932  1.00  0.00    -0.502 OA
ATOM     23  H   UNL     1     -36.852   5.191  82.355  1.00  0.00     0.293 HD
ENDBRANCH   2  22
BRANCH   6  24
ATOM     24  O   UNL     1     -42.426   3.281  81.298  1.00  0.00    -0.507 OA
ATOM     25  H   UNL     1     -43.301   2.789  81.399  1.00  0.00     0.293 HD
ENDBRANCH   6  24
BRANCH   8  26
ATOM     26  O   UNL     1     -42.367   2.464  76.584  1.00  0.00    -0.508 OA
ATOM     27  H   UNL     1     -42.512   1.473  76.432  1.00  0.00     0.293 HD
ENDBRANCH   8  26
TORSDOF 6
ENDMDL
MODEL 2
REMARK VINA RESULT:    -6.500      1.727      7.154
REMARK INTER + INTRA:          -8.095
REMARK INTER:                  -7.785
REMARK INTRA:                  -0.310
REMARK UNBOUND:                -0.266
REMARK SMILES O=c1c(O)c(-c2ccc(O)c(O)c2)oc2cc(O)cc(O)c12
REMARK SMILES IDX 5 1 3 2 2 3 1 4 22 5 20 6 19 7 17 8 16 9 15 10 14 11 6 12
REMARK SMILES IDX 7 13 8 14 9 15 13 16 11 17 10 18 12 20 4 22 21 24 18 26
REMARK H PARENT 10 19 12 21 4 23 21 25 18 27
REMARK Flexibility Score: inf
ROOT
ATOM      1  C   UNL     1     -38.667   5.654  78.259  1.00  0.00     0.180 A 
ATOM      2  C   UNL     1     -38.888   6.964  77.800  1.00  0.00     0.208 A 
ATOM      3  C   UNL     1     -37.786   7.815  77.616  1.00  0.00     0.238 A 
ATOM      4  O   UNL     1     -37.994   9.003  77.257  1.00  0.00    -0.285 OA
ATOM      5  C   UNL     1     -36.478   7.341  77.876  1.00  0.00     0.111 A 
ATOM      6  C   UNL     1     -35.287   8.104  77.685  1.00  0.00     0.134 A 
ATOM      7  C   UNL     1     -34.057   7.578  78.099  1.00  0.00     0.093 A 
ATOM      8  C   UNL     1     -33.965   6.294  78.636  1.00  0.00     0.123 A 
ATOM      9  C   UNL     1     -35.116   5.517  78.771  1.00  0.00     0.094 A 
ATOM     10  C   UNL     1     -36.363   6.028  78.401  1.00  0.00     0.146 A 
ATOM     11  O   UNL     1     -37.435   5.260  78.557  1.00  0.00    -0.452 OA
ENDROOT
BRANCH   1  12
ATOM     12  C   UNL     1     -39.775   4.691  78.453  1.00  0.00     0.025 A 
ATOM     13  C   UNL     1     -40.095   3.734  77.473  1.00  0.00     0.016 A 
ATOM     14  C   UNL     1     -41.129   2.820  77.689  1.00  0.00     0.051 A 
ATOM     15  C   UNL     1     -41.848   2.838  78.892  1.00  0.00     0.157 A 
ATOM     16  C   UNL     1     -40.486   4.690  79.665  1.00  0.00     0.062 A 
ATOM     17  C   UNL     1     -41.525   3.773  79.882  1.00  0.00     0.158 A 
BRANCH  15  18
ATOM     18  O   UNL     1     -42.881   1.929  79.110  1.00  0.00    -0.504 OA
ATOM     19  H   UNL     1     -42.933   1.379  79.961  1.00  0.00     0.293 HD
ENDBRANCH  15  18
BRANCH  17  20
ATOM     20  O   UNL     1     -42.237   3.784  81.080  1.00  0.00    -0.504 OA
ATOM     21  H   UNL     1     -42.289   2.963  81.673  1.00  0.00     0.293 HD
ENDBRANCH  17  20
ENDBRANCH   1  12
BRANCH   2  22
ATOM     22  O   UNL     1     -40.189   7.419  77.570  1.00  0.00    -0.502 OA
ATOM     23  H   UNL     1     -40.975   7.130  78.141  1.00  0.00     0.293 HD
ENDBRANCH   2  22
BRANCH   6  24
ATOM     24  O   UNL     1     -35.254   9.360  77.074  1.00  0.00    -0.507 OA
ATOM     25  H   UNL     1     -34.762   9.570  76.218  1.00  0.00     0.293 HD
ENDBRANCH   6  24
BRANCH   8  26
ATOM     26  O   UNL     1     -32.723   5.797  79.022  1.00  0.00    -0.508 OA
ATOM     27  H   UNL     1     -32.240   6.154  79.839  1.00  0.00     0.293 HD
ENDBRANCH   8  26
TORSDOF 6
ENDMDL
MODEL 3
REMARK VINA RESULT:    -6.494      1.566      7.142
REMARK INTER + INTRA:          -8.088
REMARK INTER:                  -7.949
REMARK INTRA:                  -0.139
REMARK UNBOUND:                -0.266
REMARK SMILES O=c1c(O)c(-c2ccc(O)c(O)c2)oc2cc(O)cc(O)c12
REMARK SMILES IDX 5 1 3 2 2 3 1 4 22 5 20 6 19 7 17 8 16 9 15 10 14 11 6 12
REMARK SMILES IDX 7 13 8 14 9 15 13 16 11 17 10 18 12 20 4 22 21 24 18 26
REMARK H PARENT 10 19 12 21 4 23 21 25 18 27
REMARK Flexibility Score: inf
ROOT
ATOM      1  C   UNL     1     -38.436   4.612  78.981  1.00  0.00     0.180 A 
ATOM      2  C   UNL     1     -37.994   5.584  78.066  1.00  0.00     0.208 A 
ATOM      3  C   UNL     1     -36.670   6.044  78.149  1.00  0.00     0.238 A 
ATOM      4  O   UNL     1     -36.296   6.953  77.362  1.00  0.00    -0.285 OA
ATOM      5  C   UNL     1     -35.800   5.515  79.132  1.00  0.00     0.111 A 
ATOM      6  C   UNL     1     -34.428   5.879  79.280  1.00  0.00     0.134 A 
ATOM      7  C   UNL     1     -33.697   5.389  80.370  1.00  0.00     0.093 A 
ATOM      8  C   UNL     1     -34.268   4.499  81.279  1.00  0.00     0.123 A 
ATOM      9  C   UNL     1     -35.592   4.090  81.109  1.00  0.00     0.094 A 
ATOM     10  C   UNL     1     -36.357   4.590  80.052  1.00  0.00     0.146 A 
ATOM     11  O   UNL     1     -37.616   4.184  79.933  1.00  0.00    -0.452 OA
ENDROOT
BRANCH   1  12
ATOM     12  C   UNL     1     -39.809   4.061  78.941  1.00  0.00     0.025 A 
ATOM     13  C   UNL     1     -40.299   3.396  77.803  1.00  0.00     0.016 A 
ATOM     14  C   UNL     1     -41.590   2.862  77.797  1.00  0.00     0.051 A 
ATOM     15  C   UNL     1     -42.405   2.971  78.932  1.00  0.00     0.157 A 
ATOM     16  C   UNL     1     -40.623   4.149  80.083  1.00  0.00     0.062 A 
ATOM     17  C   UNL     1     -41.920   3.614  80.078  1.00  0.00     0.158 A 
BRANCH  15  18
ATOM     18  O   UNL     1     -43.694   2.442  78.930  1.00  0.00    -0.504 OA
ATOM     19  H   UNL     1     -44.477   2.951  79.325  1.00  0.00     0.293 HD
ENDBRANCH  15  18
BRANCH  17  20
ATOM     20  O   UNL     1     -42.729   3.715  81.207  1.00  0.00    -0.504 OA
ATOM     21  H   UNL     1     -43.011   2.896  81.734  1.00  0.00     0.293 HD
ENDBRANCH  17  20
ENDBRANCH   1  12
BRANCH   2  22
ATOM     22  O   UNL     1     -38.876   6.109  77.117  1.00  0.00    -0.502 OA
ATOM     23  H   UNL     1     -39.322   7.011  77.230  1.00  0.00     0.293 HD
ENDBRANCH   2  22
BRANCH   6  24
ATOM     24  O   UNL     1     -33.733   6.689  78.377  1.00  0.00    -0.507 OA
ATOM     25  H   UNL     1     -33.816   6.632  77.373  1.00  0.00     0.293 HD
ENDBRANCH   6  24
BRANCH   8  26
ATOM     26  O   UNL     1     -33.507   4.020  82.342  1.00  0.00    -0.508 OA
ATOM     27  H   UNL     1     -33.002   3.143  82.280  1.00  0.00     0.293 HD
ENDBRANCH   8  26
TORSDOF 6
ENDMDL
MODEL 4
REMARK VINA RESULT:    -6.375      1.630      7.000
REMARK INTER + INTRA:          -7.945
REMARK INTER:                  -7.623
REMARK INTRA:                  -0.322
REMARK UNBOUND:                -0.266
REMARK SMILES O=c1c(O)c(-c2ccc(O)c(O)c2)oc2cc(O)cc(O)c12
REMARK SMILES IDX 5 1 3 2 2 3 1 4 22 5 20 6 19 7 17 8 16 9 15 10 14 11 6 12
REMARK SMILES IDX 7 13 8 14 9 15 13 16 11 17 10 18 12 20 4 22 21 24 18 26
REMARK H PARENT 10 19 12 21 4 23 21 25 18 27
REMARK Flexibility Score: inf
ROOT
ATOM      1  C   UNL     1     -38.501   4.860  78.565  1.00  0.00     0.180 A 
ATOM      2  C   UNL     1     -37.323   4.152  78.864  1.00  0.00     0.208 A 
ATOM      3  C   UNL     1     -36.087   4.806  78.736  1.00  0.00     0.238 A 
ATOM      4  O   UNL     1     -35.033   4.151  78.952  1.00  0.00    -0.285 OA
ATOM      5  C   UNL     1     -36.043   6.160  78.329  1.00  0.00     0.111 A 
ATOM      6  C   UNL     1     -34.849   6.931  78.205  1.00  0.00     0.134 A 
ATOM      7  C   UNL     1     -34.914   8.223  77.668  1.00  0.00     0.093 A 
ATOM      8  C   UNL     1     -36.134   8.796  77.312  1.00  0.00     0.123 A 
ATOM      9  C   UNL     1     -37.315   8.072  77.485  1.00  0.00     0.094 A 
ATOM     10  C   UNL     1     -37.279   6.767  77.984  1.00  0.00     0.146 A 
ATOM     11  O   UNL     1     -38.424   6.109  78.122  1.00  0.00    -0.452 OA
ENDROOT
BRANCH   1  12
ATOM     12  C   UNL     1     -39.842   4.247  78.700  1.00  0.00     0.025 A 
ATOM     13  C   UNL     1     -40.460   3.592  77.620  1.00  0.00     0.016 A 
ATOM     14  C   UNL     1     -41.715   3.000  77.777  1.00  0.00     0.051 A 
ATOM     15  C   UNL     1     -42.366   3.041  79.018  1.00  0.00     0.157 A 
ATOM     16  C   UNL     1     -40.490   4.268  79.946  1.00  0.00     0.062 A 
ATOM     17  C   UNL     1     -41.751   3.675  80.105  1.00  0.00     0.158 A 
BRANCH  15  18
ATOM     18  O   UNL     1     -43.619   2.454  79.178  1.00  0.00    -0.504 OA
ATOM     19  H   UNL     1     -44.465   3.012  79.223  1.00  0.00     0.293 HD
ENDBRANCH  15  18
BRANCH  17  20
ATOM     20  O   UNL     1     -42.397   3.708  81.339  1.00  0.00    -0.504 OA
ATOM     21  H   UNL     1     -41.910   3.482  82.199  1.00  0.00     0.293 HD
ENDBRANCH  17  20
ENDBRANCH   1  12
BRANCH   2  22
ATOM     22  O   UNL     1     -37.387   2.809  79.243  1.00  0.00    -0.502 OA
ATOM     23  H   UNL     1     -38.007   2.478  79.973  1.00  0.00     0.293 HD
ENDBRANCH   2  22
BRANCH   6  24
ATOM     24  O   UNL     1     -33.588   6.490  78.617  1.00  0.00    -0.507 OA
ATOM     25  H   UNL     1     -33.210   5.574  78.427  1.00  0.00     0.293 HD
ENDBRANCH   6  24
BRANCH   8  26
ATOM     26  O   UNL     1     -36.163  10.089  76.796  1.00  0.00    -0.508 OA
ATOM     27  H   UNL     1     -35.491  10.790  77.084  1.00  0.00     0.293 HD
ENDBRANCH   8  26
TORSDOF 6
ENDMDL
MODEL 5
REMARK VINA RESULT:    -6.212      1.400      6.806
REMARK INTER + INTRA:          -7.748
REMARK INTER:                  -7.712
REMARK INTRA:                  -0.037
REMARK UNBOUND:                -0.266
REMARK SMILES O=c1c(O)c(-c2ccc(O)c(O)c2)oc2cc(O)cc(O)c12
REMARK SMILES IDX 5 1 3 2 2 3 1 4 22 5 20 6 19 7 17 8 16 9 15 10 14 11 6 12
REMARK SMILES IDX 7 13 8 14 9 15 13 16 11 17 10 18 12 20 4 22 21 24 18 26
REMARK H PARENT 10 19 12 21 4 23 21 25 18 27
REMARK Flexibility Score: inf
ROOT
ATOM      1  C   UNL     1     -38.156   4.178  79.461  1.00  0.00     0.180 A 
ATOM      2  C   UNL     1     -37.496   3.708  80.610  1.00  0.00     0.208 A 
ATOM      3  C   UNL     1     -36.199   4.170  80.887  1.00  0.00     0.238 A 
ATOM      4  O   UNL     1     -35.593   3.704  81.886  1.00  0.00    -0.285 OA
ATOM      5  C   UNL     1     -35.586   5.109  80.023  1.00  0.00     0.111 A 
ATOM      6  C   UNL     1     -34.292   5.675  80.229  1.00  0.00     0.134 A 
ATOM      7  C   UNL     1     -33.731   6.494  79.241  1.00  0.00     0.093 A 
ATOM      8  C   UNL     1     -34.442   6.820  78.086  1.00  0.00     0.123 A 
ATOM      9  C   UNL     1     -35.731   6.319  77.902  1.00  0.00     0.094 A 
ATOM     10  C   UNL     1     -36.303   5.470  78.853  1.00  0.00     0.146 A 
ATOM     11  O   UNL     1     -37.529   5.007  78.635  1.00  0.00    -0.452 OA
ENDROOT
BRANCH   1  12
ATOM     12  C   UNL     1     -39.532   3.756  79.115  1.00  0.00     0.025 A 
ATOM     13  C   UNL     1     -39.826   3.159  77.876  1.00  0.00     0.016 A 
ATOM     14  C   UNL     1     -41.128   2.746  77.582  1.00  0.00     0.051 A 
ATOM     15  C   UNL     1     -42.152   2.910  78.525  1.00  0.00     0.157 A 
ATOM     16  C   UNL     1     -40.558   3.899  80.064  1.00  0.00     0.062 A 
ATOM     17  C   UNL     1     -41.866   3.486  79.769  1.00  0.00     0.158 A 
BRANCH  15  18
ATOM     18  O   UNL     1     -43.452   2.502  78.235  1.00  0.00    -0.504 OA
ATOM     19  H   UNL     1     -43.813   2.515  77.287  1.00  0.00     0.293 HD
ENDBRANCH  15  18
BRANCH  17  20
ATOM     20  O   UNL     1     -42.884   3.641  80.708  1.00  0.00    -0.504 OA
ATOM     21  H   UNL     1     -42.790   3.291  81.654  1.00  0.00     0.293 HD
ENDBRANCH  17  20
ENDBRANCH   1  12
BRANCH   2  22
ATOM     22  O   UNL     1     -38.111   2.765  81.437  1.00  0.00    -0.502 OA
ATOM     23  H   UNL     1     -37.678   2.421  82.286  1.00  0.00     0.293 HD
ENDBRANCH   2  22
BRANCH   6  24
ATOM     24  O   UNL     1     -33.534   5.488  81.389  1.00  0.00    -0.507 OA
ATOM     25  H   UNL     1     -33.822   4.932  82.180  1.00  0.00     0.293 HD
ENDBRANCH   6  24
BRANCH   8  26
ATOM     26  O   UNL     1     -33.859   7.650  77.132  1.00  0.00    -0.508 OA
ATOM     27  H   UNL     1     -33.045   8.215  77.346  1.00  0.00     0.293 HD
ENDBRANCH   8  26
TORSDOF 6
ENDMDL
MODEL 6
REMARK VINA RESULT:    -5.974      9.038     12.299
REMARK INTER + INTRA:          -7.462
REMARK INTER:                  -7.153
REMARK INTRA:                  -0.309
REMARK UNBOUND:                -0.266
REMARK SMILES O=c1c(O)c(-c2ccc(O)c(O)c2)oc2cc(O)cc(O)c12
REMARK SMILES IDX 5 1 3 2 2 3 1 4 22 5 20 6 19 7 17 8 16 9 15 10 14 11 6 12
REMARK SMILES IDX 7 13 8 14 9 15 13 16 11 17 10 18 12 20 4 22 21 24 18 26
REMARK H PARENT 10 19 12 21 4 23 21 25 18 27
REMARK Flexibility Score: inf
ROOT
ATOM      1  C   UNL     1     -41.511  -5.069  81.807  1.00  0.00     0.180 A 
ATOM      2  C   UNL     1     -41.830  -3.792  82.301  1.00  0.00     0.208 A 
ATOM      3  C   UNL     1     -40.820  -3.023  82.900  1.00  0.00     0.238 A 
ATOM      4  O   UNL     1     -41.124  -1.903  83.389  1.00  0.00    -0.285 OA
ATOM      5  C   UNL     1     -39.502  -3.531  82.983  1.00  0.00     0.111 A 
ATOM      6  C   UNL     1     -38.393  -2.821  83.533  1.00  0.00     0.134 A 
ATOM      7  C   UNL     1     -37.162  -3.472  83.683  1.00  0.00     0.093 A 
ATOM      8  C   UNL     1     -36.981  -4.783  83.243  1.00  0.00     0.123 A 
ATOM      9  C   UNL     1     -38.044  -5.466  82.649  1.00  0.00     0.094 A 
ATOM     10  C   UNL     1     -39.294  -4.856  82.520  1.00  0.00     0.146 A 
ATOM     11  O   UNL     1     -40.281  -5.545  81.959  1.00  0.00    -0.452 OA
ENDROOT
BRANCH   1  12
ATOM     12  C   UNL     1     -42.515  -5.929  81.141  1.00  0.00     0.025 A 
ATOM     13  C   UNL     1     -43.395  -6.738  81.882  1.00  0.00     0.016 A 
ATOM     14  C   UNL     1     -44.351  -7.522  81.232  1.00  0.00     0.051 A 
ATOM     15  C   UNL     1     -44.452  -7.500  79.834  1.00  0.00     0.157 A 
ATOM     16  C   UNL     1     -42.635  -5.895  79.741  1.00  0.00     0.062 A 
ATOM     17  C   UNL     1     -43.594  -6.683  79.088  1.00  0.00     0.158 A 
BRANCH  15  18
ATOM     18  O   UNL     1     -45.403  -8.282  79.183  1.00  0.00    -0.504 OA
ATOM     19  H   UNL     1     -45.870  -7.959  78.343  1.00  0.00     0.293 HD
ENDBRANCH  15  18
BRANCH  17  20
ATOM     20  O   UNL     1     -43.701  -6.658  77.699  1.00  0.00    -0.504 OA
ATOM     21  H   UNL     1     -44.470  -7.110  77.218  1.00  0.00     0.293 HD
ENDBRANCH  17  20
ENDBRANCH   1  12
BRANCH   2  22
ATOM     22  O   UNL     1     -43.143  -3.319  82.229  1.00  0.00    -0.502 OA
ATOM     23  H   UNL     1     -43.881  -3.668  82.828  1.00  0.00     0.293 HD
ENDBRANCH   2  22
BRANCH   6  24
ATOM     24  O   UNL     1     -38.439  -1.478  83.919  1.00  0.00    -0.507 OA
ATOM     25  H   UNL     1     -38.785  -0.726  83.342  1.00  0.00     0.293 HD
ENDBRANCH   6  24
BRANCH   8  26
ATOM     26  O   UNL     1     -35.739  -5.394  83.394  1.00  0.00    -0.508 OA
ATOM     27  H   UNL     1     -35.607  -6.381  83.206  1.00  0.00     0.293 HD
ENDBRANCH   8  26
TORSDOF 6
ENDMDL
MODEL 7
REMARK VINA RESULT:    -5.936      9.164     11.351
REMARK INTER + INTRA:          -7.417
REMARK INTER:                  -7.098
REMARK INTRA:                  -0.319
REMARK UNBOUND:                -0.266
REMARK SMILES O=c1c(O)c(-c2ccc(O)c(O)c2)oc2cc(O)cc(O)c12
REMARK SMILES IDX 5 1 3 2 2 3 1 4 22 5 20 6 19 7 17 8 16 9 15 10 14 11 6 12
REMARK SMILES IDX 7 13 8 14 9 15 13 16 11 17 10 18 12 20 4 22 21 24 18 26
REMARK H PARENT 10 19 12 21 4 23 21 25 18 27
REMARK Flexibility Score: inf
ROOT
ATOM      1  C   UNL     1     -42.472  -4.996  82.169  1.00  0.00     0.180 A 
ATOM      2  C   UNL     1     -42.890  -6.107  82.922  1.00  0.00     0.208 A 
ATOM      3  C   UNL     1     -43.979  -6.867  82.466  1.00  0.00     0.238 A 
ATOM      4  O   UNL     1     -44.383  -7.827  83.172  1.00  0.00    -0.285 OA
ATOM      5  C   UNL     1     -44.625  -6.518  81.256  1.00  0.00     0.111 A 
ATOM      6  C   UNL     1     -45.713  -7.241  80.680  1.00  0.00     0.134 A 
ATOM      7  C   UNL     1     -46.360  -6.729  79.548  1.00  0.00     0.093 A 
ATOM      8  C   UNL     1     -45.919  -5.558  78.934  1.00  0.00     0.123 A 
ATOM      9  C   UNL     1     -44.819  -4.875  79.455  1.00  0.00     0.094 A 
ATOM     10  C   UNL     1     -44.176  -5.340  80.604  1.00  0.00     0.146 A 
ATOM     11  O   UNL     1     -43.140  -4.655  81.073  1.00  0.00    -0.452 OA
ENDROOT
BRANCH   1  12
ATOM     12  C   UNL     1     -41.317  -4.162  82.572  1.00  0.00     0.025 A 
ATOM     13  C   UNL     1     -41.485  -3.009  83.360  1.00  0.00     0.016 A 
ATOM     14  C   UNL     1     -40.378  -2.251  83.748  1.00  0.00     0.051 A 
ATOM     15  C   UNL     1     -39.087  -2.640  83.368  1.00  0.00     0.157 A 
ATOM     16  C   UNL     1     -40.019  -4.558  82.211  1.00  0.00     0.062 A 
ATOM     17  C   UNL     1     -38.906  -3.796  82.600  1.00  0.00     0.158 A 
BRANCH  15  18
ATOM     18  O   UNL     1     -37.980  -1.885  83.752  1.00  0.00    -0.504 OA
ATOM     19  H   UNL     1     -37.528  -2.025  84.649  1.00  0.00     0.293 HD
ENDBRANCH  15  18
BRANCH  17  20
ATOM     20  O   UNL     1     -37.621  -4.185  82.228  1.00  0.00    -0.504 OA
ATOM     21  H   UNL     1     -37.010  -4.678  82.870  1.00  0.00     0.293 HD
ENDBRANCH  17  20
ENDBRANCH   1  12
BRANCH   2  22
ATOM     22  O   UNL     1     -42.252  -6.421  84.125  1.00  0.00    -0.502 OA
ATOM     23  H   UNL     1     -42.744  -6.448  85.010  1.00  0.00     0.293 HD
ENDBRANCH   2  22
BRANCH   6  24
ATOM     24  O   UNL     1     -46.174  -8.470  81.160  1.00  0.00    -0.507 OA
ATOM     25  H   UNL     1     -46.925  -8.582  81.824  1.00  0.00     0.293 HD
ENDBRANCH   6  24
BRANCH   8  26
ATOM     26  O   UNL     1     -46.576  -5.087  77.800  1.00  0.00    -0.508 OA
ATOM     27  H   UNL     1     -47.193  -4.283  77.840  1.00  0.00     0.293 HD
ENDBRANCH   8  26
TORSDOF 6
ENDMDL
MODEL 8
REMARK VINA RESULT:    -5.814     10.377     12.686
REMARK INTER + INTRA:          -7.269
REMARK INTER:                  -7.022
REMARK INTRA:                  -0.248
REMARK UNBOUND:                -0.266
REMARK SMILES O=c1c(O)c(-c2ccc(O)c(O)c2)oc2cc(O)cc(O)c12
REMARK SMILES IDX 5 1 3 2 2 3 1 4 22 5 20 6 19 7 17 8 16 9 15 10 14 11 6 12
REMARK SMILES IDX 7 13 8 14 9 15 13 16 11 17 10 18 12 20 4 22 21 24 18 26
REMARK H PARENT 10 19 12 21 4 23 21 25 18 27
REMARK Flexibility Score: inf
ROOT
ATOM      1  C   UNL     1     -46.848   3.199  72.305  1.00  0.00     0.180 A 
ATOM      2  C   UNL     1     -47.222   3.188  70.949  1.00  0.00     0.208 A 
ATOM      3  C   UNL     1     -47.134   4.379  70.210  1.00  0.00     0.238 A 
ATOM      4  O   UNL     1     -47.521   4.376  69.012  1.00  0.00    -0.285 OA
ATOM      5  C   UNL     1     -46.658   5.560  70.829  1.00  0.00     0.111 A 
ATOM      6  C   UNL     1     -46.491   6.812  70.164  1.00  0.00     0.134 A 
ATOM      7  C   UNL     1     -46.138   7.946  70.906  1.00  0.00     0.093 A 
ATOM      8  C   UNL     1     -45.882   7.861  72.274  1.00  0.00     0.123 A 
ATOM      9  C   UNL     1     -45.986   6.629  72.923  1.00  0.00     0.094 A 
ATOM     10  C   UNL     1     -46.372   5.487  72.217  1.00  0.00     0.146 A 
ATOM     11  O   UNL     1     -46.469   4.337  72.873  1.00  0.00    -0.452 OA
ENDROOT
BRANCH   1  12
ATOM     12  C   UNL     1     -46.890   1.979  73.142  1.00  0.00     0.025 A 
ATOM     13  C   UNL     1     -48.109   1.439  73.589  1.00  0.00     0.016 A 
ATOM     14  C   UNL     1     -48.125   0.272  74.358  1.00  0.00     0.051 A 
ATOM     15  C   UNL     1     -46.926  -0.379  74.680  1.00  0.00     0.157 A 
ATOM     16  C   UNL     1     -45.693   1.311  73.451  1.00  0.00     0.062 A 
ATOM     17  C   UNL     1     -45.708   0.141  74.223  1.00  0.00     0.158 A 
BRANCH  15  18
ATOM     18  O   UNL     1     -46.938  -1.540  75.448  1.00  0.00    -0.504 OA
ATOM     19  H   UNL     1     -47.082  -1.512  76.451  1.00  0.00     0.293 HD
ENDBRANCH  15  18
BRANCH  17  20
ATOM     20  O   UNL     1     -44.519  -0.512  74.539  1.00  0.00    -0.504 OA
ATOM     21  H   UNL     1     -44.214  -0.626  75.499  1.00  0.00     0.293 HD
ENDBRANCH  17  20
ENDBRANCH   1  12
BRANCH   2  22
ATOM     22  O   UNL     1     -47.710   2.017  70.364  1.00  0.00    -0.502 OA
ATOM     23  H   UNL     1     -48.700   1.838  70.250  1.00  0.00     0.293 HD
ENDBRANCH   2  22
BRANCH   6  24
ATOM     24  O   UNL     1     -46.630   6.988  68.784  1.00  0.00    -0.507 OA
ATOM     25  H   UNL     1     -45.900   6.824  68.108  1.00  0.00     0.293 HD
ENDBRANCH   6  24
BRANCH   8  26
ATOM     26  O   UNL     1     -45.518   9.006  72.978  1.00  0.00    -0.508 OA
ATOM     27  H   UNL     1     -44.936   9.723  72.560  1.00  0.00     0.293 HD
ENDBRANCH   8  26
TORSDOF 6
ENDMDL
MODEL 9
REMARK VINA RESULT:    -5.764      2.245      7.006
REMARK INTER + INTRA:          -7.209
REMARK INTER:                  -6.995
REMARK INTRA:                  -0.214
REMARK UNBOUND:                -0.266
REMARK SMILES O=c1c(O)c(-c2ccc(O)c(O)c2)oc2cc(O)cc(O)c12
REMARK SMILES IDX 5 1 3 2 2 3 1 4 22 5 20 6 19 7 17 8 16 9 15 10 14 11 6 12
REMARK SMILES IDX 7 13 8 14 9 15 13 16 11 17 10 18 12 20 4 22 21 24 18 26
REMARK H PARENT 10 19 12 21 4 23 21 25 18 27
REMARK Flexibility Score: inf
ROOT
ATOM      1  C   UNL     1     -36.578   5.417  79.460  1.00  0.00     0.180 A 
ATOM      2  C   UNL     1     -35.870   5.203  80.655  1.00  0.00     0.208 A 
ATOM      3  C   UNL     1     -34.825   6.078  80.993  1.00  0.00     0.238 A 
ATOM      4  O   UNL     1     -34.159   5.848  82.036  1.00  0.00    -0.285 OA
ATOM      5  C   UNL     1     -34.511   7.164  80.141  1.00  0.00     0.111 A 
ATOM      6  C   UNL     1     -33.499   8.134  80.405  1.00  0.00     0.134 A 
ATOM      7  C   UNL     1     -33.187   9.090  79.430  1.00  0.00     0.093 A 
ATOM      8  C   UNL     1     -33.894   9.152  78.229  1.00  0.00     0.123 A 
ATOM      9  C   UNL     1     -34.926   8.244  77.986  1.00  0.00     0.094 A 
ATOM     10  C   UNL     1     -35.236   7.256  78.925  1.00  0.00     0.146 A 
ATOM     11  O   UNL     1     -36.218   6.405  78.650  1.00  0.00    -0.452 OA
ENDROOT
BRANCH   1  12
ATOM     12  C   UNL     1     -37.708   4.554  79.049  1.00  0.00     0.025 A 
ATOM     13  C   UNL     1     -39.030   5.035  79.033  1.00  0.00     0.016 A 
ATOM     14  C   UNL     1     -40.077   4.209  78.618  1.00  0.00     0.051 A 
ATOM     15  C   UNL     1     -39.820   2.897  78.199  1.00  0.00     0.157 A 
ATOM     16  C   UNL     1     -37.454   3.245  78.608  1.00  0.00     0.062 A 
ATOM     17  C   UNL     1     -38.505   2.414  78.192  1.00  0.00     0.158 A 
BRANCH  15  18
ATOM     18  O   UNL     1     -40.862   2.070  77.786  1.00  0.00    -0.504 OA
ATOM     19  H   UNL     1     -40.695   1.113  77.494  1.00  0.00     0.293 HD
ENDBRANCH  15  18
BRANCH  17  20
ATOM     20  O   UNL     1     -38.250   1.112  77.768  1.00  0.00    -0.504 OA
ATOM     21  H   UNL     1     -37.871   0.414  78.398  1.00  0.00     0.293 HD
ENDBRANCH  17  20
ENDBRANCH   1  12
BRANCH   2  22
ATOM     22  O   UNL     1     -36.182   4.111  81.471  1.00  0.00    -0.502 OA
ATOM     23  H   UNL     1     -36.851   4.172  82.228  1.00  0.00     0.293 HD
ENDBRANCH   2  22
BRANCH   6  24
ATOM     24  O   UNL     1     -32.795   8.220  81.610  1.00  0.00    -0.507 OA
ATOM     25  H   UNL     1     -31.789   8.206  81.690  1.00  0.00     0.293 HD
ENDBRANCH   6  24
BRANCH   8  26
ATOM     26  O   UNL     1     -33.568  10.125  77.288  1.00  0.00    -0.508 OA
ATOM     27  H   UNL     1     -32.631  10.202  76.908  1.00  0.00     0.293 HD
ENDBRANCH   8  26
TORSDOF 6
ENDMDL
