MODEL 1
REMARK VINA RESULT:    -4.261      0.000      0.000
REMARK INTER + INTRA:          -4.655
REMARK INTER:                  -4.635
REMARK INTRA:                  -0.020
REMARK UNBOUND:                -0.020
REMARK SMILES OCc1ccco1
REMARK SMILES IDX 2 1 3 2 5 3 6 4 4 5 7 6 1 7
REMARK H PARENT 1 8
REMARK Flexibility Score: inf
ROOT
ATOM      1  C   UNL     1      12.051  26.703  53.278  1.00  0.00     0.231 C 
ENDROOT
BRANCH   1   2
ATOM      2  C   UNL     1      11.568  28.037  53.747  1.00  0.00     0.129 A 
ATOM      3  C   UNL     1      10.771  29.664  54.990  1.00  0.00     0.042 A 
ATOM      4  C   UNL     1      11.138  30.125  53.740  1.00  0.00     0.195 A 
ATOM      5  C   UNL     1      11.052  28.315  54.997  1.00  0.00     0.048 A 
ATOM      6  O   UNL     1      11.612  29.132  53.024  1.00  0.00    -0.467 OA
ENDBRANCH   1   2
BRANCH   1   7
ATOM      7  O   UNL     1      12.010  26.643  51.878  1.00  0.00    -0.388 OA
ATOM      8  H   UNL     1      12.866  27.026  51.553  1.00  0.00     0.211 HD
ENDBRANCH   1   7
TORSDOF 2
ENDMDL
MODEL 2
REMARK VINA RESULT:    -4.142     19.692     19.768
REMARK INTER + INTRA:          -4.525
REMARK INTER:                  -4.511
REMARK INTRA:                  -0.014
REMARK UNBOUND:                -0.020
REMARK SMILES OCc1ccco1
REMARK SMILES IDX 2 1 3 2 5 3 6 4 4 5 7 6 1 7
REMARK H PARENT 1 8
REMARK Flexibility Score: inf
ROOT
ATOM      1  C   UNL     1      16.277  19.027  70.266  1.00  0.00     0.231 C 
ENDROOT
BRANCH   1   2
ATOM      2  C   UNL     1      16.909  20.309  70.701  1.00  0.00     0.129 A 
ATOM      3  C   UNL     1      18.303  21.992  70.930  1.00  0.00     0.042 A 
ATOM      4  C   UNL     1      17.144  22.202  71.653  1.00  0.00     0.195 A 
ATOM      5  C   UNL     1      18.151  20.770  70.311  1.00  0.00     0.048 A 
ATOM      6  O   UNL     1      16.332  21.183  71.494  1.00  0.00    -0.467 OA
ENDBRANCH   1   2
BRANCH   1   7
ATOM      7  O   UNL     1      17.247  18.019  70.175  1.00  0.00    -0.388 OA
ATOM      8  H   UNL     1      17.210  17.513  71.029  1.00  0.00     0.211 HD
ENDBRANCH   1   7
TORSDOF 2
ENDMDL
MODEL 3
REMARK VINA RESULT:    -3.859     17.411     18.264
REMARK INTER + INTRA:          -4.217
REMARK INTER:                  -4.201
REMARK INTRA:                  -0.016
REMARK UNBOUND:                -0.020
REMARK SMILES OCc1ccco1
REMARK SMILES IDX 2 1 3 2 5 3 6 4 4 5 7 6 1 7
REMARK H PARENT 1 8
REMARK Flexibility Score: inf
ROOT
ATOM      1  C   UNL     1      13.731  12.027  63.799  1.00  0.00     0.231 C 
ENDROOT
BRANCH   1   2
ATOM      2  C   UNL     1      13.949  13.489  64.021  1.00  0.00     0.129 A 
ATOM      3  C   UNL     1      13.987  15.495  64.916  1.00  0.00     0.042 A 
ATOM      4  C   UNL     1      14.625  15.484  63.691  1.00  0.00     0.195 A 
ATOM      5  C   UNL     1      13.553  14.205  65.133  1.00  0.00     0.048 A 
ATOM      6  O   UNL     1      14.588  14.273  63.183  1.00  0.00    -0.467 OA
ENDBRANCH   1   2
BRANCH   1   7
ATOM      7  O   UNL     1      13.441  11.394  65.016  1.00  0.00    -0.388 OA
ATOM      8  H   UNL     1      13.507  12.091  65.720  1.00  0.00     0.211 HD
ENDBRANCH   1   7
TORSDOF 2
ENDMDL
MODEL 4
REMARK VINA RESULT:    -3.854      1.806      2.726
REMARK INTER + INTRA:          -4.212
REMARK INTER:                  -4.197
REMARK INTRA:                  -0.015
REMARK UNBOUND:                -0.020
REMARK SMILES OCc1ccco1
REMARK SMILES IDX 2 1 3 2 5 3 6 4 4 5 7 6 1 7
REMARK H PARENT 1 8
REMARK Flexibility Score: inf
ROOT
ATOM      1  C   UNL     1      10.923  28.752  53.565  1.00  0.00     0.231 C 
ENDROOT
BRANCH   1   2
ATOM      2  C   UNL     1      10.882  28.852  55.056  1.00  0.00     0.129 A 
ATOM      3  C   UNL     1      11.058  29.593  57.117  1.00  0.00     0.042 A 
ATOM      4  C   UNL     1      10.480  28.339  57.086  1.00  0.00     0.195 A 
ATOM      5  C   UNL     1      11.314  29.929  55.805  1.00  0.00     0.048 A 
ATOM      6  O   UNL     1      10.387  27.925  55.843  1.00  0.00    -0.467 OA
ENDBRANCH   1   2
BRANCH   1   7
ATOM      7  O   UNL     1      11.942  29.570  53.057  1.00  0.00    -0.388 OA
ATOM      8  H   UNL     1      11.995  29.383  52.084  1.00  0.00     0.211 HD
ENDBRANCH   1   7
TORSDOF 2
ENDMDL
MODEL 5
REMARK VINA RESULT:    -3.796     14.570     15.722
REMARK INTER + INTRA:          -4.149
REMARK INTER:                  -4.135
REMARK INTRA:                  -0.014
REMARK UNBOUND:                -0.020
REMARK SMILES OCc1ccco1
REMARK SMILES IDX 2 1 3 2 5 3 6 4 4 5 7 6 1 7
REMARK H PARENT 1 8
REMARK Flexibility Score: inf
ROOT
ATOM      1  C   UNL     1      20.097  17.363  62.402  1.00  0.00     0.231 C 
ENDROOT
BRANCH   1   2
ATOM      2  C   UNL     1      19.137  16.971  61.326  1.00  0.00     0.129 A 
ATOM      3  C   UNL     1      17.610  15.907  60.159  1.00  0.00     0.042 A 
ATOM      4  C   UNL     1      17.991  17.077  59.531  1.00  0.00     0.195 A 
ATOM      5  C   UNL     1      18.347  15.839  61.321  1.00  0.00     0.048 A 
ATOM      6  O   UNL     1      18.900  17.691  60.252  1.00  0.00    -0.467 OA
ENDBRANCH   1   2
BRANCH   1   7
ATOM      7  O   UNL     1      19.447  18.154  63.360  1.00  0.00    -0.388 OA
ATOM      8  H   UNL     1      19.283  17.569  64.145  1.00  0.00     0.211 HD
ENDBRANCH   1   7
TORSDOF 2
ENDMDL
MODEL 6
REMARK VINA RESULT:    -3.611     14.883     15.548
REMARK INTER + INTRA:          -3.948
REMARK INTER:                  -3.933
REMARK INTRA:                  -0.015
REMARK UNBOUND:                -0.020
REMARK SMILES OCc1ccco1
REMARK SMILES IDX 2 1 3 2 5 3 6 4 4 5 7 6 1 7
REMARK H PARENT 1 8
REMARK Flexibility Score: inf
ROOT
ATOM      1  C   UNL     1      17.954  15.782  58.522  1.00  0.00     0.231 C 
ENDROOT
BRANCH   1   2
ATOM      2  C   UNL     1      18.514  16.199  59.844  1.00  0.00     0.129 A 
ATOM      3  C   UNL     1      19.522  17.328  61.436  1.00  0.00     0.042 A 
ATOM      4  C   UNL     1      18.937  16.181  61.933  1.00  0.00     0.195 A 
ATOM      5  C   UNL     1      19.246  17.344  60.086  1.00  0.00     0.048 A 
ATOM      6  O   UNL     1      18.341  15.530  60.961  1.00  0.00    -0.467 OA
ENDBRANCH   1   2
BRANCH   1   7
ATOM      7  O   UNL     1      18.779  16.239  57.485  1.00  0.00    -0.388 OA
ATOM      8  H   UNL     1      19.458  15.531  57.331  1.00  0.00     0.211 HD
ENDBRANCH   1   7
TORSDOF 2
ENDMDL
MODEL 7
REMARK VINA RESULT:    -3.527     15.613     16.180
REMARK INTER + INTRA:          -3.856
REMARK INTER:                  -3.839
REMARK INTRA:                  -0.017
REMARK UNBOUND:                -0.020
REMARK SMILES OCc1ccco1
REMARK SMILES IDX 2 1 3 2 5 3 6 4 4 5 7 6 1 7
REMARK H PARENT 1 8
REMARK Flexibility Score: inf
ROOT
ATOM      1  C   UNL     1      16.926  14.814  60.469  1.00  0.00     0.231 C 
ENDROOT
BRANCH   1   2
ATOM      2  C   UNL     1      18.037  15.768  60.768  1.00  0.00     0.129 A 
ATOM      3  C   UNL     1      19.519  17.381  60.610  1.00  0.00     0.042 A 
ATOM      4  C   UNL     1      19.557  16.791  61.858  1.00  0.00     0.195 A 
ATOM      5  C   UNL     1      18.535  16.724  59.905  1.00  0.00     0.048 A 
ATOM      6  O   UNL     1      18.660  15.834  61.922  1.00  0.00    -0.467 OA
ENDBRANCH   1   2
BRANCH   1   7
ATOM      7  O   UNL     1      17.310  13.508  60.806  1.00  0.00    -0.388 OA
ATOM      8  H   UNL     1      16.629  13.169  61.444  1.00  0.00     0.211 HD
ENDBRANCH   1   7
TORSDOF 2
ENDMDL
MODEL 8
REMARK VINA RESULT:    -3.523     14.302     15.192
REMARK INTER + INTRA:          -3.853
REMARK INTER:                  -3.840
REMARK INTRA:                  -0.013
REMARK UNBOUND:                -0.020
REMARK SMILES OCc1ccco1
REMARK SMILES IDX 2 1 3 2 5 3 6 4 4 5 7 6 1 7
REMARK H PARENT 1 8
REMARK Flexibility Score: inf
ROOT
ATOM      1  C   UNL     1      15.883  16.558  62.193  1.00  0.00     0.231 C 
ENDROOT
BRANCH   1   2
ATOM      2  C   UNL     1      16.960  16.580  61.156  1.00  0.00     0.129 A 
ATOM      3  C   UNL     1      18.823  16.205  60.054  1.00  0.00     0.042 A 
ATOM      4  C   UNL     1      17.964  17.002  59.323  1.00  0.00     0.195 A 
ATOM      5  C   UNL     1      18.174  15.928  61.237  1.00  0.00     0.048 A 
ATOM      6  O   UNL     1      16.860  17.206  60.005  1.00  0.00    -0.467 OA
ENDBRANCH   1   2
BRANCH   1   7
ATOM      7  O   UNL     1      15.987  17.687  63.017  1.00  0.00    -0.388 OA
ATOM      8  H   UNL     1      15.126  18.174  62.940  1.00  0.00     0.211 HD
ENDBRANCH   1   7
TORSDOF 2
ENDMDL
MODEL 9
REMARK VINA RESULT:    -3.519     15.806     16.710
REMARK INTER + INTRA:          -3.848
REMARK INTER:                  -3.836
REMARK INTRA:                  -0.012
REMARK UNBOUND:                -0.020
REMARK SMILES OCc1ccco1
REMARK SMILES IDX 2 1 3 2 5 3 6 4 4 5 7 6 1 7
REMARK H PARENT 1 8
REMARK Flexibility Score: inf
ROOT
ATOM      1  C   UNL     1      15.494  16.409  62.527  1.00  0.00     0.231 C 
ENDROOT
BRANCH   1   2
ATOM      2  C   UNL     1      14.637  15.756  63.563  1.00  0.00     0.129 A 
ATOM      3  C   UNL     1      12.957  15.250  64.884  1.00  0.00     0.042 A 
ATOM      4  C   UNL     1      14.000  14.358  65.040  1.00  0.00     0.195 A 
ATOM      5  C   UNL     1      13.366  16.152  63.926  1.00  0.00     0.048 A 
ATOM      6  O   UNL     1      14.986  14.684  64.237  1.00  0.00    -0.467 OA
ENDBRANCH   1   2
BRANCH   1   7
ATOM      7  O   UNL     1      15.980  17.634  63.008  1.00  0.00    -0.388 OA
ATOM      8  H   UNL     1      15.202  18.248  63.055  1.00  0.00     0.211 HD
ENDBRANCH   1   7
TORSDOF 2
ENDMDL
