MODEL 1
REMARK VINA RESULT:    -5.105      0.000      0.000
REMARK INTER + INTRA:          -7.262
REMARK INTER:                  -7.791
REMARK INTRA:                   0.529
REMARK UNBOUND:                 0.529
REMARK SMILES CC1=CCC[C@H](C)C(=O)C[C@@H](C(C)C)C(=O)C1
REMARK SMILES IDX 8 1 9 2 6 3 7 4 5 5 4 6 3 7 2 8 1 9 10 11 11 12 15 13 16 14
REMARK SMILES IDX 17 15 12 17 13 18 14 19
REMARK H PARENT
REMARK Flexibility Score: 70.00
ROOT
ATOM      1  C   UNL     1     -16.627 -38.230  -4.573  1.00  0.00     0.136 C 
ATOM      2  O   UNL     1     -15.511 -38.072  -5.048  1.00  0.00    -0.299 OA
ENDROOT
BRANCH   1   3
ATOM      3  C   UNL     1     -17.183 -37.227  -3.576  1.00  0.00     0.053 C 
ATOM      4  C   UNL     1     -16.718 -35.791  -3.866  1.00  0.00     0.016 C 
BRANCH   3   5
ATOM      5  C   UNL     1     -18.720 -37.316  -3.483  1.00  0.00     0.015 C 
BRANCH   5   6
ATOM      6  C   UNL     1     -19.456 -36.285  -4.360  1.00  0.00     0.028 C 
BRANCH   6   7
ATOM      7  C   UNL     1     -20.923 -36.615  -4.453  1.00  0.00    -0.028 C 
ATOM      8  C   UNL     1     -21.468 -37.449  -5.370  1.00  0.00    -0.070 CG0
ATOM      9  C   UNL     1     -22.949 -37.726  -5.284  1.00  0.00     0.039 C 
ATOM     10  G   UNL     1     -20.660 -38.099  -6.484  1.00  0.00     0.000 G0
ENDBRANCH   6   7
ENDBRANCH   5   6
ENDBRANCH   3   5
ENDBRANCH   1   3
BRANCH   1  11
ATOM     11  C   UNL     1     -17.438 -39.431  -4.998  1.00  0.00     0.087 C 
BRANCH  11  12
ATOM     12  C   UNL     1     -18.262 -39.155  -6.284  1.00  0.00     0.066 C 
BRANCH  12  13
ATOM     13  C   UNL     1     -19.758 -39.200  -6.007  1.00  0.00     0.140 C 
ATOM     14  O   UNL     1     -20.240 -40.160  -5.423  1.00  0.00    -0.299 OA
BRANCH  13  15
ATOM     15  C   UNL     1     -20.670 -38.105  -6.503  1.00  0.00     0.106 CG0
ATOM     16  G   UNL     1     -21.463 -37.454  -5.379  1.00  0.00     0.000 G0
ENDBRANCH  13  15
ENDBRANCH  12  13
BRANCH  12  17
ATOM     17  C   UNL     1     -17.842 -40.093  -7.458  1.00  0.00    -0.006 C 
ATOM     18  C   UNL     1     -18.596 -39.834  -8.774  1.00  0.00     0.008 C 
ATOM     19  C   UNL     1     -16.325 -40.048  -7.699  1.00  0.00     0.008 C 
ENDBRANCH  12  17
ENDBRANCH  11  12
ENDBRANCH   1  11
TORSDOF 1
ENDMDL
MODEL 2
REMARK VINA RESULT:    -5.032      1.612      3.957
REMARK INTER + INTRA:          -7.151
REMARK INTER:                  -7.143
REMARK INTRA:                  -0.007
REMARK UNBOUND:                 0.529
REMARK SMILES CC1=CCC[C@H](C)C(=O)C[C@@H](C(C)C)C(=O)C1
REMARK SMILES IDX 8 1 9 2 6 3 7 4 5 5 4 6 3 7 2 8 1 9 10 11 11 12 15 13 16 14
REMARK SMILES IDX 17 15 12 17 13 18 14 19
REMARK H PARENT
REMARK Flexibility Score: 70.00
ROOT
ATOM      1  C   UNL     1     -20.699 -39.032  -6.384  1.00  0.00     0.136 C 
ATOM      2  O   UNL     1     -21.056 -40.091  -5.887  1.00  0.00    -0.299 OA
ENDROOT
BRANCH   1   3
ATOM      3  C   UNL     1     -21.554 -37.786  -6.224  1.00  0.00     0.053 C 
ATOM      4  C   UNL     1     -22.930 -38.093  -5.612  1.00  0.00     0.016 C 
BRANCH   3   5
ATOM      5  C   UNL     1     -20.813 -36.691  -5.428  1.00  0.00     0.015 C 
BRANCH   5   6
ATOM      6  C   UNL     1     -20.211 -37.189  -4.100  1.00  0.00     0.028 C 
BRANCH   6   7
ATOM      7  C   UNL     1     -18.830 -36.624  -3.896  1.00  0.00    -0.028 C 
ATOM      8  C   UNL     1     -17.684 -37.341  -3.986  1.00  0.00    -0.070 CG0
ATOM      9  C   UNL     1     -16.376 -36.609  -3.820  1.00  0.00     0.039 C 
ATOM     10  G   UNL     1     -17.663 -38.844  -4.228  1.00  0.00     0.000 G0
ENDBRANCH   6   7
ENDBRANCH   5   6
ENDBRANCH   3   5
ENDBRANCH   1   3
BRANCH   1  11
ATOM     11  C   UNL     1     -19.399 -38.987  -7.151  1.00  0.00     0.087 C 
BRANCH  11  12
ATOM     12  C   UNL     1     -18.331 -39.936  -6.547  1.00  0.00     0.066 C 
BRANCH  12  13
ATOM     13  C   UNL     1     -17.332 -39.175  -5.687  1.00  0.00     0.140 C 
ATOM     14  O   UNL     1     -16.242 -38.867  -6.147  1.00  0.00    -0.299 OA
BRANCH  13  15
ATOM     15  C   UNL     1     -17.641 -38.851  -4.246  1.00  0.00     0.106 CG0
ATOM     16  G   UNL     1     -17.686 -37.353  -3.982  1.00  0.00     0.000 G0
ENDBRANCH  13  15
ENDBRANCH  12  13
BRANCH  12  17
ATOM     17  C   UNL     1     -17.638 -40.805  -7.642  1.00  0.00    -0.006 C 
ATOM     18  C   UNL     1     -18.166 -42.248  -7.730  1.00  0.00     0.008 C 
ATOM     19  C   UNL     1     -17.704 -40.132  -9.021  1.00  0.00     0.008 C 
ENDBRANCH  12  17
ENDBRANCH  11  12
ENDBRANCH   1  11
TORSDOF 1
ENDMDL
MODEL 3
REMARK VINA RESULT:    -4.931      2.000      3.184
REMARK INTER + INTRA:          -6.996
REMARK INTER:                  -6.808
REMARK INTRA:                  -0.188
REMARK UNBOUND:                 0.529
REMARK SMILES CC1=CCC[C@H](C)C(=O)C[C@@H](C(C)C)C(=O)C1
REMARK SMILES IDX 8 1 9 2 6 3 7 4 5 5 4 6 3 7 2 8 1 9 10 11 11 12 15 13 16 14
REMARK SMILES IDX 17 15 12 17 13 18 14 19
REMARK H PARENT
REMARK Flexibility Score: 70.00
ROOT
ATOM      1  C   UNL     1     -16.773 -38.266  -4.425  1.00  0.00     0.136 C 
ATOM      2  O   UNL     1     -15.849 -37.480  -4.262  1.00  0.00    -0.299 OA
ENDROOT
BRANCH   1   3
ATOM      3  C   UNL     1     -18.164 -37.926  -3.918  1.00  0.00     0.053 C 
ATOM      4  C   UNL     1     -18.574 -36.483  -4.250  1.00  0.00     0.016 C 
BRANCH   3   5
ATOM      5  C   UNL     1     -19.211 -38.942  -4.420  1.00  0.00     0.015 C 
BRANCH   5   6
ATOM      6  C   UNL     1     -19.961 -38.486  -5.687  1.00  0.00     0.028 C 
BRANCH   6   7
ATOM      7  C   UNL     1     -20.369 -39.672  -6.521  1.00  0.00    -0.028 C 
ATOM      8  C   UNL     1     -19.659 -40.159  -7.566  1.00  0.00    -0.070 CG0
ATOM      9  C   UNL     1     -20.174 -41.398  -8.256  1.00  0.00     0.039 C 
ATOM     10  G   UNL     1     -18.386 -39.503  -8.082  1.00  0.00     0.000 G0
ENDBRANCH   6   7
ENDBRANCH   5   6
ENDBRANCH   3   5
ENDBRANCH   1   3
BRANCH   1  11
ATOM     11  C   UNL     1     -16.505 -39.569  -5.138  1.00  0.00     0.087 C 
BRANCH  11  12
ATOM     12  C   UNL     1     -16.176 -39.358  -6.640  1.00  0.00     0.066 C 
BRANCH  12  13
ATOM     13  C   UNL     1     -17.121 -40.148  -7.533  1.00  0.00     0.140 C 
ATOM     14  O   UNL     1     -16.843 -41.296  -7.849  1.00  0.00    -0.299 OA
BRANCH  13  15
ATOM     15  C   UNL     1     -18.370 -39.512  -8.093  1.00  0.00     0.106 CG0
ATOM     16  G   UNL     1     -19.641 -40.167  -7.572  1.00  0.00     0.000 G0
ENDBRANCH  13  15
ENDBRANCH  12  13
BRANCH  12  17
ATOM     17  C   UNL     1     -14.675 -39.644  -6.955  1.00  0.00    -0.006 C 
ATOM     18  C   UNL     1     -13.838 -38.384  -7.238  1.00  0.00     0.008 C 
ATOM     19  C   UNL     1     -14.016 -40.478  -5.845  1.00  0.00     0.008 C 
ENDBRANCH  12  17
ENDBRANCH  11  12
ENDBRANCH   1  11
TORSDOF 1
ENDMDL
MODEL 4
REMARK VINA RESULT:    -4.772      1.914      2.977
REMARK INTER + INTRA:          -6.754
REMARK INTER:                  -6.732
REMARK INTRA:                  -0.022
REMARK UNBOUND:                 0.529
REMARK SMILES CC1=CCC[C@H](C)C(=O)C[C@@H](C(C)C)C(=O)C1
REMARK SMILES IDX 8 1 9 2 6 3 7 4 5 5 4 6 3 7 2 8 1 9 10 11 11 12 15 13 16 14
REMARK SMILES IDX 17 15 12 17 13 18 14 19
REMARK H PARENT
REMARK Flexibility Score: 70.00
ROOT
ATOM      1  C   UNL     1     -16.165 -39.972  -6.602  1.00  0.00     0.136 C 
ATOM      2  O   UNL     1     -16.028 -40.030  -7.816  1.00  0.00    -0.299 OA
ENDROOT
BRANCH   1   3
ATOM      3  C   UNL     1     -15.114 -39.288  -5.745  1.00  0.00     0.053 C 
ATOM      4  C   UNL     1     -13.746 -39.213  -6.442  1.00  0.00     0.016 C 
BRANCH   3   5
ATOM      5  C   UNL     1     -15.587 -37.896  -5.275  1.00  0.00     0.015 C 
BRANCH   5   6
ATOM      6  C   UNL     1     -16.307 -37.912  -3.913  1.00  0.00     0.028 C 
BRANCH   6   7
ATOM      7  C   UNL     1     -17.554 -37.069  -3.959  1.00  0.00    -0.028 C 
ATOM      8  C   UNL     1     -18.810 -37.559  -4.081  1.00  0.00    -0.070 CG0
ATOM      9  C   UNL     1     -19.958 -36.581  -4.044  1.00  0.00     0.039 C 
ATOM     10  G   UNL     1     -19.109 -39.039  -4.270  1.00  0.00     0.000 G0
ENDBRANCH   6   7
ENDBRANCH   5   6
ENDBRANCH   3   5
ENDBRANCH   1   3
BRANCH   1  11
ATOM     11  C   UNL     1     -17.394 -40.589  -5.976  1.00  0.00     0.087 C 
BRANCH  11  12
ATOM     12  C   UNL     1     -18.703 -40.088  -6.642  1.00  0.00     0.066 C 
BRANCH  12  13
ATOM     13  C   UNL     1     -19.611 -39.398  -5.634  1.00  0.00     0.140 C 
ATOM     14  O   UNL     1     -20.743 -39.068  -5.959  1.00  0.00    -0.299 OA
BRANCH  13  15
ATOM     15  C   UNL     1     -19.111 -39.051  -4.253  1.00  0.00     0.106 CG0
ATOM     16  G   UNL     1     -18.825 -37.565  -4.093  1.00  0.00     0.000 G0
ENDBRANCH  13  15
ENDBRANCH  12  13
BRANCH  12  17
ATOM     17  C   UNL     1     -19.431 -41.224  -7.425  1.00  0.00    -0.006 C 
ATOM     18  C   UNL     1     -19.376 -41.071  -8.955  1.00  0.00     0.008 C 
ATOM     19  C   UNL     1     -18.916 -42.611  -7.013  1.00  0.00     0.008 C 
ENDBRANCH  12  17
ENDBRANCH  11  12
ENDBRANCH   1  11
TORSDOF 1
ENDMDL
MODEL 5
REMARK VINA RESULT:    -4.730      2.057      4.316
REMARK INTER + INTRA:          -6.690
REMARK INTER:                  -6.656
REMARK INTRA:                  -0.034
REMARK UNBOUND:                 0.529
REMARK SMILES CC1=CCC[C@H](C)C(=O)C[C@@H](C(C)C)C(=O)C1
REMARK SMILES IDX 8 1 9 2 6 3 7 4 5 5 4 6 3 7 2 8 1 9 10 11 11 12 15 13 16 14
REMARK SMILES IDX 17 15 12 17 13 18 14 19
REMARK H PARENT
REMARK Flexibility Score: 70.00
ROOT
ATOM      1  C   UNL     1     -22.076 -38.174  -6.115  1.00  0.00     0.136 C 
ATOM      2  O   UNL     1     -23.040 -38.922  -6.189  1.00  0.00    -0.299 OA
ENDROOT
BRANCH   1   3
ATOM      3  C   UNL     1     -22.237 -36.773  -5.549  1.00  0.00     0.053 C 
ATOM      4  C   UNL     1     -23.122 -36.745  -4.293  1.00  0.00     0.016 C 
BRANCH   3   5
ATOM      5  C   UNL     1     -20.868 -36.107  -5.293  1.00  0.00     0.015 C 
BRANCH   5   6
ATOM      6  C   UNL     1     -20.326 -36.332  -3.868  1.00  0.00     0.028 C 
BRANCH   6   7
ATOM      7  C   UNL     1     -18.821 -36.274  -3.856  1.00  0.00    -0.028 C 
ATOM      8  C   UNL     1     -18.008 -37.356  -3.876  1.00  0.00    -0.070 CG0
ATOM      9  C   UNL     1     -16.518 -37.123  -3.927  1.00  0.00     0.039 C 
ATOM     10  G   UNL     1     -18.528 -38.786  -3.829  1.00  0.00     0.000 G0
ENDBRANCH   6   7
ENDBRANCH   5   6
ENDBRANCH   3   5
ENDBRANCH   1   3
BRANCH   1  11
ATOM     11  C   UNL     1     -20.730 -38.667  -6.591  1.00  0.00     0.087 C 
BRANCH  11  12
ATOM     12  C   UNL     1     -20.146 -39.762  -5.660  1.00  0.00     0.066 C 
BRANCH  12  13
ATOM     13  C   UNL     1     -18.745 -39.400  -5.187  1.00  0.00     0.140 C 
ATOM     14  O   UNL     1     -17.779 -39.650  -5.894  1.00  0.00    -0.299 OA
BRANCH  13  15
ATOM     15  C   UNL     1     -18.521 -38.797  -3.822  1.00  0.00     0.106 CG0
ATOM     16  G   UNL     1     -17.993 -37.371  -3.895  1.00  0.00     0.000 G0
ENDBRANCH  13  15
ENDBRANCH  12  13
BRANCH  12  17
ATOM     17  C   UNL     1     -20.211 -41.178  -6.312  1.00  0.00    -0.006 C 
ATOM     18  C   UNL     1     -20.773 -42.273  -5.388  1.00  0.00     0.008 C 
ATOM     19  C   UNL     1     -20.988 -41.153  -7.637  1.00  0.00     0.008 C 
ENDBRANCH  12  17
ENDBRANCH  11  12
ENDBRANCH   1  11
TORSDOF 1
ENDMDL
MODEL 6
REMARK VINA RESULT:    -4.682      2.166      4.342
REMARK INTER + INTRA:          -6.617
REMARK INTER:                  -6.656
REMARK INTRA:                   0.039
REMARK UNBOUND:                 0.529
REMARK SMILES CC1=CCC[C@H](C)C(=O)C[C@@H](C(C)C)C(=O)C1
REMARK SMILES IDX 8 1 9 2 6 3 7 4 5 5 4 6 3 7 2 8 1 9 10 11 11 12 15 13 16 14
REMARK SMILES IDX 17 15 12 17 13 18 14 19
REMARK H PARENT
REMARK Flexibility Score: 70.00
ROOT
ATOM      1  C   UNL     1     -18.558 -38.135  -4.474  1.00  0.00     0.136 C 
ATOM      2  O   UNL     1     -18.848 -38.723  -3.441  1.00  0.00    -0.299 OA
ENDROOT
BRANCH   1   3
ATOM      3  C   UNL     1     -17.185 -37.506  -4.636  1.00  0.00     0.053 C 
ATOM      4  C   UNL     1     -17.037 -36.204  -3.834  1.00  0.00     0.016 C 
BRANCH   3   5
ATOM      5  C   UNL     1     -16.062 -38.509  -4.299  1.00  0.00     0.015 C 
BRANCH   5   6
ATOM      6  C   UNL     1     -16.272 -39.907  -4.913  1.00  0.00     0.028 C 
BRANCH   6   7
ATOM      7  C   UNL     1     -15.886 -39.913  -6.369  1.00  0.00    -0.028 C 
ATOM      8  C   UNL     1     -16.690 -40.325  -7.377  1.00  0.00    -0.070 CG0
ATOM      9  C   UNL     1     -16.174 -40.204  -8.789  1.00  0.00     0.039 C 
ATOM     10  G   UNL     1     -18.073 -40.918  -7.145  1.00  0.00     0.000 G0
ENDBRANCH   6   7
ENDBRANCH   5   6
ENDBRANCH   3   5
ENDBRANCH   1   3
BRANCH   1  11
ATOM     11  C   UNL     1     -19.584 -38.051  -5.579  1.00  0.00     0.087 C 
BRANCH  11  12
ATOM     12  C   UNL     1     -19.999 -39.453  -6.100  1.00  0.00     0.066 C 
BRANCH  12  13
ATOM     13  C   UNL     1     -19.160 -39.871  -7.299  1.00  0.00     0.140 C 
ATOM     14  O   UNL     1     -19.398 -39.402  -8.403  1.00  0.00    -0.299 OA
BRANCH  13  15
ATOM     15  C   UNL     1     -18.077 -40.912  -7.159  1.00  0.00     0.106 CG0
ATOM     16  G   UNL     1     -16.685 -40.336  -7.376  1.00  0.00     0.000 G0
ENDBRANCH  13  15
ENDBRANCH  12  13
BRANCH  12  17
ATOM     17  C   UNL     1     -21.532 -39.540  -6.381  1.00  0.00    -0.006 C 
ATOM     18  C   UNL     1     -22.162 -40.897  -6.021  1.00  0.00     0.008 C 
ATOM     19  C   UNL     1     -22.296 -38.401  -5.691  1.00  0.00     0.008 C 
ENDBRANCH  12  17
ENDBRANCH  11  12
ENDBRANCH   1  11
TORSDOF 1
ENDMDL
MODEL 7
REMARK VINA RESULT:    -4.616      1.644      4.029
REMARK INTER + INTRA:          -6.516
REMARK INTER:                  -6.938
REMARK INTRA:                   0.422
REMARK UNBOUND:                 0.529
REMARK SMILES CC1=CCC[C@H](C)C(=O)C[C@@H](C(C)C)C(=O)C1
REMARK SMILES IDX 8 1 9 2 6 3 7 4 5 5 4 6 3 7 2 8 1 9 10 11 11 12 15 13 16 14
REMARK SMILES IDX 17 15 12 17 13 18 14 19
REMARK H PARENT
REMARK Flexibility Score: 70.00
ROOT
ATOM      1  C   UNL     1     -18.464 -37.443  -4.102  1.00  0.00     0.136 C 
ATOM      2  O   UNL     1     -18.727 -38.107  -3.109  1.00  0.00    -0.299 OA
ENDROOT
BRANCH   1   3
ATOM      3  C   UNL     1     -17.019 -37.125  -4.449  1.00  0.00     0.053 C 
ATOM      4  C   UNL     1     -16.369 -36.172  -3.434  1.00  0.00     0.016 C 
BRANCH   3   5
ATOM      5  C   UNL     1     -16.187 -38.411  -4.631  1.00  0.00     0.015 C 
BRANCH   5   6
ATOM      6  C   UNL     1     -16.398 -39.100  -5.993  1.00  0.00     0.028 C 
BRANCH   6   7
ATOM      7  C   UNL     1     -17.237 -40.342  -5.838  1.00  0.00    -0.028 C 
ATOM      8  C   UNL     1     -18.544 -40.434  -6.177  1.00  0.00    -0.070 CG0
ATOM      9  C   UNL     1     -19.223 -41.772  -6.021  1.00  0.00     0.039 C 
ATOM     10  G   UNL     1     -19.355 -39.251  -6.687  1.00  0.00     0.000 G0
ENDBRANCH   6   7
ENDBRANCH   5   6
ENDBRANCH   3   5
ENDBRANCH   1   3
BRANCH   1  11
ATOM     11  C   UNL     1     -19.596 -36.953  -4.974  1.00  0.00     0.087 C 
BRANCH  11  12
ATOM     12  C   UNL     1     -20.819 -37.907  -4.936  1.00  0.00     0.066 C 
BRANCH  12  13
ATOM     13  C   UNL     1     -20.658 -39.058  -5.918  1.00  0.00     0.140 C 
ATOM     14  O   UNL     1     -21.559 -39.874  -6.053  1.00  0.00    -0.299 OA
BRANCH  13  15
ATOM     15  C   UNL     1     -19.371 -39.248  -6.683  1.00  0.00     0.106 CG0
ATOM     16  G   UNL     1     -18.566 -40.437  -6.181  1.00  0.00     0.000 G0
ENDBRANCH  13  15
ENDBRANCH  12  13
BRANCH  12  17
ATOM     17  C   UNL     1     -22.164 -37.139  -5.127  1.00  0.00    -0.006 C 
ATOM     18  C   UNL     1     -22.511 -36.178  -3.976  1.00  0.00     0.008 C 
ATOM     19  C   UNL     1     -22.199 -36.392  -6.469  1.00  0.00     0.008 C 
ENDBRANCH  12  17
ENDBRANCH  11  12
ENDBRANCH   1  11
TORSDOF 1
ENDMDL
MODEL 8
REMARK VINA RESULT:    -4.475      2.241      5.381
REMARK INTER + INTRA:          -6.301
REMARK INTER:                  -6.573
REMARK INTRA:                   0.273
REMARK UNBOUND:                 0.529
REMARK SMILES CC1=CCC[C@H](C)C(=O)C[C@@H](C(C)C)C(=O)C1
REMARK SMILES IDX 8 1 9 2 6 3 7 4 5 5 4 6 3 7 2 8 1 9 10 11 11 12 15 13 16 14
REMARK SMILES IDX 17 15 12 17 13 18 14 19
REMARK H PARENT
REMARK Flexibility Score: 70.00
ROOT
ATOM      1  C   UNL     1     -20.450 -39.424  -5.755  1.00  0.00     0.136 C 
ATOM      2  O   UNL     1     -20.816 -38.361  -6.237  1.00  0.00    -0.299 OA
ENDROOT
BRANCH   1   3
ATOM      3  C   UNL     1     -21.030 -40.734  -6.261  1.00  0.00     0.053 C 
ATOM      4  C   UNL     1     -22.499 -40.923  -5.850  1.00  0.00     0.016 C 
BRANCH   3   5
ATOM      5  C   UNL     1     -20.846 -40.880  -7.786  1.00  0.00     0.015 C 
BRANCH   5   6
ATOM      6  C   UNL     1     -19.379 -40.780  -8.247  1.00  0.00     0.028 C 
BRANCH   6   7
ATOM      7  C   UNL     1     -18.529 -41.804  -7.542  1.00  0.00    -0.028 C 
ATOM      8  C   UNL     1     -17.407 -41.521  -6.839  1.00  0.00    -0.070 CG0
ATOM      9  C   UNL     1     -16.706 -42.656  -6.136  1.00  0.00     0.039 C 
ATOM     10  G   UNL     1     -16.818 -40.120  -6.745  1.00  0.00     0.000 G0
ENDBRANCH   6   7
ENDBRANCH   5   6
ENDBRANCH   3   5
ENDBRANCH   1   3
BRANCH   1  11
ATOM     11  C   UNL     1     -19.414 -39.410  -4.656  1.00  0.00     0.087 C 
BRANCH  11  12
ATOM     12  C   UNL     1     -18.153 -38.596  -5.052  1.00  0.00     0.066 C 
BRANCH  12  13
ATOM     13  C   UNL     1     -16.978 -39.511  -5.367  1.00  0.00     0.140 C 
ATOM     14  O   UNL     1     -16.124 -39.722  -4.517  1.00  0.00    -0.299 OA
BRANCH  13  15
ATOM     15  C   UNL     1     -16.811 -40.110  -6.742  1.00  0.00     0.106 CG0
ATOM     16  G   UNL     1     -17.390 -41.515  -6.838  1.00  0.00     0.000 G0
ENDBRANCH  13  15
ENDBRANCH  12  13
BRANCH  12  17
ATOM     17  C   UNL     1     -17.800 -37.513  -3.986  1.00  0.00    -0.006 C 
ATOM     18  C   UNL     1     -16.420 -36.861  -4.183  1.00  0.00     0.008 C 
ATOM     19  C   UNL     1     -18.889 -36.432  -3.900  1.00  0.00     0.008 C 
ENDBRANCH  12  17
ENDBRANCH  11  12
ENDBRANCH   1  11
TORSDOF 1
ENDMDL
MODEL 9
REMARK VINA RESULT:    -4.474      2.196      4.494
REMARK INTER + INTRA:          -6.300
REMARK INTER:                  -6.353
REMARK INTRA:                   0.054
REMARK UNBOUND:                 0.529
REMARK SMILES CC1=CCC[C@H](C)C(=O)C[C@@H](C(C)C)C(=O)C1
REMARK SMILES IDX 8 1 9 2 6 3 7 4 5 5 4 6 3 7 2 8 1 9 10 11 11 12 15 13 16 14
REMARK SMILES IDX 17 15 12 17 13 18 14 19
REMARK H PARENT
REMARK Flexibility Score: 70.00
ROOT
ATOM      1  C   UNL     1     -18.901 -38.322  -5.191  1.00  0.00     0.136 C 
ATOM      2  O   UNL     1     -19.050 -38.072  -4.003  1.00  0.00    -0.299 OA
ENDROOT
BRANCH   1   3
ATOM      3  C   UNL     1     -17.547 -38.771  -5.714  1.00  0.00     0.053 C 
ATOM      4  C   UNL     1     -16.692 -39.443  -4.629  1.00  0.00     0.016 C 
BRANCH   3   5
ATOM      5  C   UNL     1     -17.693 -39.672  -6.958  1.00  0.00     0.015 C 
BRANCH   5   6
ATOM      6  C   UNL     1     -18.031 -41.138  -6.628  1.00  0.00     0.028 C 
BRANCH   6   7
ATOM      7  C   UNL     1     -19.137 -41.643  -7.516  1.00  0.00    -0.028 C 
ATOM      8  C   UNL     1     -20.452 -41.630  -7.192  1.00  0.00    -0.070 CG0
ATOM      9  C   UNL     1     -21.440 -42.113  -8.225  1.00  0.00     0.039 C 
ATOM     10  G   UNL     1     -20.968 -41.171  -5.836  1.00  0.00     0.000 G0
ENDBRANCH   6   7
ENDBRANCH   5   6
ENDBRANCH   3   5
ENDBRANCH   1   3
BRANCH   1  11
ATOM     11  C   UNL     1     -20.083 -38.181  -6.121  1.00  0.00     0.087 C 
BRANCH  11  12
ATOM     12  C   UNL     1     -21.413 -38.607  -5.446  1.00  0.00     0.066 C 
BRANCH  12  13
ATOM     13  C   UNL     1     -21.880 -39.966  -5.945  1.00  0.00     0.140 C 
ATOM     14  O   UNL     1     -23.012 -40.097  -6.389  1.00  0.00    -0.299 OA
BRANCH  13  15
ATOM     15  C   UNL     1     -20.987 -41.178  -5.839  1.00  0.00     0.106 CG0
ATOM     16  G   UNL     1     -20.464 -41.637  -7.192  1.00  0.00     0.000 G0
ENDBRANCH  13  15
ENDBRANCH  12  13
BRANCH  12  17
ATOM     17  C   UNL     1     -22.513 -37.509  -5.580  1.00  0.00    -0.006 C 
ATOM     18  C   UNL     1     -22.961 -36.897  -4.241  1.00  0.00     0.008 C 
ATOM     19  C   UNL     1     -22.086 -36.399  -6.553  1.00  0.00     0.008 C 
ENDBRANCH  12  17
ENDBRANCH  11  12
ENDBRANCH   1  11
TORSDOF 1
ENDMDL
