MODEL 1
REMARK VINA RESULT:    -3.135      0.000      0.000
REMARK INTER + INTRA:          -3.774
REMARK INTER:                  -3.685
REMARK INTRA:                  -0.088
REMARK UNBOUND:                -0.088
REMARK SMILES O=C([O-])CCC(=O)[O-]
REMARK SMILES IDX 4 1 2 2 1 3 3 4 5 5 6 6 7 7 8 8
REMARK H PARENT
REMARK Flexibility Score: inf
ROOT
ATOM      1  C   UNL     1     -11.506   1.455  16.251  1.00  0.00     0.059 C 
ENDROOT
BRANCH   1   2
ATOM      2  C   UNL     1     -11.663   2.943  16.241  1.00  0.00     0.042 C 
ATOM      3  O   UNL     1     -10.712   3.679  15.866  1.00  0.00    -0.550 OA
ATOM      4  O   UNL     1     -12.842   3.521  16.695  1.00  0.00    -0.550 OA
ENDBRANCH   1   2
BRANCH   1   5
ATOM      5  C   UNL     1     -12.541   0.802  15.335  1.00  0.00     0.059 C 
BRANCH   5   6
ATOM      6  C   UNL     1     -11.879   0.225  14.124  1.00  0.00     0.042 C 
ATOM      7  O   UNL     1     -10.629   0.293  13.992  1.00  0.00    -0.550 OA
ATOM      8  O   UNL     1     -12.638  -0.433  13.164  1.00  0.00    -0.550 OA
ENDBRANCH   5   6
ENDBRANCH   1   5
TORSDOF 3
ENDMDL
MODEL 2
REMARK VINA RESULT:    -3.127      0.239      3.914
REMARK INTER + INTRA:          -3.763
REMARK INTER:                  -3.671
REMARK INTRA:                  -0.093
REMARK UNBOUND:                -0.088
REMARK SMILES O=C([O-])CCC(=O)[O-]
REMARK SMILES IDX 4 1 2 2 1 3 3 4 5 5 6 6 7 7 8 8
REMARK H PARENT
REMARK Flexibility Score: inf
ROOT
ATOM      1  C   UNL     1     -12.506   0.866  15.244  1.00  0.00     0.059 C 
ENDROOT
BRANCH   1   2
ATOM      2  C   UNL     1     -11.754   0.207  14.131  1.00  0.00     0.042 C 
ATOM      3  O   UNL     1     -12.294  -0.710  13.457  1.00  0.00    -0.550 OA
ATOM      4  O   UNL     1     -10.439   0.571  13.869  1.00  0.00    -0.550 OA
ENDBRANCH   1   2
BRANCH   1   5
ATOM      5  C   UNL     1     -11.537   1.452  16.271  1.00  0.00     0.059 C 
BRANCH   5   6
ATOM      6  C   UNL     1     -11.665   2.941  16.323  1.00  0.00     0.042 C 
ATOM      7  O   UNL     1     -10.704   3.673  15.969  1.00  0.00    -0.550 OA
ATOM      8  O   UNL     1     -12.865   3.523  16.715  1.00  0.00    -0.550 OA
ENDBRANCH   5   6
ENDBRANCH   1   5
TORSDOF 3
ENDMDL
MODEL 3
REMARK VINA RESULT:    -3.121      0.208      3.832
REMARK INTER + INTRA:          -3.757
REMARK INTER:                  -3.680
REMARK INTRA:                  -0.076
REMARK UNBOUND:                -0.088
REMARK SMILES O=C([O-])CCC(=O)[O-]
REMARK SMILES IDX 4 1 2 2 1 3 3 4 5 5 6 6 7 7 8 8
REMARK H PARENT
REMARK Flexibility Score: inf
ROOT
ATOM      1  C   UNL     1     -12.510   0.929  15.256  1.00  0.00     0.059 C 
ENDROOT
BRANCH   1   2
ATOM      2  C   UNL     1     -11.805   0.220  14.142  1.00  0.00     0.042 C 
ATOM      3  O   UNL     1     -10.617   0.519  13.853  1.00  0.00    -0.550 OA
ATOM      4  O   UNL     1     -12.478  -0.735  13.391  1.00  0.00    -0.550 OA
ENDBRANCH   1   2
BRANCH   1   5
ATOM      5  C   UNL     1     -11.500   1.518  16.240  1.00  0.00     0.059 C 
BRANCH   5   6
ATOM      6  C   UNL     1     -11.685   2.998  16.359  1.00  0.00     0.042 C 
ATOM      7  O   UNL     1     -10.744   3.780  16.062  1.00  0.00    -0.550 OA
ATOM      8  O   UNL     1     -12.914   3.516  16.749  1.00  0.00    -0.550 OA
ENDBRANCH   5   6
ENDBRANCH   1   5
TORSDOF 3
ENDMDL
MODEL 4
REMARK VINA RESULT:    -3.109      0.222      1.143
REMARK INTER + INTRA:          -3.743
REMARK INTER:                  -3.661
REMARK INTRA:                  -0.083
REMARK UNBOUND:                -0.088
REMARK SMILES O=C([O-])CCC(=O)[O-]
REMARK SMILES IDX 4 1 2 2 1 3 3 4 5 5 6 6 7 7 8 8
REMARK H PARENT
REMARK Flexibility Score: inf
ROOT
ATOM      1  C   UNL     1     -11.513   1.482  16.210  1.00  0.00     0.059 C 
ENDROOT
BRANCH   1   2
ATOM      2  C   UNL     1     -11.670   2.970  16.245  1.00  0.00     0.042 C 
ATOM      3  O   UNL     1     -10.716   3.716  15.899  1.00  0.00    -0.550 OA
ATOM      4  O   UNL     1     -12.852   3.533  16.708  1.00  0.00    -0.550 OA
ENDBRANCH   1   2
BRANCH   1   5
ATOM      5  C   UNL     1     -12.498   0.864  15.218  1.00  0.00     0.059 C 
BRANCH   5   6
ATOM      6  C   UNL     1     -11.764   0.139  14.134  1.00  0.00     0.042 C 
ATOM      7  O   UNL     1     -12.350  -0.743  13.452  1.00  0.00    -0.550 OA
ATOM      8  O   UNL     1     -10.448   0.472  13.842  1.00  0.00    -0.550 OA
ENDBRANCH   5   6
ENDBRANCH   1   5
TORSDOF 3
ENDMDL
MODEL 5
REMARK VINA RESULT:    -3.104      1.505      3.957
REMARK INTER + INTRA:          -3.737
REMARK INTER:                  -3.617
REMARK INTRA:                  -0.120
REMARK UNBOUND:                -0.088
REMARK SMILES O=C([O-])CCC(=O)[O-]
REMARK SMILES IDX 4 1 2 2 1 3 3 4 5 5 6 6 7 7 8 8
REMARK H PARENT
REMARK Flexibility Score: inf
ROOT
ATOM      1  C   UNL     1     -12.431   0.918  15.330  1.00  0.00     0.059 C 
ENDROOT
BRANCH   1   2
ATOM      2  C   UNL     1     -11.887   0.253  14.105  1.00  0.00     0.042 C 
ATOM      3  O   UNL     1     -12.668  -0.281  13.273  1.00  0.00    -0.550 OA
ATOM      4  O   UNL     1     -10.514   0.179  13.906  1.00  0.00    -0.550 OA
ENDBRANCH   1   2
BRANCH   1   5
ATOM      5  C   UNL     1     -11.486   2.021  15.805  1.00  0.00     0.059 C 
BRANCH   5   6
ATOM      6  C   UNL     1     -10.892   1.668  17.132  1.00  0.00     0.042 C 
ATOM      7  O   UNL     1      -9.869   0.936  17.193  1.00  0.00    -0.550 OA
ATOM      8  O   UNL     1     -11.438   2.188  18.299  1.00  0.00    -0.550 OA
ENDBRANCH   5   6
ENDBRANCH   1   5
TORSDOF 3
ENDMDL
MODEL 6
REMARK VINA RESULT:    -3.059      1.279      3.901
REMARK INTER + INTRA:          -3.684
REMARK INTER:                  -3.652
REMARK INTRA:                  -0.032
REMARK UNBOUND:                -0.088
REMARK SMILES O=C([O-])CCC(=O)[O-]
REMARK SMILES IDX 4 1 2 2 1 3 3 4 5 5 6 6 7 7 8 8
REMARK H PARENT
REMARK Flexibility Score: inf
ROOT
ATOM      1  C   UNL     1     -10.609   1.631  15.320  1.00  0.00     0.059 C 
ENDROOT
BRANCH   1   2
ATOM      2  C   UNL     1     -10.495   0.581  14.260  1.00  0.00     0.042 C 
ATOM      3  O   UNL     1      -9.369   0.281  13.784  1.00  0.00    -0.550 OA
ATOM      4  O   UNL     1     -11.639  -0.031  13.763  1.00  0.00    -0.550 OA
ENDBRANCH   1   2
BRANCH   1   5
ATOM      5  C   UNL     1     -12.013   1.631  15.924  1.00  0.00     0.059 C 
BRANCH   5   6
ATOM      6  C   UNL     1     -12.139   2.704  16.960  1.00  0.00     0.042 C 
ATOM      7  O   UNL     1     -11.480   2.632  18.030  1.00  0.00    -0.550 OA
ATOM      8  O   UNL     1     -12.945   3.810  16.721  1.00  0.00    -0.550 OA
ENDBRANCH   5   6
ENDBRANCH   1   5
TORSDOF 3
ENDMDL
MODEL 7
REMARK VINA RESULT:    -3.010      1.484      1.555
REMARK INTER + INTRA:          -3.626
REMARK INTER:                  -3.510
REMARK INTRA:                  -0.115
REMARK UNBOUND:                -0.088
REMARK SMILES O=C([O-])CCC(=O)[O-]
REMARK SMILES IDX 4 1 2 2 1 3 3 4 5 5 6 6 7 7 8 8
REMARK H PARENT
REMARK Flexibility Score: inf
ROOT
ATOM      1  C   UNL     1     -11.492   2.045  15.739  1.00  0.00     0.059 C 
ENDROOT
BRANCH   1   2
ATOM      2  C   UNL     1     -10.905   1.695  17.070  1.00  0.00     0.042 C 
ATOM      3  O   UNL     1      -9.882   0.965  17.140  1.00  0.00    -0.550 OA
ATOM      4  O   UNL     1     -11.518   2.135  18.237  1.00  0.00    -0.550 OA
ENDBRANCH   1   2
BRANCH   1   5
ATOM      5  C   UNL     1     -12.395   0.917  15.239  1.00  0.00     0.059 C 
BRANCH   5   6
ATOM      6  C   UNL     1     -11.760   0.209  14.084  1.00  0.00     0.042 C 
ATOM      7  O   UNL     1     -10.534   0.366  13.842  1.00  0.00    -0.550 OA
ATOM      8  O   UNL     1     -12.510  -0.663  13.305  1.00  0.00    -0.550 OA
ENDBRANCH   5   6
ENDBRANCH   1   5
TORSDOF 3
ENDMDL
MODEL 8
REMARK VINA RESULT:    -2.969      2.139      3.926
REMARK INTER + INTRA:          -3.578
REMARK INTER:                  -3.475
REMARK INTRA:                  -0.104
REMARK UNBOUND:                -0.088
REMARK SMILES O=C([O-])CCC(=O)[O-]
REMARK SMILES IDX 4 1 2 2 1 3 3 4 5 5 6 6 7 7 8 8
REMARK H PARENT
REMARK Flexibility Score: inf
ROOT
ATOM      1  C   UNL     1     -10.218   0.927  14.842  1.00  0.00     0.059 C 
ENDROOT
BRANCH   1   2
ATOM      2  C   UNL     1     -11.677   0.674  14.625  1.00  0.00     0.042 C 
ATOM      3  O   UNL     1     -12.525   1.101  15.453  1.00  0.00    -0.550 OA
ATOM      4  O   UNL     1     -12.097  -0.077  13.535  1.00  0.00    -0.550 OA
ENDBRANCH   1   2
BRANCH   1   5
ATOM      5  C   UNL     1     -10.002   2.302  15.474  1.00  0.00     0.059 C 
BRANCH   5   6
ATOM      6  C   UNL     1      -9.531   2.162  16.887  1.00  0.00     0.042 C 
ATOM      7  O   UNL     1      -8.865   3.084  17.428  1.00  0.00    -0.550 OA
ATOM      8  O   UNL     1      -9.870   1.034  17.624  1.00  0.00    -0.550 OA
ENDBRANCH   5   6
ENDBRANCH   1   5
TORSDOF 3
ENDMDL
MODEL 9
REMARK VINA RESULT:    -2.904      2.196      2.454
REMARK INTER + INTRA:          -3.502
REMARK INTER:                  -3.401
REMARK INTRA:                  -0.100
REMARK UNBOUND:                -0.088
REMARK SMILES O=C([O-])CCC(=O)[O-]
REMARK SMILES IDX 4 1 2 2 1 3 3 4 5 5 6 6 7 7 8 8
REMARK H PARENT
REMARK Flexibility Score: inf
ROOT
ATOM      1  C   UNL     1      -9.790   2.365  15.592  1.00  0.00     0.059 C 
ENDROOT
BRANCH   1   2
ATOM      2  C   UNL     1      -9.553   2.376  17.070  1.00  0.00     0.042 C 
ATOM      3  O   UNL     1      -9.054   3.389  17.625  1.00  0.00    -0.550 OA
ATOM      4  O   UNL     1      -9.839   1.246  17.827  1.00  0.00    -0.550 OA
ENDBRANCH   1   2
BRANCH   1   5
ATOM      5  C   UNL     1     -10.001   0.935  15.094  1.00  0.00     0.059 C 
BRANCH   5   6
ATOM      6  C   UNL     1     -11.436   0.713  14.731  1.00  0.00     0.042 C 
ATOM      7  O   UNL     1     -11.733   0.052  13.702  1.00  0.00    -0.550 OA
ATOM      8  O   UNL     1     -12.445   1.193  15.557  1.00  0.00    -0.550 OA
ENDBRANCH   5   6
ENDBRANCH   1   5
TORSDOF 3
ENDMDL
