MODEL 1
REMARK VINA RESULT:    -3.554      0.000      0.000
REMARK INTER + INTRA:         -11.484
REMARK INTER:                  -7.709
REMARK INTRA:                  -3.776
REMARK UNBOUND:                -3.776
REMARK SMILES CCCCCCCCCCCCCCCCCCCCCC(=O)[O-]
REMARK SMILES IDX 12 1 11 2 10 3 9 4 8 5 7 6 6 7 5 8 4 9 3 10 2 11 1 12 13 13
REMARK SMILES IDX 14 14 15 15 16 16 17 17 18 18 19 19 20 20 21 21 22 22 23 23
REMARK SMILES IDX 24 24
REMARK H PARENT
REMARK Flexibility Score: inf
ROOT
ATOM      1  C   UNL     1     119.180  52.515  53.551  1.00  0.00     0.000 C 
ENDROOT
BRANCH   1   2
ATOM      2  C   UNL     1     117.963  51.631  53.865  1.00  0.00     0.000 C 
BRANCH   2   3
ATOM      3  C   UNL     1     117.363  50.986  52.605  1.00  0.00     0.000 C 
BRANCH   3   4
ATOM      4  C   UNL     1     115.858  51.270  52.464  1.00  0.00    -0.000 C 
BRANCH   4   5
ATOM      5  C   UNL     1     115.412  52.522  53.235  1.00  0.00    -0.000 C 
BRANCH   5   6
ATOM      6  C   UNL     1     115.562  53.814  52.413  1.00  0.00    -0.000 C 
BRANCH   6   7
ATOM      7  C   UNL     1     115.264  53.594  50.920  1.00  0.00    -0.000 C 
BRANCH   7   8
ATOM      8  C   UNL     1     116.293  54.281  50.008  1.00  0.00    -0.000 C 
BRANCH   8   9
ATOM      9  C   UNL     1     117.643  53.547  50.051  1.00  0.00    -0.000 C 
BRANCH   9  10
ATOM     10  C   UNL     1     118.813  54.480  50.399  1.00  0.00    -0.000 C 
BRANCH  10  11
ATOM     11  C   UNL     1     118.355  55.786  51.063  1.00  0.00    -0.003 C 
ATOM     12  C   UNL     1     119.282  56.943  50.699  1.00  0.00     0.004 C 
ENDBRANCH  10  11
ENDBRANCH   9  10
ENDBRANCH   8   9
ENDBRANCH   7   8
ENDBRANCH   6   7
ENDBRANCH   5   6
ENDBRANCH   4   5
ENDBRANCH   3   4
ENDBRANCH   2   3
ENDBRANCH   1   2
BRANCH   1  13
ATOM     13  C   UNL     1     119.027  53.906  54.178  1.00  0.00     0.000 C 
BRANCH  13  14
ATOM     14  C   UNL     1     119.663  53.954  55.575  1.00  0.00     0.000 C 
BRANCH  14  15
ATOM     15  C   UNL     1     120.825  52.949  55.724  1.00  0.00     0.000 C 
BRANCH  15  16
ATOM     16  C   UNL     1     122.203  53.615  55.908  1.00  0.00     0.000 C 
BRANCH  16  17
ATOM     17  C   UNL     1     122.777  54.290  54.647  1.00  0.00     0.000 C 
BRANCH  17  18
ATOM     18  C   UNL     1     123.301  53.316  53.576  1.00  0.00     0.000 C 
BRANCH  18  19
ATOM     19  C   UNL     1     122.561  53.459  52.234  1.00  0.00     0.000 C 
BRANCH  19  20
ATOM     20  C   UNL     1     122.038  54.883  51.993  1.00  0.00     0.006 C 
BRANCH  20  21
ATOM     21  C   UNL     1     122.894  55.672  50.994  1.00  0.00     0.053 C 
BRANCH  21  22
ATOM     22  C   UNL     1     123.667  56.745  51.696  1.00  0.00     0.041 C 
ATOM     23  O   UNL     1     123.311  57.949  51.599  1.00  0.00    -0.550 OA
ATOM     24  O   UNL     1     124.803  56.420  52.427  1.00  0.00    -0.550 OA
ENDBRANCH  21  22
ENDBRANCH  20  21
ENDBRANCH  19  20
ENDBRANCH  18  19
ENDBRANCH  17  18
ENDBRANCH  16  17
ENDBRANCH  15  16
ENDBRANCH  14  15
ENDBRANCH  13  14
ENDBRANCH   1  13
TORSDOF 20
ENDMDL
MODEL 2
REMARK VINA RESULT:    -3.388      1.380      2.525
REMARK INTER + INTRA:         -11.126
REMARK INTER:                  -7.966
REMARK INTRA:                  -3.160
REMARK UNBOUND:                -3.776
REMARK SMILES CCCCCCCCCCCCCCCCCCCCCC(=O)[O-]
REMARK SMILES IDX 12 1 11 2 10 3 9 4 8 5 7 6 6 7 5 8 4 9 3 10 2 11 1 12 13 13
REMARK SMILES IDX 14 14 15 15 16 16 17 17 18 18 19 19 20 20 21 21 22 22 23 23
REMARK SMILES IDX 24 24
REMARK H PARENT
REMARK Flexibility Score: inf
ROOT
ATOM      1  C   UNL     1     119.561  53.856  51.592  1.00  0.00     0.000 C 
ENDROOT
BRANCH   1   2
ATOM      2  C   UNL     1     120.442  52.619  51.828  1.00  0.00     0.000 C 
BRANCH   2   3
ATOM      3  C   UNL     1     119.786  51.324  51.325  1.00  0.00     0.000 C 
BRANCH   3   4
ATOM      4  C   UNL     1     119.182  50.491  52.469  1.00  0.00    -0.000 C 
BRANCH   4   5
ATOM      5  C   UNL     1     117.704  50.140  52.235  1.00  0.00    -0.000 C 
BRANCH   5   6
ATOM      6  C   UNL     1     116.864  51.354  51.800  1.00  0.00    -0.000 C 
BRANCH   6   7
ATOM      7  C   UNL     1     115.635  51.567  52.701  1.00  0.00    -0.000 C 
BRANCH   7   8
ATOM      8  C   UNL     1     115.401  53.049  53.033  1.00  0.00    -0.000 C 
BRANCH   8   9
ATOM      9  C   UNL     1     116.021  53.958  51.961  1.00  0.00    -0.000 C 
BRANCH   9  10
ATOM     10  C   UNL     1     115.085  54.182  50.762  1.00  0.00    -0.000 C 
BRANCH  10  11
ATOM     11  C   UNL     1     115.786  54.872  49.583  1.00  0.00    -0.003 C 
ATOM     12  C   UNL     1     116.905  55.790  50.069  1.00  0.00     0.004 C 
ENDBRANCH  10  11
ENDBRANCH   9  10
ENDBRANCH   8   9
ENDBRANCH   7   8
ENDBRANCH   6   7
ENDBRANCH   5   6
ENDBRANCH   4   5
ENDBRANCH   3   4
ENDBRANCH   2   3
ENDBRANCH   1   2
BRANCH   1  13
ATOM     13  C   UNL     1     119.424  54.687  52.874  1.00  0.00     0.000 C 
BRANCH  13  14
ATOM     14  C   UNL     1     119.020  53.803  54.063  1.00  0.00     0.000 C 
BRANCH  14  15
ATOM     15  C   UNL     1     119.994  53.940  55.252  1.00  0.00     0.000 C 
BRANCH  15  16
ATOM     16  C   UNL     1     120.894  52.707  55.464  1.00  0.00     0.000 C 
BRANCH  16  17
ATOM     17  C   UNL     1     122.371  52.897  55.065  1.00  0.00     0.000 C 
BRANCH  17  18
ATOM     18  C   UNL     1     122.722  54.303  54.544  1.00  0.00     0.000 C 
BRANCH  18  19
ATOM     19  C   UNL     1     123.424  54.268  53.176  1.00  0.00     0.000 C 
BRANCH  19  20
ATOM     20  C   UNL     1     123.472  55.645  52.496  1.00  0.00     0.006 C 
BRANCH  20  21
ATOM     21  C   UNL     1     124.900  56.177  52.323  1.00  0.00     0.053 C 
BRANCH  21  22
ATOM     22  C   UNL     1     124.879  57.619  51.926  1.00  0.00     0.041 C 
ATOM     23  O   UNL     1     125.952  58.277  51.870  1.00  0.00    -0.550 OA
ATOM     24  O   UNL     1     123.670  58.250  51.654  1.00  0.00    -0.550 OA
ENDBRANCH  21  22
ENDBRANCH  20  21
ENDBRANCH  19  20
ENDBRANCH  18  19
ENDBRANCH  17  18
ENDBRANCH  16  17
ENDBRANCH  15  16
ENDBRANCH  14  15
ENDBRANCH  13  14
ENDBRANCH   1  13
TORSDOF 20
ENDMDL
MODEL 3
REMARK VINA RESULT:    -3.371      1.476      3.479
REMARK INTER + INTRA:         -11.089
REMARK INTER:                  -7.372
REMARK INTRA:                  -3.716
REMARK UNBOUND:                -3.776
REMARK SMILES CCCCCCCCCCCCCCCCCCCCCC(=O)[O-]
REMARK SMILES IDX 12 1 11 2 10 3 9 4 8 5 7 6 6 7 5 8 4 9 3 10 2 11 1 12 13 13
REMARK SMILES IDX 14 14 15 15 16 16 17 17 18 18 19 19 20 20 21 21 22 22 23 23
REMARK SMILES IDX 24 24
REMARK H PARENT
REMARK Flexibility Score: inf
ROOT
ATOM      1  C   UNL     1     115.935  52.155  53.884  1.00  0.00     0.000 C 
ENDROOT
BRANCH   1   2
ATOM      2  C   UNL     1     115.633  53.402  53.038  1.00  0.00     0.000 C 
BRANCH   2   3
ATOM      3  C   UNL     1     115.614  53.100  51.531  1.00  0.00     0.000 C 
BRANCH   3   4
ATOM      4  C   UNL     1     116.565  54.014  50.739  1.00  0.00    -0.000 C 
BRANCH   4   5
ATOM      5  C   UNL     1     117.472  54.859  51.647  1.00  0.00    -0.000 C 
BRANCH   5   6
ATOM      6  C   UNL     1     118.969  54.658  51.348  1.00  0.00    -0.000 C 
BRANCH   6   7
ATOM      7  C   UNL     1     119.252  53.307  50.670  1.00  0.00    -0.000 C 
BRANCH   7   8
ATOM      8  C   UNL     1     120.308  52.482  51.423  1.00  0.00    -0.000 C 
BRANCH   8   9
ATOM      9  C   UNL     1     119.725  51.141  51.894  1.00  0.00    -0.000 C 
BRANCH   9  10
ATOM     10  C   UNL     1     118.415  50.779  51.175  1.00  0.00    -0.000 C 
BRANCH  10  11
ATOM     11  C   UNL     1     117.738  49.534  51.765  1.00  0.00    -0.003 C 
ATOM     12  C   UNL     1     116.298  49.407  51.274  1.00  0.00     0.004 C 
ENDBRANCH  10  11
ENDBRANCH   9  10
ENDBRANCH   8   9
ENDBRANCH   7   8
ENDBRANCH   6   7
ENDBRANCH   5   6
ENDBRANCH   4   5
ENDBRANCH   3   4
ENDBRANCH   2   3
ENDBRANCH   1   2
BRANCH   1  13
ATOM     13  C   UNL     1     117.392  52.152  54.360  1.00  0.00     0.000 C 
BRANCH  13  14
ATOM     14  C   UNL     1     117.739  53.462  55.083  1.00  0.00     0.000 C 
BRANCH  14  15
ATOM     15  C   UNL     1     119.195  53.904  54.828  1.00  0.00     0.000 C 
BRANCH  15  16
ATOM     16  C   UNL     1     120.087  53.857  56.084  1.00  0.00     0.000 C 
BRANCH  16  17
ATOM     17  C   UNL     1     121.388  53.044  55.933  1.00  0.00     0.000 C 
BRANCH  17  18
ATOM     18  C   UNL     1     122.616  53.867  55.501  1.00  0.00     0.000 C 
BRANCH  18  19
ATOM     19  C   UNL     1     123.085  53.526  54.076  1.00  0.00     0.000 C 
BRANCH  19  20
ATOM     20  C   UNL     1     122.746  54.627  53.059  1.00  0.00     0.006 C 
BRANCH  20  21
ATOM     21  C   UNL     1     123.900  55.613  52.839  1.00  0.00     0.053 C 
BRANCH  21  22
ATOM     22  C   UNL     1     124.620  55.304  51.564  1.00  0.00     0.041 C 
ATOM     23  O   UNL     1     124.485  56.055  50.562  1.00  0.00    -0.550 OA
ATOM     24  O   UNL     1     125.412  54.166  51.469  1.00  0.00    -0.550 OA
ENDBRANCH  21  22
ENDBRANCH  20  21
ENDBRANCH  19  20
ENDBRANCH  18  19
ENDBRANCH  17  18
ENDBRANCH  16  17
ENDBRANCH  15  16
ENDBRANCH  14  15
ENDBRANCH  13  14
ENDBRANCH   1  13
TORSDOF 20
ENDMDL
MODEL 4
REMARK VINA RESULT:    -3.367      1.712      3.458
REMARK INTER + INTRA:         -11.079
REMARK INTER:                  -8.297
REMARK INTRA:                  -2.782
REMARK UNBOUND:                -3.776
REMARK SMILES CCCCCCCCCCCCCCCCCCCCCC(=O)[O-]
REMARK SMILES IDX 12 1 11 2 10 3 9 4 8 5 7 6 6 7 5 8 4 9 3 10 2 11 1 12 13 13
REMARK SMILES IDX 14 14 15 15 16 16 17 17 18 18 19 19 20 20 21 21 22 22 23 23
REMARK SMILES IDX 24 24
REMARK H PARENT
REMARK Flexibility Score: inf
ROOT
ATOM      1  C   UNL     1     119.290  52.493  52.730  1.00  0.00     0.000 C 
ENDROOT
BRANCH   1   2
ATOM      2  C   UNL     1     119.049  53.930  52.241  1.00  0.00     0.000 C 
BRANCH   2   3
ATOM      3  C   UNL     1     118.176  53.984  50.977  1.00  0.00     0.000 C 
BRANCH   3   4
ATOM      4  C   UNL     1     116.839  54.704  51.220  1.00  0.00    -0.000 C 
BRANCH   4   5
ATOM      5  C   UNL     1     115.665  53.732  51.415  1.00  0.00    -0.000 C 
BRANCH   5   6
ATOM      6  C   UNL     1     115.487  53.299  52.882  1.00  0.00    -0.000 C 
BRANCH   6   7
ATOM      7  C   UNL     1     115.566  51.773  53.054  1.00  0.00    -0.000 C 
BRANCH   7   8
ATOM      8  C   UNL     1     116.009  51.059  51.768  1.00  0.00    -0.000 C 
BRANCH   8   9
ATOM      9  C   UNL     1     115.033  49.931  51.400  1.00  0.00    -0.000 C 
BRANCH   9  10
ATOM     10  C   UNL     1     115.606  48.974  50.342  1.00  0.00    -0.000 C 
BRANCH  10  11
ATOM     11  C   UNL     1     114.822  49.010  49.022  1.00  0.00    -0.003 C 
ATOM     12  C   UNL     1     114.318  50.420  48.721  1.00  0.00     0.004 C 
ENDBRANCH  10  11
ENDBRANCH   9  10
ENDBRANCH   8   9
ENDBRANCH   7   8
ENDBRANCH   6   7
ENDBRANCH   5   6
ENDBRANCH   4   5
ENDBRANCH   3   4
ENDBRANCH   2   3
ENDBRANCH   1   2
BRANCH   1  13
ATOM     13  C   UNL     1     119.100  52.388  54.247  1.00  0.00     0.000 C 
BRANCH  13  14
ATOM     14  C   UNL     1     119.262  53.760  54.919  1.00  0.00     0.000 C 
BRANCH  14  15
ATOM     15  C   UNL     1     120.369  53.757  55.995  1.00  0.00     0.000 C 
BRANCH  15  16
ATOM     16  C   UNL     1     121.731  54.269  55.487  1.00  0.00     0.000 C 
BRANCH  16  17
ATOM     17  C   UNL     1     122.673  53.183  54.931  1.00  0.00     0.000 C 
BRANCH  17  18
ATOM     18  C   UNL     1     123.022  53.335  53.439  1.00  0.00     0.000 C 
BRANCH  18  19
ATOM     19  C   UNL     1     122.523  54.665  52.848  1.00  0.00     0.000 C 
BRANCH  19  20
ATOM     20  C   UNL     1     123.484  55.248  51.800  1.00  0.00     0.006 C 
BRANCH  20  21
ATOM     21  C   UNL     1     124.626  56.060  52.423  1.00  0.00     0.053 C 
BRANCH  21  22
ATOM     22  C   UNL     1     124.560  57.487  51.979  1.00  0.00     0.041 C 
ATOM     23  O   UNL     1     125.605  58.190  51.944  1.00  0.00    -0.550 OA
ATOM     24  O   UNL     1     123.337  58.055  51.640  1.00  0.00    -0.550 OA
ENDBRANCH  21  22
ENDBRANCH  20  21
ENDBRANCH  19  20
ENDBRANCH  18  19
ENDBRANCH  17  18
ENDBRANCH  16  17
ENDBRANCH  15  16
ENDBRANCH  14  15
ENDBRANCH  13  14
ENDBRANCH   1  13
TORSDOF 20
ENDMDL
MODEL 5
REMARK VINA RESULT:    -3.322      1.210      4.069
REMARK INTER + INTRA:         -10.982
REMARK INTER:                  -7.710
REMARK INTRA:                  -3.271
REMARK UNBOUND:                -3.776
REMARK SMILES CCCCCCCCCCCCCCCCCCCCCC(=O)[O-]
REMARK SMILES IDX 12 1 11 2 10 3 9 4 8 5 7 6 6 7 5 8 4 9 3 10 2 11 1 12 13 13
REMARK SMILES IDX 14 14 15 15 16 16 17 17 18 18 19 19 20 20 21 21 22 22 23 23
REMARK SMILES IDX 24 24
REMARK H PARENT
REMARK Flexibility Score: inf
ROOT
ATOM      1  C   UNL     1     118.469  54.971  51.174  1.00  0.00     0.000 C 
ENDROOT
BRANCH   1   2
ATOM      2  C   UNL     1     116.990  54.584  51.019  1.00  0.00     0.000 C 
BRANCH   2   3
ATOM      3  C   UNL     1     116.798  53.079  50.777  1.00  0.00     0.000 C 
BRANCH   3   4
ATOM      4  C   UNL     1     115.576  52.517  51.525  1.00  0.00    -0.000 C 
BRANCH   4   5
ATOM      5  C   UNL     1     115.961  51.541  52.648  1.00  0.00    -0.000 C 
BRANCH   5   6
ATOM      6  C   UNL     1     115.885  52.181  54.046  1.00  0.00    -0.000 C 
BRANCH   6   7
ATOM      7  C   UNL     1     117.237  52.760  54.498  1.00  0.00    -0.000 C 
BRANCH   7   8
ATOM      8  C   UNL     1     118.424  51.886  54.065  1.00  0.00    -0.000 C 
BRANCH   8   9
ATOM      9  C   UNL     1     119.664  52.746  53.775  1.00  0.00    -0.000 C 
BRANCH   9  10
ATOM     10  C   UNL     1     119.773  53.962  54.709  1.00  0.00    -0.000 C 
BRANCH  10  11
ATOM     11  C   UNL     1     120.506  53.640  56.019  1.00  0.00    -0.003 C 
ATOM     12  C   UNL     1     122.014  53.559  55.799  1.00  0.00     0.004 C 
ENDBRANCH  10  11
ENDBRANCH   9  10
ENDBRANCH   8   9
ENDBRANCH   7   8
ENDBRANCH   6   7
ENDBRANCH   5   6
ENDBRANCH   4   5
ENDBRANCH   3   4
ENDBRANCH   2   3
ENDBRANCH   1   2
BRANCH   1  13
ATOM     13  C   UNL     1     118.622  56.478  51.414  1.00  0.00     0.000 C 
BRANCH  13  14
ATOM     14  C   UNL     1     119.496  57.123  50.328  1.00  0.00     0.000 C 
BRANCH  14  15
ATOM     15  C   UNL     1     120.999  56.863  50.555  1.00  0.00     0.000 C 
BRANCH  15  16
ATOM     16  C   UNL     1     121.621  55.884  49.539  1.00  0.00     0.000 C 
BRANCH  16  17
ATOM     17  C   UNL     1     122.105  54.546  50.132  1.00  0.00     0.000 C 
BRANCH  17  18
ATOM     18  C   UNL     1     122.043  54.461  51.668  1.00  0.00     0.000 C 
BRANCH  18  19
ATOM     19  C   UNL     1     123.273  53.760  52.271  1.00  0.00     0.000 C 
BRANCH  19  20
ATOM     20  C   UNL     1     124.392  54.744  52.648  1.00  0.00     0.006 C 
BRANCH  20  21
ATOM     21  C   UNL     1     123.896  56.188  52.792  1.00  0.00     0.053 C 
BRANCH  21  22
ATOM     22  C   UNL     1     124.604  57.085  51.826  1.00  0.00     0.041 C 
ATOM     23  O   UNL     1     124.895  56.672  50.673  1.00  0.00    -0.550 OA
ATOM     24  O   UNL     1     124.977  58.368  52.212  1.00  0.00    -0.550 OA
ENDBRANCH  21  22
ENDBRANCH  20  21
ENDBRANCH  19  20
ENDBRANCH  18  19
ENDBRANCH  17  18
ENDBRANCH  16  17
ENDBRANCH  15  16
ENDBRANCH  14  15
ENDBRANCH  13  14
ENDBRANCH   1  13
TORSDOF 20
ENDMDL
MODEL 6
REMARK VINA RESULT:    -3.275      6.905      9.314
REMARK INTER + INTRA:         -10.880
REMARK INTER:                  -7.409
REMARK INTRA:                  -3.472
REMARK UNBOUND:                -3.776
REMARK SMILES CCCCCCCCCCCCCCCCCCCCCC(=O)[O-]
REMARK SMILES IDX 12 1 11 2 10 3 9 4 8 5 7 6 6 7 5 8 4 9 3 10 2 11 1 12 13 13
REMARK SMILES IDX 14 14 15 15 16 16 17 17 18 18 19 19 20 20 21 21 22 22 23 23
REMARK SMILES IDX 24 24
REMARK H PARENT
REMARK Flexibility Score: inf
ROOT
ATOM      1  C   UNL     1     125.627  54.196  48.446  1.00  0.00     0.000 C 
ENDROOT
BRANCH   1   2
ATOM      2  C   UNL     1     125.208  55.433  47.637  1.00  0.00     0.000 C 
BRANCH   2   3
ATOM      3  C   UNL     1     123.705  55.445  47.315  1.00  0.00     0.000 C 
BRANCH   3   4
ATOM      4  C   UNL     1     123.397  56.156  45.986  1.00  0.00    -0.000 C 
BRANCH   4   5
ATOM      5  C   UNL     1     124.520  57.108  45.545  1.00  0.00    -0.000 C 
BRANCH   5   6
ATOM      6  C   UNL     1     124.719  57.129  44.019  1.00  0.00    -0.000 C 
BRANCH   6   7
ATOM      7  C   UNL     1     124.666  55.720  43.404  1.00  0.00    -0.000 C 
BRANCH   7   8
ATOM      8  C   UNL     1     126.064  55.122  43.184  1.00  0.00    -0.000 C 
BRANCH   8   9
ATOM      9  C   UNL     1     126.045  53.597  43.369  1.00  0.00    -0.000 C 
BRANCH   9  10
ATOM     10  C   UNL     1     126.142  53.178  44.845  1.00  0.00    -0.000 C 
BRANCH  10  11
ATOM     11  C   UNL     1     124.907  52.403  45.325  1.00  0.00    -0.003 C 
ATOM     12  C   UNL     1     123.947  52.130  44.170  1.00  0.00     0.004 C 
ENDBRANCH  10  11
ENDBRANCH   9  10
ENDBRANCH   8   9
ENDBRANCH   7   8
ENDBRANCH   6   7
ENDBRANCH   5   6
ENDBRANCH   4   5
ENDBRANCH   3   4
ENDBRANCH   2   3
ENDBRANCH   1   2
BRANCH   1  13
ATOM     13  C   UNL     1     124.967  54.192  49.829  1.00  0.00     0.000 C 
BRANCH  13  14
ATOM     14  C   UNL     1     124.637  52.760  50.279  1.00  0.00     0.000 C 
BRANCH  14  15
ATOM     15  C   UNL     1     124.911  52.541  51.781  1.00  0.00     0.000 C 
BRANCH  15  16
ATOM     16  C   UNL     1     126.250  51.837  52.074  1.00  0.00     0.000 C 
BRANCH  16  17
ATOM     17  C   UNL     1     127.497  52.739  51.993  1.00  0.00     0.000 C 
BRANCH  17  18
ATOM     18  C   UNL     1     128.439  52.434  50.815  1.00  0.00     0.000 C 
BRANCH  18  19
ATOM     19  C   UNL     1     128.061  51.138  50.077  1.00  0.00     0.000 C 
BRANCH  19  20
ATOM     20  C   UNL     1     127.872  51.347  48.566  1.00  0.00     0.006 C 
BRANCH  20  21
ATOM     21  C   UNL     1     126.686  50.558  47.997  1.00  0.00     0.053 C 
BRANCH  21  22
ATOM     22  C   UNL     1     127.166  49.463  47.097  1.00  0.00     0.041 C 
ATOM     23  O   UNL     1     128.363  49.077  47.153  1.00  0.00    -0.550 OA
ATOM     24  O   UNL     1     126.302  48.894  46.169  1.00  0.00    -0.550 OA
ENDBRANCH  21  22
ENDBRANCH  20  21
ENDBRANCH  19  20
ENDBRANCH  18  19
ENDBRANCH  17  18
ENDBRANCH  16  17
ENDBRANCH  15  16
ENDBRANCH  14  15
ENDBRANCH  13  14
ENDBRANCH   1  13
TORSDOF 20
ENDMDL
MODEL 7
REMARK VINA RESULT:    -3.267      3.410      6.727
REMARK INTER + INTRA:         -10.863
REMARK INTER:                  -6.450
REMARK INTRA:                  -4.413
REMARK UNBOUND:                -3.776
REMARK SMILES CCCCCCCCCCCCCCCCCCCCCC(=O)[O-]
REMARK SMILES IDX 12 1 11 2 10 3 9 4 8 5 7 6 6 7 5 8 4 9 3 10 2 11 1 12 13 13
REMARK SMILES IDX 14 14 15 15 16 16 17 17 18 18 19 19 20 20 21 21 22 22 23 23
REMARK SMILES IDX 24 24
REMARK H PARENT
REMARK Flexibility Score: inf
ROOT
ATOM      1  C   UNL     1     115.205  53.684  50.525  1.00  0.00     0.000 C 
ENDROOT
BRANCH   1   2
ATOM      2  C   UNL     1     116.053  53.102  51.667  1.00  0.00     0.000 C 
BRANCH   2   3
ATOM      3  C   UNL     1     115.237  52.876  52.950  1.00  0.00     0.000 C 
BRANCH   3   4
ATOM      4  C   UNL     1     115.966  51.966  53.954  1.00  0.00    -0.000 C 
BRANCH   4   5
ATOM      5  C   UNL     1     116.574  52.744  55.131  1.00  0.00    -0.000 C 
BRANCH   5   6
ATOM      6  C   UNL     1     118.015  53.212  54.856  1.00  0.00    -0.000 C 
BRANCH   6   7
ATOM      7  C   UNL     1     118.804  52.202  54.005  1.00  0.00    -0.000 C 
BRANCH   7   8
ATOM      8  C   UNL     1     119.640  52.883  52.910  1.00  0.00    -0.000 C 
BRANCH   8   9
ATOM      9  C   UNL     1     119.328  54.386  52.835  1.00  0.00    -0.000 C 
BRANCH   9  10
ATOM     10  C   UNL     1     119.170  54.887  51.390  1.00  0.00    -0.000 C 
BRANCH  10  11
ATOM     11  C   UNL     1     118.662  56.334  51.315  1.00  0.00    -0.003 C 
ATOM     12  C   UNL     1     117.628  56.496  50.204  1.00  0.00     0.004 C 
ENDBRANCH  10  11
ENDBRANCH   9  10
ENDBRANCH   8   9
ENDBRANCH   7   8
ENDBRANCH   6   7
ENDBRANCH   5   6
ENDBRANCH   4   5
ENDBRANCH   3   4
ENDBRANCH   2   3
ENDBRANCH   1   2
BRANCH   1  13
ATOM     13  C   UNL     1     115.849  53.402  49.162  1.00  0.00     0.000 C 
BRANCH  13  14
ATOM     14  C   UNL     1     117.047  52.451  49.304  1.00  0.00     0.000 C 
BRANCH  14  15
ATOM     15  C   UNL     1     117.114  51.419  48.160  1.00  0.00     0.000 C 
BRANCH  15  16
ATOM     16  C   UNL     1     115.755  50.775  47.822  1.00  0.00     0.000 C 
BRANCH  16  17
ATOM     17  C   UNL     1     115.402  49.521  48.644  1.00  0.00     0.000 C 
BRANCH  17  18
ATOM     18  C   UNL     1     114.431  49.769  49.813  1.00  0.00     0.000 C 
BRANCH  18  19
ATOM     19  C   UNL     1     115.079  49.511  51.185  1.00  0.00     0.000 C 
BRANCH  19  20
ATOM     20  C   UNL     1     116.435  48.798  51.077  1.00  0.00     0.006 C 
BRANCH  20  21
ATOM     21  C   UNL     1     117.594  49.628  51.644  1.00  0.00     0.053 C 
BRANCH  21  22
ATOM     22  C   UNL     1     118.862  49.334  50.907  1.00  0.00     0.041 C 
ATOM     23  O   UNL     1     119.972  49.683  51.390  1.00  0.00    -0.550 OA
ATOM     24  O   UNL     1     118.818  48.706  49.667  1.00  0.00    -0.550 OA
ENDBRANCH  21  22
ENDBRANCH  20  21
ENDBRANCH  19  20
ENDBRANCH  18  19
ENDBRANCH  17  18
ENDBRANCH  16  17
ENDBRANCH  15  16
ENDBRANCH  14  15
ENDBRANCH  13  14
ENDBRANCH   1  13
TORSDOF 20
ENDMDL
MODEL 8
REMARK VINA RESULT:    -3.262      1.926      4.391
REMARK INTER + INTRA:         -10.851
REMARK INTER:                  -7.486
REMARK INTRA:                  -3.365
REMARK UNBOUND:                -3.776
REMARK SMILES CCCCCCCCCCCCCCCCCCCCCC(=O)[O-]
REMARK SMILES IDX 12 1 11 2 10 3 9 4 8 5 7 6 6 7 5 8 4 9 3 10 2 11 1 12 13 13
REMARK SMILES IDX 14 14 15 15 16 16 17 17 18 18 19 19 20 20 21 21 22 22 23 23
REMARK SMILES IDX 24 24
REMARK H PARENT
REMARK Flexibility Score: inf
ROOT
ATOM      1  C   UNL     1     117.392  51.619  53.842  1.00  0.00     0.000 C 
ENDROOT
BRANCH   1   2
ATOM      2  C   UNL     1     116.297  52.616  54.252  1.00  0.00     0.000 C 
BRANCH   2   3
ATOM      3  C   UNL     1     115.233  52.804  53.160  1.00  0.00     0.000 C 
BRANCH   3   4
ATOM      4  C   UNL     1     115.646  53.854  52.115  1.00  0.00    -0.000 C 
BRANCH   4   5
ATOM      5  C   UNL     1     115.592  53.317  50.676  1.00  0.00    -0.000 C 
BRANCH   5   6
ATOM      6  C   UNL     1     116.903  52.636  50.244  1.00  0.00    -0.000 C 
BRANCH   6   7
ATOM      7  C   UNL     1     116.689  51.170  49.827  1.00  0.00    -0.000 C 
BRANCH   7   8
ATOM      8  C   UNL     1     115.238  50.708  50.030  1.00  0.00    -0.000 C 
BRANCH   8   9
ATOM      9  C   UNL     1     115.135  49.721  51.204  1.00  0.00    -0.000 C 
BRANCH   9  10
ATOM     10  C   UNL     1     116.443  48.951  51.447  1.00  0.00    -0.000 C 
BRANCH  10  11
ATOM     11  C   UNL     1     116.403  47.522  50.890  1.00  0.00    -0.003 C 
ATOM     12  C   UNL     1     115.047  46.869  51.145  1.00  0.00     0.004 C 
ENDBRANCH  10  11
ENDBRANCH   9  10
ENDBRANCH   8   9
ENDBRANCH   7   8
ENDBRANCH   6   7
ENDBRANCH   5   6
ENDBRANCH   4   5
ENDBRANCH   3   4
ENDBRANCH   2   3
ENDBRANCH   1   2
BRANCH   1  13
ATOM     13  C   UNL     1     118.781  52.132  54.239  1.00  0.00     0.000 C 
BRANCH  13  14
ATOM     14  C   UNL     1     118.683  53.480  54.968  1.00  0.00     0.000 C 
BRANCH  14  15
ATOM     15  C   UNL     1     119.571  54.563  54.321  1.00  0.00     0.000 C 
BRANCH  15  16
ATOM     16  C   UNL     1     120.243  54.113  53.009  1.00  0.00     0.000 C 
BRANCH  16  17
ATOM     17  C   UNL     1     119.529  54.562  51.719  1.00  0.00     0.000 C 
BRANCH  17  18
ATOM     18  C   UNL     1     118.724  55.868  51.849  1.00  0.00     0.000 C 
BRANCH  18  19
ATOM     19  C   UNL     1     118.399  56.501  50.485  1.00  0.00     0.000 C 
BRANCH  19  20
ATOM     20  C   UNL     1     119.637  57.092  49.793  1.00  0.00     0.006 C 
BRANCH  20  21
ATOM     21  C   UNL     1     120.410  58.071  50.686  1.00  0.00     0.053 C 
BRANCH  21  22
ATOM     22  C   UNL     1     121.862  57.710  50.726  1.00  0.00     0.041 C 
ATOM     23  O   UNL     1     122.242  56.566  50.358  1.00  0.00    -0.550 OA
ATOM     24  O   UNL     1     122.794  58.622  51.207  1.00  0.00    -0.550 OA
ENDBRANCH  21  22
ENDBRANCH  20  21
ENDBRANCH  19  20
ENDBRANCH  18  19
ENDBRANCH  17  18
ENDBRANCH  16  17
ENDBRANCH  15  16
ENDBRANCH  14  15
ENDBRANCH  13  14
ENDBRANCH   1  13
TORSDOF 20
ENDMDL
MODEL 9
REMARK VINA RESULT:    -3.261      1.888      4.241
REMARK INTER + INTRA:         -10.850
REMARK INTER:                  -7.188
REMARK INTRA:                  -3.661
REMARK UNBOUND:                -3.776
REMARK SMILES CCCCCCCCCCCCCCCCCCCCCC(=O)[O-]
REMARK SMILES IDX 12 1 11 2 10 3 9 4 8 5 7 6 6 7 5 8 4 9 3 10 2 11 1 12 13 13
REMARK SMILES IDX 14 14 15 15 16 16 17 17 18 18 19 19 20 20 21 21 22 22 23 23
REMARK SMILES IDX 24 24
REMARK H PARENT
REMARK Flexibility Score: inf
ROOT
ATOM      1  C   UNL     1     119.340  54.687  51.585  1.00  0.00     0.000 C 
ENDROOT
BRANCH   1   2
ATOM      2  C   UNL     1     119.650  54.115  52.977  1.00  0.00     0.000 C 
BRANCH   2   3
ATOM      3  C   UNL     1     119.714  52.579  52.982  1.00  0.00     0.000 C 
BRANCH   3   4
ATOM      4  C   UNL     1     118.750  51.956  54.006  1.00  0.00    -0.000 C 
BRANCH   4   5
ATOM      5  C   UNL     1     117.730  52.966  54.555  1.00  0.00    -0.000 C 
BRANCH   5   6
ATOM      6  C   UNL     1     116.313  52.376  54.675  1.00  0.00    -0.000 C 
BRANCH   6   7
ATOM      7  C   UNL     1     115.568  52.369  53.329  1.00  0.00    -0.000 C 
BRANCH   7   8
ATOM      8  C   UNL     1     115.776  53.668  52.536  1.00  0.00    -0.000 C 
BRANCH   8   9
ATOM      9  C   UNL     1     115.489  53.453  51.042  1.00  0.00    -0.000 C 
BRANCH   9  10
ATOM     10  C   UNL     1     116.690  52.861  50.287  1.00  0.00    -0.000 C 
BRANCH  10  11
ATOM     11  C   UNL     1     116.513  51.370  49.965  1.00  0.00    -0.003 C 
ATOM     12  C   UNL     1     117.512  50.517  50.743  1.00  0.00     0.004 C 
ENDBRANCH  10  11
ENDBRANCH   9  10
ENDBRANCH   8   9
ENDBRANCH   7   8
ENDBRANCH   6   7
ENDBRANCH   5   6
ENDBRANCH   4   5
ENDBRANCH   3   4
ENDBRANCH   2   3
ENDBRANCH   1   2
BRANCH   1  13
ATOM     13  C   UNL     1     118.641  56.047  51.691  1.00  0.00     0.000 C 
BRANCH  13  14
ATOM     14  C   UNL     1     118.237  56.569  50.304  1.00  0.00     0.000 C 
BRANCH  14  15
ATOM     15  C   UNL     1     119.447  57.076  49.494  1.00  0.00     0.000 C 
BRANCH  15  16
ATOM     16  C   UNL     1     120.430  57.934  50.315  1.00  0.00     0.000 C 
BRANCH  16  17
ATOM     17  C   UNL     1     121.923  57.666  50.039  1.00  0.00     0.000 C 
BRANCH  17  18
ATOM     18  C   UNL     1     122.627  56.798  51.098  1.00  0.00     0.000 C 
BRANCH  18  19
ATOM     19  C   UNL     1     122.624  55.303  50.733  1.00  0.00     0.000 C 
BRANCH  19  20
ATOM     20  C   UNL     1     123.334  54.434  51.782  1.00  0.00     0.006 C 
BRANCH  20  21
ATOM     21  C   UNL     1     123.338  55.066  53.179  1.00  0.00     0.053 C 
BRANCH  21  22
ATOM     22  C   UNL     1     122.969  54.053  54.216  1.00  0.00     0.041 C 
ATOM     23  O   UNL     1     122.414  54.415  55.287  1.00  0.00    -0.550 OA
ATOM     24  O   UNL     1     123.271  52.710  54.018  1.00  0.00    -0.550 OA
ENDBRANCH  21  22
ENDBRANCH  20  21
ENDBRANCH  19  20
ENDBRANCH  18  19
ENDBRANCH  17  18
ENDBRANCH  16  17
ENDBRANCH  15  16
ENDBRANCH  14  15
ENDBRANCH  13  14
ENDBRANCH   1  13
TORSDOF 20
ENDMDL
