MODEL 1
REMARK VINA RESULT:    -3.759      0.000      0.000
REMARK INTER + INTRA:         -11.536
REMARK INTER:                  -8.154
REMARK INTRA:                  -3.382
REMARK UNBOUND:                -3.382
REMARK SMILES CCCCCCCCCCCCCCCCCCCCCC(=O)[O-]
REMARK SMILES IDX 12 1 11 2 10 3 9 4 8 5 7 6 6 7 5 8 4 9 3 10 2 11 1 12 13 13
REMARK SMILES IDX 14 14 15 15 16 16 17 17 18 18 19 19 20 20 21 21 22 22 23 23
REMARK SMILES IDX 24 24
REMARK H PARENT
REMARK Flexibility Score: inf
ROOT
ATOM      1  C   UNL     1      -3.786  -7.990 -44.964  1.00  0.00     0.000 C 
ENDROOT
BRANCH   1   2
ATOM      2  C   UNL     1      -3.089  -7.254 -46.118  1.00  0.00     0.000 C 
BRANCH   2   3
ATOM      3  C   UNL     1      -3.951  -7.284 -47.387  1.00  0.00     0.000 C 
BRANCH   3   4
ATOM      4  C   UNL     1      -3.758  -8.603 -48.149  1.00  0.00    -0.000 C 
BRANCH   4   5
ATOM      5  C   UNL     1      -5.080  -9.350 -48.388  1.00  0.00    -0.000 C 
BRANCH   5   6
ATOM      6  C   UNL     1      -6.303  -8.559 -47.893  1.00  0.00    -0.000 C 
BRANCH   6   7
ATOM      7  C   UNL     1      -7.129  -9.331 -46.849  1.00  0.00    -0.000 C 
BRANCH   7   8
ATOM      8  C   UNL     1      -6.367 -10.511 -46.210  1.00  0.00    -0.000 C 
BRANCH   8   9
ATOM      9  C   UNL     1      -6.785 -10.747 -44.749  1.00  0.00    -0.000 C 
BRANCH   9  10
ATOM     10  C   UNL     1      -5.639 -11.294 -43.883  1.00  0.00    -0.000 C 
BRANCH  10  11
ATOM     11  C   UNL     1      -5.796 -10.937 -42.398  1.00  0.00    -0.003 C 
ATOM     12  C   UNL     1      -7.158 -10.304 -42.128  1.00  0.00     0.004 C 
ENDBRANCH  10  11
ENDBRANCH   9  10
ENDBRANCH   8   9
ENDBRANCH   7   8
ENDBRANCH   6   7
ENDBRANCH   5   6
ENDBRANCH   4   5
ENDBRANCH   3   4
ENDBRANCH   2   3
ENDBRANCH   1   2
BRANCH   1  13
ATOM     13  C   UNL     1      -5.135  -7.357 -44.575  1.00  0.00     0.000 C 
BRANCH  13  14
ATOM     14  C   UNL     1      -5.387  -7.238 -43.060  1.00  0.00     0.000 C 
BRANCH  14  15
ATOM     15  C   UNL     1      -4.121  -7.200 -42.185  1.00  0.00     0.000 C 
BRANCH  15  16
ATOM     16  C   UNL     1      -4.189  -8.114 -40.944  1.00  0.00     0.000 C 
BRANCH  16  17
ATOM     17  C   UNL     1      -2.884  -8.895 -40.709  1.00  0.00     0.000 C 
BRANCH  17  18
ATOM     18  C   UNL     1      -2.398  -9.619 -41.983  1.00  0.00     0.000 C 
BRANCH  18  19
ATOM     19  C   UNL     1      -1.014  -9.151 -42.469  1.00  0.00     0.000 C 
BRANCH  19  20
ATOM     20  C   UNL     1       0.154  -9.494 -41.524  1.00  0.00     0.006 C 
BRANCH  20  21
ATOM     21  C   UNL     1       1.507  -9.672 -42.233  1.00  0.00     0.053 C 
BRANCH  21  22
ATOM     22  C   UNL     1       2.254 -10.864 -41.719  1.00  0.00     0.041 C 
ATOM     23  O   UNL     1       1.628 -11.852 -41.252  1.00  0.00    -0.550 OA
ATOM     24  O   UNL     1       3.641 -10.898 -41.789  1.00  0.00    -0.550 OA
ENDBRANCH  21  22
ENDBRANCH  20  21
ENDBRANCH  19  20
ENDBRANCH  18  19
ENDBRANCH  17  18
ENDBRANCH  16  17
ENDBRANCH  15  16
ENDBRANCH  14  15
ENDBRANCH  13  14
ENDBRANCH   1  13
TORSDOF 20
ENDMDL
MODEL 2
REMARK VINA RESULT:    -3.625      4.477      7.244
REMARK INTER + INTRA:         -11.246
REMARK INTER:                  -8.202
REMARK INTRA:                  -3.044
REMARK UNBOUND:                -3.382
REMARK SMILES CCCCCCCCCCCCCCCCCCCCCC(=O)[O-]
REMARK SMILES IDX 12 1 11 2 10 3 9 4 8 5 7 6 6 7 5 8 4 9 3 10 2 11 1 12 13 13
REMARK SMILES IDX 14 14 15 15 16 16 17 17 18 18 19 19 20 20 21 21 22 22 23 23
REMARK SMILES IDX 24 24
REMARK H PARENT
REMARK Flexibility Score: inf
ROOT
ATOM      1  C   UNL     1      -2.278  -8.540 -41.658  1.00  0.00     0.000 C 
ENDROOT
BRANCH   1   2
ATOM      2  C   UNL     1      -2.679  -9.519 -42.771  1.00  0.00     0.000 C 
BRANCH   2   3
ATOM      3  C   UNL     1      -4.009 -10.209 -42.440  1.00  0.00     0.000 C 
BRANCH   3   4
ATOM      4  C   UNL     1      -3.892 -11.731 -42.606  1.00  0.00    -0.000 C 
BRANCH   4   5
ATOM      5  C   UNL     1      -4.071 -12.488 -41.280  1.00  0.00    -0.000 C 
BRANCH   5   6
ATOM      6  C   UNL     1      -2.790 -13.213 -40.836  1.00  0.00    -0.000 C 
BRANCH   6   7
ATOM      7  C   UNL     1      -1.941 -12.379 -39.859  1.00  0.00    -0.000 C 
BRANCH   7   8
ATOM      8  C   UNL     1      -0.423 -12.484 -40.118  1.00  0.00    -0.000 C 
BRANCH   8   9
ATOM      9  C   UNL     1       0.055 -11.479 -41.179  1.00  0.00    -0.000 C 
BRANCH   9  10
ATOM     10  C   UNL     1       1.553 -11.615 -41.494  1.00  0.00    -0.000 C 
BRANCH  10  11
ATOM     11  C   UNL     1       2.192 -10.285 -41.920  1.00  0.00    -0.003 C 
ATOM     12  C   UNL     1       1.157  -9.359 -42.554  1.00  0.00     0.004 C 
ENDBRANCH  10  11
ENDBRANCH   9  10
ENDBRANCH   8   9
ENDBRANCH   7   8
ENDBRANCH   6   7
ENDBRANCH   5   6
ENDBRANCH   4   5
ENDBRANCH   3   4
ENDBRANCH   2   3
ENDBRANCH   1   2
BRANCH   1  13
ATOM     13  C   UNL     1      -3.007  -8.809 -40.328  1.00  0.00     0.000 C 
BRANCH  13  14
ATOM     14  C   UNL     1      -2.094  -8.900 -39.090  1.00  0.00     0.000 C 
BRANCH  14  15
ATOM     15  C   UNL     1      -0.696  -8.276 -39.259  1.00  0.00     0.000 C 
BRANCH  15  16
ATOM     16  C   UNL     1      -0.308  -7.296 -38.132  1.00  0.00     0.000 C 
BRANCH  16  17
ATOM     17  C   UNL     1      -1.393  -7.177 -37.047  1.00  0.00     0.000 C 
BRANCH  17  18
ATOM     18  C   UNL     1      -0.920  -7.724 -35.683  1.00  0.00     0.000 C 
BRANCH  18  19
ATOM     19  C   UNL     1      -1.326  -9.189 -35.431  1.00  0.00     0.000 C 
BRANCH  19  20
ATOM     20  C   UNL     1      -0.147 -10.168 -35.265  1.00  0.00     0.006 C 
BRANCH  20  21
ATOM     21  C   UNL     1      -0.531 -11.512 -34.625  1.00  0.00     0.053 C 
BRANCH  21  22
ATOM     22  C   UNL     1      -1.416 -11.328 -33.430  1.00  0.00     0.041 C 
ATOM     23  O   UNL     1      -0.930 -10.945 -32.333  1.00  0.00    -0.550 OA
ATOM     24  O   UNL     1      -2.784 -11.542 -33.539  1.00  0.00    -0.550 OA
ENDBRANCH  21  22
ENDBRANCH  20  21
ENDBRANCH  19  20
ENDBRANCH  18  19
ENDBRANCH  17  18
ENDBRANCH  16  17
ENDBRANCH  15  16
ENDBRANCH  14  15
ENDBRANCH  13  14
ENDBRANCH   1  13
TORSDOF 20
ENDMDL
MODEL 3
REMARK VINA RESULT:    -3.611      1.794      3.382
REMARK INTER + INTRA:         -11.215
REMARK INTER:                  -8.207
REMARK INTRA:                  -3.007
REMARK UNBOUND:                -3.382
REMARK SMILES CCCCCCCCCCCCCCCCCCCCCC(=O)[O-]
REMARK SMILES IDX 12 1 11 2 10 3 9 4 8 5 7 6 6 7 5 8 4 9 3 10 2 11 1 12 13 13
REMARK SMILES IDX 14 14 15 15 16 16 17 17 18 18 19 19 20 20 21 21 22 22 23 23
REMARK SMILES IDX 24 24
REMARK H PARENT
REMARK Flexibility Score: inf
ROOT
ATOM      1  C   UNL     1      -4.110  -8.683 -47.629  1.00  0.00     0.000 C 
ENDROOT
BRANCH   1   2
ATOM      2  C   UNL     1      -5.547  -8.909 -48.119  1.00  0.00     0.000 C 
BRANCH   2   3
ATOM      3  C   UNL     1      -6.304  -9.854 -47.177  1.00  0.00     0.000 C 
BRANCH   3   4
ATOM      4  C   UNL     1      -7.030  -9.066 -46.077  1.00  0.00    -0.000 C 
BRANCH   4   5
ATOM      5  C   UNL     1      -7.134  -9.848 -44.758  1.00  0.00    -0.000 C 
BRANCH   5   6
ATOM      6  C   UNL     1      -6.170 -11.045 -44.703  1.00  0.00    -0.000 C 
BRANCH   6   7
ATOM      7  C   UNL     1      -5.895 -11.524 -43.266  1.00  0.00    -0.000 C 
BRANCH   7   8
ATOM      8  C   UNL     1      -4.398 -11.757 -42.971  1.00  0.00    -0.000 C 
BRANCH   8   9
ATOM      9  C   UNL     1      -4.071 -11.601 -41.476  1.00  0.00    -0.000 C 
BRANCH   9  10
ATOM     10  C   UNL     1      -3.608 -12.916 -40.828  1.00  0.00    -0.000 C 
BRANCH  10  11
ATOM     11  C   UNL     1      -2.775 -12.688 -39.558  1.00  0.00    -0.003 C 
ATOM     12  C   UNL     1      -1.285 -12.851 -39.844  1.00  0.00     0.004 C 
ENDBRANCH  10  11
ENDBRANCH   9  10
ENDBRANCH   8   9
ENDBRANCH   7   8
ENDBRANCH   6   7
ENDBRANCH   5   6
ENDBRANCH   4   5
ENDBRANCH   3   4
ENDBRANCH   2   3
ENDBRANCH   1   2
BRANCH   1  13
ATOM     13  C   UNL     1      -3.855  -7.239 -47.157  1.00  0.00     0.000 C 
BRANCH  13  14
ATOM     14  C   UNL     1      -3.337  -7.107 -45.711  1.00  0.00     0.000 C 
BRANCH  14  15
ATOM     15  C   UNL     1      -3.739  -8.252 -44.764  1.00  0.00     0.000 C 
BRANCH  15  16
ATOM     16  C   UNL     1      -4.225  -7.777 -43.379  1.00  0.00     0.000 C 
BRANCH  16  17
ATOM     17  C   UNL     1      -3.256  -8.159 -42.246  1.00  0.00     0.000 C 
BRANCH  17  18
ATOM     18  C   UNL     1      -1.958  -8.804 -42.778  1.00  0.00     0.000 C 
BRANCH  18  19
ATOM     19  C   UNL     1      -1.055  -9.378 -41.670  1.00  0.00     0.000 C 
BRANCH  19  20
ATOM     20  C   UNL     1       0.347  -9.813 -42.139  1.00  0.00     0.006 C 
BRANCH  20  21
ATOM     21  C   UNL     1       0.402 -11.234 -42.724  1.00  0.00     0.053 C 
BRANCH  21  22
ATOM     22  C   UNL     1       1.778 -11.589 -43.198  1.00  0.00     0.041 C 
ATOM     23  O   UNL     1       1.933 -12.391 -44.157  1.00  0.00    -0.550 OA
ATOM     24  O   UNL     1       2.891 -11.004 -42.605  1.00  0.00    -0.550 OA
ENDBRANCH  21  22
ENDBRANCH  20  21
ENDBRANCH  19  20
ENDBRANCH  18  19
ENDBRANCH  17  18
ENDBRANCH  16  17
ENDBRANCH  15  16
ENDBRANCH  14  15
ENDBRANCH  13  14
ENDBRANCH   1  13
TORSDOF 20
ENDMDL
MODEL 4
REMARK VINA RESULT:    -3.587      4.578      8.440
REMARK INTER + INTRA:         -11.163
REMARK INTER:                  -8.215
REMARK INTRA:                  -2.948
REMARK UNBOUND:                -3.382
REMARK SMILES CCCCCCCCCCCCCCCCCCCCCC(=O)[O-]
REMARK SMILES IDX 12 1 11 2 10 3 9 4 8 5 7 6 6 7 5 8 4 9 3 10 2 11 1 12 13 13
REMARK SMILES IDX 14 14 15 15 16 16 17 17 18 18 19 19 20 20 21 21 22 22 23 23
REMARK SMILES IDX 24 24
REMARK H PARENT
REMARK Flexibility Score: inf
ROOT
ATOM      1  C   UNL     1      -0.778  -9.084 -38.337  1.00  0.00     0.000 C 
ENDROOT
BRANCH   1   2
ATOM      2  C   UNL     1      -0.464  -8.437 -36.981  1.00  0.00     0.000 C 
BRANCH   2   3
ATOM      3  C   UNL     1      -1.109  -9.227 -35.835  1.00  0.00     0.000 C 
BRANCH   3   4
ATOM      4  C   UNL     1      -0.132 -10.265 -35.265  1.00  0.00    -0.000 C 
BRANCH   4   5
ATOM      5  C   UNL     1      -0.670 -10.957 -34.003  1.00  0.00    -0.000 C 
BRANCH   5   6
ATOM      6  C   UNL     1       0.020 -12.304 -33.728  1.00  0.00    -0.000 C 
BRANCH   6   7
ATOM      7  C   UNL     1      -0.978 -13.465 -33.576  1.00  0.00    -0.000 C 
BRANCH   7   8
ATOM      8  C   UNL     1      -2.400 -13.124 -34.070  1.00  0.00    -0.000 C 
BRANCH   8   9
ATOM      9  C   UNL     1      -2.668 -13.667 -35.484  1.00  0.00    -0.000 C 
BRANCH   9  10
ATOM     10  C   UNL     1      -2.833 -12.552 -36.528  1.00  0.00    -0.000 C 
BRANCH  10  11
ATOM     11  C   UNL     1      -1.794 -12.638 -37.655  1.00  0.00    -0.003 C 
ATOM     12  C   UNL     1      -2.457 -12.502 -39.023  1.00  0.00     0.004 C 
ENDBRANCH  10  11
ENDBRANCH   9  10
ENDBRANCH   8   9
ENDBRANCH   7   8
ENDBRANCH   6   7
ENDBRANCH   5   6
ENDBRANCH   4   5
ENDBRANCH   3   4
ENDBRANCH   2   3
ENDBRANCH   1   2
BRANCH   1  13
ATOM     13  C   UNL     1      -1.423  -8.105 -39.336  1.00  0.00     0.000 C 
BRANCH  13  14
ATOM     14  C   UNL     1      -2.613  -8.674 -40.132  1.00  0.00     0.000 C 
BRANCH  14  15
ATOM     15  C   UNL     1      -2.795  -8.093 -41.546  1.00  0.00     0.000 C 
BRANCH  15  16
ATOM     16  C   UNL     1      -2.565  -9.116 -42.678  1.00  0.00     0.000 C 
BRANCH  16  17
ATOM     17  C   UNL     1      -2.528 -10.568 -42.168  1.00  0.00     0.000 C 
BRANCH  17  18
ATOM     18  C   UNL     1      -1.171 -11.252 -42.446  1.00  0.00     0.000 C 
BRANCH  18  19
ATOM     19  C   UNL     1      -0.116 -10.998 -41.353  1.00  0.00     0.000 C 
BRANCH  19  20
ATOM     20  C   UNL     1       0.915  -9.904 -41.691  1.00  0.00     0.006 C 
BRANCH  20  21
ATOM     21  C   UNL     1       2.361 -10.416 -41.807  1.00  0.00     0.053 C 
BRANCH  21  22
ATOM     22  C   UNL     1       2.412 -11.833 -42.290  1.00  0.00     0.041 C 
ATOM     23  O   UNL     1       2.295 -12.090 -43.518  1.00  0.00    -0.550 OA
ATOM     24  O   UNL     1       2.628 -12.868 -41.389  1.00  0.00    -0.550 OA
ENDBRANCH  21  22
ENDBRANCH  20  21
ENDBRANCH  19  20
ENDBRANCH  18  19
ENDBRANCH  17  18
ENDBRANCH  16  17
ENDBRANCH  15  16
ENDBRANCH  14  15
ENDBRANCH  13  14
ENDBRANCH   1  13
TORSDOF 20
ENDMDL
MODEL 5
REMARK VINA RESULT:    -3.558      3.482      7.913
REMARK INTER + INTRA:         -11.100
REMARK INTER:                  -8.486
REMARK INTRA:                  -2.615
REMARK UNBOUND:                -3.382
REMARK SMILES CCCCCCCCCCCCCCCCCCCCCC(=O)[O-]
REMARK SMILES IDX 12 1 11 2 10 3 9 4 8 5 7 6 6 7 5 8 4 9 3 10 2 11 1 12 13 13
REMARK SMILES IDX 14 14 15 15 16 16 17 17 18 18 19 19 20 20 21 21 22 22 23 23
REMARK SMILES IDX 24 24
REMARK H PARENT
REMARK Flexibility Score: inf
ROOT
ATOM      1  C   UNL     1      -2.487 -13.109 -39.901  1.00  0.00     0.000 C 
ENDROOT
BRANCH   1   2
ATOM      2  C   UNL     1      -1.654 -12.194 -38.992  1.00  0.00     0.000 C 
BRANCH   2   3
ATOM      3  C   UNL     1      -2.342 -10.835 -38.804  1.00  0.00     0.000 C 
BRANCH   3   4
ATOM      4  C   UNL     1      -1.314  -9.742 -38.476  1.00  0.00    -0.000 C 
BRANCH   4   5
ATOM      5  C   UNL     1      -0.892  -8.934 -39.713  1.00  0.00    -0.000 C 
BRANCH   5   6
ATOM      6  C   UNL     1      -1.971  -8.924 -40.809  1.00  0.00    -0.000 C 
BRANCH   6   7
ATOM      7  C   UNL     1      -1.382  -9.012 -42.227  1.00  0.00    -0.000 C 
BRANCH   7   8
ATOM      8  C   UNL     1       0.071  -9.534 -42.259  1.00  0.00    -0.000 C 
BRANCH   8   9
ATOM      9  C   UNL     1       0.134 -11.067 -42.360  1.00  0.00    -0.000 C 
BRANCH   9  10
ATOM     10  C   UNL     1       1.051 -11.696 -41.299  1.00  0.00    -0.000 C 
BRANCH  10  11
ATOM     11  C   UNL     1       2.418 -12.104 -41.866  1.00  0.00    -0.003 C 
ATOM     12  C   UNL     1       3.418 -10.955 -41.767  1.00  0.00     0.004 C 
ENDBRANCH  10  11
ENDBRANCH   9  10
ENDBRANCH   8   9
ENDBRANCH   7   8
ENDBRANCH   6   7
ENDBRANCH   5   6
ENDBRANCH   4   5
ENDBRANCH   3   4
ENDBRANCH   2   3
ENDBRANCH   1   2
BRANCH   1  13
ATOM     13  C   UNL     1      -3.609 -12.359 -40.644  1.00  0.00     0.000 C 
BRANCH  13  14
ATOM     14  C   UNL     1      -3.375 -12.166 -42.155  1.00  0.00     0.000 C 
BRANCH  14  15
ATOM     15  C   UNL     1      -4.346 -11.194 -42.850  1.00  0.00     0.000 C 
BRANCH  15  16
ATOM     16  C   UNL     1      -5.729 -11.805 -43.157  1.00  0.00     0.000 C 
BRANCH  16  17
ATOM     17  C   UNL     1      -6.581 -10.914 -44.078  1.00  0.00     0.000 C 
BRANCH  17  18
ATOM     18  C   UNL     1      -5.721  -9.925 -44.894  1.00  0.00     0.000 C 
BRANCH  18  19
ATOM     19  C   UNL     1      -6.093  -9.872 -46.388  1.00  0.00     0.000 C 
BRANCH  19  20
ATOM     20  C   UNL     1      -5.679  -8.575 -47.112  1.00  0.00     0.006 C 
BRANCH  20  21
ATOM     21  C   UNL     1      -4.169  -8.286 -47.070  1.00  0.00     0.053 C 
BRANCH  21  22
ATOM     22  C   UNL     1      -3.610  -8.043 -48.439  1.00  0.00     0.041 C 
ATOM     23  O   UNL     1      -4.184  -7.245 -49.227  1.00  0.00    -0.550 OA
ATOM     24  O   UNL     1      -2.433  -8.670 -48.830  1.00  0.00    -0.550 OA
ENDBRANCH  21  22
ENDBRANCH  20  21
ENDBRANCH  19  20
ENDBRANCH  18  19
ENDBRANCH  17  18
ENDBRANCH  16  17
ENDBRANCH  15  16
ENDBRANCH  14  15
ENDBRANCH  13  14
ENDBRANCH   1  13
TORSDOF 20
ENDMDL
MODEL 6
REMARK VINA RESULT:    -3.482      2.062      6.697
REMARK INTER + INTRA:         -10.935
REMARK INTER:                  -8.095
REMARK INTRA:                  -2.840
REMARK UNBOUND:                -3.382
REMARK SMILES CCCCCCCCCCCCCCCCCCCCCC(=O)[O-]
REMARK SMILES IDX 12 1 11 2 10 3 9 4 8 5 7 6 6 7 5 8 4 9 3 10 2 11 1 12 13 13
REMARK SMILES IDX 14 14 15 15 16 16 17 17 18 18 19 19 20 20 21 21 22 22 23 23
REMARK SMILES IDX 24 24
REMARK H PARENT
REMARK Flexibility Score: inf
ROOT
ATOM      1  C   UNL     1      -3.756  -8.028 -45.609  1.00  0.00     0.000 C 
ENDROOT
BRANCH   1   2
ATOM      2  C   UNL     1      -4.652  -7.310 -44.590  1.00  0.00     0.000 C 
BRANCH   2   3
ATOM      3  C   UNL     1      -4.268  -7.695 -43.156  1.00  0.00     0.000 C 
BRANCH   3   4
ATOM      4  C   UNL     1      -3.058  -8.641 -43.148  1.00  0.00    -0.000 C 
BRANCH   4   5
ATOM      5  C   UNL     1      -2.128  -8.405 -41.947  1.00  0.00    -0.000 C 
BRANCH   5   6
ATOM      6  C   UNL     1      -2.644  -9.073 -40.661  1.00  0.00    -0.000 C 
BRANCH   6   7
ATOM      7  C   UNL     1      -1.783  -8.739 -39.429  1.00  0.00    -0.000 C 
BRANCH   7   8
ATOM      8  C   UNL     1      -0.518  -9.614 -39.307  1.00  0.00    -0.000 C 
BRANCH   8   9
ATOM      9  C   UNL     1      -0.649 -10.936 -40.083  1.00  0.00    -0.000 C 
BRANCH   9  10
ATOM     10  C   UNL     1       0.517 -11.173 -41.054  1.00  0.00    -0.000 C 
BRANCH  10  11
ATOM     11  C   UNL     1       1.129  -9.864 -41.576  1.00  0.00    -0.003 C 
ATOM     12  C   UNL     1       1.631 -10.027 -43.008  1.00  0.00     0.004 C 
ENDBRANCH  10  11
ENDBRANCH   9  10
ENDBRANCH   8   9
ENDBRANCH   7   8
ENDBRANCH   6   7
ENDBRANCH   5   6
ENDBRANCH   4   5
ENDBRANCH   3   4
ENDBRANCH   2   3
ENDBRANCH   1   2
BRANCH   1  13
ATOM     13  C   UNL     1      -3.871  -7.444 -47.030  1.00  0.00     0.000 C 
BRANCH  13  14
ATOM     14  C   UNL     1      -4.175  -8.472 -48.136  1.00  0.00     0.000 C 
BRANCH  14  15
ATOM     15  C   UNL     1      -5.359  -9.414 -47.849  1.00  0.00     0.000 C 
BRANCH  15  16
ATOM     16  C   UNL     1      -6.688  -8.681 -47.569  1.00  0.00     0.000 C 
BRANCH  16  17
ATOM     17  C   UNL     1      -7.749  -9.598 -46.936  1.00  0.00     0.000 C 
BRANCH  17  18
ATOM     18  C   UNL     1      -7.119 -10.757 -46.134  1.00  0.00     0.000 C 
BRANCH  18  19
ATOM     19  C   UNL     1      -6.846 -10.411 -44.658  1.00  0.00     0.000 C 
BRANCH  19  20
ATOM     20  C   UNL     1      -5.592 -11.076 -44.058  1.00  0.00     0.006 C 
BRANCH  20  21
ATOM     21  C   UNL     1      -5.638 -11.244 -42.530  1.00  0.00     0.053 C 
BRANCH  21  22
ATOM     22  C   UNL     1      -4.477 -12.042 -42.022  1.00  0.00     0.041 C 
ATOM     23  O   UNL     1      -3.437 -12.167 -42.722  1.00  0.00    -0.550 OA
ATOM     24  O   UNL     1      -4.529 -12.618 -40.758  1.00  0.00    -0.550 OA
ENDBRANCH  21  22
ENDBRANCH  20  21
ENDBRANCH  19  20
ENDBRANCH  18  19
ENDBRANCH  17  18
ENDBRANCH  16  17
ENDBRANCH  15  16
ENDBRANCH  14  15
ENDBRANCH  13  14
ENDBRANCH   1  13
TORSDOF 20
ENDMDL
MODEL 7
REMARK VINA RESULT:    -3.479      3.399      6.362
REMARK INTER + INTRA:         -10.928
REMARK INTER:                  -7.164
REMARK INTRA:                  -3.764
REMARK UNBOUND:                -3.382
REMARK SMILES CCCCCCCCCCCCCCCCCCCCCC(=O)[O-]
REMARK SMILES IDX 12 1 11 2 10 3 9 4 8 5 7 6 6 7 5 8 4 9 3 10 2 11 1 12 13 13
REMARK SMILES IDX 14 14 15 15 16 16 17 17 18 18 19 19 20 20 21 21 22 22 23 23
REMARK SMILES IDX 24 24
REMARK H PARENT
REMARK Flexibility Score: inf
ROOT
ATOM      1  C   UNL     1      -0.376 -10.140 -39.783  1.00  0.00     0.000 C 
ENDROOT
BRANCH   1   2
ATOM      2  C   UNL     1      -0.664 -11.546 -40.330  1.00  0.00     0.000 C 
BRANCH   2   3
ATOM      3  C   UNL     1      -0.888 -11.509 -41.847  1.00  0.00     0.000 C 
BRANCH   3   4
ATOM      4  C   UNL     1      -2.239 -12.136 -42.217  1.00  0.00    -0.000 C 
BRANCH   4   5
ATOM      5  C   UNL     1      -3.257 -12.074 -41.067  1.00  0.00    -0.000 C 
BRANCH   5   6
ATOM      6  C   UNL     1      -4.712 -12.074 -41.565  1.00  0.00    -0.000 C 
BRANCH   6   7
ATOM      7  C   UNL     1      -4.832 -11.720 -43.057  1.00  0.00    -0.000 C 
BRANCH   7   8
ATOM      8  C   UNL     1      -6.267 -11.352 -43.490  1.00  0.00    -0.000 C 
BRANCH   8   9
ATOM      9  C   UNL     1      -7.232 -11.279 -42.294  1.00  0.00    -0.000 C 
BRANCH   9  10
ATOM     10  C   UNL     1      -7.663  -9.841 -41.965  1.00  0.00    -0.000 C 
BRANCH  10  11
ATOM     11  C   UNL     1      -6.971  -9.288 -40.711  1.00  0.00    -0.003 C 
ATOM     12  C   UNL     1      -7.370 -10.082 -39.470  1.00  0.00     0.004 C 
ENDBRANCH  10  11
ENDBRANCH   9  10
ENDBRANCH   8   9
ENDBRANCH   7   8
ENDBRANCH   6   7
ENDBRANCH   5   6
ENDBRANCH   4   5
ENDBRANCH   3   4
ENDBRANCH   2   3
ENDBRANCH   1   2
BRANCH   1  13
ATOM     13  C   UNL     1      -0.906  -9.019 -40.697  1.00  0.00     0.000 C 
BRANCH  13  14
ATOM     14  C   UNL     1      -2.266  -8.427 -40.280  1.00  0.00     0.000 C 
BRANCH  14  15
ATOM     15  C   UNL     1      -3.288  -8.266 -41.420  1.00  0.00     0.000 C 
BRANCH  15  16
ATOM     16  C   UNL     1      -2.739  -8.646 -42.812  1.00  0.00     0.000 C 
BRANCH  16  17
ATOM     17  C   UNL     1      -3.632  -8.143 -43.960  1.00  0.00     0.000 C 
BRANCH  17  18
ATOM     18  C   UNL     1      -5.056  -7.786 -43.481  1.00  0.00     0.000 C 
BRANCH  18  19
ATOM     19  C   UNL     1      -6.121  -7.875 -44.591  1.00  0.00     0.000 C 
BRANCH  19  20
ATOM     20  C   UNL     1      -5.557  -7.999 -46.020  1.00  0.00     0.006 C 
BRANCH  20  21
ATOM     21  C   UNL     1      -5.699  -9.403 -46.632  1.00  0.00     0.053 C 
BRANCH  21  22
ATOM     22  C   UNL     1      -5.347  -9.414 -48.088  1.00  0.00     0.041 C 
ATOM     23  O   UNL     1      -6.249  -9.539 -48.958  1.00  0.00    -0.550 OA
ATOM     24  O   UNL     1      -4.025  -9.249 -48.485  1.00  0.00    -0.550 OA
ENDBRANCH  21  22
ENDBRANCH  20  21
ENDBRANCH  19  20
ENDBRANCH  18  19
ENDBRANCH  17  18
ENDBRANCH  16  17
ENDBRANCH  15  16
ENDBRANCH  14  15
ENDBRANCH  13  14
ENDBRANCH   1  13
TORSDOF 20
ENDMDL
MODEL 8
REMARK VINA RESULT:    -3.431      3.137      7.086
REMARK INTER + INTRA:         -10.824
REMARK INTER:                  -7.307
REMARK INTRA:                  -3.517
REMARK UNBOUND:                -3.382
REMARK SMILES CCCCCCCCCCCCCCCCCCCCCC(=O)[O-]
REMARK SMILES IDX 12 1 11 2 10 3 9 4 8 5 7 6 6 7 5 8 4 9 3 10 2 11 1 12 13 13
REMARK SMILES IDX 14 14 15 15 16 16 17 17 18 18 19 19 20 20 21 21 22 22 23 23
REMARK SMILES IDX 24 24
REMARK H PARENT
REMARK Flexibility Score: inf
ROOT
ATOM      1  C   UNL     1      -3.018  -8.197 -43.543  1.00  0.00     0.000 C 
ENDROOT
BRANCH   1   2
ATOM      2  C   UNL     1      -3.574  -7.984 -42.128  1.00  0.00     0.000 C 
BRANCH   2   3
ATOM      3  C   UNL     1      -4.676  -9.004 -41.813  1.00  0.00     0.000 C 
BRANCH   3   4
ATOM      4  C   UNL     1      -4.273  -9.899 -40.632  1.00  0.00    -0.000 C 
BRANCH   4   5
ATOM      5  C   UNL     1      -4.202 -11.387 -41.011  1.00  0.00    -0.000 C 
BRANCH   5   6
ATOM      6  C   UNL     1      -2.757 -11.895 -41.143  1.00  0.00    -0.000 C 
BRANCH   6   7
ATOM      7  C   UNL     1      -2.149 -11.611 -42.528  1.00  0.00    -0.000 C 
BRANCH   7   8
ATOM      8  C   UNL     1      -0.632 -11.326 -42.488  1.00  0.00    -0.000 C 
BRANCH   8   9
ATOM      9  C   UNL     1      -0.327  -9.858 -42.145  1.00  0.00    -0.000 C 
BRANCH   9  10
ATOM     10  C   UNL     1       0.137  -9.671 -40.692  1.00  0.00    -0.000 C 
BRANCH  10  11
ATOM     11  C   UNL     1      -0.840  -8.822 -39.864  1.00  0.00    -0.003 C 
ATOM     12  C   UNL     1      -1.128  -9.478 -38.516  1.00  0.00     0.004 C 
ENDBRANCH  10  11
ENDBRANCH   9  10
ENDBRANCH   8   9
ENDBRANCH   7   8
ENDBRANCH   6   7
ENDBRANCH   5   6
ENDBRANCH   4   5
ENDBRANCH   3   4
ENDBRANCH   2   3
ENDBRANCH   1   2
BRANCH   1  13
ATOM     13  C   UNL     1      -4.122  -8.331 -44.610  1.00  0.00     0.000 C 
BRANCH  13  14
ATOM     14  C   UNL     1      -4.405  -7.051 -45.420  1.00  0.00     0.000 C 
BRANCH  14  15
ATOM     15  C   UNL     1      -4.238  -7.190 -46.945  1.00  0.00     0.000 C 
BRANCH  15  16
ATOM     16  C   UNL     1      -4.165  -8.651 -47.436  1.00  0.00     0.000 C 
BRANCH  16  17
ATOM     17  C   UNL     1      -5.449  -9.100 -48.157  1.00  0.00     0.000 C 
BRANCH  17  18
ATOM     18  C   UNL     1      -6.353  -9.969 -47.256  1.00  0.00     0.000 C 
BRANCH  18  19
ATOM     19  C   UNL     1      -7.365  -9.154 -46.428  1.00  0.00     0.000 C 
BRANCH  19  20
ATOM     20  C   UNL     1      -7.764  -9.793 -45.084  1.00  0.00     0.006 C 
BRANCH  20  21
ATOM     21  C   UNL     1      -6.745 -10.810 -44.543  1.00  0.00     0.053 C 
BRANCH  21  22
ATOM     22  C   UNL     1      -7.196 -11.416 -43.249  1.00  0.00     0.041 C 
ATOM     23  O   UNL     1      -6.967 -12.630 -43.003  1.00  0.00    -0.550 OA
ATOM     24  O   UNL     1      -7.835 -10.630 -42.298  1.00  0.00    -0.550 OA
ENDBRANCH  21  22
ENDBRANCH  20  21
ENDBRANCH  19  20
ENDBRANCH  18  19
ENDBRANCH  17  18
ENDBRANCH  16  17
ENDBRANCH  15  16
ENDBRANCH  14  15
ENDBRANCH  13  14
ENDBRANCH   1  13
TORSDOF 20
ENDMDL
MODEL 9
REMARK VINA RESULT:    -3.426      4.200      6.954
REMARK INTER + INTRA:         -10.814
REMARK INTER:                  -7.541
REMARK INTRA:                  -3.273
REMARK UNBOUND:                -3.382
REMARK SMILES CCCCCCCCCCCCCCCCCCCCCC(=O)[O-]
REMARK SMILES IDX 12 1 11 2 10 3 9 4 8 5 7 6 6 7 5 8 4 9 3 10 2 11 1 12 13 13
REMARK SMILES IDX 14 14 15 15 16 16 17 17 18 18 19 19 20 20 21 21 22 22 23 23
REMARK SMILES IDX 24 24
REMARK H PARENT
REMARK Flexibility Score: inf
ROOT
ATOM      1  C   UNL     1      -4.158 -12.797 -40.346  1.00  0.00     0.000 C 
ENDROOT
BRANCH   1   2
ATOM      2  C   UNL     1      -3.178 -12.495 -41.489  1.00  0.00     0.000 C 
BRANCH   2   3
ATOM      3  C   UNL     1      -3.931 -12.102 -42.767  1.00  0.00     0.000 C 
BRANCH   3   4
ATOM      4  C   UNL     1      -5.008 -11.049 -42.466  1.00  0.00    -0.000 C 
BRANCH   4   5
ATOM      5  C   UNL     1      -4.550  -9.620 -42.798  1.00  0.00    -0.000 C 
BRANCH   5   6
ATOM      6  C   UNL     1      -4.181  -8.811 -41.543  1.00  0.00    -0.000 C 
BRANCH   6   7
ATOM      7  C   UNL     1      -2.719  -8.334 -41.550  1.00  0.00    -0.000 C 
BRANCH   7   8
ATOM      8  C   UNL     1      -1.869  -8.965 -42.674  1.00  0.00    -0.000 C 
BRANCH   8   9
ATOM      9  C   UNL     1      -0.460  -9.347 -42.191  1.00  0.00    -0.000 C 
BRANCH   9  10
ATOM     10  C   UNL     1      -0.156 -10.843 -42.366  1.00  0.00    -0.000 C 
BRANCH  10  11
ATOM     11  C   UNL     1       0.996 -11.322 -41.471  1.00  0.00    -0.003 C 
ATOM     12  C   UNL     1       2.262 -10.508 -41.724  1.00  0.00     0.004 C 
ENDBRANCH  10  11
ENDBRANCH   9  10
ENDBRANCH   8   9
ENDBRANCH   7   8
ENDBRANCH   6   7
ENDBRANCH   5   6
ENDBRANCH   4   5
ENDBRANCH   3   4
ENDBRANCH   2   3
ENDBRANCH   1   2
BRANCH   1  13
ATOM     13  C   UNL     1      -3.657 -12.301 -38.977  1.00  0.00     0.000 C 
BRANCH  13  14
ATOM     14  C   UNL     1      -2.912 -10.952 -39.004  1.00  0.00     0.000 C 
BRANCH  14  15
ATOM     15  C   UNL     1      -1.448 -11.001 -38.529  1.00  0.00     0.000 C 
BRANCH  15  16
ATOM     16  C   UNL     1      -0.760  -9.621 -38.476  1.00  0.00     0.000 C 
BRANCH  16  17
ATOM     17  C   UNL     1      -1.028  -8.874 -37.157  1.00  0.00     0.000 C 
BRANCH  17  18
ATOM     18  C   UNL     1      -0.361  -9.564 -35.947  1.00  0.00     0.000 C 
BRANCH  18  19
ATOM     19  C   UNL     1      -1.337  -9.871 -34.796  1.00  0.00     0.000 C 
BRANCH  19  20
ATOM     20  C   UNL     1      -0.832 -10.914 -33.781  1.00  0.00     0.006 C 
BRANCH  20  21
ATOM     21  C   UNL     1      -1.670 -12.202 -33.731  1.00  0.00     0.053 C 
BRANCH  21  22
ATOM     22  C   UNL     1      -1.630 -12.944 -35.032  1.00  0.00     0.041 C 
ATOM     23  O   UNL     1      -0.533 -13.355 -35.496  1.00  0.00    -0.550 OA
ATOM     24  O   UNL     1      -2.810 -13.214 -35.715  1.00  0.00    -0.550 OA
ENDBRANCH  21  22
ENDBRANCH  20  21
ENDBRANCH  19  20
ENDBRANCH  18  19
ENDBRANCH  17  18
ENDBRANCH  16  17
ENDBRANCH  15  16
ENDBRANCH  14  15
ENDBRANCH  13  14
ENDBRANCH   1  13
TORSDOF 20
ENDMDL
