MODEL 1
REMARK VINA RESULT:    -3.439      0.000      0.000
REMARK INTER + INTRA:          -4.146
REMARK INTER:                  -4.143
REMARK INTRA:                  -0.003
REMARK UNBOUND:                -0.003
REMARK SMILES OCC(O)CO
REMARK SMILES IDX 3 1 5 2 6 3 2 5 1 6 4 8
REMARK H PARENT 6 4 1 7 4 9
REMARK Flexibility Score: inf
ROOT
ATOM      1  C   UNL     1      34.541  15.095  46.099  1.00  0.00     0.165 C 
ENDROOT
BRANCH   1   2
ATOM      2  C   UNL     1      35.643  16.164  46.078  1.00  0.00     0.190 C 
BRANCH   2   3
ATOM      3  O   UNL     1      36.796  15.691  46.719  1.00  0.00    -0.394 OA
ATOM      4  H   UNL     1      36.742  16.012  47.656  1.00  0.00     0.210 HD
ENDBRANCH   2   3
ENDBRANCH   1   2
BRANCH   1   5
ATOM      5  C   UNL     1      33.228  15.640  45.520  1.00  0.00     0.190 C 
BRANCH   5   6
ATOM      6  O   UNL     1      32.732  14.775  44.534  1.00  0.00    -0.394 OA
ATOM      7  H   UNL     1      33.084  13.872  44.745  1.00  0.00     0.210 HD
ENDBRANCH   5   6
ENDBRANCH   1   5
BRANCH   1   8
ATOM      8  O   UNL     1      34.322  14.655  47.415  1.00  0.00    -0.388 OA
ATOM      9  H   UNL     1      34.357  13.662  47.394  1.00  0.00     0.211 HD
ENDBRANCH   1   8
TORSDOF 5
ENDMDL
MODEL 2
REMARK VINA RESULT:    -3.392     14.641     15.314
REMARK INTER + INTRA:          -4.088
REMARK INTER:                  -4.059
REMARK INTRA:                  -0.029
REMARK UNBOUND:                -0.003
REMARK SMILES OCC(O)CO
REMARK SMILES IDX 3 1 5 2 6 3 2 5 1 6 4 8
REMARK H PARENT 6 4 1 7 4 9
REMARK Flexibility Score: inf
ROOT
ATOM      1  C   UNL     1      38.098   0.840  47.335  1.00  0.00     0.165 C 
ENDROOT
BRANCH   1   2
ATOM      2  C   UNL     1      38.114  -0.413  48.224  1.00  0.00     0.190 C 
BRANCH   2   3
ATOM      3  O   UNL     1      37.455  -0.163  49.434  1.00  0.00    -0.394 OA
ATOM      4  H   UNL     1      36.634   0.344  49.201  1.00  0.00     0.210 HD
ENDBRANCH   2   3
ENDBRANCH   1   2
BRANCH   1   5
ATOM      5  C   UNL     1      39.521   1.345  47.061  1.00  0.00     0.190 C 
BRANCH   5   6
ATOM      6  O   UNL     1      39.977   2.124  48.134  1.00  0.00    -0.394 OA
ATOM      7  H   UNL     1      40.487   1.517  48.731  1.00  0.00     0.210 HD
ENDBRANCH   5   6
ENDBRANCH   1   5
BRANCH   1   8
ATOM      8  O   UNL     1      37.352   1.858  47.952  1.00  0.00    -0.388 OA
ATOM      9  H   UNL     1      37.987   2.378  48.512  1.00  0.00     0.211 HD
ENDBRANCH   1   8
TORSDOF 5
ENDMDL
MODEL 3
REMARK VINA RESULT:    -3.384     16.487     17.545
REMARK INTER + INTRA:          -4.078
REMARK INTER:                  -3.864
REMARK INTRA:                  -0.214
REMARK UNBOUND:                -0.003
REMARK SMILES OCC(O)CO
REMARK SMILES IDX 3 1 5 2 6 3 2 5 1 6 4 8
REMARK H PARENT 6 4 1 7 4 9
REMARK Flexibility Score: inf
ROOT
ATOM      1  C   UNL     1      21.122   6.610  51.017  1.00  0.00     0.165 C 
ENDROOT
BRANCH   1   2
ATOM      2  C   UNL     1      20.440   6.142  49.723  1.00  0.00     0.190 C 
BRANCH   2   3
ATOM      3  O   UNL     1      20.741   4.796  49.471  1.00  0.00    -0.394 OA
ATOM      4  H   UNL     1      21.622   4.627  49.894  1.00  0.00     0.210 HD
ENDBRANCH   2   3
ENDBRANCH   1   2
BRANCH   1   5
ATOM      5  C   UNL     1      20.298   6.219  52.252  1.00  0.00     0.190 C 
BRANCH   5   6
ATOM      6  O   UNL     1      20.412   4.844  52.500  1.00  0.00    -0.394 OA
ATOM      7  H   UNL     1      19.489   4.483  52.539  1.00  0.00     0.210 HD
ENDBRANCH   5   6
ENDBRANCH   1   5
BRANCH   1   8
ATOM      8  O   UNL     1      21.293   8.004  50.994  1.00  0.00    -0.388 OA
ATOM      9  H   UNL     1      21.858   8.237  51.778  1.00  0.00     0.211 HD
ENDBRANCH   1   8
TORSDOF 5
ENDMDL
MODEL 4
REMARK VINA RESULT:    -3.372     14.657     15.109
REMARK INTER + INTRA:          -4.064
REMARK INTER:                  -3.841
REMARK INTRA:                  -0.224
REMARK UNBOUND:                -0.003
REMARK SMILES OCC(O)CO
REMARK SMILES IDX 3 1 5 2 6 3 2 5 1 6 4 8
REMARK H PARENT 6 4 1 7 4 9
REMARK Flexibility Score: inf
ROOT
ATOM      1  C   UNL     1      38.279   0.035  47.859  1.00  0.00     0.165 C 
ENDROOT
BRANCH   1   2
ATOM      2  C   UNL     1      39.731   0.400  48.204  1.00  0.00     0.190 C 
BRANCH   2   3
ATOM      3  O   UNL     1      39.886   1.791  48.257  1.00  0.00    -0.394 OA
ATOM      4  H   UNL     1      39.175   2.170  47.679  1.00  0.00     0.210 HD
ENDBRANCH   2   3
ENDBRANCH   1   2
BRANCH   1   5
ATOM      5  C   UNL     1      37.670   1.047  46.878  1.00  0.00     0.190 C 
BRANCH   5   6
ATOM      6  O   UNL     1      37.061   2.099  47.577  1.00  0.00    -0.394 OA
ATOM      7  H   UNL     1      36.084   2.009  47.432  1.00  0.00     0.210 HD
ENDBRANCH   5   6
ENDBRANCH   1   5
BRANCH   1   8
ATOM      8  O   UNL     1      37.502  -0.005  49.029  1.00  0.00    -0.388 OA
ATOM      9  H   UNL     1      38.091  -0.346  49.752  1.00  0.00     0.211 HD
ENDBRANCH   1   8
TORSDOF 5
ENDMDL
MODEL 5
REMARK VINA RESULT:    -3.357      4.764      5.314
REMARK INTER + INTRA:          -4.047
REMARK INTER:                  -3.836
REMARK INTRA:                  -0.211
REMARK UNBOUND:                -0.003
REMARK SMILES OCC(O)CO
REMARK SMILES IDX 3 1 5 2 6 3 2 5 1 6 4 8
REMARK H PARENT 6 4 1 7 4 9
REMARK Flexibility Score: inf
ROOT
ATOM      1  C   UNL     1      36.551  10.930  44.705  1.00  0.00     0.165 C 
ENDROOT
BRANCH   1   2
ATOM      2  C   UNL     1      36.307   9.798  45.714  1.00  0.00     0.190 C 
BRANCH   2   3
ATOM      3  O   UNL     1      35.242  10.122  46.565  1.00  0.00    -0.394 OA
ATOM      4  H   UNL     1      34.625   9.344  46.541  1.00  0.00     0.210 HD
ENDBRANCH   2   3
ENDBRANCH   1   2
BRANCH   1   5
ATOM      5  C   UNL     1      35.312  11.827  44.567  1.00  0.00     0.190 C 
BRANCH   5   6
ATOM      6  O   UNL     1      35.425  12.947  45.404  1.00  0.00    -0.394 OA
ATOM      7  H   UNL     1      36.326  13.331  45.246  1.00  0.00     0.210 HD
ENDBRANCH   5   6
ENDBRANCH   1   5
BRANCH   1   8
ATOM      8  O   UNL     1      36.879  10.393  43.449  1.00  0.00    -0.388 OA
ATOM      9  H   UNL     1      36.224   9.670  43.267  1.00  0.00     0.211 HD
ENDBRANCH   1   8
TORSDOF 5
ENDMDL
MODEL 6
REMARK VINA RESULT:    -3.327      4.833      5.354
REMARK INTER + INTRA:          -4.010
REMARK INTER:                  -3.788
REMARK INTRA:                  -0.222
REMARK UNBOUND:                -0.003
REMARK SMILES OCC(O)CO
REMARK SMILES IDX 3 1 5 2 6 3 2 5 1 6 4 8
REMARK H PARENT 6 4 1 7 4 9
REMARK Flexibility Score: inf
ROOT
ATOM      1  C   UNL     1      36.182  10.768  44.386  1.00  0.00     0.165 C 
ENDROOT
BRANCH   1   2
ATOM      2  C   UNL     1      36.509  12.234  44.705  1.00  0.00     0.190 C 
BRANCH   2   3
ATOM      3  O   UNL     1      35.434  12.843  45.367  1.00  0.00    -0.394 OA
ATOM      4  H   UNL     1      34.618  12.573  44.872  1.00  0.00     0.210 HD
ENDBRANCH   2   3
ENDBRANCH   1   2
BRANCH   1   5
ATOM      5  C   UNL     1      36.332   9.882  45.630  1.00  0.00     0.190 C 
BRANCH   5   6
ATOM      6  O   UNL     1      35.259  10.087  46.509  1.00  0.00    -0.394 OA
ATOM      7  H   UNL     1      34.497   9.557  46.158  1.00  0.00     0.210 HD
ENDBRANCH   5   6
ENDBRANCH   1   5
BRANCH   1   8
ATOM      8  O   UNL     1      37.031  10.295  43.372  1.00  0.00    -0.388 OA
ATOM      9  H   UNL     1      37.550  11.076  43.045  1.00  0.00     0.211 HD
ENDBRANCH   1   8
TORSDOF 5
ENDMDL
MODEL 7
REMARK VINA RESULT:    -3.315     14.560     15.189
REMARK INTER + INTRA:          -3.996
REMARK INTER:                  -3.805
REMARK INTRA:                  -0.191
REMARK UNBOUND:                -0.003
REMARK SMILES OCC(O)CO
REMARK SMILES IDX 3 1 5 2 6 3 2 5 1 6 4 8
REMARK H PARENT 6 4 1 7 4 9
REMARK Flexibility Score: inf
ROOT
ATOM      1  C   UNL     1      39.092   0.839  47.452  1.00  0.00     0.165 C 
ENDROOT
BRANCH   1   2
ATOM      2  C   UNL     1      37.854   1.354  46.702  1.00  0.00     0.190 C 
BRANCH   2   3
ATOM      3  O   UNL     1      37.060   2.138  47.550  1.00  0.00    -0.394 OA
ATOM      4  H   UNL     1      36.128   1.824  47.423  1.00  0.00     0.210 HD
ENDBRANCH   2   3
ENDBRANCH   1   2
BRANCH   1   5
ATOM      5  C   UNL     1      38.732  -0.327  48.384  1.00  0.00     0.190 C 
BRANCH   5   6
ATOM      6  O   UNL     1      37.596  -0.012  49.143  1.00  0.00    -0.394 OA
ATOM      7  H   UNL     1      37.642  -0.563  49.967  1.00  0.00     0.210 HD
ENDBRANCH   5   6
ENDBRANCH   1   5
BRANCH   1   8
ATOM      8  O   UNL     1      39.665   1.877  48.205  1.00  0.00    -0.388 OA
ATOM      9  H   UNL     1      39.966   1.476  49.063  1.00  0.00     0.211 HD
ENDBRANCH   1   8
TORSDOF 5
ENDMDL
MODEL 8
REMARK VINA RESULT:    -3.302      0.993      3.192
REMARK INTER + INTRA:          -3.980
REMARK INTER:                  -3.977
REMARK INTRA:                  -0.002
REMARK UNBOUND:                -0.003
REMARK SMILES OCC(O)CO
REMARK SMILES IDX 3 1 5 2 6 3 2 5 1 6 4 8
REMARK H PARENT 6 4 1 7 4 9
REMARK Flexibility Score: inf
ROOT
ATOM      1  C   UNL     1      34.792  14.934  46.332  1.00  0.00     0.165 C 
ENDROOT
BRANCH   1   2
ATOM      2  C   UNL     1      33.611  15.585  45.595  1.00  0.00     0.190 C 
BRANCH   2   3
ATOM      3  O   UNL     1      32.947  14.639  44.803  1.00  0.00    -0.394 OA
ATOM      4  H   UNL     1      32.534  15.146  44.057  1.00  0.00     0.210 HD
ENDBRANCH   2   3
ENDBRANCH   1   2
BRANCH   1   5
ATOM      5  C   UNL     1      35.971  15.908  46.461  1.00  0.00     0.190 C 
BRANCH   5   6
ATOM      6  O   UNL     1      37.187  15.212  46.407  1.00  0.00    -0.394 OA
ATOM      7  H   UNL     1      36.988  14.271  46.649  1.00  0.00     0.210 HD
ENDBRANCH   5   6
ENDBRANCH   1   5
BRANCH   1   8
ATOM      8  O   UNL     1      35.211  13.783  45.646  1.00  0.00    -0.388 OA
ATOM      9  H   UNL     1      36.204  13.768  45.691  1.00  0.00     0.211 HD
ENDBRANCH   1   8
TORSDOF 5
ENDMDL
MODEL 9
REMARK VINA RESULT:    -3.199     15.154     16.208
REMARK INTER + INTRA:          -3.856
REMARK INTER:                  -3.633
REMARK INTRA:                  -0.223
REMARK UNBOUND:                -0.003
REMARK SMILES OCC(O)CO
REMARK SMILES IDX 3 1 5 2 6 3 2 5 1 6 4 8
REMARK H PARENT 6 4 1 7 4 9
REMARK Flexibility Score: inf
ROOT
ATOM      1  C   UNL     1      21.406   5.237  43.595  1.00  0.00     0.165 C 
ENDROOT
BRANCH   1   2
ATOM      2  C   UNL     1      22.825   5.499  43.068  1.00  0.00     0.190 C 
BRANCH   2   3
ATOM      3  O   UNL     1      23.164   6.850  43.226  1.00  0.00    -0.394 OA
ATOM      4  H   UNL     1      22.306   7.347  43.261  1.00  0.00     0.210 HD
ENDBRANCH   2   3
ENDBRANCH   1   2
BRANCH   1   5
ATOM      5  C   UNL     1      20.875   6.443  44.382  1.00  0.00     0.190 C 
BRANCH   5   6
ATOM      6  O   UNL     1      20.269   7.364  43.515  1.00  0.00    -0.394 OA
ATOM      7  H   UNL     1      19.349   7.513  43.855  1.00  0.00     0.210 HD
ENDBRANCH   5   6
ENDBRANCH   1   5
BRANCH   1   8
ATOM      8  O   UNL     1      21.402   4.102  44.423  1.00  0.00    -0.388 OA
ATOM      9  H   UNL     1      21.448   3.311  43.824  1.00  0.00     0.211 HD
ENDBRANCH   1   8
TORSDOF 5
ENDMDL
