MODEL 1
REMARK VINA RESULT:    11.328      0.000      0.000
REMARK INTER + INTRA:          13.024
REMARK INTER:                  13.315
REMARK INTRA:                  -0.291
REMARK UNBOUND:                -0.291
REMARK SMILES O=c1cc(-c2ccc(O)c(O)c2)oc2cc(O)cc(O)c12
REMARK SMILES IDX 4 1 3 2 2 3 1 4 21 5 19 6 18 7 16 8 15 9 14 10 13 11 5 12
REMARK SMILES IDX 6 13 7 14 8 15 12 16 10 17 9 18 11 20 20 22 17 24
REMARK H PARENT 9 19 11 21 20 23 17 25
REMARK Flexibility Score: inf
ROOT
ATOM      1  C   UNL     1      12.811  -2.769  11.133  1.00  0.00     0.138 A 
ATOM      2  C   UNL     1      13.232  -3.682  12.114  1.00  0.00     0.100 A 
ATOM      3  C   UNL     1      14.172  -3.282  13.066  1.00  0.00     0.197 A 
ATOM      4  O   UNL     1      14.546  -4.108  13.941  1.00  0.00    -0.289 OA
ATOM      5  C   UNL     1      14.687  -1.970  13.026  1.00  0.00     0.107 A 
ATOM      6  C   UNL     1      15.641  -1.485  13.951  1.00  0.00     0.134 A 
ATOM      7  C   UNL     1      16.108  -0.167  13.840  1.00  0.00     0.093 A 
ATOM      8  C   UNL     1      15.643   0.672  12.825  1.00  0.00     0.123 A 
ATOM      9  C   UNL     1      14.700   0.196  11.907  1.00  0.00     0.094 A 
ATOM     10  C   UNL     1      14.221  -1.113  12.002  1.00  0.00     0.146 A 
ATOM     11  O   UNL     1      13.324  -1.541  11.118  1.00  0.00    -0.456 OA
ENDROOT
BRANCH   1  12
ATOM     12  C   UNL     1      11.814  -3.139  10.096  1.00  0.00     0.021 A 
ATOM     13  C   UNL     1      10.604  -3.778  10.427  1.00  0.00     0.016 A 
ATOM     14  C   UNL     1       9.681  -4.105   9.431  1.00  0.00     0.051 A 
ATOM     15  C   UNL     1       9.945  -3.795   8.091  1.00  0.00     0.157 A 
ATOM     16  C   UNL     1      12.066  -2.819   8.750  1.00  0.00     0.062 A 
ATOM     17  C   UNL     1      11.143  -3.146   7.751  1.00  0.00     0.158 A 
BRANCH  15  18
ATOM     18  O   UNL     1       9.021  -4.125   7.100  1.00  0.00    -0.504 OA
ATOM     19  H   UNL     1       8.980  -5.056   6.701  1.00  0.00     0.293 HD
ENDBRANCH  15  18
BRANCH  17  20
ATOM     20  O   UNL     1      11.434  -2.820   6.426  1.00  0.00    -0.504 OA
ATOM     21  H   UNL     1      11.466  -3.519   5.694  1.00  0.00     0.293 HD
ENDBRANCH  17  20
ENDBRANCH   1  12
BRANCH   6  22
ATOM     22  O   UNL     1      16.125  -2.299  14.977  1.00  0.00    -0.507 OA
ATOM     23  H   UNL     1      17.112  -2.507  15.072  1.00  0.00     0.293 HD
ENDBRANCH   6  22
BRANCH   8  24
ATOM     24  O   UNL     1      16.123   1.976  12.738  1.00  0.00    -0.508 OA
ATOM     25  H   UNL     1      17.067   2.173  12.425  1.00  0.00     0.293 HD
ENDBRANCH   8  24
TORSDOF 5
ENDMDL
MODEL 2
REMARK VINA RESULT:    14.036      1.181      2.689
REMARK INTER + INTRA:          16.206
REMARK INTER:                  16.466
REMARK INTRA:                  -0.260
REMARK UNBOUND:                -0.291
REMARK SMILES O=c1cc(-c2ccc(O)c(O)c2)oc2cc(O)cc(O)c12
REMARK SMILES IDX 4 1 3 2 2 3 1 4 21 5 19 6 18 7 16 8 15 9 14 10 13 11 5 12
REMARK SMILES IDX 6 13 7 14 8 15 12 16 10 17 9 18 11 20 20 22 17 24
REMARK H PARENT 9 19 11 21 20 23 17 25
REMARK Flexibility Score: inf
ROOT
ATOM      1  C   UNL     1      12.637  -2.157  11.132  1.00  0.00     0.138 A 
ATOM      2  C   UNL     1      13.065  -0.821  11.082  1.00  0.00     0.100 A 
ATOM      3  C   UNL     1      14.055  -0.383  11.965  1.00  0.00     0.197 A 
ATOM      4  O   UNL     1      14.431   0.819  11.914  1.00  0.00    -0.289 OA
ATOM      5  C   UNL     1      14.607  -1.287  12.894  1.00  0.00     0.107 A 
ATOM      6  C   UNL     1      15.612  -0.926  13.822  1.00  0.00     0.134 A 
ATOM      7  C   UNL     1      16.106  -1.885  14.719  1.00  0.00     0.093 A 
ATOM      8  C   UNL     1      15.615  -3.192  14.707  1.00  0.00     0.123 A 
ATOM      9  C   UNL     1      14.621  -3.555  13.792  1.00  0.00     0.094 A 
ATOM     10  C   UNL     1      14.116  -2.614  12.889  1.00  0.00     0.146 A 
ATOM     11  O   UNL     1      13.172  -2.983  12.028  1.00  0.00    -0.456 OA
ENDROOT
BRANCH   1  12
ATOM     12  C   UNL     1      11.588  -2.678  10.219  1.00  0.00     0.021 A 
ATOM     13  C   UNL     1      10.267  -2.894  10.656  1.00  0.00     0.016 A 
ATOM     14  C   UNL     1       9.299  -3.376   9.771  1.00  0.00     0.051 A 
ATOM     15  C   UNL     1       9.628  -3.642   8.437  1.00  0.00     0.157 A 
ATOM     16  C   UNL     1      11.908  -2.936   8.873  1.00  0.00     0.062 A 
ATOM     17  C   UNL     1      10.939  -3.419   7.987  1.00  0.00     0.158 A 
BRANCH  15  18
ATOM     18  O   UNL     1       8.659  -4.125   7.558  1.00  0.00    -0.504 OA
ATOM     19  H   UNL     1       7.670  -4.044   7.763  1.00  0.00     0.293 HD
ENDBRANCH  15  18
BRANCH  17  20
ATOM     20  O   UNL     1      11.299  -3.671   6.663  1.00  0.00    -0.504 OA
ATOM     21  H   UNL     1      10.748  -4.270   6.060  1.00  0.00     0.293 HD
ENDBRANCH  17  20
ENDBRANCH   1  12
BRANCH   6  22
ATOM     22  O   UNL     1      16.123   0.373  13.858  1.00  0.00    -0.507 OA
ATOM     23  H   UNL     1      17.119   0.554  13.846  1.00  0.00     0.293 HD
ENDBRANCH   6  22
BRANCH   8  24
ATOM     24  O   UNL     1      16.123  -4.124  15.609  1.00  0.00    -0.508 OA
ATOM     25  H   UNL     1      15.549  -4.875  15.974  1.00  0.00     0.293 HD
ENDBRANCH   8  24
TORSDOF 5
ENDMDL
