MODEL 1
REMARK VINA RESULT:     7.333      0.000      0.000
REMARK INTER + INTRA:          12.890
REMARK INTER:                  13.335
REMARK INTRA:                  -0.445
REMARK UNBOUND:                -0.445
REMARK SMILES CCCCCC=CCC=CCCCCCCCC(=O)[O-]
REMARK SMILES IDX 11 1 12 2 13 3 14 4 15 5 16 6 17 7 18 8 19 9 20 10 10 11
REMARK SMILES IDX 9 12 8 13 7 14 6 15 5 16 4 17 3 18 2 19 1 20
REMARK H PARENT
REMARK Flexibility Score: inf
ROOT
ATOM      1  C   UNL     1       9.674   7.187  10.048  1.00  0.00     0.027 C 
ENDROOT
BRANCH   1   2
ATOM      2  C   UNL     1      10.796   6.389   9.374  1.00  0.00     0.004 C 
BRANCH   2   3
ATOM      3  C   UNL     1      10.340   4.960   9.053  1.00  0.00     0.000 C 
BRANCH   3   4
ATOM      4  C   UNL     1      11.024   3.944   9.980  1.00  0.00     0.000 C 
BRANCH   4   5
ATOM      5  C   UNL     1      10.383   3.880  11.377  1.00  0.00     0.000 C 
BRANCH   5   6
ATOM      6  C   UNL     1       8.840   3.875  11.388  1.00  0.00     0.006 C 
BRANCH   6   7
ATOM      7  C   UNL     1       8.204   5.013  12.202  1.00  0.00     0.053 C 
BRANCH   7   8
ATOM      8  C   UNL     1       6.826   5.345  11.719  1.00  0.00     0.041 C 
ATOM      9  O   UNL     1       5.968   4.436  11.577  1.00  0.00    -0.550 OA
ATOM     10  O   UNL     1       6.480   6.665  11.458  1.00  0.00    -0.550 OA
ENDBRANCH   7   8
ENDBRANCH   6   7
ENDBRANCH   5   6
ENDBRANCH   4   5
ENDBRANCH   3   4
ENDBRANCH   2   3
ENDBRANCH   1   2
BRANCH   1  11
ATOM     11  C   UNL     1      10.139   7.783  11.347  1.00  0.00    -0.031 C 
ATOM     12  C   UNL     1      10.626   7.018  12.335  1.00  0.00    -0.027 C 
BRANCH  12  13
ATOM     13  C   UNL     1      11.096   7.614  13.633  1.00  0.00     0.054 C 
BRANCH  13  14
ATOM     14  C   UNL     1      10.340   8.871  13.960  1.00  0.00    -0.027 C 
ATOM     15  C   UNL     1       9.015   8.964  13.764  1.00  0.00    -0.031 C 
BRANCH  15  16
ATOM     16  C   UNL     1       8.256  10.219  14.094  1.00  0.00     0.027 C 
BRANCH  16  17
ATOM     17  C   UNL     1       7.020   9.910  14.951  1.00  0.00     0.004 C 
BRANCH  17  18
ATOM     18  C   UNL     1       6.021  11.078  15.006  1.00  0.00     0.000 C 
BRANCH  18  19
ATOM     19  C   UNL     1       6.476  12.239  15.914  1.00  0.00    -0.003 C 
ATOM     20  C   UNL     1       5.760  12.237  17.265  1.00  0.00     0.004 C 
ENDBRANCH  18  19
ENDBRANCH  17  18
ENDBRANCH  16  17
ENDBRANCH  15  16
ENDBRANCH  13  14
ENDBRANCH  12  13
ENDBRANCH   1  11
TORSDOF 14
ENDMDL
MODEL 2
REMARK VINA RESULT:     9.442      1.873      3.907
REMARK INTER + INTRA:          16.725
REMARK INTER:                  17.519
REMARK INTRA:                  -0.794
REMARK UNBOUND:                -0.445
REMARK SMILES CCCCCC=CCC=CCCCCCCCC(=O)[O-]
REMARK SMILES IDX 11 1 12 2 13 3 14 4 15 5 16 6 17 7 18 8 19 9 20 10 10 11
REMARK SMILES IDX 9 12 8 13 7 14 6 15 5 16 4 17 3 18 2 19 1 20
REMARK H PARENT
REMARK Flexibility Score: inf
ROOT
ATOM      1  C   UNL     1       9.691   9.012  12.558  1.00  0.00     0.027 C 
ENDROOT
BRANCH   1   2
ATOM      2  C   UNL     1      10.826   8.296  13.299  1.00  0.00     0.004 C 
BRANCH   2   3
ATOM      3  C   UNL     1      10.393   6.892  13.743  1.00  0.00     0.000 C 
BRANCH   3   4
ATOM      4  C   UNL     1      10.617   5.868  12.621  1.00  0.00     0.000 C 
BRANCH   4   5
ATOM      5  C   UNL     1       9.331   5.120  12.226  1.00  0.00     0.000 C 
BRANCH   5   6
ATOM      6  C   UNL     1       9.382   4.413  10.855  1.00  0.00     0.006 C 
BRANCH   6   7
ATOM      7  C   UNL     1      10.465   4.945   9.904  1.00  0.00     0.053 C 
BRANCH   7   8
ATOM      8  C   UNL     1      10.242   6.384   9.551  1.00  0.00     0.041 C 
ATOM      9  O   UNL     1      11.124   7.244   9.809  1.00  0.00    -0.550 OA
ATOM     10  O   UNL     1       9.074   6.769   8.906  1.00  0.00    -0.550 OA
ENDBRANCH   7   8
ENDBRANCH   6   7
ENDBRANCH   5   6
ENDBRANCH   4   5
ENDBRANCH   3   4
ENDBRANCH   2   3
ENDBRANCH   1   2
BRANCH   1  11
ATOM     11  C   UNL     1       8.356   8.689  13.171  1.00  0.00    -0.031 C 
ATOM     12  C   UNL     1       7.795   9.488  14.091  1.00  0.00    -0.027 C 
BRANCH  12  13
ATOM     13  C   UNL     1       6.458   9.168  14.699  1.00  0.00     0.054 C 
BRANCH  13  14
ATOM     14  C   UNL     1       5.816  10.397  15.281  1.00  0.00    -0.027 C 
ATOM     15  C   UNL     1       6.457  11.576  15.308  1.00  0.00    -0.031 C 
BRANCH  15  16
ATOM     16  C   UNL     1       5.815  12.808  15.886  1.00  0.00     0.027 C 
BRANCH  16  17
ATOM     17  C   UNL     1       5.872  12.796  17.420  1.00  0.00     0.004 C 
BRANCH  17  18
ATOM     18  C   UNL     1       7.309  12.797  17.968  1.00  0.00     0.000 C 
BRANCH  18  19
ATOM     19  C   UNL     1       7.384  12.696  19.505  1.00  0.00    -0.003 C 
ATOM     20  C   UNL     1       6.137  12.050  20.108  1.00  0.00     0.004 C 
ENDBRANCH  18  19
ENDBRANCH  17  18
ENDBRANCH  16  17
ENDBRANCH  15  16
ENDBRANCH  13  14
ENDBRANCH  12  13
ENDBRANCH   1  11
TORSDOF 14
ENDMDL
MODEL 3
REMARK VINA RESULT:     9.707      3.529      8.164
REMARK INTER + INTRA:          17.206
REMARK INTER:                  18.111
REMARK INTRA:                  -0.904
REMARK UNBOUND:                -0.445
REMARK SMILES CCCCCC=CCC=CCCCCCCCC(=O)[O-]
REMARK SMILES IDX 11 1 12 2 13 3 14 4 15 5 16 6 17 7 18 8 19 9 20 10 10 11
REMARK SMILES IDX 9 12 8 13 7 14 6 15 5 16 4 17 3 18 2 19 1 20
REMARK H PARENT
REMARK Flexibility Score: inf
ROOT
ATOM      1  C   UNL     1       7.705   9.195  13.138  1.00  0.00     0.027 C 
ENDROOT
BRANCH   1   2
ATOM      2  C   UNL     1       7.272   9.247  14.608  1.00  0.00     0.004 C 
BRANCH   2   3
ATOM      3  C   UNL     1       5.855   9.820  14.745  1.00  0.00     0.000 C 
BRANCH   3   4
ATOM      4  C   UNL     1       5.898  11.331  15.016  1.00  0.00     0.000 C 
BRANCH   4   5
ATOM      5  C   UNL     1       5.950  11.670  16.516  1.00  0.00     0.000 C 
BRANCH   5   6
ATOM      6  C   UNL     1       5.893  13.176  16.847  1.00  0.00     0.006 C 
BRANCH   6   7
ATOM      7  C   UNL     1       5.731  13.495  18.342  1.00  0.00     0.053 C 
BRANCH   7   8
ATOM      8  C   UNL     1       6.804  12.857  19.169  1.00  0.00     0.041 C 
ATOM      9  O   UNL     1       8.009  12.933  18.814  1.00  0.00    -0.550 OA
ATOM     10  O   UNL     1       6.475  12.207  20.352  1.00  0.00    -0.550 OA
ENDBRANCH   7   8
ENDBRANCH   6   7
ENDBRANCH   5   6
ENDBRANCH   4   5
ENDBRANCH   3   4
ENDBRANCH   2   3
ENDBRANCH   1   2
BRANCH   1  11
ATOM     11  C   UNL     1       8.834   8.221  12.941  1.00  0.00    -0.031 C 
ATOM     12  C   UNL     1       9.994   8.597  12.382  1.00  0.00    -0.027 C 
BRANCH  12  13
ATOM     13  C   UNL     1      11.125   7.626  12.190  1.00  0.00     0.054 C 
BRANCH  13  14
ATOM     14  C   UNL     1      10.795   6.606  11.137  1.00  0.00    -0.027 C 
ATOM     15  C   UNL     1      10.926   5.291  11.369  1.00  0.00    -0.031 C 
BRANCH  15  16
ATOM     16  C   UNL     1      10.593   4.268  10.318  1.00  0.00     0.027 C 
BRANCH  16  17
ATOM     17  C   UNL     1       9.108   3.883  10.370  1.00  0.00     0.004 C 
BRANCH  17  18
ATOM     18  C   UNL     1       8.457   4.180  11.732  1.00  0.00     0.000 C 
BRANCH  18  19
ATOM     19  C   UNL     1       6.916   4.179  11.694  1.00  0.00    -0.003 C 
ATOM     20  C   UNL     1       6.337   5.582  11.514  1.00  0.00     0.004 C 
ENDBRANCH  18  19
ENDBRANCH  17  18
ENDBRANCH  16  17
ENDBRANCH  15  16
ENDBRANCH  13  14
ENDBRANCH  12  13
ENDBRANCH   1  11
TORSDOF 14
ENDMDL
MODEL 4
REMARK VINA RESULT:     9.749      1.379      3.420
REMARK INTER + INTRA:          17.283
REMARK INTER:                  18.384
REMARK INTRA:                  -1.101
REMARK UNBOUND:                -0.445
REMARK SMILES CCCCCC=CCC=CCCCCCCCC(=O)[O-]
REMARK SMILES IDX 11 1 12 2 13 3 14 4 15 5 16 6 17 7 18 8 19 9 20 10 10 11
REMARK SMILES IDX 9 12 8 13 7 14 6 15 5 16 4 17 3 18 2 19 1 20
REMARK H PARENT
REMARK Flexibility Score: inf
ROOT
ATOM      1  C   UNL     1      10.109   9.105  12.901  1.00  0.00     0.027 C 
ENDROOT
BRANCH   1   2
ATOM      2  C   UNL     1      10.895   8.056  13.696  1.00  0.00     0.004 C 
BRANCH   2   3
ATOM      3  C   UNL     1      10.650   6.647  13.140  1.00  0.00     0.000 C 
BRANCH   3   4
ATOM      4  C   UNL     1      10.199   6.706  11.673  1.00  0.00     0.000 C 
BRANCH   4   5
ATOM      5  C   UNL     1      10.879   5.644  10.792  1.00  0.00     0.000 C 
BRANCH   5   6
ATOM      6  C   UNL     1      10.314   4.215  10.939  1.00  0.00     0.006 C 
BRANCH   6   7
ATOM      7  C   UNL     1       8.927   4.010  10.310  1.00  0.00     0.053 C 
BRANCH   7   8
ATOM      8  C   UNL     1       7.842   3.992  11.342  1.00  0.00     0.041 C 
ATOM      9  O   UNL     1       6.634   4.047  10.993  1.00  0.00    -0.550 OA
ATOM     10  O   UNL     1       8.164   3.882  12.689  1.00  0.00    -0.550 OA
ENDBRANCH   7   8
ENDBRANCH   6   7
ENDBRANCH   5   6
ENDBRANCH   4   5
ENDBRANCH   3   4
ENDBRANCH   2   3
ENDBRANCH   1   2
BRANCH   1  11
ATOM     11  C   UNL     1       8.842   9.487  13.616  1.00  0.00    -0.031 C 
ATOM     12  C   UNL     1       7.720   8.764  13.489  1.00  0.00    -0.027 C 
BRANCH  12  13
ATOM     13  C   UNL     1       6.455   9.143  14.208  1.00  0.00     0.054 C 
BRANCH  13  14
ATOM     14  C   UNL     1       6.617  10.442  14.947  1.00  0.00    -0.027 C 
ATOM     15  C   UNL     1       5.680  11.401  14.891  1.00  0.00    -0.031 C 
BRANCH  15  16
ATOM     16  C   UNL     1       5.837  12.700  15.633  1.00  0.00     0.027 C 
BRANCH  16  17
ATOM     17  C   UNL     1       6.675  12.515  16.905  1.00  0.00     0.004 C 
BRANCH  17  18
ATOM     18  C   UNL     1       5.822  12.462  18.184  1.00  0.00     0.000 C 
BRANCH  18  19
ATOM     19  C   UNL     1       6.572  12.931  19.447  1.00  0.00    -0.003 C 
ATOM     20  C   UNL     1       8.055  13.192  19.180  1.00  0.00     0.004 C 
ENDBRANCH  18  19
ENDBRANCH  17  18
ENDBRANCH  16  17
ENDBRANCH  15  16
ENDBRANCH  13  14
ENDBRANCH  12  13
ENDBRANCH   1  11
TORSDOF 14
ENDMDL
MODEL 5
REMARK VINA RESULT:     9.876      2.473      4.395
REMARK INTER + INTRA:          17.514
REMARK INTER:                  18.287
REMARK INTRA:                  -0.773
REMARK UNBOUND:                -0.445
REMARK SMILES CCCCCC=CCC=CCCCCCCCC(=O)[O-]
REMARK SMILES IDX 11 1 12 2 13 3 14 4 15 5 16 6 17 7 18 8 19 9 20 10 10 11
REMARK SMILES IDX 9 12 8 13 7 14 6 15 5 16 4 17 3 18 2 19 1 20
REMARK H PARENT
REMARK Flexibility Score: inf
ROOT
ATOM      1  C   UNL     1       8.762   3.880  11.446  1.00  0.00     0.027 C 
ENDROOT
BRANCH   1   2
ATOM      2  C   UNL     1       9.333   4.130  10.046  1.00  0.00     0.004 C 
BRANCH   2   3
ATOM      3  C   UNL     1       9.468   5.633   9.767  1.00  0.00     0.000 C 
BRANCH   3   4
ATOM      4  C   UNL     1      10.919   6.098   9.955  1.00  0.00     0.000 C 
BRANCH   4   5
ATOM      5  C   UNL     1      11.112   6.974  11.205  1.00  0.00     0.000 C 
BRANCH   5   6
ATOM      6  C   UNL     1      10.907   6.245  12.550  1.00  0.00     0.006 C 
BRANCH   6   7
ATOM      7  C   UNL     1      10.699   7.177  13.755  1.00  0.00     0.053 C 
BRANCH   7   8
ATOM      8  C   UNL     1      10.109   8.493  13.350  1.00  0.00     0.041 C 
ATOM      9  O   UNL     1      10.818   9.533  13.350  1.00  0.00    -0.550 OA
ATOM     10  O   UNL     1       8.783   8.563  12.940  1.00  0.00    -0.550 OA
ENDBRANCH   7   8
ENDBRANCH   6   7
ENDBRANCH   5   6
ENDBRANCH   4   5
ENDBRANCH   3   4
ENDBRANCH   2   3
ENDBRANCH   1   2
BRANCH   1  11
ATOM     11  C   UNL     1       7.289   4.180  11.492  1.00  0.00    -0.031 C 
ATOM     12  C   UNL     1       6.823   5.427  11.328  1.00  0.00    -0.027 C 
BRANCH  12  13
ATOM     13  C   UNL     1       5.350   5.727  11.368  1.00  0.00     0.054 C 
BRANCH  13  14
ATOM     14  C   UNL     1       4.833   5.731  12.779  1.00  0.00    -0.027 C 
ATOM     15  C   UNL     1       4.035   6.712  13.230  1.00  0.00    -0.031 C 
BRANCH  15  16
ATOM     16  C   UNL     1       3.512   6.717  14.639  1.00  0.00     0.027 C 
BRANCH  16  17
ATOM     17  C   UNL     1       3.297   8.150  15.147  1.00  0.00     0.004 C 
BRANCH  17  18
ATOM     18  C   UNL     1       4.344   8.582  16.187  1.00  0.00     0.000 C 
BRANCH  18  19
ATOM     19  C   UNL     1       5.691   9.008  15.568  1.00  0.00    -0.003 C 
ATOM     20  C   UNL     1       5.565  10.265  14.708  1.00  0.00     0.004 C 
ENDBRANCH  18  19
ENDBRANCH  17  18
ENDBRANCH  16  17
ENDBRANCH  15  16
ENDBRANCH  13  14
ENDBRANCH  12  13
ENDBRANCH   1  11
TORSDOF 14
ENDMDL
MODEL 6
REMARK VINA RESULT:    10.082      1.894      2.588
REMARK INTER + INTRA:          17.889
REMARK INTER:                  17.758
REMARK INTRA:                   0.131
REMARK UNBOUND:                -0.445
REMARK SMILES CCCCCC=CCC=CCCCCCCCC(=O)[O-]
REMARK SMILES IDX 11 1 12 2 13 3 14 4 15 5 16 6 17 7 18 8 19 9 20 10 10 11
REMARK SMILES IDX 9 12 8 13 7 14 6 15 5 16 4 17 3 18 2 19 1 20
REMARK H PARENT
REMARK Flexibility Score: inf
ROOT
ATOM      1  C   UNL     1      11.059   5.259  10.697  1.00  0.00     0.027 C 
ENDROOT
BRANCH   1   2
ATOM      2  C   UNL     1      10.156   4.035  10.893  1.00  0.00     0.004 C 
BRANCH   2   3
ATOM      3  C   UNL     1       8.975   4.060   9.914  1.00  0.00     0.000 C 
BRANCH   3   4
ATOM      4  C   UNL     1       7.643   3.875  10.656  1.00  0.00     0.000 C 
BRANCH   4   5
ATOM      5  C   UNL     1       7.666   4.454  12.082  1.00  0.00     0.000 C 
BRANCH   5   6
ATOM      6  C   UNL     1       7.647   5.995  12.161  1.00  0.00     0.006 C 
BRANCH   6   7
ATOM      7  C   UNL     1       6.782   6.678  11.091  1.00  0.00     0.053 C 
BRANCH   7   8
ATOM      8  C   UNL     1       7.595   7.557  10.191  1.00  0.00     0.041 C 
ATOM      9  O   UNL     1       7.157   8.684   9.840  1.00  0.00    -0.550 OA
ATOM     10  O   UNL     1       8.851   7.144   9.766  1.00  0.00    -0.550 OA
ENDBRANCH   7   8
ENDBRANCH   6   7
ENDBRANCH   5   6
ENDBRANCH   4   5
ENDBRANCH   3   4
ENDBRANCH   2   3
ENDBRANCH   1   2
BRANCH   1  11
ATOM     11  C   UNL     1      11.072   6.124  11.928  1.00  0.00    -0.031 C 
ATOM     12  C   UNL     1      11.084   5.591  13.159  1.00  0.00    -0.027 C 
BRANCH  12  13
ATOM     13  C   UNL     1      11.103   6.455  14.389  1.00  0.00     0.054 C 
BRANCH  13  14
ATOM     14  C   UNL     1      10.351   7.737  14.166  1.00  0.00    -0.027 C 
ATOM     15  C   UNL     1      10.236   8.278  12.943  1.00  0.00    -0.031 C 
BRANCH  15  16
ATOM     16  C   UNL     1       9.480   9.559  12.716  1.00  0.00     0.027 C 
BRANCH  16  17
ATOM     17  C   UNL     1       7.971   9.354  12.907  1.00  0.00     0.004 C 
BRANCH  17  18
ATOM     18  C   UNL     1       7.508   9.612  14.352  1.00  0.00     0.000 C 
BRANCH  18  19
ATOM     19  C   UNL     1       6.000   9.908  14.473  1.00  0.00    -0.003 C 
ATOM     20  C   UNL     1       5.420   9.437  15.807  1.00  0.00     0.004 C 
ENDBRANCH  18  19
ENDBRANCH  17  18
ENDBRANCH  16  17
ENDBRANCH  15  16
ENDBRANCH  13  14
ENDBRANCH  12  13
ENDBRANCH   1  11
TORSDOF 14
ENDMDL
