MODEL 1
REMARK VINA RESULT:    -5.665      0.000      0.000
REMARK INTER + INTRA:          -7.579
REMARK INTER:                  -7.155
REMARK INTRA:                  -0.424
REMARK UNBOUND:                -0.424
REMARK SMILES CC(C)=CCCC(C)=CCO
REMARK SMILES IDX 7 1 9 2 8 3 6 4 5 5 4 6 1 7 2 8 3 9 10 10 11 11
REMARK H PARENT 11 12
REMARK Flexibility Score: inf
ROOT
ATOM      1  C   UNL     1      11.670  -3.195  13.201  1.00  0.00    -0.075 C 
ATOM      2  C   UNL     1      12.954  -2.826  13.406  1.00  0.00    -0.000 C 
ATOM      3  C   UNL     1      10.918  -2.767  11.963  1.00  0.00     0.039 C 
ENDROOT
BRANCH   1   4
ATOM      4  C   UNL     1      10.971  -4.055  14.234  1.00  0.00     0.034 C 
BRANCH   4   5
ATOM      5  C   UNL     1      11.074  -3.453  15.643  1.00  0.00     0.032 C 
BRANCH   5   6
ATOM      6  C   UNL     1      11.934  -4.299  16.552  1.00  0.00    -0.028 C 
ATOM      7  C   UNL     1      13.650  -2.504  16.881  1.00  0.00     0.039 C 
ATOM      8  C   UNL     1      13.071  -3.872  17.146  1.00  0.00    -0.080 C 
ATOM      9  C   UNL     1      13.831  -4.798  18.060  1.00  0.00     0.039 C 
ENDBRANCH   5   6
ENDBRANCH   4   5
ENDBRANCH   1   4
BRANCH   2  10
ATOM     10  C   UNL     1      13.734  -1.977  12.435  1.00  0.00     0.183 C 
BRANCH  10  11
ATOM     11  O   UNL     1      14.214  -0.825  13.073  1.00  0.00    -0.392 OA
ATOM     12  H   UNL     1      15.205  -0.877  13.044  1.00  0.00     0.210 HD
ENDBRANCH  10  11
ENDBRANCH   2  10
TORSDOF 5
ENDMDL
MODEL 2
REMARK VINA RESULT:    -5.241      2.881      5.520
REMARK INTER + INTRA:          -7.044
REMARK INTER:                  -6.755
REMARK INTRA:                  -0.289
REMARK UNBOUND:                -0.424
REMARK SMILES CC(C)=CCCC(C)=CCO
REMARK SMILES IDX 7 1 9 2 8 3 6 4 5 5 4 6 1 7 2 8 3 9 10 10 11 11
REMARK H PARENT 11 12
REMARK Flexibility Score: inf
ROOT
ATOM      1  C   UNL     1      12.894  -3.868  17.165  1.00  0.00    -0.075 C 
ATOM      2  C   UNL     1      11.849  -4.598  17.614  1.00  0.00    -0.000 C 
ATOM      3  C   UNL     1      13.855  -3.201  18.120  1.00  0.00     0.039 C 
ENDROOT
BRANCH   1   4
ATOM      4  C   UNL     1      13.105  -3.713  15.672  1.00  0.00     0.034 C 
BRANCH   4   5
ATOM      5  C   UNL     1      12.615  -2.349  15.163  1.00  0.00     0.032 C 
BRANCH   5   6
ATOM      6  C   UNL     1      11.699  -2.492  13.971  1.00  0.00    -0.028 C 
ATOM      7  C   UNL     1      13.562  -2.311  12.305  1.00  0.00     0.039 C 
ATOM      8  C   UNL     1      12.116  -2.517  12.684  1.00  0.00    -0.080 C 
ATOM      9  C   UNL     1      11.112  -2.697  11.576  1.00  0.00     0.039 C 
ENDBRANCH   5   6
ENDBRANCH   4   5
ENDBRANCH   1   4
BRANCH   2  10
ATOM     10  C   UNL     1      11.560  -4.812  19.077  1.00  0.00     0.183 C 
BRANCH  10  11
ATOM     11  O   UNL     1      11.950  -6.101  19.466  1.00  0.00    -0.392 OA
ATOM     12  H   UNL     1      11.158  -6.687  19.343  1.00  0.00     0.210 HD
ENDBRANCH  10  11
ENDBRANCH   2  10
TORSDOF 5
ENDMDL
MODEL 3
REMARK VINA RESULT:    -4.941      1.586      2.219
REMARK INTER + INTRA:          -6.665
REMARK INTER:                  -6.383
REMARK INTRA:                  -0.282
REMARK UNBOUND:                -0.424
REMARK SMILES CC(C)=CCCC(C)=CCO
REMARK SMILES IDX 7 1 9 2 8 3 6 4 5 5 4 6 1 7 2 8 3 9 10 10 11 11
REMARK H PARENT 11 12
REMARK Flexibility Score: inf
ROOT
ATOM      1  C   UNL     1      12.198  -3.241  14.539  1.00  0.00    -0.075 C 
ATOM      2  C   UNL     1      13.455  -2.767  14.396  1.00  0.00    -0.000 C 
ATOM      3  C   UNL     1      11.145  -3.007  13.482  1.00  0.00     0.039 C 
ENDROOT
BRANCH   1   4
ATOM      4  C   UNL     1      11.836  -4.022  15.786  1.00  0.00     0.034 C 
BRANCH   4   5
ATOM      5  C   UNL     1      12.978  -4.022  16.813  1.00  0.00     0.032 C 
BRANCH   5   6
ATOM      6  C   UNL     1      12.478  -3.725  18.207  1.00  0.00    -0.028 C 
ATOM      7  C   UNL     1      11.977  -6.125  18.723  1.00  0.00     0.039 C 
ATOM      8  C   UNL     1      12.064  -4.664  19.088  1.00  0.00    -0.080 C 
ATOM      9  C   UNL     1      11.615  -4.250  20.465  1.00  0.00     0.039 C 
ENDBRANCH   5   6
ENDBRANCH   4   5
ENDBRANCH   1   4
BRANCH   2  10
ATOM     10  C   UNL     1      13.911  -1.985  13.191  1.00  0.00     0.183 C 
BRANCH  10  11
ATOM     11  O   UNL     1      14.245  -0.675  13.560  1.00  0.00    -0.392 OA
ATOM     12  H   UNL     1      14.523  -0.208  12.729  1.00  0.00     0.210 HD
ENDBRANCH  10  11
ENDBRANCH   2  10
TORSDOF 5
ENDMDL
MODEL 4
REMARK VINA RESULT:    -4.152      2.695      4.494
REMARK INTER + INTRA:          -5.668
REMARK INTER:                  -5.062
REMARK INTRA:                  -0.606
REMARK UNBOUND:                -0.424
REMARK SMILES CC(C)=CCCC(C)=CCO
REMARK SMILES IDX 7 1 9 2 8 3 6 4 5 5 4 6 1 7 2 8 3 9 10 10 11 11
REMARK H PARENT 11 12
REMARK Flexibility Score: inf
ROOT
ATOM      1  C   UNL     1      11.204  -3.776  15.089  1.00  0.00    -0.075 C 
ATOM      2  C   UNL     1      11.572  -4.978  15.585  1.00  0.00    -0.000 C 
ATOM      3  C   UNL     1      11.100  -2.558  15.976  1.00  0.00     0.039 C 
ENDROOT
BRANCH   1   4
ATOM      4  C   UNL     1      10.887  -3.648  13.613  1.00  0.00     0.034 C 
BRANCH   4   5
ATOM      5  C   UNL     1      11.541  -2.405  12.992  1.00  0.00     0.032 C 
BRANCH   5   6
ATOM      6  C   UNL     1      12.881  -2.726  12.375  1.00  0.00    -0.028 C 
ATOM      7  C   UNL     1      14.183  -1.770  14.290  1.00  0.00     0.039 C 
ATOM      8  C   UNL     1      14.073  -2.483  12.965  1.00  0.00    -0.080 C 
ATOM      9  C   UNL     1      15.349  -2.877  12.265  1.00  0.00     0.039 C 
ENDBRANCH   5   6
ENDBRANCH   4   5
ENDBRANCH   1   4
BRANCH   2  10
ATOM     10  C   UNL     1      11.911  -5.204  17.036  1.00  0.00     0.183 C 
BRANCH  10  11
ATOM     11  O   UNL     1      10.936  -6.007  17.644  1.00  0.00    -0.392 OA
ATOM     12  H   UNL     1      11.152  -6.031  18.613  1.00  0.00     0.210 HD
ENDBRANCH  10  11
ENDBRANCH   2  10
TORSDOF 5
ENDMDL
MODEL 5
REMARK VINA RESULT:    -3.290     14.746     16.838
REMARK INTER + INTRA:          -4.579
REMARK INTER:                  -4.112
REMARK INTRA:                  -0.467
REMARK UNBOUND:                -0.424
REMARK SMILES CC(C)=CCCC(C)=CCO
REMARK SMILES IDX 7 1 9 2 8 3 6 4 5 5 4 6 1 7 2 8 3 9 10 10 11 11
REMARK H PARENT 11 12
REMARK Flexibility Score: inf
ROOT
ATOM      1  C   UNL     1      11.573   7.568   2.423  1.00  0.00    -0.075 C 
ATOM      2  C   UNL     1      12.691   7.494   3.179  1.00  0.00    -0.000 C 
ATOM      3  C   UNL     1      10.875   6.323   1.930  1.00  0.00     0.039 C 
ENDROOT
BRANCH   1   4
ATOM      4  C   UNL     1      11.011   8.927   2.059  1.00  0.00     0.034 C 
BRANCH   4   5
ATOM      5  C   UNL     1      11.950  10.067   2.479  1.00  0.00     0.032 C 
BRANCH   5   6
ATOM      6  C   UNL     1      11.263  11.050   3.397  1.00  0.00    -0.028 C 
ATOM      7  C   UNL     1      12.706  10.483   5.365  1.00  0.00     0.039 C 
ATOM      8  C   UNL     1      11.619  11.275   4.682  1.00  0.00    -0.080 C 
ATOM      9  C   UNL     1      10.877  12.306   5.493  1.00  0.00     0.039 C 
ENDBRANCH   5   6
ENDBRANCH   4   5
ENDBRANCH   1   4
BRANCH   2  10
ATOM     10  C   UNL     1      13.322   6.190   3.595  1.00  0.00     0.183 C 
BRANCH  10  11
ATOM     11  O   UNL     1      13.683   6.235   4.949  1.00  0.00    -0.392 OA
ATOM     12  H   UNL     1      14.395   6.924   5.030  1.00  0.00     0.210 HD
ENDBRANCH  10  11
ENDBRANCH   2  10
TORSDOF 5
ENDMDL
MODEL 6
REMARK VINA RESULT:    -3.238     15.474     17.925
REMARK INTER + INTRA:          -4.513
REMARK INTER:                  -4.192
REMARK INTRA:                  -0.321
REMARK UNBOUND:                -0.424
REMARK SMILES CC(C)=CCCC(C)=CCO
REMARK SMILES IDX 7 1 9 2 8 3 6 4 5 5 4 6 1 7 2 8 3 9 10 10 11 11
REMARK H PARENT 11 12
REMARK Flexibility Score: inf
ROOT
ATOM      1  C   UNL     1      11.449  11.705   3.307  1.00  0.00    -0.075 C 
ATOM      2  C   UNL     1      11.779  11.926   4.599  1.00  0.00    -0.000 C 
ATOM      3  C   UNL     1      11.639  12.770   2.254  1.00  0.00     0.039 C 
ENDROOT
BRANCH   1   4
ATOM      4  C   UNL     1      10.876  10.360   2.908  1.00  0.00     0.034 C 
BRANCH   4   5
ATOM      5  C   UNL     1      11.817   9.592   1.969  1.00  0.00     0.032 C 
BRANCH   5   6
ATOM      6  C   UNL     1      12.549   8.486   2.692  1.00  0.00    -0.028 C 
ATOM      7  C   UNL     1      10.881   6.731   2.050  1.00  0.00     0.039 C 
ATOM      8  C   UNL     1      12.161   7.191   2.703  1.00  0.00    -0.080 C 
ATOM      9  C   UNL     1      12.990   6.167   3.435  1.00  0.00     0.039 C 
ENDBRANCH   5   6
ENDBRANCH   4   5
ENDBRANCH   1   4
BRANCH   2  10
ATOM     10  C   UNL     1      12.359  13.228   5.092  1.00  0.00     0.183 C 
BRANCH  10  11
ATOM     11  O   UNL     1      11.621  13.706   6.183  1.00  0.00    -0.392 OA
ATOM     12  H   UNL     1      12.109  14.499   6.529  1.00  0.00     0.210 HD
ENDBRANCH  10  11
ENDBRANCH   2  10
TORSDOF 5
ENDMDL
MODEL 7
REMARK VINA RESULT:    -3.130     15.905     17.529
REMARK INTER + INTRA:          -4.377
REMARK INTER:                  -4.011
REMARK INTRA:                  -0.366
REMARK UNBOUND:                -0.424
REMARK SMILES CC(C)=CCCC(C)=CCO
REMARK SMILES IDX 7 1 9 2 8 3 6 4 5 5 4 6 1 7 2 8 3 9 10 10 11 11
REMARK H PARENT 11 12
REMARK Flexibility Score: inf
ROOT
ATOM      1  C   UNL     1      12.087  11.457   4.602  1.00  0.00    -0.075 C 
ATOM      2  C   UNL     1      12.496  10.297   5.161  1.00  0.00    -0.000 C 
ATOM      3  C   UNL     1      12.615  12.789   5.080  1.00  0.00     0.039 C 
ENDROOT
BRANCH   1   4
ATOM      4  C   UNL     1      11.075  11.422   3.475  1.00  0.00     0.034 C 
BRANCH   4   5
ATOM      5  C   UNL     1      11.582  10.608   2.275  1.00  0.00     0.032 C 
BRANCH   5   6
ATOM      6  C   UNL     1      10.941   9.241   2.215  1.00  0.00    -0.028 C 
ATOM      7  C   UNL     1      13.109   8.056   1.799  1.00  0.00     0.039 C 
ATOM      8  C   UNL     1      11.620   8.085   2.042  1.00  0.00    -0.080 C 
ATOM      9  C   UNL     1      10.876   6.775   2.030  1.00  0.00     0.039 C 
ENDBRANCH   5   6
ENDBRANCH   4   5
ENDBRANCH   1   4
BRANCH   2  10
ATOM     10  C   UNL     1      13.501  10.230   6.283  1.00  0.00     0.183 C 
BRANCH  10  11
ATOM     11  O   UNL     1      13.093   9.296   7.245  1.00  0.00    -0.392 OA
ATOM     12  H   UNL     1      12.609   9.805   7.947  1.00  0.00     0.210 HD
ENDBRANCH  10  11
ENDBRANCH   2  10
TORSDOF 5
ENDMDL
MODEL 8
REMARK VINA RESULT:    -2.910     14.182     16.385
REMARK INTER + INTRA:          -4.099
REMARK INTER:                  -3.678
REMARK INTRA:                  -0.421
REMARK UNBOUND:                -0.424
REMARK SMILES CC(C)=CCCC(C)=CCO
REMARK SMILES IDX 7 1 9 2 8 3 6 4 5 5 4 6 1 7 2 8 3 9 10 10 11 11
REMARK H PARENT 11 12
REMARK Flexibility Score: inf
ROOT
ATOM      1  C   UNL     1      12.017   9.859   2.588  1.00  0.00    -0.075 C 
ATOM      2  C   UNL     1      12.075   9.982   3.933  1.00  0.00    -0.000 C 
ATOM      3  C   UNL     1      11.645  11.028   1.707  1.00  0.00     0.039 C 
ENDROOT
BRANCH   1   4
ATOM      4  C   UNL     1      12.328   8.520   1.951  1.00  0.00     0.034 C 
BRANCH   4   5
ATOM      5  C   UNL     1      11.864   7.347   2.827  1.00  0.00     0.032 C 
BRANCH   5   6
ATOM      6  C   UNL     1      12.844   6.199   2.791  1.00  0.00    -0.028 C 
ATOM      7  C   UNL     1      13.677   6.614   5.117  1.00  0.00     0.039 C 
ATOM      8  C   UNL     1      13.635   5.835   3.826  1.00  0.00    -0.080 C 
ATOM      9  C   UNL     1      14.554   4.649   3.685  1.00  0.00     0.039 C 
ENDBRANCH   5   6
ENDBRANCH   4   5
ENDBRANCH   1   4
BRANCH   2  10
ATOM     10  C   UNL     1      11.786  11.272   4.657  1.00  0.00     0.183 C 
BRANCH  10  11
ATOM     11  O   UNL     1      11.617  11.033   6.027  1.00  0.00    -0.392 OA
ATOM     12  H   UNL     1      11.409  11.910   6.445  1.00  0.00     0.210 HD
ENDBRANCH  10  11
ENDBRANCH   2  10
TORSDOF 5
ENDMDL
MODEL 9
REMARK VINA RESULT:    -2.751     14.164     16.905
REMARK INTER + INTRA:          -3.899
REMARK INTER:                  -3.630
REMARK INTRA:                  -0.269
REMARK UNBOUND:                -0.424
REMARK SMILES CC(C)=CCCC(C)=CCO
REMARK SMILES IDX 7 1 9 2 8 3 6 4 5 5 4 6 1 7 2 8 3 9 10 10 11 11
REMARK H PARENT 11 12
REMARK Flexibility Score: inf
ROOT
ATOM      1  C   UNL     1      12.840   6.536   2.771  1.00  0.00    -0.075 C 
ATOM      2  C   UNL     1      13.162   5.460   3.523  1.00  0.00    -0.000 C 
ATOM      3  C   UNL     1      13.896   7.324   2.035  1.00  0.00     0.039 C 
ENDROOT
BRANCH   1   4
ATOM      4  C   UNL     1      11.389   6.960   2.666  1.00  0.00     0.034 C 
BRANCH   4   5
ATOM      5  C   UNL     1      11.230   8.258   1.860  1.00  0.00     0.032 C 
BRANCH   5   6
ATOM      6  C   UNL     1      11.302   9.479   2.746  1.00  0.00    -0.028 C 
ATOM      7  C   UNL     1      11.976  11.004   0.875  1.00  0.00     0.039 C 
ATOM      8  C   UNL     1      11.597  10.725   2.309  1.00  0.00    -0.080 C 
ATOM      9  C   UNL     1      11.610  11.875   3.282  1.00  0.00     0.039 C 
ENDBRANCH   5   6
ENDBRANCH   4   5
ENDBRANCH   1   4
BRANCH   2  10
ATOM     10  C   UNL     1      14.574   4.959   3.686  1.00  0.00     0.183 C 
BRANCH  10  11
ATOM     11  O   UNL     1      14.584   3.759   4.409  1.00  0.00    -0.392 OA
ATOM     12  H   UNL     1      13.683   3.355   4.301  1.00  0.00     0.210 HD
ENDBRANCH  10  11
ENDBRANCH   2  10
TORSDOF 5
ENDMDL
