MODEL 1
REMARK VINA RESULT:    -7.776      0.000      0.000
REMARK INTER + INTRA:         -13.071
REMARK INTER:                 -12.094
REMARK INTRA:                  -0.977
REMARK UNBOUND:                -0.977
REMARK SMILES C[C@]12C[C@]3(O)O[C@H](O1)[C@@]1(COC(=O)c4ccccc4)[C@@H]3C[C@]12O[C@H]1O[C@@H](CO)[C@@H](O)[C@@H](O)[C@H]1O
REMARK SMILES IDX 1 1 2 2 3 3 4 4 20 5 21 6 22 7 9 8 7 9 8 10 6 11 23 12 24 13
REMARK SMILES IDX 33 14 25 15 31 16 26 17 29 18 34 19 32 21 27 23 28 24 30 26
REMARK SMILES IDX 5 28 10 30 11 31 12 32 13 33 14 34 15 35 19 36 16 37 18 38
REMARK SMILES IDX 17 39
REMARK H PARENT 34 20 32 22 28 25 30 27 5 29
REMARK Flexibility Score: inf
ROOT
ATOM      1  C   UNL     1      15.587  49.389  41.580  1.00  0.00     0.046 C 
ATOM      2  C   UNL     1      16.679  49.451  42.647  1.00  0.00     0.104 C 
ATOM      3  C   UNL     1      16.132  50.028  44.007  1.00  0.00     0.104 C 
ATOM      4  C   UNL     1      17.364  49.907  44.971  1.00  0.00     0.175 C 
ATOM      5  C   UNL     1      17.975  48.471  44.891  1.00  0.00     0.070 C 
ATOM      6  C   UNL     1      17.021  47.439  44.264  1.00  0.00     0.050 C 
ATOM      7  C   UNL     1      17.396  48.075  42.896  1.00  0.00     0.115 C 
ATOM      8  C   UNL     1      18.671  48.610  43.542  1.00  0.00     0.096 C 
ATOM      9  C   UNL     1      18.727  50.095  43.230  1.00  0.00     0.267 C 
ATOM     10  O   UNL     1      17.720  50.326  42.257  1.00  0.00    -0.342 OA
ATOM     11  O   UNL     1      18.365  50.751  44.435  1.00  0.00    -0.320 OA
ENDROOT
BRANCH   7  12
ATOM     12  O   UNL     1      17.641  47.330  41.704  1.00  0.00    -0.339 OA
BRANCH  12  13
ATOM     13  C   UNL     1      16.915  46.121  41.599  1.00  0.00     0.282 C 
ATOM     14  C   UNL     1      17.905  44.990  41.222  1.00  0.00     0.202 C 
ATOM     15  O   UNL     1      15.814  46.298  40.700  1.00  0.00    -0.341 OA
ATOM     16  C   UNL     1      18.390  45.144  39.769  1.00  0.00     0.179 C 
ATOM     17  C   UNL     1      15.871  45.492  39.531  1.00  0.00     0.178 C 
ATOM     18  C   UNL     1      17.246  45.607  38.827  1.00  0.00     0.177 C 
BRANCH  14  19
ATOM     19  O   UNL     1      19.001  44.969  42.102  1.00  0.00    -0.385 OA
ATOM     20  H   UNL     1      19.283  45.913  42.228  1.00  0.00     0.211 HD
ENDBRANCH  14  19
BRANCH  16  21
ATOM     21  O   UNL     1      19.467  46.049  39.725  1.00  0.00    -0.387 OA
ATOM     22  H   UNL     1      19.585  46.402  40.643  1.00  0.00     0.211 HD
ENDBRANCH  16  21
BRANCH  17  23
ATOM     23  C   UNL     1      14.725  45.901  38.600  1.00  0.00     0.191 C 
BRANCH  23  24
ATOM     24  O   UNL     1      15.104  45.714  37.262  1.00  0.00    -0.394 OA
ATOM     25  H   UNL     1      15.796  46.394  37.059  1.00  0.00     0.210 HD
ENDBRANCH  23  24
ENDBRANCH  17  23
BRANCH  18  26
ATOM     26  O   UNL     1      17.448  46.940  38.424  1.00  0.00    -0.387 OA
ATOM     27  H   UNL     1      18.025  46.912  37.613  1.00  0.00     0.211 HD
ENDBRANCH  18  26
ENDBRANCH  12  13
ENDBRANCH   7  12
BRANCH   4  28
ATOM     28  O   UNL     1      17.047  50.257  46.293  1.00  0.00    -0.365 OA
ATOM     29  H   UNL     1      16.113  49.958  46.449  1.00  0.00     0.214 HD
ENDBRANCH   4  28
BRANCH   8  30
ATOM     30  C   UNL     1      19.967  47.793  43.342  1.00  0.00     0.249 C 
BRANCH  30  31
ATOM     31  O   UNL     1      20.855  47.979  44.442  1.00  0.00    -0.461 OA
BRANCH  31  32
ATOM     32  C   UNL     1      21.778  49.029  44.539  1.00  0.00     0.338 C 
ATOM     33  O   UNL     1      22.416  49.414  43.519  1.00  0.00    -0.246 OA
BRANCH  32  34
ATOM     34  C   UNL     1      21.983  49.697  45.843  1.00  0.00     0.060 A 
ATOM     35  C   UNL     1      20.909  49.840  46.740  1.00  0.00     0.015 A 
ATOM     36  C   UNL     1      23.254  50.179  46.212  1.00  0.00     0.015 A 
ATOM     37  C   UNL     1      21.102  50.454  47.982  1.00  0.00     0.001 A 
ATOM     38  C   UNL     1      23.439  50.795  47.456  1.00  0.00     0.001 A 
ATOM     39  C   UNL     1      22.366  50.930  48.340  1.00  0.00     0.000 A 
ENDBRANCH  32  34
ENDBRANCH  31  32
ENDBRANCH  30  31
ENDBRANCH   8  30
TORSDOF 12
ENDMDL
MODEL 2
REMARK VINA RESULT:    -7.422      2.866      6.262
REMARK INTER + INTRA:         -12.520
REMARK INTER:                 -11.058
REMARK INTRA:                  -1.462
REMARK UNBOUND:                -0.977
REMARK SMILES C[C@]12C[C@]3(O)O[C@H](O1)[C@@]1(COC(=O)c4ccccc4)[C@@H]3C[C@]12O[C@H]1O[C@@H](CO)[C@@H](O)[C@@H](O)[C@H]1O
REMARK SMILES IDX 1 1 2 2 3 3 4 4 20 5 21 6 22 7 9 8 7 9 8 10 6 11 23 12 24 13
REMARK SMILES IDX 33 14 25 15 31 16 26 17 29 18 34 19 32 21 27 23 28 24 30 26
REMARK SMILES IDX 5 28 10 30 11 31 12 32 13 33 14 34 15 35 19 36 16 37 18 38
REMARK SMILES IDX 17 39
REMARK H PARENT 34 20 32 22 28 25 30 27 5 29
REMARK Flexibility Score: inf
ROOT
ATOM      1  C   UNL     1      15.831  46.511  45.233  1.00  0.00     0.046 C 
ATOM      2  C   UNL     1      16.209  47.544  44.172  1.00  0.00     0.104 C 
ATOM      3  C   UNL     1      15.144  47.605  43.013  1.00  0.00     0.104 C 
ATOM      4  C   UNL     1      15.663  48.778  42.108  1.00  0.00     0.175 C 
ATOM      5  C   UNL     1      15.979  50.035  42.981  1.00  0.00     0.070 C 
ATOM      6  C   UNL     1      15.330  49.986  44.375  1.00  0.00     0.050 C 
ATOM      7  C   UNL     1      16.456  48.984  44.752  1.00  0.00     0.115 C 
ATOM      8  C   UNL     1      17.284  49.543  43.599  1.00  0.00     0.096 C 
ATOM      9  C   UNL     1      17.737  48.353  42.772  1.00  0.00     0.267 C 
ATOM     10  O   UNL     1      17.430  47.203  43.545  1.00  0.00    -0.342 OA
ATOM     11  O   UNL     1      16.921  48.363  41.612  1.00  0.00    -0.320 OA
ENDROOT
BRANCH   7  12
ATOM     12  O   UNL     1      17.152  48.990  45.998  1.00  0.00    -0.339 OA
BRANCH  12  13
ATOM     13  C   UNL     1      16.598  49.837  46.985  1.00  0.00     0.282 C 
ATOM     14  C   UNL     1      17.636  50.004  48.123  1.00  0.00     0.202 C 
ATOM     15  O   UNL     1      15.319  49.334  47.389  1.00  0.00    -0.341 OA
ATOM     16  C   UNL     1      17.780  48.701  48.931  1.00  0.00     0.179 C 
ATOM     17  C   UNL     1      15.243  48.942  48.753  1.00  0.00     0.178 C 
ATOM     18  C   UNL     1      16.410  48.000  49.140  1.00  0.00     0.177 C 
BRANCH  14  19
ATOM     19  O   UNL     1      18.884  50.399  47.610  1.00  0.00    -0.385 OA
ATOM     20  H   UNL     1      19.253  51.069  48.245  1.00  0.00     0.211 HD
ENDBRANCH  14  19
BRANCH  16  21
ATOM     21  O   UNL     1      18.685  47.841  48.284  1.00  0.00    -0.387 OA
ATOM     22  H   UNL     1      19.470  48.389  48.026  1.00  0.00     0.211 HD
ENDBRANCH  16  21
BRANCH  17  23
ATOM     23  C   UNL     1      13.882  48.282  48.996  1.00  0.00     0.191 C 
BRANCH  23  24
ATOM     24  O   UNL     1      14.011  47.248  49.935  1.00  0.00    -0.394 OA
ATOM     25  H   UNL     1      14.176  46.413  49.426  1.00  0.00     0.210 HD
ENDBRANCH  23  24
ENDBRANCH  17  23
BRANCH  18  26
ATOM     26  O   UNL     1      16.334  46.827  48.366  1.00  0.00    -0.387 OA
ATOM     27  H   UNL     1      15.405  46.482  48.454  1.00  0.00     0.211 HD
ENDBRANCH  18  26
ENDBRANCH  12  13
ENDBRANCH   7  12
BRANCH   4  28
ATOM     28  O   UNL     1      14.773  49.086  41.068  1.00  0.00    -0.365 OA
ATOM     29  H   UNL     1      14.947  48.430  40.342  1.00  0.00     0.214 HD
ENDBRANCH   4  28
BRANCH   8  30
ATOM     30  C   UNL     1      18.340  50.618  43.938  1.00  0.00     0.249 C 
BRANCH  30  31
ATOM     31  O   UNL     1      19.655  50.132  43.675  1.00  0.00    -0.461 OA
BRANCH  31  32
ATOM     32  C   UNL     1      20.473  49.519  44.634  1.00  0.00     0.338 C 
ATOM     33  O   UNL     1      20.972  50.197  45.575  1.00  0.00    -0.246 OA
BRANCH  32  34
ATOM     34  C   UNL     1      20.728  48.064  44.546  1.00  0.00     0.060 A 
ATOM     35  C   UNL     1      20.292  47.208  45.572  1.00  0.00     0.015 A 
ATOM     36  C   UNL     1      21.387  47.516  43.429  1.00  0.00     0.015 A 
ATOM     37  C   UNL     1      20.514  45.829  45.485  1.00  0.00     0.001 A 
ATOM     38  C   UNL     1      21.609  46.136  43.349  1.00  0.00     0.001 A 
ATOM     39  C   UNL     1      21.171  45.294  44.374  1.00  0.00     0.000 A 
ENDBRANCH  32  34
ENDBRANCH  31  32
ENDBRANCH  30  31
ENDBRANCH   8  30
TORSDOF 12
ENDMDL
MODEL 3
REMARK VINA RESULT:    -7.262      2.021      7.266
REMARK INTER + INTRA:         -12.273
REMARK INTER:                 -11.136
REMARK INTRA:                  -1.137
REMARK UNBOUND:                -0.977
REMARK SMILES C[C@]12C[C@]3(O)O[C@H](O1)[C@@]1(COC(=O)c4ccccc4)[C@@H]3C[C@]12O[C@H]1O[C@@H](CO)[C@@H](O)[C@@H](O)[C@H]1O
REMARK SMILES IDX 1 1 2 2 3 3 4 4 20 5 21 6 22 7 9 8 7 9 8 10 6 11 23 12 24 13
REMARK SMILES IDX 33 14 25 15 31 16 26 17 29 18 34 19 32 21 27 23 28 24 30 26
REMARK SMILES IDX 5 28 10 30 11 31 12 32 13 33 14 34 15 35 19 36 16 37 18 38
REMARK SMILES IDX 17 39
REMARK H PARENT 34 20 32 22 28 25 30 27 5 29
REMARK Flexibility Score: inf
ROOT
ATOM      1  C   UNL     1      16.650  48.045  46.617  1.00  0.00     0.046 C 
ATOM      2  C   UNL     1      15.942  48.084  45.263  1.00  0.00     0.104 C 
ATOM      3  C   UNL     1      14.599  48.903  45.333  1.00  0.00     0.104 C 
ATOM      4  C   UNL     1      14.101  48.906  43.844  1.00  0.00     0.175 C 
ATOM      5  C   UNL     1      15.260  49.335  42.887  1.00  0.00     0.070 C 
ATOM      6  C   UNL     1      16.418  50.042  43.614  1.00  0.00     0.050 C 
ATOM      7  C   UNL     1      16.844  48.627  44.096  1.00  0.00     0.115 C 
ATOM      8  C   UNL     1      16.061  48.038  42.926  1.00  0.00     0.096 C 
ATOM      9  C   UNL     1      15.144  46.976  43.508  1.00  0.00     0.267 C 
ATOM     10  O   UNL     1      15.571  46.784  44.847  1.00  0.00    -0.342 OA
ATOM     11  O   UNL     1      13.848  47.554  43.513  1.00  0.00    -0.320 OA
ENDROOT
BRANCH   7  12
ATOM     12  O   UNL     1      18.195  48.171  44.153  1.00  0.00    -0.339 OA
BRANCH  12  13
ATOM     13  C   UNL     1      19.170  49.175  43.956  1.00  0.00     0.282 C 
ATOM     14  C   UNL     1      20.520  48.488  43.631  1.00  0.00     0.202 C 
ATOM     15  O   UNL     1      19.188  50.057  45.086  1.00  0.00    -0.341 OA
ATOM     16  C   UNL     1      21.096  47.788  44.875  1.00  0.00     0.179 C 
ATOM     17  C   UNL     1      20.410  50.063  45.811  1.00  0.00     0.178 C 
ATOM     18  C   UNL     1      20.870  48.627  46.162  1.00  0.00     0.177 C 
BRANCH  14  19
ATOM     19  O   UNL     1      20.372  47.567  42.578  1.00  0.00    -0.385 OA
ATOM     20  H   UNL     1      21.122  46.919  42.660  1.00  0.00     0.211 HD
ENDBRANCH  14  19
BRANCH  16  21
ATOM     21  O   UNL     1      20.520  46.511  45.007  1.00  0.00    -0.387 OA
ATOM     22  H   UNL     1      19.644  46.540  44.546  1.00  0.00     0.211 HD
ENDBRANCH  16  21
BRANCH  17  23
ATOM     23  C   UNL     1      20.227  50.919  47.068  1.00  0.00     0.191 C 
BRANCH  23  24
ATOM     24  O   UNL     1      19.017  50.592  47.700  1.00  0.00    -0.394 OA
ATOM     25  H   UNL     1      18.871  51.266  48.412  1.00  0.00     0.210 HD
ENDBRANCH  23  24
ENDBRANCH  17  23
BRANCH  18  26
ATOM     26  O   UNL     1      19.902  48.019  46.983  1.00  0.00    -0.387 OA
ATOM     27  H   UNL     1      19.398  48.753  47.428  1.00  0.00     0.211 HD
ENDBRANCH  18  26
ENDBRANCH  12  13
ENDBRANCH   7  12
BRANCH   4  28
ATOM     28  O   UNL     1      12.962  49.705  43.661  1.00  0.00    -0.365 OA
ATOM     29  H   UNL     1      13.210  50.406  43.003  1.00  0.00     0.214 HD
ENDBRANCH   4  28
BRANCH   8  30
ATOM     30  C   UNL     1      16.853  47.673  41.651  1.00  0.00     0.249 C 
BRANCH  30  31
ATOM     31  O   UNL     1      17.037  46.261  41.560  1.00  0.00    -0.461 OA
BRANCH  31  32
ATOM     32  C   UNL     1      18.039  45.647  40.798  1.00  0.00     0.338 C 
ATOM     33  O   UNL     1      19.130  45.304  41.334  1.00  0.00    -0.246 OA
BRANCH  32  34
ATOM     34  C   UNL     1      17.800  45.383  39.362  1.00  0.00     0.060 A 
ATOM     35  C   UNL     1      16.703  44.599  38.961  1.00  0.00     0.015 A 
ATOM     36  C   UNL     1      18.649  45.929  38.379  1.00  0.00     0.015 A 
ATOM     37  C   UNL     1      16.462  44.362  37.603  1.00  0.00     0.001 A 
ATOM     38  C   UNL     1      18.403  45.685  37.022  1.00  0.00     0.001 A 
ATOM     39  C   UNL     1      17.310  44.906  36.635  1.00  0.00     0.000 A 
ENDBRANCH  32  34
ENDBRANCH  31  32
ENDBRANCH  30  31
ENDBRANCH   8  30
TORSDOF 12
ENDMDL
MODEL 4
REMARK VINA RESULT:    -7.251      3.216      4.607
REMARK INTER + INTRA:         -12.255
REMARK INTER:                 -10.552
REMARK INTRA:                  -1.703
REMARK UNBOUND:                -0.977
REMARK SMILES C[C@]12C[C@]3(O)O[C@H](O1)[C@@]1(COC(=O)c4ccccc4)[C@@H]3C[C@]12O[C@H]1O[C@@H](CO)[C@@H](O)[C@@H](O)[C@H]1O
REMARK SMILES IDX 1 1 2 2 3 3 4 4 20 5 21 6 22 7 9 8 7 9 8 10 6 11 23 12 24 13
REMARK SMILES IDX 33 14 25 15 31 16 26 17 29 18 34 19 32 21 27 23 28 24 30 26
REMARK SMILES IDX 5 28 10 30 11 31 12 32 13 33 14 34 15 35 19 36 16 37 18 38
REMARK SMILES IDX 17 39
REMARK H PARENT 34 20 32 22 28 25 30 27 5 29
REMARK Flexibility Score: inf
ROOT
ATOM      1  C   UNL     1      14.544  50.050  43.599  1.00  0.00     0.046 C 
ATOM      2  C   UNL     1      15.999  49.816  44.002  1.00  0.00     0.104 C 
ATOM      3  C   UNL     1      16.688  51.144  44.493  1.00  0.00     0.104 C 
ATOM      4  C   UNL     1      18.112  50.664  44.948  1.00  0.00     0.175 C 
ATOM      5  C   UNL     1      17.989  49.423  45.889  1.00  0.00     0.070 C 
ATOM      6  C   UNL     1      16.578  49.241  46.475  1.00  0.00     0.050 C 
ATOM      7  C   UNL     1      16.181  48.685  45.079  1.00  0.00     0.115 C 
ATOM      8  C   UNL     1      17.655  48.381  44.827  1.00  0.00     0.096 C 
ATOM      9  C   UNL     1      18.003  49.000  43.485  1.00  0.00     0.267 C 
ATOM     10  O   UNL     1      16.767  49.377  42.898  1.00  0.00    -0.342 OA
ATOM     11  O   UNL     1      18.748  50.169  43.786  1.00  0.00    -0.320 OA
ENDROOT
BRANCH   7  12
ATOM     12  O   UNL     1      15.332  47.556  44.876  1.00  0.00    -0.339 OA
BRANCH  12  13
ATOM     13  C   UNL     1      14.538  47.201  45.991  1.00  0.00     0.282 C 
ATOM     14  C   UNL     1      14.217  45.688  45.899  1.00  0.00     0.202 C 
ATOM     15  O   UNL     1      13.399  48.067  46.065  1.00  0.00    -0.341 OA
ATOM     16  C   UNL     1      13.226  45.404  44.756  1.00  0.00     0.179 C 
ATOM     17  C   UNL     1      12.148  47.411  45.912  1.00  0.00     0.178 C 
ATOM     18  C   UNL     1      12.132  46.502  44.658  1.00  0.00     0.177 C 
BRANCH  14  19
ATOM     19  O   UNL     1      15.392  44.936  45.723  1.00  0.00    -0.385 OA
ATOM     20  H   UNL     1      15.935  45.412  45.041  1.00  0.00     0.211 HD
ENDBRANCH  14  19
BRANCH  16  21
ATOM     21  O   UNL     1      13.926  45.290  43.541  1.00  0.00    -0.387 OA
ATOM     22  H   UNL     1      13.716  44.396  43.169  1.00  0.00     0.211 HD
ENDBRANCH  16  21
BRANCH  17  23
ATOM     23  C   UNL     1      11.045  48.471  45.853  1.00  0.00     0.191 C 
BRANCH  23  24
ATOM     24  O   UNL     1      11.365  49.445  44.895  1.00  0.00    -0.394 OA
ATOM     25  H   UNL     1      11.654  48.964  44.078  1.00  0.00     0.210 HD
ENDBRANCH  23  24
ENDBRANCH  17  23
BRANCH  18  26
ATOM     26  O   UNL     1      12.330  47.293  43.511  1.00  0.00    -0.387 OA
ATOM     27  H   UNL     1      12.309  48.243  43.808  1.00  0.00     0.211 HD
ENDBRANCH  18  26
ENDBRANCH  12  13
ENDBRANCH   7  12
BRANCH   4  28
ATOM     28  O   UNL     1      18.857  51.691  45.547  1.00  0.00    -0.365 OA
ATOM     29  H   UNL     1      19.745  51.694  45.101  1.00  0.00     0.214 HD
ENDBRANCH   4  28
BRANCH   8  30
ATOM     30  C   UNL     1      18.140  46.939  45.093  1.00  0.00     0.249 C 
BRANCH  30  31
ATOM     31  O   UNL     1      19.109  46.547  44.123  1.00  0.00    -0.461 OA
BRANCH  31  32
ATOM     32  C   UNL     1      20.489  46.501  44.364  1.00  0.00     0.338 C 
ATOM     33  O   UNL     1      21.081  45.391  44.475  1.00  0.00    -0.246 OA
BRANCH  32  34
ATOM     34  C   UNL     1      21.250  47.765  44.466  1.00  0.00     0.060 A 
ATOM     35  C   UNL     1      21.811  48.346  43.315  1.00  0.00     0.015 A 
ATOM     36  C   UNL     1      21.404  48.414  45.707  1.00  0.00     0.015 A 
ATOM     37  C   UNL     1      22.516  49.552  43.403  1.00  0.00     0.001 A 
ATOM     38  C   UNL     1      22.112  49.619  45.788  1.00  0.00     0.001 A 
ATOM     39  C   UNL     1      22.665  50.188  44.639  1.00  0.00     0.000 A 
ENDBRANCH  32  34
ENDBRANCH  31  32
ENDBRANCH  30  31
ENDBRANCH   8  30
TORSDOF 12
ENDMDL
MODEL 5
REMARK VINA RESULT:    -7.160      3.155      7.740
REMARK INTER + INTRA:         -12.113
REMARK INTER:                 -10.270
REMARK INTRA:                  -1.843
REMARK UNBOUND:                -0.977
REMARK SMILES C[C@]12C[C@]3(O)O[C@H](O1)[C@@]1(COC(=O)c4ccccc4)[C@@H]3C[C@]12O[C@H]1O[C@@H](CO)[C@@H](O)[C@@H](O)[C@H]1O
REMARK SMILES IDX 1 1 2 2 3 3 4 4 20 5 21 6 22 7 9 8 7 9 8 10 6 11 23 12 24 13
REMARK SMILES IDX 33 14 25 15 31 16 26 17 29 18 34 19 32 21 27 23 28 24 30 26
REMARK SMILES IDX 5 28 10 30 11 31 12 32 13 33 14 34 15 35 19 36 16 37 18 38
REMARK SMILES IDX 17 39
REMARK H PARENT 34 20 32 22 28 25 30 27 5 29
REMARK Flexibility Score: inf
ROOT
ATOM      1  C   UNL     1      18.007  51.593  44.921  1.00  0.00     0.046 C 
ATOM      2  C   UNL     1      17.357  50.574  43.986  1.00  0.00     0.104 C 
ATOM      3  C   UNL     1      17.651  50.901  42.474  1.00  0.00     0.104 C 
ATOM      4  C   UNL     1      16.994  49.697  41.711  1.00  0.00     0.175 C 
ATOM      5  C   UNL     1      17.446  48.342  42.347  1.00  0.00     0.070 C 
ATOM      6  C   UNL     1      18.698  48.474  43.231  1.00  0.00     0.050 C 
ATOM      7  C   UNL     1      17.752  49.086  44.302  1.00  0.00     0.115 C 
ATOM      8  C   UNL     1      16.583  48.398  43.603  1.00  0.00     0.096 C 
ATOM      9  C   UNL     1      15.531  49.466  43.363  1.00  0.00     0.267 C 
ATOM     10  O   UNL     1      15.948  50.598  44.111  1.00  0.00    -0.342 OA
ATOM     11  O   UNL     1      15.608  49.772  41.980  1.00  0.00    -0.320 OA
ENDROOT
BRANCH   7  12
ATOM     12  O   UNL     1      17.823  48.794  45.697  1.00  0.00    -0.339 OA
BRANCH  12  13
ATOM     13  C   UNL     1      19.080  48.325  46.144  1.00  0.00     0.282 C 
ATOM     14  C   UNL     1      18.843  47.316  47.296  1.00  0.00     0.202 C 
ATOM     15  O   UNL     1      19.921  49.439  46.467  1.00  0.00    -0.341 OA
ATOM     16  C   UNL     1      18.353  48.035  48.565  1.00  0.00     0.179 C 
ATOM     17  C   UNL     1      20.303  49.513  47.834  1.00  0.00     0.178 C 
ATOM     18  C   UNL     1      19.078  49.391  48.775  1.00  0.00     0.177 C 
BRANCH  14  19
ATOM     19  O   UNL     1      17.924  46.324  46.911  1.00  0.00    -0.385 OA
ATOM     20  H   UNL     1      17.428  46.683  46.129  1.00  0.00     0.211 HD
ENDBRANCH  14  19
BRANCH  16  21
ATOM     21  O   UNL     1      16.960  48.222  48.494  1.00  0.00    -0.387 OA
ATOM     22  H   UNL     1      16.566  47.355  48.219  1.00  0.00     0.211 HD
ENDBRANCH  16  21
BRANCH  17  23
ATOM     23  C   UNL     1      21.058  50.827  48.059  1.00  0.00     0.191 C 
BRANCH  23  24
ATOM     24  O   UNL     1      20.289  51.907  47.600  1.00  0.00    -0.394 OA
ATOM     25  H   UNL     1      20.604  52.117  46.683  1.00  0.00     0.210 HD
ENDBRANCH  23  24
ENDBRANCH  17  23
BRANCH  18  26
ATOM     26  O   UNL     1      18.200  50.463  48.529  1.00  0.00    -0.387 OA
ATOM     27  H   UNL     1      17.747  50.274  47.663  1.00  0.00     0.211 HD
ENDBRANCH  18  26
ENDBRANCH  12  13
ENDBRANCH   7  12
BRANCH   4  28
ATOM     28  O   UNL     1      17.256  49.728  40.332  1.00  0.00    -0.365 OA
ATOM     29  H   UNL     1      16.415  50.020  39.891  1.00  0.00     0.214 HD
ENDBRANCH   4  28
BRANCH   8  30
ATOM     30  C   UNL     1      16.106  47.046  44.178  1.00  0.00     0.249 C 
BRANCH  30  31
ATOM     31  O   UNL     1      14.739  47.123  44.577  1.00  0.00    -0.461 OA
BRANCH  31  32
ATOM     32  C   UNL     1      14.315  47.357  45.892  1.00  0.00     0.338 C 
ATOM     33  O   UNL     1      15.096  47.146  46.862  1.00  0.00    -0.246 OA
BRANCH  32  34
ATOM     34  C   UNL     1      12.950  47.875  46.133  1.00  0.00     0.060 A 
ATOM     35  C   UNL     1      12.504  48.106  47.446  1.00  0.00     0.015 A 
ATOM     36  C   UNL     1      12.090  48.163  45.055  1.00  0.00     0.015 A 
ATOM     37  C   UNL     1      11.221  48.613  47.678  1.00  0.00     0.001 A 
ATOM     38  C   UNL     1      10.806  48.668  45.295  1.00  0.00     0.001 A 
ATOM     39  C   UNL     1      10.373  48.895  46.604  1.00  0.00     0.000 A 
ENDBRANCH  32  34
ENDBRANCH  31  32
ENDBRANCH  30  31
ENDBRANCH   8  30
TORSDOF 12
ENDMDL
MODEL 6
REMARK VINA RESULT:    -7.147      3.326      7.811
REMARK INTER + INTRA:         -12.093
REMARK INTER:                 -10.338
REMARK INTRA:                  -1.755
REMARK UNBOUND:                -0.977
REMARK SMILES C[C@]12C[C@]3(O)O[C@H](O1)[C@@]1(COC(=O)c4ccccc4)[C@@H]3C[C@]12O[C@H]1O[C@@H](CO)[C@@H](O)[C@@H](O)[C@H]1O
REMARK SMILES IDX 1 1 2 2 3 3 4 4 20 5 21 6 22 7 9 8 7 9 8 10 6 11 23 12 24 13
REMARK SMILES IDX 33 14 25 15 31 16 26 17 29 18 34 19 32 21 27 23 28 24 30 26
REMARK SMILES IDX 5 28 10 30 11 31 12 32 13 33 14 34 15 35 19 36 16 37 18 38
REMARK SMILES IDX 17 39
REMARK H PARENT 34 20 32 22 28 25 30 27 5 29
REMARK Flexibility Score: inf
ROOT
ATOM      1  C   UNL     1      17.463  51.238  44.880  1.00  0.00     0.046 C 
ATOM      2  C   UNL     1      16.931  50.296  43.801  1.00  0.00     0.104 C 
ATOM      3  C   UNL     1      17.400  50.733  42.363  1.00  0.00     0.104 C 
ATOM      4  C   UNL     1      16.842  49.594  41.439  1.00  0.00     0.175 C 
ATOM      5  C   UNL     1      17.219  48.193  42.021  1.00  0.00     0.070 C 
ATOM      6  C   UNL     1      18.358  48.250  43.054  1.00  0.00     0.050 C 
ATOM      7  C   UNL     1      17.291  48.786  44.049  1.00  0.00     0.115 C 
ATOM      8  C   UNL     1      16.214  48.160  43.167  1.00  0.00     0.096 C 
ATOM      9  C   UNL     1      15.195  49.249  42.886  1.00  0.00     0.267 C 
ATOM     10  O   UNL     1      15.517  50.319  43.760  1.00  0.00    -0.342 OA
ATOM     11  O   UNL     1      15.433  49.657  41.547  1.00  0.00    -0.320 OA
ENDROOT
BRANCH   7  12
ATOM     12  O   UNL     1      17.197  48.390  45.416  1.00  0.00    -0.339 OA
BRANCH  12  13
ATOM     13  C   UNL     1      18.371  47.809  45.949  1.00  0.00     0.282 C 
ATOM     14  C   UNL     1      17.966  46.871  47.113  1.00  0.00     0.202 C 
ATOM     15  O   UNL     1      19.306  48.840  46.289  1.00  0.00    -0.341 OA
ATOM     16  C   UNL     1      17.485  47.680  48.331  1.00  0.00     0.179 C 
ATOM     17  C   UNL     1      19.617  48.922  47.673  1.00  0.00     0.178 C 
ATOM     18  C   UNL     1      18.337  48.961  48.543  1.00  0.00     0.177 C 
BRANCH  14  19
ATOM     19  O   UNL     1      16.970  45.966  46.705  1.00  0.00    -0.385 OA
ATOM     20  H   UNL     1      17.072  45.856  45.722  1.00  0.00     0.211 HD
ENDBRANCH  14  19
BRANCH  16  21
ATOM     21  O   UNL     1      16.126  48.008  48.173  1.00  0.00    -0.387 OA
ATOM     22  H   UNL     1      15.813  47.554  47.350  1.00  0.00     0.211 HD
ENDBRANCH  16  21
BRANCH  17  23
ATOM     23  C   UNL     1      20.493  50.158  47.904  1.00  0.00     0.191 C 
BRANCH  23  24
ATOM     24  O   UNL     1      19.918  51.277  47.283  1.00  0.00    -0.394 OA
ATOM     25  H   UNL     1      20.546  52.033  47.410  1.00  0.00     0.210 HD
ENDBRANCH  23  24
ENDBRANCH  17  23
BRANCH  18  26
ATOM     26  O   UNL     1      17.591  50.109  48.216  1.00  0.00    -0.387 OA
ATOM     27  H   UNL     1      16.706  49.794  47.887  1.00  0.00     0.211 HD
ENDBRANCH  18  26
ENDBRANCH  12  13
ENDBRANCH   7  12
BRANCH   4  28
ATOM     28  O   UNL     1      17.264  49.727  40.107  1.00  0.00    -0.365 OA
ATOM     29  H   UNL     1      16.462  49.981  39.580  1.00  0.00     0.214 HD
ENDBRANCH   4  28
BRANCH   8  30
ATOM     30  C   UNL     1      15.677  46.771  43.579  1.00  0.00     0.249 C 
BRANCH  30  31
ATOM     31  O   UNL     1      14.351  46.877  44.095  1.00  0.00    -0.461 OA
BRANCH  31  32
ATOM     32  C   UNL     1      13.981  46.505  45.394  1.00  0.00     0.338 C 
ATOM     33  O   UNL     1      14.180  47.290  46.364  1.00  0.00    -0.246 OA
BRANCH  32  34
ATOM     34  C   UNL     1      13.335  45.194  45.617  1.00  0.00     0.060 A 
ATOM     35  C   UNL     1      12.042  45.127  46.166  1.00  0.00     0.015 A 
ATOM     36  C   UNL     1      13.992  43.999  45.263  1.00  0.00     0.015 A 
ATOM     37  C   UNL     1      11.419  43.890  46.362  1.00  0.00     0.001 A 
ATOM     38  C   UNL     1      13.364  42.764  45.464  1.00  0.00     0.001 A 
ATOM     39  C   UNL     1      12.079  42.709  46.009  1.00  0.00     0.000 A 
ENDBRANCH  32  34
ENDBRANCH  31  32
ENDBRANCH  30  31
ENDBRANCH   8  30
TORSDOF 12
ENDMDL
MODEL 7
REMARK VINA RESULT:    -7.136      2.433      7.529
REMARK INTER + INTRA:         -12.076
REMARK INTER:                 -10.493
REMARK INTRA:                  -1.583
REMARK UNBOUND:                -0.977
REMARK SMILES C[C@]12C[C@]3(O)O[C@H](O1)[C@@]1(COC(=O)c4ccccc4)[C@@H]3C[C@]12O[C@H]1O[C@@H](CO)[C@@H](O)[C@@H](O)[C@H]1O
REMARK SMILES IDX 1 1 2 2 3 3 4 4 20 5 21 6 22 7 9 8 7 9 8 10 6 11 23 12 24 13
REMARK SMILES IDX 33 14 25 15 31 16 26 17 29 18 34 19 32 21 27 23 28 24 30 26
REMARK SMILES IDX 5 28 10 30 11 31 12 32 13 33 14 34 15 35 19 36 16 37 18 38
REMARK SMILES IDX 17 39
REMARK H PARENT 34 20 32 22 28 25 30 27 5 29
REMARK Flexibility Score: inf
ROOT
ATOM      1  C   UNL     1      17.174  51.185  44.852  1.00  0.00     0.046 C 
ATOM      2  C   UNL     1      16.764  50.213  43.747  1.00  0.00     0.104 C 
ATOM      3  C   UNL     1      17.274  50.689  42.335  1.00  0.00     0.104 C 
ATOM      4  C   UNL     1      16.844  49.518  41.382  1.00  0.00     0.175 C 
ATOM      5  C   UNL     1      17.287  48.144  41.980  1.00  0.00     0.070 C 
ATOM      6  C   UNL     1      18.365  48.275  43.070  1.00  0.00     0.050 C 
ATOM      7  C   UNL     1      17.215  48.730  44.010  1.00  0.00     0.115 C 
ATOM      8  C   UNL     1      16.230  48.036  43.074  1.00  0.00     0.096 C 
ATOM      9  C   UNL     1      15.153  49.053  42.743  1.00  0.00     0.267 C 
ATOM     10  O   UNL     1      15.356  50.138  43.634  1.00  0.00    -0.342 OA
ATOM     11  O   UNL     1      15.430  49.483  41.419  1.00  0.00    -0.320 OA
ENDROOT
BRANCH   7  12
ATOM     12  O   UNL     1      17.079  48.322  45.370  1.00  0.00    -0.339 OA
BRANCH  12  13
ATOM     13  C   UNL     1      18.251  47.780  45.948  1.00  0.00     0.282 C 
ATOM     14  C   UNL     1      17.834  46.837  47.105  1.00  0.00     0.202 C 
ATOM     15  O   UNL     1      19.143  48.840  46.311  1.00  0.00    -0.341 OA
ATOM     16  C   UNL     1      17.287  47.640  48.299  1.00  0.00     0.179 C 
ATOM     17  C   UNL     1      19.404  48.940  47.704  1.00  0.00     0.178 C 
ATOM     18  C   UNL     1      18.093  48.947  48.530  1.00  0.00     0.177 C 
BRANCH  14  19
ATOM     19  O   UNL     1      16.879  45.901  46.669  1.00  0.00    -0.385 OA
ATOM     20  H   UNL     1      16.897  45.918  45.676  1.00  0.00     0.211 HD
ENDBRANCH  14  19
BRANCH  16  21
ATOM     21  O   UNL     1      15.925  47.927  48.092  1.00  0.00    -0.387 OA
ATOM     22  H   UNL     1      15.416  47.121  48.364  1.00  0.00     0.211 HD
ENDBRANCH  16  21
BRANCH  17  23
ATOM     23  C   UNL     1      20.235  50.203  47.956  1.00  0.00     0.191 C 
BRANCH  23  24
ATOM     24  O   UNL     1      19.786  51.245  47.131  1.00  0.00    -0.394 OA
ATOM     25  H   UNL     1      18.919  50.957  46.746  1.00  0.00     0.210 HD
ENDBRANCH  23  24
ENDBRANCH  17  23
BRANCH  18  26
ATOM     26  O   UNL     1      17.326  50.070  48.169  1.00  0.00    -0.387 OA
ATOM     27  H   UNL     1      16.383  49.866  48.411  1.00  0.00     0.211 HD
ENDBRANCH  18  26
ENDBRANCH  12  13
ENDBRANCH   7  12
BRANCH   4  28
ATOM     28  O   UNL     1      17.322  49.688  40.074  1.00  0.00    -0.365 OA
ATOM     29  H   UNL     1      16.940  50.541  39.741  1.00  0.00     0.214 HD
ENDBRANCH   4  28
BRANCH   8  30
ATOM     30  C   UNL     1      15.770  46.611  43.456  1.00  0.00     0.249 C 
BRANCH  30  31
ATOM     31  O   UNL     1      14.812  46.124  42.518  1.00  0.00    -0.461 OA
BRANCH  31  32
ATOM     32  C   UNL     1      15.047  45.064  41.633  1.00  0.00     0.338 C 
ATOM     33  O   UNL     1      14.326  44.028  41.670  1.00  0.00    -0.246 OA
BRANCH  32  34
ATOM     34  C   UNL     1      16.135  45.179  40.637  1.00  0.00     0.060 A 
ATOM     35  C   UNL     1      15.961  45.970  39.488  1.00  0.00     0.015 A 
ATOM     36  C   UNL     1      17.364  44.518  40.834  1.00  0.00     0.015 A 
ATOM     37  C   UNL     1      16.994  46.097  38.553  1.00  0.00     0.001 A 
ATOM     38  C   UNL     1      18.392  44.647  39.893  1.00  0.00     0.001 A 
ATOM     39  C   UNL     1      18.209  45.437  38.756  1.00  0.00     0.000 A 
ENDBRANCH  32  34
ENDBRANCH  31  32
ENDBRANCH  30  31
ENDBRANCH   8  30
TORSDOF 12
ENDMDL
MODEL 8
REMARK VINA RESULT:    -7.091      3.051      5.674
REMARK INTER + INTRA:         -12.007
REMARK INTER:                 -10.637
REMARK INTRA:                  -1.370
REMARK UNBOUND:                -0.977
REMARK SMILES C[C@]12C[C@]3(O)O[C@H](O1)[C@@]1(COC(=O)c4ccccc4)[C@@H]3C[C@]12O[C@H]1O[C@@H](CO)[C@@H](O)[C@@H](O)[C@H]1O
REMARK SMILES IDX 1 1 2 2 3 3 4 4 20 5 21 6 22 7 9 8 7 9 8 10 6 11 23 12 24 13
REMARK SMILES IDX 33 14 25 15 31 16 26 17 29 18 34 19 32 21 27 23 28 24 30 26
REMARK SMILES IDX 5 28 10 30 11 31 12 32 13 33 14 34 15 35 19 36 16 37 18 38
REMARK SMILES IDX 17 39
REMARK H PARENT 34 20 32 22 28 25 30 27 5 29
REMARK Flexibility Score: inf
ROOT
ATOM      1  C   UNL     1      19.755  47.354  43.670  1.00  0.00     0.046 C 
ATOM      2  C   UNL     1      18.858  48.404  44.323  1.00  0.00     0.104 C 
ATOM      3  C   UNL     1      19.657  49.714  44.677  1.00  0.00     0.104 C 
ATOM      4  C   UNL     1      18.546  50.676  45.228  1.00  0.00     0.175 C 
ATOM      5  C   UNL     1      17.328  50.713  44.249  1.00  0.00     0.070 C 
ATOM      6  C   UNL     1      17.662  50.182  42.844  1.00  0.00     0.050 C 
ATOM      7  C   UNL     1      17.585  48.763  43.473  1.00  0.00     0.115 C 
ATOM      8  C   UNL     1      16.735  49.352  44.595  1.00  0.00     0.096 C 
ATOM      9  C   UNL     1      17.375  48.915  45.901  1.00  0.00     0.267 C 
ATOM     10  O   UNL     1      18.339  47.934  45.552  1.00  0.00    -0.342 OA
ATOM     11  O   UNL     1      18.043  50.063  46.400  1.00  0.00    -0.320 OA
ENDROOT
BRANCH   7  12
ATOM     12  O   UNL     1      16.979  47.636  42.842  1.00  0.00    -0.339 OA
BRANCH  12  13
ATOM     13  C   UNL     1      17.186  47.554  41.446  1.00  0.00     0.282 C 
ATOM     14  C   UNL     1      15.807  47.626  40.742  1.00  0.00     0.202 C 
ATOM     15  O   UNL     1      17.969  46.393  41.143  1.00  0.00    -0.341 OA
ATOM     16  C   UNL     1      15.002  46.335  40.975  1.00  0.00     0.179 C 
ATOM     17  C   UNL     1      17.303  45.424  40.345  1.00  0.00     0.178 C 
ATOM     18  C   UNL     1      15.908  45.075  40.919  1.00  0.00     0.177 C 
BRANCH  14  19
ATOM     19  O   UNL     1      15.076  48.743  41.185  1.00  0.00    -0.385 OA
ATOM     20  H   UNL     1      15.018  48.670  42.175  1.00  0.00     0.211 HD
ENDBRANCH  14  19
BRANCH  16  21
ATOM     21  O   UNL     1      14.333  46.412  42.211  1.00  0.00    -0.387 OA
ATOM     22  H   UNL     1      13.773  47.228  42.185  1.00  0.00     0.211 HD
ENDBRANCH  16  21
BRANCH  17  23
ATOM     23  C   UNL     1      18.195  44.182  40.240  1.00  0.00     0.191 C 
BRANCH  23  24
ATOM     24  O   UNL     1      18.715  43.856  41.501  1.00  0.00    -0.394 OA
ATOM     25  H   UNL     1      17.947  43.805  42.126  1.00  0.00     0.210 HD
ENDBRANCH  23  24
ENDBRANCH  17  23
BRANCH  18  26
ATOM     26  O   UNL     1      16.062  44.521  42.204  1.00  0.00    -0.387 OA
ATOM     27  H   UNL     1      16.801  43.857  42.146  1.00  0.00     0.211 HD
ENDBRANCH  18  26
ENDBRANCH  12  13
ENDBRANCH   7  12
BRANCH   4  28
ATOM     28  O   UNL     1      19.034  51.965  45.488  1.00  0.00    -0.365 OA
ATOM     29  H   UNL     1      19.010  52.458  44.626  1.00  0.00     0.214 HD
ENDBRANCH   4  28
BRANCH   8  30
ATOM     30  C   UNL     1      15.201  49.212  44.474  1.00  0.00     0.249 C 
BRANCH  30  31
ATOM     31  O   UNL     1      14.773  47.935  44.943  1.00  0.00    -0.461 OA
BRANCH  31  32
ATOM     32  C   UNL     1      13.481  47.662  45.412  1.00  0.00     0.338 C 
ATOM     33  O   UNL     1      12.525  47.511  44.600  1.00  0.00    -0.246 OA
BRANCH  32  34
ATOM     34  C   UNL     1      13.250  47.530  46.867  1.00  0.00     0.060 A 
ATOM     35  C   UNL     1      12.170  46.766  47.345  1.00  0.00     0.015 A 
ATOM     36  C   UNL     1      14.117  48.146  47.791  1.00  0.00     0.015 A 
ATOM     37  C   UNL     1      11.959  46.623  48.720  1.00  0.00     0.001 A 
ATOM     38  C   UNL     1      13.898  48.001  49.167  1.00  0.00     0.001 A 
ATOM     39  C   UNL     1      12.823  47.239  49.630  1.00  0.00     0.000 A 
ENDBRANCH  32  34
ENDBRANCH  31  32
ENDBRANCH  30  31
ENDBRANCH   8  30
TORSDOF 12
ENDMDL
MODEL 9
REMARK VINA RESULT:    -6.987      2.541      8.452
REMARK INTER + INTRA:         -11.845
REMARK INTER:                 -10.396
REMARK INTRA:                  -1.448
REMARK UNBOUND:                -0.977
REMARK SMILES C[C@]12C[C@]3(O)O[C@H](O1)[C@@]1(COC(=O)c4ccccc4)[C@@H]3C[C@]12O[C@H]1O[C@@H](CO)[C@@H](O)[C@@H](O)[C@H]1O
REMARK SMILES IDX 1 1 2 2 3 3 4 4 20 5 21 6 22 7 9 8 7 9 8 10 6 11 23 12 24 13
REMARK SMILES IDX 33 14 25 15 31 16 26 17 29 18 34 19 32 21 27 23 28 24 30 26
REMARK SMILES IDX 5 28 10 30 11 31 12 32 13 33 14 34 15 35 19 36 16 37 18 38
REMARK SMILES IDX 17 39
REMARK H PARENT 34 20 32 22 28 25 30 27 5 29
REMARK Flexibility Score: inf
ROOT
ATOM      1  C   UNL     1      22.284  49.622  45.328  1.00  0.00     0.046 C 
ATOM      2  C   UNL     1      20.911  49.057  44.968  1.00  0.00     0.104 C 
ATOM      3  C   UNL     1      21.029  47.769  44.070  1.00  0.00     0.104 C 
ATOM      4  C   UNL     1      19.540  47.302  43.909  1.00  0.00     0.175 C 
ATOM      5  C   UNL     1      18.836  47.253  45.304  1.00  0.00     0.070 C 
ATOM      6  C   UNL     1      19.824  47.240  46.483  1.00  0.00     0.050 C 
ATOM      7  C   UNL     1      20.003  48.761  46.216  1.00  0.00     0.115 C 
ATOM      8  C   UNL     1      18.653  48.753  45.505  1.00  0.00     0.096 C 
ATOM      9  C   UNL     1      18.872  49.405  44.151  1.00  0.00     0.267 C 
ATOM     10  O   UNL     1      20.166  49.984  44.202  1.00  0.00    -0.342 OA
ATOM     11  O   UNL     1      18.877  48.340  43.213  1.00  0.00    -0.320 OA
ENDROOT
BRANCH   7  12
ATOM     12  O   UNL     1      20.093  49.751  47.240  1.00  0.00    -0.339 OA
BRANCH  12  13
ATOM     13  C   UNL     1      20.937  49.412  48.322  1.00  0.00     0.282 C 
ATOM     14  C   UNL     1      20.061  49.243  49.590  1.00  0.00     0.202 C 
ATOM     15  O   UNL     1      21.991  50.376  48.430  1.00  0.00    -0.341 OA
ATOM     16  C   UNL     1      19.527  50.603  50.075  1.00  0.00     0.179 C 
ATOM     17  C   UNL     1      21.989  51.121  49.639  1.00  0.00     0.178 C 
ATOM     18  C   UNL     1      20.593  51.723  49.935  1.00  0.00     0.177 C 
BRANCH  14  19
ATOM     19  O   UNL     1      18.995  48.358  49.348  1.00  0.00    -0.385 OA
ATOM     20  H   UNL     1      18.279  48.889  48.907  1.00  0.00     0.211 HD
ENDBRANCH  14  19
BRANCH  16  21
ATOM     21  O   UNL     1      18.361  50.934  49.360  1.00  0.00    -0.387 OA
ATOM     22  H   UNL     1      18.135  50.151  48.797  1.00  0.00     0.211 HD
ENDBRANCH  16  21
BRANCH  17  23
ATOM     23  C   UNL     1      23.063  52.210  49.544  1.00  0.00     0.191 C 
BRANCH  23  24
ATOM     24  O   UNL     1      23.262  52.572  48.203  1.00  0.00    -0.394 OA
ATOM     25  H   UNL     1      23.137  51.752  47.660  1.00  0.00     0.210 HD
ENDBRANCH  23  24
ENDBRANCH  17  23
BRANCH  18  26
ATOM     26  O   UNL     1      20.243  52.610  48.900  1.00  0.00    -0.387 OA
ATOM     27  H   UNL     1      19.978  52.053  48.119  1.00  0.00     0.211 HD
ENDBRANCH  18  26
ENDBRANCH  12  13
ENDBRANCH   7  12
BRANCH   4  28
ATOM     28  O   UNL     1      19.430  46.077  43.235  1.00  0.00    -0.365 OA
ATOM     29  H   UNL     1      18.470  45.960  43.012  1.00  0.00     0.214 HD
ENDBRANCH   4  28
BRANCH   8  30
ATOM     30  C   UNL     1      17.418  49.200  46.318  1.00  0.00     0.249 C 
BRANCH  30  31
ATOM     31  O   UNL     1      16.388  49.670  45.451  1.00  0.00    -0.461 OA
BRANCH  31  32
ATOM     32  C   UNL     1      15.370  48.862  44.928  1.00  0.00     0.338 C 
ATOM     33  O   UNL     1      14.316  48.653  45.590  1.00  0.00    -0.246 OA
BRANCH  32  34
ATOM     34  C   UNL     1      15.533  48.272  43.581  1.00  0.00     0.060 A 
ATOM     35  C   UNL     1      15.563  49.102  42.446  1.00  0.00     0.015 A 
ATOM     36  C   UNL     1      15.682  46.881  43.418  1.00  0.00     0.015 A 
ATOM     37  C   UNL     1      15.735  48.551  41.171  1.00  0.00     0.001 A 
ATOM     38  C   UNL     1      15.852  46.336  42.139  1.00  0.00     0.001 A 
ATOM     39  C   UNL     1      15.881  47.169  41.018  1.00  0.00     0.000 A 
ENDBRANCH  32  34
ENDBRANCH  31  32
ENDBRANCH  30  31
ENDBRANCH   8  30
TORSDOF 12
ENDMDL
