MODEL 1
REMARK VINA RESULT:    -6.480      0.000      0.000
REMARK INTER + INTRA:          -9.388
REMARK INTER:                  -8.752
REMARK INTRA:                  -0.635
REMARK UNBOUND:                -0.635
REMARK SMILES CC(=O)CCC=C(C)CCC=C(C)C
REMARK SMILES IDX 7 1 6 2 8 3 9 4 10 5 11 6 13 7 12 8 14 9 5 10 4 11 2 12 3 13
REMARK SMILES IDX 1 14
REMARK H PARENT
REMARK Flexibility Score: inf
ROOT
ATOM      1  C   UNL     1     -14.123  12.769   0.390  1.00  0.00    -0.077 C 
ATOM      2  C   UNL     1     -13.811  12.751   1.707  1.00  0.00    -0.028 C 
ATOM      3  C   UNL     1     -14.694  11.562  -0.314  1.00  0.00     0.039 C 
ENDROOT
BRANCH   1   4
ATOM      4  C   UNL     1     -13.896  14.040  -0.399  1.00  0.00     0.034 C 
BRANCH   4   5
ATOM      5  C   UNL     1     -13.275  15.127   0.486  1.00  0.00     0.032 C 
BRANCH   5   6
ATOM      6  C   UNL     1     -13.982  16.446   0.291  1.00  0.00    -0.028 C 
ATOM      7  C   UNL     1     -15.795  18.106   0.575  1.00  0.00     0.039 C 
ATOM      8  C   UNL     1     -15.194  16.745   0.810  1.00  0.00    -0.080 C 
ATOM      9  C   UNL     1     -16.001  15.739   1.594  1.00  0.00     0.039 C 
ENDBRANCH   5   6
ENDBRANCH   4   5
ENDBRANCH   1   4
BRANCH   2  10
ATOM     10  C   UNL     1     -14.038  11.579   2.633  1.00  0.00     0.035 C 
BRANCH  10  11
ATOM     11  C   UNL     1     -14.199  12.047   4.083  1.00  0.00     0.079 C 
BRANCH  11  12
ATOM     12  C   UNL     1     -12.915  11.900   4.857  1.00  0.00     0.130 C 
ATOM     13  O   UNL     1     -12.495  10.783   5.121  1.00  0.00    -0.300 OA
ATOM     14  C   UNL     1     -12.140  13.100   5.315  1.00  0.00     0.087 C 
ENDBRANCH  11  12
ENDBRANCH  10  11
ENDBRANCH   2  10
TORSDOF 6
ENDMDL
MODEL 2
REMARK VINA RESULT:    -6.394      2.648      5.937
REMARK INTER + INTRA:          -9.272
REMARK INTER:                  -8.625
REMARK INTRA:                  -0.647
REMARK UNBOUND:                -0.635
REMARK SMILES CC(=O)CCC=C(C)CCC=C(C)C
REMARK SMILES IDX 7 1 6 2 8 3 9 4 10 5 11 6 13 7 12 8 14 9 5 10 4 11 2 12 3 13
REMARK SMILES IDX 1 14
REMARK H PARENT
REMARK Flexibility Score: inf
ROOT
ATOM      1  C   UNL     1     -14.114  12.941   0.943  1.00  0.00    -0.077 C 
ATOM      2  C   UNL     1     -13.685  14.191   1.235  1.00  0.00    -0.028 C 
ATOM      3  C   UNL     1     -14.767  12.607  -0.376  1.00  0.00     0.039 C 
ENDROOT
BRANCH   1   4
ATOM      4  C   UNL     1     -13.931  11.845   1.970  1.00  0.00     0.034 C 
BRANCH   4   5
ATOM      5  C   UNL     1     -14.364  12.323   3.361  1.00  0.00     0.032 C 
BRANCH   5   6
ATOM      6  C   UNL     1     -13.823  11.410   4.433  1.00  0.00    -0.028 C 
ATOM      7  C   UNL     1     -12.405  10.771   6.359  1.00  0.00     0.039 C 
ATOM      8  C   UNL     1     -12.850  11.754   5.307  1.00  0.00    -0.080 C 
ATOM      9  C   UNL     1     -12.151  13.090   5.244  1.00  0.00     0.039 C 
ENDBRANCH   5   6
ENDBRANCH   4   5
ENDBRANCH   1   4
BRANCH   2  10
ATOM     10  C   UNL     1     -13.744  15.368   0.291  1.00  0.00     0.035 C 
BRANCH  10  11
ATOM     11  C   UNL     1     -14.079  16.661   1.043  1.00  0.00     0.079 C 
BRANCH  11  12
ATOM     12  C   UNL     1     -15.515  17.066   0.831  1.00  0.00     0.130 C 
ATOM     13  O   UNL     1     -15.772  18.208   0.479  1.00  0.00    -0.300 OA
ATOM     14  C   UNL     1     -16.638  16.097   1.048  1.00  0.00     0.087 C 
ENDBRANCH  11  12
ENDBRANCH  10  11
ENDBRANCH   2  10
TORSDOF 6
ENDMDL
MODEL 3
REMARK VINA RESULT:    -6.270      2.438      5.658
REMARK INTER + INTRA:          -9.104
REMARK INTER:                  -8.450
REMARK INTRA:                  -0.654
REMARK UNBOUND:                -0.635
REMARK SMILES CC(=O)CCC=C(C)CCC=C(C)C
REMARK SMILES IDX 7 1 6 2 8 3 9 4 10 5 11 6 13 7 12 8 14 9 5 10 4 11 2 12 3 13
REMARK SMILES IDX 1 14
REMARK H PARENT
REMARK Flexibility Score: inf
ROOT
ATOM      1  C   UNL     1     -14.124  12.201   0.964  1.00  0.00    -0.077 C 
ATOM      2  C   UNL     1     -13.900  13.350   1.642  1.00  0.00    -0.028 C 
ATOM      3  C   UNL     1     -14.697  12.194  -0.433  1.00  0.00     0.039 C 
ENDROOT
BRANCH   1   4
ATOM      4  C   UNL     1     -13.786  10.882   1.625  1.00  0.00     0.034 C 
BRANCH   4   5
ATOM      5  C   UNL     1     -12.848  11.095   2.818  1.00  0.00     0.032 C 
BRANCH   5   6
ATOM      6  C   UNL     1     -13.571  10.848   4.119  1.00  0.00    -0.028 C 
ATOM      7  C   UNL     1     -14.249  11.307   6.454  1.00  0.00     0.039 C 
ATOM      8  C   UNL     1     -13.457  11.631   5.215  1.00  0.00    -0.080 C 
ATOM      9  C   UNL     1     -12.520  12.814   5.261  1.00  0.00     0.039 C 
ENDBRANCH   5   6
ENDBRANCH   4   5
ENDBRANCH   1   4
BRANCH   2  10
ATOM     10  C   UNL     1     -14.129  14.738   1.091  1.00  0.00     0.035 C 
BRANCH  10  11
ATOM     11  C   UNL     1     -15.227  15.466   1.874  1.00  0.00     0.079 C 
BRANCH  11  12
ATOM     12  C   UNL     1     -16.086  16.308   0.967  1.00  0.00     0.130 C 
ATOM     13  O   UNL     1     -17.091  15.823   0.469  1.00  0.00    -0.300 OA
ATOM     14  C   UNL     1     -15.729  17.731   0.657  1.00  0.00     0.087 C 
ENDBRANCH  11  12
ENDBRANCH  10  11
ENDBRANCH   2  10
TORSDOF 6
ENDMDL
MODEL 4
REMARK VINA RESULT:    -6.148      1.374      2.138
REMARK INTER + INTRA:          -8.940
REMARK INTER:                  -8.317
REMARK INTRA:                  -0.623
REMARK UNBOUND:                -0.635
REMARK SMILES CC(=O)CCC=C(C)CCC=C(C)C
REMARK SMILES IDX 7 1 6 2 8 3 9 4 10 5 11 6 13 7 12 8 14 9 5 10 4 11 2 12 3 13
REMARK SMILES IDX 1 14
REMARK H PARENT
REMARK Flexibility Score: inf
ROOT
ATOM      1  C   UNL     1     -13.779  11.644   2.360  1.00  0.00    -0.077 C 
ATOM      2  C   UNL     1     -14.110  11.602   3.672  1.00  0.00    -0.028 C 
ATOM      3  C   UNL     1     -13.037  10.517   1.686  1.00  0.00     0.039 C 
ENDROOT
BRANCH   1   4
ATOM      4  C   UNL     1     -14.169  12.858   1.545  1.00  0.00     0.034 C 
BRANCH   4   5
ATOM      5  C   UNL     1     -14.016  14.141   2.370  1.00  0.00     0.032 C 
BRANCH   5   6
ATOM      6  C   UNL     1     -15.097  15.134   2.023  1.00  0.00    -0.028 C 
ATOM      7  C   UNL     1     -16.112  17.051   0.831  1.00  0.00     0.039 C 
ATOM      8  C   UNL     1     -14.954  16.133   1.123  1.00  0.00    -0.080 C 
ATOM      9  C   UNL     1     -13.646  16.394   0.417  1.00  0.00     0.039 C 
ENDBRANCH   5   6
ENDBRANCH   4   5
ENDBRANCH   1   4
BRANCH   2  10
ATOM     10  C   UNL     1     -13.843  10.435   4.594  1.00  0.00     0.035 C 
BRANCH  10  11
ATOM     11  C   UNL     1     -12.618  10.700   5.475  1.00  0.00     0.079 C 
BRANCH  11  12
ATOM     12  C   UNL     1     -12.693  12.053   6.134  1.00  0.00     0.130 C 
ATOM     13  O   UNL     1     -13.429  12.214   7.096  1.00  0.00    -0.300 OA
ATOM     14  C   UNL     1     -11.886  13.212   5.628  1.00  0.00     0.087 C 
ENDBRANCH  11  12
ENDBRANCH  10  11
ENDBRANCH   2  10
TORSDOF 6
ENDMDL
MODEL 5
REMARK VINA RESULT:    -6.103      2.026      2.990
REMARK INTER + INTRA:          -8.879
REMARK INTER:                  -8.421
REMARK INTRA:                  -0.459
REMARK UNBOUND:                -0.635
REMARK SMILES CC(=O)CCC=C(C)CCC=C(C)C
REMARK SMILES IDX 7 1 6 2 8 3 9 4 10 5 11 6 13 7 12 8 14 9 5 10 4 11 2 12 3 13
REMARK SMILES IDX 1 14
REMARK H PARENT
REMARK Flexibility Score: inf
ROOT
ATOM      1  C   UNL     1     -13.710  13.004   3.771  1.00  0.00    -0.077 C 
ATOM      2  C   UNL     1     -13.149  12.869   4.995  1.00  0.00    -0.028 C 
ATOM      3  C   UNL     1     -13.687  11.890   2.752  1.00  0.00     0.039 C 
ENDROOT
BRANCH   1   4
ATOM      4  C   UNL     1     -14.385  14.310   3.414  1.00  0.00     0.034 C 
BRANCH   4   5
ATOM      5  C   UNL     1     -14.733  14.354   1.921  1.00  0.00     0.032 C 
BRANCH   5   6
ATOM      6  C   UNL     1     -15.511  15.603   1.589  1.00  0.00    -0.028 C 
ATOM      7  C   UNL     1     -15.897  17.825   0.570  1.00  0.00     0.039 C 
ATOM      8  C   UNL     1     -15.021  16.637   0.868  1.00  0.00    -0.080 C 
ATOM      9  C   UNL     1     -13.595  16.666   0.376  1.00  0.00     0.039 C 
ENDBRANCH   5   6
ENDBRANCH   4   5
ENDBRANCH   1   4
BRANCH   2  10
ATOM     10  C   UNL     1     -12.497  11.608   5.512  1.00  0.00     0.035 C 
BRANCH  10  11
ATOM     11  C   UNL     1     -13.412  10.883   6.504  1.00  0.00     0.079 C 
BRANCH  11  12
ATOM     12  C   UNL     1     -12.953  11.080   7.925  1.00  0.00     0.130 C 
ATOM     13  O   UNL     1     -13.724  11.551   8.748  1.00  0.00    -0.300 OA
ATOM     14  C   UNL     1     -11.562  10.712   8.352  1.00  0.00     0.087 C 
ENDBRANCH  11  12
ENDBRANCH  10  11
ENDBRANCH   2  10
TORSDOF 6
ENDMDL
MODEL 6
REMARK VINA RESULT:    -6.035      1.873      2.530
REMARK INTER + INTRA:          -8.787
REMARK INTER:                  -8.319
REMARK INTRA:                  -0.468
REMARK UNBOUND:                -0.635
REMARK SMILES CC(=O)CCC=C(C)CCC=C(C)C
REMARK SMILES IDX 7 1 6 2 8 3 9 4 10 5 11 6 13 7 12 8 14 9 5 10 4 11 2 12 3 13
REMARK SMILES IDX 1 14
REMARK H PARENT
REMARK Flexibility Score: inf
ROOT
ATOM      1  C   UNL     1     -13.729  12.923   3.296  1.00  0.00    -0.077 C 
ATOM      2  C   UNL     1     -13.239  12.734   4.544  1.00  0.00    -0.028 C 
ATOM      3  C   UNL     1     -13.602  11.874   2.219  1.00  0.00     0.039 C 
ENDROOT
BRANCH   1   4
ATOM      4  C   UNL     1     -14.429  14.225   2.974  1.00  0.00     0.034 C 
BRANCH   4   5
ATOM      5  C   UNL     1     -14.379  14.512   1.469  1.00  0.00     0.032 C 
BRANCH   5   6
ATOM      6  C   UNL     1     -14.567  15.984   1.198  1.00  0.00    -0.028 C 
ATOM      7  C   UNL     1     -15.825  18.040   0.635  1.00  0.00     0.039 C 
ATOM      8  C   UNL     1     -15.746  16.552   0.854  1.00  0.00    -0.080 C 
ATOM      9  C   UNL     1     -16.996  15.735   0.638  1.00  0.00     0.039 C 
ENDBRANCH   5   6
ENDBRANCH   4   5
ENDBRANCH   1   4
BRANCH   2  10
ATOM     10  C   UNL     1     -12.574  11.467   5.028  1.00  0.00     0.035 C 
BRANCH  10  11
ATOM     11  C   UNL     1     -13.421  10.777   6.102  1.00  0.00     0.079 C 
BRANCH  11  12
ATOM     12  C   UNL     1     -13.038  11.235   7.486  1.00  0.00     0.130 C 
ATOM     13  O   UNL     1     -13.773  12.001   8.091  1.00  0.00    -0.300 OA
ATOM     14  C   UNL     1     -11.768  10.773   8.135  1.00  0.00     0.087 C 
ENDBRANCH  11  12
ENDBRANCH  10  11
ENDBRANCH   2  10
TORSDOF 6
ENDMDL
MODEL 7
REMARK VINA RESULT:    -5.804      1.346      1.824
REMARK INTER + INTRA:          -8.475
REMARK INTER:                  -7.647
REMARK INTRA:                  -0.828
REMARK UNBOUND:                -0.635
REMARK SMILES CC(=O)CCC=C(C)CCC=C(C)C
REMARK SMILES IDX 7 1 6 2 8 3 9 4 10 5 11 6 13 7 12 8 14 9 5 10 4 11 2 12 3 13
REMARK SMILES IDX 1 14
REMARK H PARENT
REMARK Flexibility Score: inf
ROOT
ATOM      1  C   UNL     1     -13.824  13.097   2.525  1.00  0.00    -0.077 C 
ATOM      2  C   UNL     1     -13.493  11.790   2.645  1.00  0.00    -0.028 C 
ATOM      3  C   UNL     1     -14.709  13.794   3.530  1.00  0.00     0.039 C 
ENDROOT
BRANCH   1   4
ATOM      4  C   UNL     1     -13.287  13.884   1.349  1.00  0.00     0.034 C 
BRANCH   4   5
ATOM      5  C   UNL     1     -14.432  14.384   0.460  1.00  0.00     0.032 C 
BRANCH   5   6
ATOM      6  C   UNL     1     -14.536  15.887   0.516  1.00  0.00    -0.028 C 
ATOM      7  C   UNL     1     -15.673  18.069   0.783  1.00  0.00     0.039 C 
ATOM      8  C   UNL     1     -15.689  16.565   0.717  1.00  0.00    -0.080 C 
ATOM      9  C   UNL     1     -17.020  15.863   0.837  1.00  0.00     0.039 C 
ENDBRANCH   5   6
ENDBRANCH   4   5
ENDBRANCH   1   4
BRANCH   2  10
ATOM     10  C   UNL     1     -13.901  10.897   3.793  1.00  0.00     0.035 C 
BRANCH  10  11
ATOM     11  C   UNL     1     -12.725  10.651   4.744  1.00  0.00     0.079 C 
BRANCH  11  12
ATOM     12  C   UNL     1     -12.758  11.594   5.919  1.00  0.00     0.130 C 
ATOM     13  O   UNL     1     -13.332  11.258   6.944  1.00  0.00    -0.300 OA
ATOM     14  C   UNL     1     -12.104  12.942   5.854  1.00  0.00     0.087 C 
ENDBRANCH  11  12
ENDBRANCH  10  11
ENDBRANCH   2  10
TORSDOF 6
ENDMDL
MODEL 8
REMARK VINA RESULT:    -5.706      2.503      4.566
REMARK INTER + INTRA:          -8.342
REMARK INTER:                  -7.438
REMARK INTRA:                  -0.905
REMARK UNBOUND:                -0.635
REMARK SMILES CC(=O)CCC=C(C)CCC=C(C)C
REMARK SMILES IDX 7 1 6 2 8 3 9 4 10 5 11 6 13 7 12 8 14 9 5 10 4 11 2 12 3 13
REMARK SMILES IDX 1 14
REMARK H PARENT
REMARK Flexibility Score: inf
ROOT
ATOM      1  C   UNL     1     -12.622  11.386   5.032  1.00  0.00    -0.077 C 
ATOM      2  C   UNL     1     -12.503  10.381   5.931  1.00  0.00    -0.028 C 
ATOM      3  C   UNL     1     -12.466  12.834   5.427  1.00  0.00     0.039 C 
ENDROOT
BRANCH   1   4
ATOM      4  C   UNL     1     -12.918  11.046   3.588  1.00  0.00     0.034 C 
BRANCH   4   5
ATOM      5  C   UNL     1     -14.202  11.737   3.117  1.00  0.00     0.032 C 
BRANCH   5   6
ATOM      6  C   UNL     1     -13.967  12.487   1.830  1.00  0.00    -0.028 C 
ATOM      7  C   UNL     1     -13.811  14.475   0.364  1.00  0.00     0.039 C 
ATOM      8  C   UNL     1     -14.101  13.826   1.692  1.00  0.00    -0.080 C 
ATOM      9  C   UNL     1     -14.578  14.704   2.822  1.00  0.00     0.039 C 
ENDBRANCH   5   6
ENDBRANCH   4   5
ENDBRANCH   1   4
BRANCH   2  10
ATOM     10  C   UNL     1     -12.151  10.562   7.389  1.00  0.00     0.035 C 
BRANCH  10  11
ATOM     11  C   UNL     1     -13.326  10.171   8.291  1.00  0.00     0.079 C 
BRANCH  11  12
ATOM     12  C   UNL     1     -14.396  11.233   8.296  1.00  0.00     0.130 C 
ATOM     13  O   UNL     1     -14.106  12.378   8.608  1.00  0.00    -0.300 OA
ATOM     14  C   UNL     1     -15.814  10.911   7.928  1.00  0.00     0.087 C 
ENDBRANCH  11  12
ENDBRANCH  10  11
ENDBRANCH   2  10
TORSDOF 6
ENDMDL
MODEL 9
REMARK VINA RESULT:    -5.646      2.839      6.687
REMARK INTER + INTRA:          -8.262
REMARK INTER:                  -7.799
REMARK INTRA:                  -0.463
REMARK UNBOUND:                -0.635
REMARK SMILES CC(=O)CCC=C(C)CCC=C(C)C
REMARK SMILES IDX 7 1 6 2 8 3 9 4 10 5 11 6 13 7 12 8 14 9 5 10 4 11 2 12 3 13
REMARK SMILES IDX 1 14
REMARK H PARENT
REMARK Flexibility Score: inf
ROOT
ATOM      1  C   UNL     1     -13.269  12.307   3.517  1.00  0.00    -0.077 C 
ATOM      2  C   UNL     1     -13.537  13.563   3.092  1.00  0.00    -0.028 C 
ATOM      3  C   UNL     1     -13.736  11.088   2.759  1.00  0.00     0.039 C 
ENDROOT
BRANCH   1   4
ATOM      4  C   UNL     1     -12.475  12.118   4.791  1.00  0.00     0.034 C 
BRANCH   4   5
ATOM      5  C   UNL     1     -12.942  10.868   5.545  1.00  0.00     0.032 C 
BRANCH   5   6
ATOM      6  C   UNL     1     -13.724  11.247   6.778  1.00  0.00    -0.028 C 
ATOM      7  C   UNL     1     -14.091  11.636   9.195  1.00  0.00     0.039 C 
ATOM      8  C   UNL     1     -13.230  11.206   8.037  1.00  0.00    -0.080 C 
ATOM      9  C   UNL     1     -11.840  10.699   8.335  1.00  0.00     0.039 C 
ENDBRANCH   5   6
ENDBRANCH   4   5
ENDBRANCH   1   4
BRANCH   2  10
ATOM     10  C   UNL     1     -14.263  13.906   1.812  1.00  0.00     0.035 C 
BRANCH  10  11
ATOM     11  C   UNL     1     -15.106  15.174   1.981  1.00  0.00     0.079 C 
BRANCH  11  12
ATOM     12  C   UNL     1     -14.721  16.231   0.978  1.00  0.00     0.130 C 
ATOM     13  O   UNL     1     -13.673  16.121   0.360  1.00  0.00    -0.300 OA
ATOM     14  C   UNL     1     -15.599  17.421   0.726  1.00  0.00     0.087 C 
ENDBRANCH  11  12
ENDBRANCH  10  11
ENDBRANCH   2  10
TORSDOF 6
ENDMDL
