MODEL 1
REMARK VINA RESULT:    -3.858      0.000      0.000
REMARK INTER + INTRA:          -4.375
REMARK INTER:                  -4.310
REMARK INTRA:                  -0.066
REMARK UNBOUND:                -0.066
REMARK SMILES COc1ccc(C(=O)[O-])cc1
REMARK SMILES IDX 6 1 5 2 10 3 4 4 11 5 3 6 7 7 8 8 9 9 2 10 1 11
REMARK H PARENT
REMARK Flexibility Score: inf
ROOT
ATOM      1  C   UNL     1      -6.636  10.146  19.105  1.00  0.00    -0.003 A 
ATOM      2  C   UNL     1      -6.257  10.063  20.454  1.00  0.00     0.014 A 
ATOM      3  C   UNL     1      -8.004  10.189  18.782  1.00  0.00     0.014 A 
ATOM      4  C   UNL     1      -7.226  10.023  21.463  1.00  0.00     0.047 A 
ATOM      5  C   UNL     1      -8.970  10.150  19.791  1.00  0.00     0.047 A 
ATOM      6  C   UNL     1      -8.593  10.066  21.136  1.00  0.00     0.118 A 
ENDROOT
BRANCH   1   7
ATOM      7  C   UNL     1      -5.608  10.189  18.041  1.00  0.00     0.071 C 
ATOM      8  O   UNL     1      -5.920   9.974  16.839  1.00  0.00    -0.545 OA
ATOM      9  O   UNL     1      -4.282  10.466  18.353  1.00  0.00    -0.545 OA
ENDBRANCH   1   7
BRANCH   6  10
ATOM     10  O   UNL     1      -9.603  10.029  22.110  1.00  0.00    -0.497 OA
ATOM     11  C   UNL     1     -10.764  10.852  22.094  1.00  0.00     0.278 C 
ENDBRANCH   6  10
TORSDOF 2
ENDMDL
MODEL 2
REMARK VINA RESULT:    -3.694      7.347      9.193
REMARK INTER + INTRA:          -4.192
REMARK INTER:                  -4.130
REMARK INTRA:                  -0.062
REMARK UNBOUND:                -0.066
REMARK SMILES COc1ccc(C(=O)[O-])cc1
REMARK SMILES IDX 6 1 5 2 10 3 4 4 11 5 3 6 7 7 8 8 9 9 2 10 1 11
REMARK H PARENT
REMARK Flexibility Score: inf
ROOT
ATOM      1  C   UNL     1      -9.650   6.162  14.327  1.00  0.00    -0.003 A 
ATOM      2  C   UNL     1      -8.337   5.856  13.935  1.00  0.00     0.014 A 
ATOM      3  C   UNL     1     -10.592   6.508  13.342  1.00  0.00     0.014 A 
ATOM      4  C   UNL     1      -7.971   5.893  12.586  1.00  0.00     0.047 A 
ATOM      5  C   UNL     1     -10.225   6.545  11.994  1.00  0.00     0.047 A 
ATOM      6  C   UNL     1      -8.916   6.240  11.603  1.00  0.00     0.118 A 
ENDROOT
BRANCH   1   7
ATOM      7  C   UNL     1     -10.033   6.121  15.755  1.00  0.00     0.071 C 
ATOM      8  O   UNL     1      -9.437   5.354  16.558  1.00  0.00    -0.545 OA
ATOM      9  O   UNL     1     -11.060   6.929  16.234  1.00  0.00    -0.545 OA
ENDBRANCH   1   7
BRANCH   6  10
ATOM     10  O   UNL     1      -8.599   6.292  10.238  1.00  0.00    -0.497 OA
ATOM     11  C   UNL     1      -9.261   5.535   9.230  1.00  0.00     0.278 C 
ENDBRANCH   6  10
TORSDOF 2
ENDMDL
MODEL 3
REMARK VINA RESULT:    -3.686      4.359      6.104
REMARK INTER + INTRA:          -4.183
REMARK INTER:                  -4.124
REMARK INTRA:                  -0.059
REMARK UNBOUND:                -0.066
REMARK SMILES COc1ccc(C(=O)[O-])cc1
REMARK SMILES IDX 6 1 5 2 10 3 4 4 11 5 3 6 7 7 8 8 9 9 2 10 1 11
REMARK H PARENT
REMARK Flexibility Score: inf
ROOT
ATOM      1  C   UNL     1     -10.254   8.495  18.246  1.00  0.00    -0.003 A 
ATOM      2  C   UNL     1      -9.383   7.428  17.973  1.00  0.00     0.014 A 
ATOM      3  C   UNL     1     -11.361   8.704  17.404  1.00  0.00     0.014 A 
ATOM      4  C   UNL     1      -9.613   6.585  16.881  1.00  0.00     0.047 A 
ATOM      5  C   UNL     1     -11.590   7.860  16.314  1.00  0.00     0.047 A 
ATOM      6  C   UNL     1     -10.722   6.797  16.042  1.00  0.00     0.118 A 
ENDROOT
BRANCH   1   7
ATOM      7  C   UNL     1     -10.007   9.385  19.402  1.00  0.00     0.071 C 
ATOM      8  O   UNL     1      -8.837   9.573  19.830  1.00  0.00    -0.545 OA
ATOM      9  O   UNL     1     -11.066  10.027  20.036  1.00  0.00    -0.545 OA
ENDBRANCH   1   7
BRANCH   6  10
ATOM     10  O   UNL     1     -10.996   5.980  14.934  1.00  0.00    -0.497 OA
ATOM     11  C   UNL     1     -10.713   6.336  13.585  1.00  0.00     0.278 C 
ENDBRANCH   6  10
TORSDOF 2
ENDMDL
MODEL 4
REMARK VINA RESULT:    -3.672      1.064      4.982
REMARK INTER + INTRA:          -4.167
REMARK INTER:                  -4.101
REMARK INTRA:                  -0.066
REMARK UNBOUND:                -0.066
REMARK SMILES COc1ccc(C(=O)[O-])cc1
REMARK SMILES IDX 6 1 5 2 10 3 4 4 11 5 3 6 7 7 8 8 9 9 2 10 1 11
REMARK H PARENT
REMARK Flexibility Score: inf
ROOT
ATOM      1  C   UNL     1      -8.033   9.963  20.506  1.00  0.00    -0.003 A 
ATOM      2  C   UNL     1      -8.557   9.962  19.203  1.00  0.00     0.014 A 
ATOM      3  C   UNL     1      -6.638  10.000  20.680  1.00  0.00     0.014 A 
ATOM      4  C   UNL     1      -7.705   9.997  18.095  1.00  0.00     0.047 A 
ATOM      5  C   UNL     1      -5.788  10.036  19.571  1.00  0.00     0.047 A 
ATOM      6  C   UNL     1      -6.310  10.035  18.273  1.00  0.00     0.118 A 
ENDROOT
BRANCH   1   7
ATOM      7  C   UNL     1      -8.938   9.926  21.676  1.00  0.00     0.071 C 
ATOM      8  O   UNL     1      -8.686   9.179  22.659  1.00  0.00    -0.545 OA
ATOM      9  O   UNL     1     -10.082  10.716  21.708  1.00  0.00    -0.545 OA
ENDBRANCH   1   7
BRANCH   6  10
ATOM     10  O   UNL     1      -5.413  10.071  17.194  1.00  0.00    -0.497 OA
ATOM     11  C   UNL     1      -4.040  10.432  17.303  1.00  0.00     0.278 C 
ENDBRANCH   6  10
TORSDOF 2
ENDMDL
MODEL 5
REMARK VINA RESULT:    -3.636      2.356      5.444
REMARK INTER + INTRA:          -4.127
REMARK INTER:                  -4.062
REMARK INTRA:                  -0.066
REMARK UNBOUND:                -0.066
REMARK SMILES COc1ccc(C(=O)[O-])cc1
REMARK SMILES IDX 6 1 5 2 10 3 4 4 11 5 3 6 7 7 8 8 9 9 2 10 1 11
REMARK H PARENT
REMARK Flexibility Score: inf
ROOT
ATOM      1  C   UNL     1      -6.248  10.121  18.534  1.00  0.00    -0.003 A 
ATOM      2  C   UNL     1      -4.862  10.327  18.437  1.00  0.00     0.014 A 
ATOM      3  C   UNL     1      -7.010  10.046  17.354  1.00  0.00     0.014 A 
ATOM      4  C   UNL     1      -4.249  10.455  17.186  1.00  0.00     0.047 A 
ATOM      5  C   UNL     1      -6.395  10.173  16.106  1.00  0.00     0.047 A 
ATOM      6  C   UNL     1      -5.014  10.378  16.009  1.00  0.00     0.118 A 
ENDROOT
BRANCH   1   7
ATOM      7  C   UNL     1      -6.893   9.986  19.859  1.00  0.00     0.071 C 
ATOM      8  O   UNL     1      -8.147   9.925  19.958  1.00  0.00    -0.545 OA
ATOM      9  O   UNL     1      -6.122   9.926  21.015  1.00  0.00    -0.545 OA
ENDBRANCH   1   7
BRANCH   6  10
ATOM     10  O   UNL     1      -4.447  10.500  14.731  1.00  0.00    -0.497 OA
ATOM     11  C   UNL     1      -3.058  10.361  14.453  1.00  0.00     0.278 C 
ENDBRANCH   6  10
TORSDOF 2
ENDMDL
MODEL 6
REMARK VINA RESULT:    -3.634      4.163      5.125
REMARK INTER + INTRA:          -4.125
REMARK INTER:                  -4.055
REMARK INTRA:                  -0.070
REMARK UNBOUND:                -0.066
REMARK SMILES COc1ccc(C(=O)[O-])cc1
REMARK SMILES IDX 6 1 5 2 10 3 4 4 11 5 3 6 7 7 8 8 9 9 2 10 1 11
REMARK H PARENT
REMARK Flexibility Score: inf
ROOT
ATOM      1  C   UNL     1     -10.258   7.141  16.675  1.00  0.00    -0.003 A 
ATOM      2  C   UNL     1     -11.361   8.009  16.621  1.00  0.00     0.014 A 
ATOM      3  C   UNL     1      -9.351   7.257  17.744  1.00  0.00     0.014 A 
ATOM      4  C   UNL     1     -11.555   8.973  17.615  1.00  0.00     0.047 A 
ATOM      5  C   UNL     1      -9.547   8.222  18.736  1.00  0.00     0.047 A 
ATOM      6  C   UNL     1     -10.646   9.086  18.683  1.00  0.00     0.118 A 
ENDROOT
BRANCH   1   7
ATOM      7  C   UNL     1     -10.056   6.122  15.622  1.00  0.00     0.071 C 
ATOM      8  O   UNL     1     -10.984   5.836  14.819  1.00  0.00    -0.545 OA
ATOM      9  O   UNL     1      -8.837   5.463  15.503  1.00  0.00    -0.545 OA
ENDBRANCH   1   7
BRANCH   6  10
ATOM     10  O   UNL     1     -10.796  10.037  19.704  1.00  0.00    -0.497 OA
ATOM     11  C   UNL     1      -9.785  10.365  20.650  1.00  0.00     0.278 C 
ENDBRANCH   6  10
TORSDOF 2
ENDMDL
MODEL 7
REMARK VINA RESULT:    -3.598      6.981      8.142
REMARK INTER + INTRA:          -4.085
REMARK INTER:                  -4.026
REMARK INTRA:                  -0.059
REMARK UNBOUND:                -0.066
REMARK SMILES COc1ccc(C(=O)[O-])cc1
REMARK SMILES IDX 6 1 5 2 10 3 4 4 11 5 3 6 7 7 8 8 9 9 2 10 1 11
REMARK H PARENT
REMARK Flexibility Score: inf
ROOT
ATOM      1  C   UNL     1      -9.082   6.238  12.261  1.00  0.00    -0.003 A 
ATOM      2  C   UNL     1     -10.354   6.548  12.768  1.00  0.00     0.014 A 
ATOM      3  C   UNL     1      -8.074   5.829  13.152  1.00  0.00     0.014 A 
ATOM      4  C   UNL     1     -10.615   6.452  14.139  1.00  0.00     0.047 A 
ATOM      5  C   UNL     1      -8.337   5.732  14.521  1.00  0.00     0.047 A 
ATOM      6  C   UNL     1      -9.604   6.041  15.027  1.00  0.00     0.118 A 
ENDROOT
BRANCH   1   7
ATOM      7  C   UNL     1      -8.810   6.341  10.810  1.00  0.00     0.071 C 
ATOM      8  O   UNL     1      -7.634   6.501  10.388  1.00  0.00    -0.545 OA
ATOM      9  O   UNL     1      -9.851   6.264   9.890  1.00  0.00    -0.545 OA
ENDBRANCH   1   7
BRANCH   6  10
ATOM     10  O   UNL     1      -9.815   5.929  16.409  1.00  0.00    -0.497 OA
ATOM     11  C   UNL     1      -9.774   7.023  17.319  1.00  0.00     0.278 C 
ENDBRANCH   6  10
TORSDOF 2
ENDMDL
MODEL 8
REMARK VINA RESULT:    -3.575      4.247      5.293
REMARK INTER + INTRA:          -4.059
REMARK INTER:                  -4.007
REMARK INTRA:                  -0.052
REMARK UNBOUND:                -0.066
REMARK SMILES COc1ccc(C(=O)[O-])cc1
REMARK SMILES IDX 6 1 5 2 10 3 4 4 11 5 3 6 7 7 8 8 9 9 2 10 1 11
REMARK H PARENT
REMARK Flexibility Score: inf
ROOT
ATOM      1  C   UNL     1      -9.222   7.040  15.773  1.00  0.00    -0.003 A 
ATOM      2  C   UNL     1      -8.623   8.296  15.585  1.00  0.00     0.014 A 
ATOM      3  C   UNL     1      -9.650   6.675  17.062  1.00  0.00     0.014 A 
ATOM      4  C   UNL     1      -8.454   9.171  16.663  1.00  0.00     0.047 A 
ATOM      5  C   UNL     1      -9.481   7.551  18.138  1.00  0.00     0.047 A 
ATOM      6  C   UNL     1      -8.884   8.803  17.951  1.00  0.00     0.118 A 
ENDROOT
BRANCH   1   7
ATOM      7  C   UNL     1      -9.400   6.117  14.630  1.00  0.00     0.071 C 
ATOM      8  O   UNL     1      -8.412   5.510  14.137  1.00  0.00    -0.545 OA
ATOM      9  O   UNL     1     -10.661   5.907  14.083  1.00  0.00    -0.545 OA
ENDBRANCH   1   7
BRANCH   6  10
ATOM     10  O   UNL     1      -8.737   9.644  19.064  1.00  0.00    -0.497 OA
ATOM     11  C   UNL     1      -7.486   9.994  19.646  1.00  0.00     0.278 C 
ENDBRANCH   6  10
TORSDOF 2
ENDMDL
MODEL 9
REMARK VINA RESULT:    -3.511      2.446      4.740
REMARK INTER + INTRA:          -3.988
REMARK INTER:                  -3.924
REMARK INTRA:                  -0.063
REMARK UNBOUND:                -0.066
REMARK SMILES COc1ccc(C(=O)[O-])cc1
REMARK SMILES IDX 6 1 5 2 10 3 4 4 11 5 3 6 7 7 8 8 9 9 2 10 1 11
REMARK H PARENT
REMARK Flexibility Score: inf
ROOT
ATOM      1  C   UNL     1      -8.483   9.521  19.677  1.00  0.00    -0.003 A 
ATOM      2  C   UNL     1      -7.584   9.911  18.671  1.00  0.00     0.014 A 
ATOM      3  C   UNL     1      -9.503   8.606  19.363  1.00  0.00     0.014 A 
ATOM      4  C   UNL     1      -7.702   9.396  17.375  1.00  0.00     0.047 A 
ATOM      5  C   UNL     1      -9.619   8.093  18.068  1.00  0.00     0.047 A 
ATOM      6  C   UNL     1      -8.724   8.481  17.065  1.00  0.00     0.118 A 
ENDROOT
BRANCH   1   7
ATOM      7  C   UNL     1      -8.355  10.066  21.047  1.00  0.00     0.071 C 
ATOM      8  O   UNL     1      -7.226  10.380  21.510  1.00  0.00    -0.545 OA
ATOM      9  O   UNL     1      -9.480  10.241  21.844  1.00  0.00    -0.545 OA
ENDBRANCH   1   7
BRANCH   6  10
ATOM     10  O   UNL     1      -8.885   7.937  15.782  1.00  0.00    -0.497 OA
ATOM     11  C   UNL     1      -9.108   6.556  15.517  1.00  0.00     0.278 C 
ENDBRANCH   6  10
TORSDOF 2
ENDMDL
