MODEL 1
REMARK VINA RESULT:    -5.178      0.000      0.000
REMARK INTER + INTRA:          -7.769
REMARK INTER:                  -6.994
REMARK INTRA:                  -0.776
REMARK UNBOUND:                -0.776
REMARK SMILES CC(=O)CCC=C(C)CCC=C(C)C
REMARK SMILES IDX 7 1 6 2 8 3 9 4 10 5 11 6 13 7 12 8 14 9 5 10 4 11 2 12 3 13
REMARK SMILES IDX 1 14
REMARK H PARENT
REMARK Flexibility Score: inf
ROOT
ATOM      1  C   UNL     1     -24.706  14.635 -30.736  1.00  0.00    -0.077 C 
ATOM      2  C   UNL     1     -25.614  15.624 -30.568  1.00  0.00    -0.028 C 
ATOM      3  C   UNL     1     -23.480  14.816 -31.601  1.00  0.00     0.039 C 
ENDROOT
BRANCH   1   4
ATOM      4  C   UNL     1     -24.923  13.314 -30.031  1.00  0.00     0.034 C 
BRANCH   4   5
ATOM      5  C   UNL     1     -25.959  12.463 -30.773  1.00  0.00     0.032 C 
BRANCH   5   6
ATOM      6  C   UNL     1     -27.035  11.986 -29.830  1.00  0.00    -0.028 C 
ATOM      7  C   UNL     1     -29.311  11.875 -28.863  1.00  0.00     0.039 C 
ATOM      8  C   UNL     1     -28.309  12.440 -29.836  1.00  0.00    -0.080 C 
ATOM      9  C   UNL     1     -28.762  13.543 -30.762  1.00  0.00     0.039 C 
ENDBRANCH   5   6
ENDBRANCH   4   5
ENDBRANCH   1   4
BRANCH   2  10
ATOM     10  C   UNL     1     -25.546  16.972 -31.242  1.00  0.00     0.035 C 
BRANCH  10  11
ATOM     11  C   UNL     1     -26.856  17.275 -31.981  1.00  0.00     0.079 C 
BRANCH  11  12
ATOM     12  C   UNL     1     -26.737  18.331 -33.058  1.00  0.00     0.130 C 
ATOM     13  O   UNL     1     -27.756  18.702 -33.620  1.00  0.00    -0.300 OA
ATOM     14  C   UNL     1     -25.423  18.935 -33.470  1.00  0.00     0.087 C 
ENDBRANCH  11  12
ENDBRANCH  10  11
ENDBRANCH   2  10
TORSDOF 6
ENDMDL
MODEL 2
REMARK VINA RESULT:    -5.088      2.560      4.584
REMARK INTER + INTRA:          -7.649
REMARK INTER:                  -7.047
REMARK INTRA:                  -0.602
REMARK UNBOUND:                -0.776
REMARK SMILES CC(=O)CCC=C(C)CCC=C(C)C
REMARK SMILES IDX 7 1 6 2 8 3 9 4 10 5 11 6 13 7 12 8 14 9 5 10 4 11 2 12 3 13
REMARK SMILES IDX 1 14
REMARK H PARENT
REMARK Flexibility Score: inf
ROOT
ATOM      1  C   UNL     1     -27.023  18.086 -32.726  1.00  0.00    -0.077 C 
ATOM      2  C   UNL     1     -25.806  18.546 -33.095  1.00  0.00    -0.028 C 
ATOM      3  C   UNL     1     -28.301  18.725 -33.220  1.00  0.00     0.039 C 
ENDROOT
BRANCH   1   4
ATOM      4  C   UNL     1     -27.105  16.894 -31.799  1.00  0.00     0.034 C 
BRANCH   4   5
ATOM      5  C   UNL     1     -25.784  16.694 -31.048  1.00  0.00     0.032 C 
BRANCH   5   6
ATOM      6  C   UNL     1     -25.686  15.293 -30.499  1.00  0.00    -0.028 C 
ATOM      7  C   UNL     1     -24.627  13.096 -30.077  1.00  0.00     0.039 C 
ATOM      8  C   UNL     1     -24.630  14.470 -30.694  1.00  0.00    -0.080 C 
ATOM      9  C   UNL     1     -23.457  14.864 -31.558  1.00  0.00     0.039 C 
ENDBRANCH   5   6
ENDBRANCH   4   5
ENDBRANCH   1   4
BRANCH   2  10
ATOM     10  C   UNL     1     -25.576  19.749 -33.978  1.00  0.00     0.035 C 
BRANCH  10  11
ATOM     11  C   UNL     1     -24.079  19.932 -34.264  1.00  0.00     0.079 C 
BRANCH  11  12
ATOM     12  C   UNL     1     -23.265  20.378 -33.070  1.00  0.00     0.130 C 
ATOM     13  O   UNL     1     -23.264  21.565 -32.779  1.00  0.00    -0.300 OA
ATOM     14  C   UNL     1     -22.453  19.429 -32.231  1.00  0.00     0.087 C 
ENDBRANCH  11  12
ENDBRANCH  10  11
ENDBRANCH   2  10
TORSDOF 6
ENDMDL
MODEL 3
REMARK VINA RESULT:    -5.063      1.449      1.792
REMARK INTER + INTRA:          -7.615
REMARK INTER:                  -7.188
REMARK INTRA:                  -0.427
REMARK UNBOUND:                -0.776
REMARK SMILES CC(=O)CCC=C(C)CCC=C(C)C
REMARK SMILES IDX 7 1 6 2 8 3 9 4 10 5 11 6 13 7 12 8 14 9 5 10 4 11 2 12 3 13
REMARK SMILES IDX 1 14
REMARK H PARENT
REMARK Flexibility Score: inf
ROOT
ATOM      1  C   UNL     1     -24.833  15.548 -30.912  1.00  0.00    -0.077 C 
ATOM      2  C   UNL     1     -25.050  16.868 -31.115  1.00  0.00    -0.028 C 
ATOM      3  C   UNL     1     -23.639  14.836 -31.505  1.00  0.00     0.039 C 
ENDROOT
BRANCH   1   4
ATOM      4  C   UNL     1     -25.810  14.768 -30.060  1.00  0.00     0.034 C 
BRANCH   4   5
ATOM      5  C   UNL     1     -26.327  13.536 -30.812  1.00  0.00     0.032 C 
BRANCH   5   6
ATOM      6  C   UNL     1     -27.178  12.677 -29.910  1.00  0.00    -0.028 C 
ATOM      7  C   UNL     1     -29.281  11.772 -28.970  1.00  0.00     0.039 C 
ATOM      8  C   UNL     1     -28.530  12.693 -29.897  1.00  0.00    -0.080 C 
ATOM      9  C   UNL     1     -29.329  13.645 -30.753  1.00  0.00     0.039 C 
ENDBRANCH   5   6
ENDBRANCH   4   5
ENDBRANCH   1   4
BRANCH   2  10
ATOM     10  C   UNL     1     -24.183  17.756 -31.974  1.00  0.00     0.035 C 
BRANCH  10  11
ATOM     11  C   UNL     1     -25.038  18.535 -32.983  1.00  0.00     0.079 C 
BRANCH  11  12
ATOM     12  C   UNL     1     -24.269  19.543 -33.808  1.00  0.00     0.130 C 
ATOM     13  O   UNL     1     -24.724  19.871 -34.894  1.00  0.00    -0.300 OA
ATOM     14  C   UNL     1     -22.970  20.151 -33.356  1.00  0.00     0.087 C 
ENDBRANCH  11  12
ENDBRANCH  10  11
ENDBRANCH   2  10
TORSDOF 6
ENDMDL
MODEL 4
REMARK VINA RESULT:    -5.061      1.570      2.722
REMARK INTER + INTRA:          -7.612
REMARK INTER:                  -6.797
REMARK INTRA:                  -0.815
REMARK UNBOUND:                -0.776
REMARK SMILES CC(=O)CCC=C(C)CCC=C(C)C
REMARK SMILES IDX 7 1 6 2 8 3 9 4 10 5 11 6 13 7 12 8 14 9 5 10 4 11 2 12 3 13
REMARK SMILES IDX 1 14
REMARK H PARENT
REMARK Flexibility Score: inf
ROOT
ATOM      1  C   UNL     1     -25.921  17.313 -31.714  1.00  0.00    -0.077 C 
ATOM      2  C   UNL     1     -27.206  17.319 -32.137  1.00  0.00    -0.028 C 
ATOM      3  C   UNL     1     -24.835  18.062 -32.452  1.00  0.00     0.039 C 
ENDROOT
BRANCH   1   4
ATOM      4  C   UNL     1     -25.566  16.540 -30.464  1.00  0.00     0.034 C 
BRANCH   4   5
ATOM      5  C   UNL     1     -25.063  15.134 -30.815  1.00  0.00     0.032 C 
BRANCH   5   6
ATOM      6  C   UNL     1     -25.616  14.112 -29.853  1.00  0.00    -0.028 C 
ATOM      7  C   UNL     1     -27.227  12.430 -29.017  1.00  0.00     0.039 C 
ATOM      8  C   UNL     1     -26.782  13.451 -30.032  1.00  0.00    -0.080 C 
ATOM      9  C   UNL     1     -27.693  13.734 -31.201  1.00  0.00     0.039 C 
ENDBRANCH   5   6
ENDBRANCH   4   5
ENDBRANCH   1   4
BRANCH   2  10
ATOM     10  C   UNL     1     -27.693  18.011 -33.387  1.00  0.00     0.035 C 
BRANCH  10  11
ATOM     11  C   UNL     1     -28.292  19.384 -33.048  1.00  0.00     0.079 C 
BRANCH  11  12
ATOM     12  C   UNL     1     -27.552  20.556 -33.654  1.00  0.00     0.130 C 
ATOM     13  O   UNL     1     -27.753  21.669 -33.193  1.00  0.00    -0.300 OA
ATOM     14  C   UNL     1     -26.590  20.412 -34.801  1.00  0.00     0.087 C 
ENDBRANCH  11  12
ENDBRANCH  10  11
ENDBRANCH   2  10
TORSDOF 6
ENDMDL
MODEL 5
REMARK VINA RESULT:    -5.030      2.617      6.634
REMARK INTER + INTRA:          -7.569
REMARK INTER:                  -6.688
REMARK INTRA:                  -0.881
REMARK UNBOUND:                -0.776
REMARK SMILES CC(=O)CCC=C(C)CCC=C(C)C
REMARK SMILES IDX 7 1 6 2 8 3 9 4 10 5 11 6 13 7 12 8 14 9 5 10 4 11 2 12 3 13
REMARK SMILES IDX 1 14
REMARK H PARENT
REMARK Flexibility Score: inf
ROOT
ATOM      1  C   UNL     1     -23.441  19.116 -32.995  1.00  0.00    -0.077 C 
ATOM      2  C   UNL     1     -24.132  18.023 -32.596  1.00  0.00    -0.028 C 
ATOM      3  C   UNL     1     -22.566  19.898 -32.043  1.00  0.00     0.039 C 
ENDROOT
BRANCH   1   4
ATOM      4  C   UNL     1     -23.544  19.561 -34.437  1.00  0.00     0.034 C 
BRANCH   4   5
ATOM      5  C   UNL     1     -24.971  19.373 -34.966  1.00  0.00     0.032 C 
BRANCH   5   6
ATOM      6  C   UNL     1     -25.868  20.492 -34.498  1.00  0.00    -0.028 C 
ATOM      7  C   UNL     1     -27.798  21.507 -33.328  1.00  0.00     0.039 C 
ATOM      8  C   UNL     1     -26.989  20.313 -33.763  1.00  0.00    -0.080 C 
ATOM      9  C   UNL     1     -27.495  18.939 -33.395  1.00  0.00     0.039 C 
ENDBRANCH   5   6
ENDBRANCH   4   5
ENDBRANCH   1   4
BRANCH   2  10
ATOM     10  C   UNL     1     -24.154  17.494 -31.183  1.00  0.00     0.035 C 
BRANCH  10  11
ATOM     11  C   UNL     1     -25.340  16.540 -30.981  1.00  0.00     0.079 C 
BRANCH  11  12
ATOM     12  C   UNL     1     -24.951  15.090 -30.795  1.00  0.00     0.130 C 
ATOM     13  O   UNL     1     -23.885  14.712 -31.258  1.00  0.00    -0.300 OA
ATOM     14  C   UNL     1     -25.818  14.095 -30.074  1.00  0.00     0.087 C 
ENDBRANCH  11  12
ENDBRANCH  10  11
ENDBRANCH   2  10
TORSDOF 6
ENDMDL
MODEL 6
REMARK VINA RESULT:    -5.016      2.747      6.795
REMARK INTER + INTRA:          -7.552
REMARK INTER:                  -7.116
REMARK INTRA:                  -0.436
REMARK UNBOUND:                -0.776
REMARK SMILES CC(=O)CCC=C(C)CCC=C(C)C
REMARK SMILES IDX 7 1 6 2 8 3 9 4 10 5 11 6 13 7 12 8 14 9 5 10 4 11 2 12 3 13
REMARK SMILES IDX 1 14
REMARK H PARENT
REMARK Flexibility Score: inf
ROOT
ATOM      1  C   UNL     1     -24.933  15.309 -30.808  1.00  0.00    -0.077 C 
ATOM      2  C   UNL     1     -25.774  14.489 -30.137  1.00  0.00    -0.028 C 
ATOM      3  C   UNL     1     -23.674  14.795 -31.467  1.00  0.00     0.039 C 
ENDROOT
BRANCH   1   4
ATOM      4  C   UNL     1     -25.271  16.780 -30.909  1.00  0.00     0.034 C 
BRANCH   4   5
ATOM      5  C   UNL     1     -24.178  17.540 -31.669  1.00  0.00     0.032 C 
BRANCH   5   6
ATOM      6  C   UNL     1     -24.755  18.247 -32.870  1.00  0.00    -0.028 C 
ATOM      7  C   UNL     1     -24.795  19.873 -34.736  1.00  0.00     0.039 C 
ATOM      8  C   UNL     1     -24.137  19.254 -33.530  1.00  0.00    -0.080 C 
ATOM      9  C   UNL     1     -22.817  19.822 -33.071  1.00  0.00     0.039 C 
ENDBRANCH   5   6
ENDBRANCH   4   5
ENDBRANCH   1   4
BRANCH   2  10
ATOM     10  C   UNL     1     -25.540  13.013 -29.923  1.00  0.00     0.035 C 
BRANCH  10  11
ATOM     11  C   UNL     1     -26.837  12.222 -30.145  1.00  0.00     0.079 C 
BRANCH  11  12
ATOM     12  C   UNL     1     -27.623  11.943 -28.883  1.00  0.00     0.130 C 
ATOM     13  O   UNL     1     -27.030  11.476 -27.922  1.00  0.00    -0.300 OA
ATOM     14  C   UNL     1     -29.099  12.207 -28.762  1.00  0.00     0.087 C 
ENDBRANCH  11  12
ENDBRANCH  10  11
ENDBRANCH   2  10
TORSDOF 6
ENDMDL
MODEL 7
REMARK VINA RESULT:    -4.986      2.701      6.106
REMARK INTER + INTRA:          -7.510
REMARK INTER:                  -6.993
REMARK INTRA:                  -0.517
REMARK UNBOUND:                -0.776
REMARK SMILES CC(=O)CCC=C(C)CCC=C(C)C
REMARK SMILES IDX 7 1 6 2 8 3 9 4 10 5 11 6 13 7 12 8 14 9 5 10 4 11 2 12 3 13
REMARK SMILES IDX 1 14
REMARK H PARENT
REMARK Flexibility Score: inf
ROOT
ATOM      1  C   UNL     1     -25.253  14.739 -30.502  1.00  0.00    -0.077 C 
ATOM      2  C   UNL     1     -26.134  13.751 -30.223  1.00  0.00    -0.028 C 
ATOM      3  C   UNL     1     -23.907  14.455 -31.128  1.00  0.00     0.039 C 
ENDROOT
BRANCH   1   4
ATOM      4  C   UNL     1     -25.632  16.169 -30.185  1.00  0.00     0.034 C 
BRANCH   4   5
ATOM      5  C   UNL     1     -25.510  17.055 -31.430  1.00  0.00     0.032 C 
BRANCH   5   6
ATOM      6  C   UNL     1     -26.869  17.338 -32.022  1.00  0.00    -0.028 C 
ATOM      7  C   UNL     1     -28.496  18.426 -33.536  1.00  0.00     0.039 C 
ATOM      8  C   UNL     1     -27.100  18.242 -33.001  1.00  0.00    -0.080 C 
ATOM      9  C   UNL     1     -26.005  19.121 -33.555  1.00  0.00     0.039 C 
ENDBRANCH   5   6
ENDBRANCH   4   5
ENDBRANCH   1   4
BRANCH   2  10
ATOM     10  C   UNL     1     -25.871  12.282 -30.446  1.00  0.00     0.035 C 
BRANCH  10  11
ATOM     11  C   UNL     1     -27.159  11.467 -30.262  1.00  0.00     0.079 C 
BRANCH  11  12
ATOM     12  C   UNL     1     -27.777  11.578 -28.886  1.00  0.00     0.130 C 
ATOM     13  O   UNL     1     -27.129  11.189 -27.926  1.00  0.00    -0.300 OA
ATOM     14  C   UNL     1     -29.153  12.137 -28.649  1.00  0.00     0.087 C 
ENDBRANCH  11  12
ENDBRANCH  10  11
ENDBRANCH   2  10
TORSDOF 6
ENDMDL
MODEL 8
REMARK VINA RESULT:    -4.952      2.703      6.519
REMARK INTER + INTRA:          -7.465
REMARK INTER:                  -7.006
REMARK INTRA:                  -0.459
REMARK UNBOUND:                -0.776
REMARK SMILES CC(=O)CCC=C(C)CCC=C(C)C
REMARK SMILES IDX 7 1 6 2 8 3 9 4 10 5 11 6 13 7 12 8 14 9 5 10 4 11 2 12 3 13
REMARK SMILES IDX 1 14
REMARK H PARENT
REMARK Flexibility Score: inf
ROOT
ATOM      1  C   UNL     1     -25.394  15.159 -30.674  1.00  0.00    -0.077 C 
ATOM      2  C   UNL     1     -26.627  14.604 -30.637  1.00  0.00    -0.028 C 
ATOM      3  C   UNL     1     -24.149  14.326 -30.877  1.00  0.00     0.039 C 
ENDROOT
BRANCH   1   4
ATOM      4  C   UNL     1     -25.260  16.658 -30.516  1.00  0.00     0.034 C 
BRANCH   4   5
ATOM      5  C   UNL     1     -25.348  17.360 -31.876  1.00  0.00     0.032 C 
BRANCH   5   6
ATOM      6  C   UNL     1     -24.065  18.088 -32.186  1.00  0.00    -0.028 C 
ATOM      7  C   UNL     1     -22.620  19.743 -33.326  1.00  0.00     0.039 C 
ATOM      8  C   UNL     1     -23.948  19.065 -33.115  1.00  0.00    -0.080 C 
ATOM      9  C   UNL     1     -25.103  19.475 -33.996  1.00  0.00     0.039 C 
ENDBRANCH   5   6
ENDBRANCH   4   5
ENDBRANCH   1   4
BRANCH   2  10
ATOM     10  C   UNL     1     -26.903  13.124 -30.739  1.00  0.00     0.035 C 
BRANCH  10  11
ATOM     11  C   UNL     1     -27.479  12.589 -29.421  1.00  0.00     0.079 C 
BRANCH  11  12
ATOM     12  C   UNL     1     -28.971  12.340 -29.446  1.00  0.00     0.130 C 
ATOM     13  O   UNL     1     -29.463  11.672 -28.550  1.00  0.00    -0.300 OA
ATOM     14  C   UNL     1     -29.872  12.872 -30.527  1.00  0.00     0.087 C 
ENDBRANCH  11  12
ENDBRANCH  10  11
ENDBRANCH   2  10
TORSDOF 6
ENDMDL
MODEL 9
REMARK VINA RESULT:    -4.887      2.626      5.564
REMARK INTER + INTRA:          -7.377
REMARK INTER:                  -6.579
REMARK INTRA:                  -0.798
REMARK UNBOUND:                -0.776
REMARK SMILES CC(=O)CCC=C(C)CCC=C(C)C
REMARK SMILES IDX 7 1 6 2 8 3 9 4 10 5 11 6 13 7 12 8 14 9 5 10 4 11 2 12 3 13
REMARK SMILES IDX 1 14
REMARK H PARENT
REMARK Flexibility Score: inf
ROOT
ATOM      1  C   UNL     1     -25.202  13.515 -30.122  1.00  0.00    -0.077 C 
ATOM      2  C   UNL     1     -26.460  13.344 -29.653  1.00  0.00    -0.028 C 
ATOM      3  C   UNL     1     -24.149  12.439 -29.993  1.00  0.00     0.039 C 
ENDROOT
BRANCH   1   4
ATOM      4  C   UNL     1     -24.846  14.818 -30.802  1.00  0.00     0.034 C 
BRANCH   4   5
ATOM      5  C   UNL     1     -25.655  15.980 -30.215  1.00  0.00     0.032 C 
BRANCH   5   6
ATOM      6  C   UNL     1     -25.982  16.998 -31.279  1.00  0.00    -0.028 C 
ATOM      7  C   UNL     1     -27.333  18.051 -33.065  1.00  0.00     0.039 C 
ATOM      8  C   UNL     1     -27.095  16.966 -32.047  1.00  0.00    -0.080 C 
ATOM      9  C   UNL     1     -28.100  15.844 -31.955  1.00  0.00     0.039 C 
ENDBRANCH   5   6
ENDBRANCH   4   5
ENDBRANCH   1   4
BRANCH   2  10
ATOM     10  C   UNL     1     -26.939  12.116 -28.919  1.00  0.00     0.035 C 
BRANCH  10  11
ATOM     11  C   UNL     1     -28.441  12.218 -28.616  1.00  0.00     0.079 C 
BRANCH  11  12
ATOM     12  C   UNL     1     -29.339  11.825 -29.768  1.00  0.00     0.130 C 
ATOM     13  O   UNL     1     -29.446  10.639 -30.041  1.00  0.00    -0.300 OA
ATOM     14  C   UNL     1     -30.099  12.828 -30.592  1.00  0.00     0.087 C 
ENDBRANCH  11  12
ENDBRANCH  10  11
ENDBRANCH   2  10
TORSDOF 6
ENDMDL
