MODEL 1
REMARK VINA RESULT:     0.838      0.000      0.000
REMARK INTER + INTRA:           0.665
REMARK INTER:                   1.034
REMARK INTRA:                  -0.369
REMARK UNBOUND:                -0.369
REMARK SMILES O=c1c(O)c(-c2cc(O)c(O)c(O)c2)oc2cc(O)cc(O)c12
REMARK SMILES IDX 5 1 3 2 2 3 1 4 23 5 21 6 20 7 18 8 17 9 16 10 15 11 6 12
REMARK SMILES IDX 7 13 8 14 14 15 10 16 12 17 9 18 11 20 13 22 4 24 22 26
REMARK SMILES IDX 19 28
REMARK H PARENT 9 19 11 21 13 23 4 25 22 27 19 29
REMARK Flexibility Score: inf
ROOT
ATOM      1  C   UNL     1     -12.091 -16.592  31.577  1.00  0.00     0.180 A 
ATOM      2  C   UNL     1     -12.597 -17.903  31.599  1.00  0.00     0.208 A 
ATOM      3  C   UNL     1     -12.565 -18.666  30.419  1.00  0.00     0.238 A 
ATOM      4  O   UNL     1     -13.070 -19.818  30.431  1.00  0.00    -0.285 OA
ATOM      5  C   UNL     1     -12.013 -18.114  29.239  1.00  0.00     0.111 A 
ATOM      6  C   UNL     1     -11.891 -18.810  27.998  1.00  0.00     0.134 A 
ATOM      7  C   UNL     1     -11.449 -18.123  26.861  1.00  0.00     0.093 A 
ATOM      8  C   UNL     1     -11.060 -16.783  26.936  1.00  0.00     0.123 A 
ATOM      9  C   UNL     1     -11.118 -16.112  28.155  1.00  0.00     0.094 A 
ATOM     10  C   UNL     1     -11.590 -16.760  29.299  1.00  0.00     0.146 A 
ATOM     11  O   UNL     1     -11.639 -16.081  30.438  1.00  0.00    -0.452 OA
ENDROOT
BRANCH   1  12
ATOM     12  C   UNL     1     -12.068 -15.737  32.785  1.00  0.00     0.029 A 
ATOM     13  C   UNL     1     -13.129 -14.852  33.025  1.00  0.00     0.062 A 
ATOM     14  C   UNL     1     -13.124 -14.016  34.147  1.00  0.00     0.162 A 
ATOM     15  C   UNL     1     -10.975 -15.750  33.669  1.00  0.00     0.062 A 
ATOM     16  C   UNL     1     -12.040 -14.048  35.040  1.00  0.00     0.200 A 
ATOM     17  C   UNL     1     -10.960 -14.915  34.795  1.00  0.00     0.162 A 
BRANCH  14  18
ATOM     18  O   UNL     1     -14.205 -13.161  34.357  1.00  0.00    -0.504 OA
ATOM     19  H   UNL     1     -14.650 -13.067  35.262  1.00  0.00     0.293 HD
ENDBRANCH  14  18
BRANCH  16  20
ATOM     20  O   UNL     1     -12.043 -13.214  36.159  1.00  0.00    -0.502 OA
ATOM     21  H   UNL     1     -12.591 -12.363  36.197  1.00  0.00     0.293 HD
ENDBRANCH  16  20
BRANCH  17  22
ATOM     22  O   UNL     1      -9.875 -14.941  35.669  1.00  0.00    -0.504 OA
ATOM     23  H   UNL     1      -9.565 -15.801  36.106  1.00  0.00     0.293 HD
ENDBRANCH  17  22
ENDBRANCH   1  12
BRANCH   2  24
ATOM     24  O   UNL     1     -13.159 -18.420  32.769  1.00  0.00    -0.502 OA
ATOM     25  H   UNL     1     -12.600 -18.664  33.579  1.00  0.00     0.293 HD
ENDBRANCH   2  24
BRANCH   6  26
ATOM     26  O   UNL     1     -12.166 -20.171  27.838  1.00  0.00    -0.507 OA
ATOM     27  H   UNL     1     -12.683 -20.567  27.066  1.00  0.00     0.293 HD
ENDBRANCH   6  26
BRANCH   8  28
ATOM     28  O   UNL     1     -10.606 -16.110  25.803  1.00  0.00    -0.508 OA
ATOM     29  H   UNL     1     -11.037 -16.249  24.896  1.00  0.00     0.293 HD
ENDBRANCH   8  28
TORSDOF 7
ENDMDL
MODEL 2
REMARK VINA RESULT:     0.872      1.216      2.741
REMARK INTER + INTRA:           0.707
REMARK INTER:                   0.931
REMARK INTRA:                  -0.223
REMARK UNBOUND:                -0.369
REMARK SMILES O=c1c(O)c(-c2cc(O)c(O)c(O)c2)oc2cc(O)cc(O)c12
REMARK SMILES IDX 5 1 3 2 2 3 1 4 23 5 21 6 20 7 18 8 17 9 16 10 15 11 6 12
REMARK SMILES IDX 7 13 8 14 14 15 10 16 12 17 9 18 11 20 13 22 4 24 22 26
REMARK SMILES IDX 19 28
REMARK H PARENT 9 19 11 21 13 23 4 25 22 27 19 29
REMARK Flexibility Score: inf
ROOT
ATOM      1  C   UNL     1     -11.681 -16.301  31.234  1.00  0.00     0.180 A 
ATOM      2  C   UNL     1     -10.781 -15.858  30.249  1.00  0.00     0.208 A 
ATOM      3  C   UNL     1     -10.724 -16.539  29.022  1.00  0.00     0.238 A 
ATOM      4  O   UNL     1      -9.879 -16.172  28.165  1.00  0.00    -0.285 OA
ATOM      5  C   UNL     1     -11.577 -17.644  28.790  1.00  0.00     0.111 A 
ATOM      6  C   UNL     1     -11.634 -18.384  27.570  1.00  0.00     0.134 A 
ATOM      7  C   UNL     1     -12.421 -19.539  27.498  1.00  0.00     0.093 A 
ATOM      8  C   UNL     1     -13.206 -19.944  28.580  1.00  0.00     0.123 A 
ATOM      9  C   UNL     1     -13.204 -19.196  29.755  1.00  0.00     0.094 A 
ATOM     10  C   UNL     1     -12.401 -18.059  29.869  1.00  0.00     0.146 A 
ATOM     11  O   UNL     1     -12.421 -17.381  31.011  1.00  0.00    -0.452 OA
ENDROOT
BRANCH   1  12
ATOM     12  C   UNL     1     -11.815 -15.620  32.542  1.00  0.00     0.029 A 
ATOM     13  C   UNL     1     -12.979 -14.891  32.824  1.00  0.00     0.062 A 
ATOM     14  C   UNL     1     -13.125 -14.220  34.043  1.00  0.00     0.162 A 
ATOM     15  C   UNL     1     -10.774 -15.640  33.487  1.00  0.00     0.062 A 
ATOM     16  C   UNL     1     -12.091 -14.260  34.993  1.00  0.00     0.200 A 
ATOM     17  C   UNL     1     -10.910 -14.969  34.710  1.00  0.00     0.162 A 
BRANCH  14  18
ATOM     18  O   UNL     1     -14.304 -13.518  34.291  1.00  0.00    -0.504 OA
ATOM     19  H   UNL     1     -15.063 -13.486  33.622  1.00  0.00     0.293 HD
ENDBRANCH  14  18
BRANCH  16  20
ATOM     20  O   UNL     1     -12.244 -13.591  36.208  1.00  0.00    -0.502 OA
ATOM     21  H   UNL     1     -13.067 -13.705  36.789  1.00  0.00     0.293 HD
ENDBRANCH  16  20
BRANCH  17  22
ATOM     22  O   UNL     1      -9.875 -15.001  35.642  1.00  0.00    -0.504 OA
ATOM     23  H   UNL     1      -8.937 -14.698  35.405  1.00  0.00     0.293 HD
ENDBRANCH  17  22
ENDBRANCH   1  12
BRANCH   2  24
ATOM     24  O   UNL     1      -9.932 -14.779  30.507  1.00  0.00    -0.502 OA
ATOM     25  H   UNL     1     -10.010 -13.896  30.016  1.00  0.00     0.293 HD
ENDBRANCH   2  24
BRANCH   6  26
ATOM     26  O   UNL     1     -10.960 -18.013  26.402  1.00  0.00    -0.507 OA
ATOM     27  H   UNL     1     -10.457 -18.649  25.801  1.00  0.00     0.293 HD
ENDBRANCH   6  26
BRANCH   8  28
ATOM     28  O   UNL     1     -14.000 -21.086  28.494  1.00  0.00    -0.508 OA
ATOM     29  H   UNL     1     -14.669 -21.322  29.218  1.00  0.00     0.293 HD
ENDBRANCH   8  28
TORSDOF 7
ENDMDL
MODEL 3
REMARK VINA RESULT:     1.280      1.217      3.264
REMARK INTER + INTRA:           1.210
REMARK INTER:                   1.453
REMARK INTRA:                  -0.243
REMARK UNBOUND:                -0.369
REMARK SMILES O=c1c(O)c(-c2cc(O)c(O)c(O)c2)oc2cc(O)cc(O)c12
REMARK SMILES IDX 5 1 3 2 2 3 1 4 23 5 21 6 20 7 18 8 17 9 16 10 15 11 6 12
REMARK SMILES IDX 7 13 8 14 14 15 10 16 12 17 9 18 11 20 13 22 4 24 22 26
REMARK SMILES IDX 19 28
REMARK H PARENT 9 19 11 21 13 23 4 25 22 27 19 29
REMARK Flexibility Score: inf
ROOT
ATOM      1  C   UNL     1     -11.710 -16.248  31.249  1.00  0.00     0.180 A 
ATOM      2  C   UNL     1     -10.818 -15.825  30.249  1.00  0.00     0.208 A 
ATOM      3  C   UNL     1     -10.755 -16.542  29.043  1.00  0.00     0.238 A 
ATOM      4  O   UNL     1      -9.915 -16.192  28.174  1.00  0.00    -0.285 OA
ATOM      5  C   UNL     1     -11.597 -17.663  28.846  1.00  0.00     0.111 A 
ATOM      6  C   UNL     1     -11.647 -18.439  27.648  1.00  0.00     0.134 A 
ATOM      7  C   UNL     1     -12.422 -19.604  27.612  1.00  0.00     0.093 A 
ATOM      8  C   UNL     1     -13.201 -19.984  28.708  1.00  0.00     0.123 A 
ATOM      9  C   UNL     1     -13.206 -19.202  29.859  1.00  0.00     0.094 A 
ATOM     10  C   UNL     1     -12.414 -18.053  29.939  1.00  0.00     0.146 A 
ATOM     11  O   UNL     1     -12.439 -17.341  31.059  1.00  0.00    -0.452 OA
ENDROOT
BRANCH   1  12
ATOM     12  C   UNL     1     -11.850 -15.529  32.535  1.00  0.00     0.029 A 
ATOM     13  C   UNL     1     -10.817 -15.599  33.481  1.00  0.00     0.062 A 
ATOM     14  C   UNL     1     -10.931 -14.948  34.714  1.00  0.00     0.162 A 
ATOM     15  C   UNL     1     -13.024 -14.824  32.855  1.00  0.00     0.062 A 
ATOM     16  C   UNL     1     -12.097 -14.226  35.020  1.00  0.00     0.200 A 
ATOM     17  C   UNL     1     -13.147 -14.170  34.088  1.00  0.00     0.162 A 
BRANCH  14  18
ATOM     18  O   UNL     1      -9.875 -15.030  35.621  1.00  0.00    -0.504 OA
ATOM     19  H   UNL     1     -10.001 -15.373  36.565  1.00  0.00     0.293 HD
ENDBRANCH  14  18
BRANCH  16  20
ATOM     20  O   UNL     1     -12.202 -13.576  36.251  1.00  0.00    -0.502 OA
ATOM     21  H   UNL     1     -12.102 -14.067  37.132  1.00  0.00     0.293 HD
ENDBRANCH  16  20
BRANCH  17  22
ATOM     22  O   UNL     1     -14.312 -13.467  34.392  1.00  0.00    -0.504 OA
ATOM     23  H   UNL     1     -14.682 -13.434  35.335  1.00  0.00     0.293 HD
ENDBRANCH  17  22
ENDBRANCH   1  12
BRANCH   2  24
ATOM     24  O   UNL     1      -9.980 -14.730  30.473  1.00  0.00    -0.502 OA
ATOM     25  H   UNL     1     -10.241 -13.784  30.220  1.00  0.00     0.293 HD
ENDBRANCH   2  24
BRANCH   6  26
ATOM     26  O   UNL     1     -10.980 -18.096  26.469  1.00  0.00    -0.507 OA
ATOM     27  H   UNL     1     -11.291 -17.393  25.815  1.00  0.00     0.293 HD
ENDBRANCH   6  26
BRANCH   8  28
ATOM     28  O   UNL     1     -13.983 -21.137  28.658  1.00  0.00    -0.508 OA
ATOM     29  H   UNL     1     -14.873 -21.153  28.174  1.00  0.00     0.293 HD
ENDBRANCH   8  28
TORSDOF 7
ENDMDL
MODEL 4
REMARK VINA RESULT:     2.025      2.002      2.811
REMARK INTER + INTRA:           2.130
REMARK INTER:                   1.629
REMARK INTRA:                   0.500
REMARK UNBOUND:                -0.369
REMARK SMILES O=c1c(O)c(-c2cc(O)c(O)c(O)c2)oc2cc(O)cc(O)c12
REMARK SMILES IDX 5 1 3 2 2 3 1 4 23 5 21 6 20 7 18 8 17 9 16 10 15 11 6 12
REMARK SMILES IDX 7 13 8 14 14 15 10 16 12 17 9 18 11 20 13 22 4 24 22 26
REMARK SMILES IDX 19 28
REMARK H PARENT 9 19 11 21 13 23 4 25 22 27 19 29
REMARK Flexibility Score: inf
ROOT
ATOM      1  C   UNL     1     -12.511 -15.303  30.376  1.00  0.00     0.180 A 
ATOM      2  C   UNL     1     -13.537 -14.631  29.691  1.00  0.00     0.208 A 
ATOM      3  C   UNL     1     -13.681 -14.836  28.308  1.00  0.00     0.238 A 
ATOM      4  O   UNL     1     -14.567 -14.189  27.691  1.00  0.00    -0.285 OA
ATOM      5  C   UNL     1     -12.808 -15.721  27.633  1.00  0.00     0.111 A 
ATOM      6  C   UNL     1     -12.888 -16.035  26.242  1.00  0.00     0.134 A 
ATOM      7  C   UNL     1     -11.891 -16.823  25.654  1.00  0.00     0.093 A 
ATOM      8  C   UNL     1     -10.855 -17.363  26.420  1.00  0.00     0.123 A 
ATOM      9  C   UNL     1     -10.802 -17.112  27.788  1.00  0.00     0.094 A 
ATOM     10  C   UNL     1     -11.761 -16.299  28.397  1.00  0.00     0.146 A 
ATOM     11  O   UNL     1     -11.667 -16.076  29.703  1.00  0.00    -0.452 OA
ENDROOT
BRANCH   1  12
ATOM     12  C   UNL     1     -12.312 -15.157  31.836  1.00  0.00     0.029 A 
ATOM     13  C   UNL     1     -13.235 -14.418  32.589  1.00  0.00     0.062 A 
ATOM     14  C   UNL     1     -13.061 -14.245  33.966  1.00  0.00     0.162 A 
ATOM     15  C   UNL     1     -11.182 -15.696  32.477  1.00  0.00     0.062 A 
ATOM     16  C   UNL     1     -11.942 -14.804  34.606  1.00  0.00     0.200 A 
ATOM     17  C   UNL     1     -10.998 -15.527  33.856  1.00  0.00     0.162 A 
BRANCH  14  18
ATOM     18  O   UNL     1     -14.010 -13.515  34.681  1.00  0.00    -0.504 OA
ATOM     19  H   UNL     1     -14.863 -13.936  35.029  1.00  0.00     0.293 HD
ENDBRANCH  14  18
BRANCH  16  20
ATOM     20  O   UNL     1     -11.777 -14.631  35.981  1.00  0.00    -0.502 OA
ATOM     21  H   UNL     1     -11.172 -13.915  36.367  1.00  0.00     0.293 HD
ENDBRANCH  16  20
BRANCH  17  22
ATOM     22  O   UNL     1      -9.879 -16.072  34.483  1.00  0.00    -0.504 OA
ATOM     23  H   UNL     1      -9.173 -16.580  33.962  1.00  0.00     0.293 HD
ENDBRANCH  17  22
ENDBRANCH   1  12
BRANCH   2  24
ATOM     24  O   UNL     1     -14.374 -13.744  30.373  1.00  0.00    -0.502 OA
ATOM     25  H   UNL     1     -14.526 -13.799  31.373  1.00  0.00     0.293 HD
ENDBRANCH   2  24
BRANCH   6  26
ATOM     26  O   UNL     1     -13.931 -15.623  25.408  1.00  0.00    -0.507 OA
ATOM     27  H   UNL     1     -14.582 -14.882  25.625  1.00  0.00     0.293 HD
ENDBRANCH   6  26
BRANCH   8  28
ATOM     28  O   UNL     1      -9.875 -18.160  25.829  1.00  0.00    -0.508 OA
ATOM     29  H   UNL     1      -8.888 -17.976  25.968  1.00  0.00     0.293 HD
ENDBRANCH   8  28
TORSDOF 7
ENDMDL
MODEL 5
REMARK VINA RESULT:     2.092      3.358      5.992
REMARK INTER + INTRA:           2.212
REMARK INTER:                   2.521
REMARK INTRA:                  -0.309
REMARK UNBOUND:                -0.369
REMARK SMILES O=c1c(O)c(-c2cc(O)c(O)c(O)c2)oc2cc(O)cc(O)c12
REMARK SMILES IDX 5 1 3 2 2 3 1 4 23 5 21 6 20 7 18 8 17 9 16 10 15 11 6 12
REMARK SMILES IDX 7 13 8 14 14 15 10 16 12 17 9 18 11 20 13 22 4 24 22 26
REMARK SMILES IDX 19 28
REMARK H PARENT 9 19 11 21 13 23 4 25 22 27 19 29
REMARK Flexibility Score: inf
ROOT
ATOM      1  C   UNL     1     -12.932 -15.783  30.397  1.00  0.00     0.180 A 
ATOM      2  C   UNL     1     -12.480 -15.125  29.240  1.00  0.00     0.208 A 
ATOM      3  C   UNL     1     -13.254 -14.082  28.703  1.00  0.00     0.238 A 
ATOM      4  O   UNL     1     -12.872 -13.534  27.637  1.00  0.00    -0.285 OA
ATOM      5  C   UNL     1     -14.459 -13.702  29.338  1.00  0.00     0.111 A 
ATOM      6  C   UNL     1     -15.302 -12.633  28.906  1.00  0.00     0.134 A 
ATOM      7  C   UNL     1     -16.537 -12.429  29.533  1.00  0.00     0.093 A 
ATOM      8  C   UNL     1     -16.929 -13.213  30.621  1.00  0.00     0.123 A 
ATOM      9  C   UNL     1     -16.088 -14.219  31.089  1.00  0.00     0.094 A 
ATOM     10  C   UNL     1     -14.866 -14.470  30.460  1.00  0.00     0.146 A 
ATOM     11  O   UNL     1     -14.099 -15.446  30.932  1.00  0.00    -0.452 OA
ENDROOT
BRANCH   1  12
ATOM     12  C   UNL     1     -12.160 -16.874  31.035  1.00  0.00     0.029 A 
ATOM     13  C   UNL     1     -11.381 -16.598  32.167  1.00  0.00     0.062 A 
ATOM     14  C   UNL     1     -10.625 -17.604  32.778  1.00  0.00     0.162 A 
ATOM     15  C   UNL     1     -12.145 -18.172  30.493  1.00  0.00     0.062 A 
ATOM     16  C   UNL     1     -10.630 -18.905  32.247  1.00  0.00     0.200 A 
ATOM     17  C   UNL     1     -11.389 -19.186  31.097  1.00  0.00     0.162 A 
BRANCH  14  18
ATOM     18  O   UNL     1      -9.875 -17.292  33.911  1.00  0.00    -0.504 OA
ATOM     19  H   UNL     1     -10.289 -16.866  34.731  1.00  0.00     0.293 HD
ENDBRANCH  14  18
BRANCH  16  20
ATOM     20  O   UNL     1      -9.876 -19.904  32.862  1.00  0.00    -0.502 OA
ATOM     21  H   UNL     1      -9.916 -20.873  32.566  1.00  0.00     0.293 HD
ENDBRANCH  16  20
BRANCH  17  22
ATOM     22  O   UNL     1     -11.387 -20.470  30.557  1.00  0.00    -0.504 OA
ATOM     23  H   UNL     1     -12.215 -20.867  30.127  1.00  0.00     0.293 HD
ENDBRANCH  17  22
ENDBRANCH   1  12
BRANCH   2  24
ATOM     24  O   UNL     1     -11.298 -15.532  28.616  1.00  0.00    -0.502 OA
ATOM     25  H   UNL     1     -10.560 -16.017  29.113  1.00  0.00     0.293 HD
ENDBRANCH   2  24
BRANCH   6  26
ATOM     26  O   UNL     1     -14.962 -11.735  27.889  1.00  0.00    -0.507 OA
ATOM     27  H   UNL     1     -14.795 -10.749  28.025  1.00  0.00     0.293 HD
ENDBRANCH   6  26
BRANCH   8  28
ATOM     28  O   UNL     1     -18.153 -12.993  31.250  1.00  0.00    -0.508 OA
ATOM     29  H   UNL     1     -18.589 -13.704  31.825  1.00  0.00     0.293 HD
ENDBRANCH   8  28
TORSDOF 7
ENDMDL
MODEL 6
REMARK VINA RESULT:     2.378      3.206      4.800
REMARK INTER + INTRA:           2.566
REMARK INTER:                   2.912
REMARK INTRA:                  -0.347
REMARK UNBOUND:                -0.369
REMARK SMILES O=c1c(O)c(-c2cc(O)c(O)c(O)c2)oc2cc(O)cc(O)c12
REMARK SMILES IDX 5 1 3 2 2 3 1 4 23 5 21 6 20 7 18 8 17 9 16 10 15 11 6 12
REMARK SMILES IDX 7 13 8 14 14 15 10 16 12 17 9 18 11 20 13 22 4 24 22 26
REMARK SMILES IDX 19 28
REMARK H PARENT 9 19 11 21 13 23 4 25 22 27 19 29
REMARK Flexibility Score: inf
ROOT
ATOM      1  C   UNL     1     -13.275 -15.816  30.634  1.00  0.00     0.180 A 
ATOM      2  C   UNL     1     -12.459 -15.830  31.778  1.00  0.00     0.208 A 
ATOM      3  C   UNL     1     -11.662 -16.958  32.034  1.00  0.00     0.238 A 
ATOM      4  O   UNL     1     -10.976 -16.987  33.088  1.00  0.00    -0.285 OA
ATOM      5  C   UNL     1     -11.680 -18.051  31.134  1.00  0.00     0.111 A 
ATOM      6  C   UNL     1     -10.882 -19.227  31.271  1.00  0.00     0.134 A 
ATOM      7  C   UNL     1     -11.077 -20.300  30.394  1.00  0.00     0.093 A 
ATOM      8  C   UNL     1     -11.993 -20.212  29.342  1.00  0.00     0.123 A 
ATOM      9  C   UNL     1     -12.732 -19.046  29.163  1.00  0.00     0.094 A 
ATOM     10  C   UNL     1     -12.586 -17.973  30.045  1.00  0.00     0.146 A 
ATOM     11  O   UNL     1     -13.319 -16.883  29.845  1.00  0.00    -0.452 OA
ENDROOT
BRANCH   1  12
ATOM     12  C   UNL     1     -14.124 -14.654  30.285  1.00  0.00     0.029 A 
ATOM     13  C   UNL     1     -15.406 -14.544  30.841  1.00  0.00     0.062 A 
ATOM     14  C   UNL     1     -16.238 -13.468  30.513  1.00  0.00     0.162 A 
ATOM     15  C   UNL     1     -13.693 -13.686  29.361  1.00  0.00     0.062 A 
ATOM     16  C   UNL     1     -15.795 -12.491  29.606  1.00  0.00     0.200 A 
ATOM     17  C   UNL     1     -14.520 -12.605  29.025  1.00  0.00     0.162 A 
BRANCH  14  18
ATOM     18  O   UNL     1     -17.501 -13.387  31.099  1.00  0.00    -0.504 OA
ATOM     19  H   UNL     1     -17.828 -14.070  31.771  1.00  0.00     0.293 HD
ENDBRANCH  14  18
BRANCH  16  20
ATOM     20  O   UNL     1     -16.628 -11.418  29.286  1.00  0.00    -0.502 OA
ATOM     21  H   UNL     1     -16.283 -10.469  29.210  1.00  0.00     0.293 HD
ENDBRANCH  16  20
BRANCH  17  22
ATOM     22  O   UNL     1     -14.080 -11.647  28.114  1.00  0.00    -0.504 OA
ATOM     23  H   UNL     1     -13.101 -11.557  27.869  1.00  0.00     0.293 HD
ENDBRANCH  17  22
ENDBRANCH   1  12
BRANCH   2  24
ATOM     24  O   UNL     1     -12.474 -14.750  32.665  1.00  0.00    -0.502 OA
ATOM     25  H   UNL     1     -13.328 -14.403  33.085  1.00  0.00     0.293 HD
ENDBRANCH   2  24
BRANCH   6  26
ATOM     26  O   UNL     1      -9.877 -19.380  32.231  1.00  0.00    -0.507 OA
ATOM     27  H   UNL     1      -9.030 -18.832  32.269  1.00  0.00     0.293 HD
ENDBRANCH   6  26
BRANCH   8  28
ATOM     28  O   UNL     1     -12.169 -21.279  28.462  1.00  0.00    -0.508 OA
ATOM     29  H   UNL     1     -12.532 -22.171  28.777  1.00  0.00     0.293 HD
ENDBRANCH   8  28
TORSDOF 7
ENDMDL
MODEL 7
REMARK VINA RESULT:     2.505      1.318      7.179
REMARK INTER + INTRA:           2.722
REMARK INTER:                   3.076
REMARK INTRA:                  -0.353
REMARK UNBOUND:                -0.369
REMARK SMILES O=c1c(O)c(-c2cc(O)c(O)c(O)c2)oc2cc(O)cc(O)c12
REMARK SMILES IDX 5 1 3 2 2 3 1 4 23 5 21 6 20 7 18 8 17 9 16 10 15 11 6 12
REMARK SMILES IDX 7 13 8 14 14 15 10 16 12 17 9 18 11 20 13 22 4 24 22 26
REMARK SMILES IDX 19 28
REMARK H PARENT 9 19 11 21 13 23 4 25 22 27 19 29
REMARK Flexibility Score: inf
ROOT
ATOM      1  C   UNL     1     -12.185 -15.819  31.376  1.00  0.00     0.180 A 
ATOM      2  C   UNL     1     -13.402 -15.126  31.495  1.00  0.00     0.208 A 
ATOM      3  C   UNL     1     -13.681 -14.438  32.688  1.00  0.00     0.238 A 
ATOM      4  O   UNL     1     -14.795 -13.866  32.810  1.00  0.00    -0.285 OA
ATOM      5  C   UNL     1     -12.733 -14.440  33.739  1.00  0.00     0.111 A 
ATOM      6  C   UNL     1     -12.892 -13.743  34.976  1.00  0.00     0.134 A 
ATOM      7  C   UNL     1     -11.950 -13.922  35.995  1.00  0.00     0.093 A 
ATOM      8  C   UNL     1     -10.819 -14.718  35.799  1.00  0.00     0.123 A 
ATOM      9  C   UNL     1     -10.624 -15.353  34.575  1.00  0.00     0.094 A 
ATOM     10  C   UNL     1     -11.565 -15.224  33.552  1.00  0.00     0.146 A 
ATOM     11  O   UNL     1     -11.346 -15.855  32.404  1.00  0.00    -0.452 OA
ENDROOT
BRANCH   1  12
ATOM     12  C   UNL     1     -11.810 -16.546  30.142  1.00  0.00     0.029 A 
ATOM     13  C   UNL     1     -11.206 -15.848  29.086  1.00  0.00     0.062 A 
ATOM     14  C   UNL     1     -10.861 -16.505  27.900  1.00  0.00     0.162 A 
ATOM     15  C   UNL     1     -12.100 -17.912  29.982  1.00  0.00     0.062 A 
ATOM     16  C   UNL     1     -11.133 -17.875  27.753  1.00  0.00     0.200 A 
ATOM     17  C   UNL     1     -11.760 -18.578  28.796  1.00  0.00     0.162 A 
BRANCH  14  18
ATOM     18  O   UNL     1     -10.248 -15.778  26.879  1.00  0.00    -0.504 OA
ATOM     19  H   UNL     1     -10.512 -14.825  26.663  1.00  0.00     0.293 HD
ENDBRANCH  14  18
BRANCH  16  20
ATOM     20  O   UNL     1     -10.783 -18.524  26.568  1.00  0.00    -0.502 OA
ATOM     21  H   UNL     1     -11.448 -19.073  26.035  1.00  0.00     0.293 HD
ENDBRANCH  16  20
BRANCH  17  22
ATOM     22  O   UNL     1     -12.045 -19.934  28.651  1.00  0.00    -0.504 OA
ATOM     23  H   UNL     1     -12.064 -20.378  27.740  1.00  0.00     0.293 HD
ENDBRANCH  17  22
ENDBRANCH   1  12
BRANCH   2  24
ATOM     24  O   UNL     1     -14.333 -15.156  30.454  1.00  0.00    -0.502 OA
ATOM     25  H   UNL     1     -14.094 -14.903  29.503  1.00  0.00     0.293 HD
ENDBRANCH   2  24
BRANCH   6  26
ATOM     26  O   UNL     1     -13.937 -12.853  35.240  1.00  0.00    -0.507 OA
ATOM     27  H   UNL     1     -13.884 -11.852  35.120  1.00  0.00     0.293 HD
ENDBRANCH   6  26
BRANCH   8  28
ATOM     28  O   UNL     1      -9.876 -14.877  36.813  1.00  0.00    -0.508 OA
ATOM     29  H   UNL     1     -10.044 -14.530  37.751  1.00  0.00     0.293 HD
ENDBRANCH   8  28
TORSDOF 7
ENDMDL
