MODEL 1
REMARK VINA RESULT:    -4.258      0.000      0.000
REMARK INTER + INTRA:          -8.733
REMARK INTER:                  -7.493
REMARK INTRA:                  -1.240
REMARK UNBOUND:                -1.240
REMARK SMILES CCCCCCCCCCCCCCC(=O)[O-]
REMARK SMILES IDX 9 1 10 2 11 3 12 4 13 5 14 6 15 7 16 8 17 9 8 10 7 11 6 12
REMARK SMILES IDX 5 13 4 14 3 15 2 16 1 17
REMARK H PARENT
REMARK Flexibility Score: inf
ROOT
ATOM      1  C   UNL     1       7.903  -7.444  41.647  1.00  0.00     0.000 C 
ENDROOT
BRANCH   1   2
ATOM      2  C   UNL     1       8.056  -6.471  42.825  1.00  0.00     0.000 C 
BRANCH   2   3
ATOM      3  C   UNL     1       7.236  -5.180  42.648  1.00  0.00     0.000 C 
BRANCH   3   4
ATOM      4  C   UNL     1       8.005  -3.876  42.933  1.00  0.00     0.000 C 
BRANCH   4   5
ATOM      5  C   UNL     1       8.448  -3.151  41.651  1.00  0.00     0.006 C 
BRANCH   5   6
ATOM      6  C   UNL     1       7.922  -3.841  40.384  1.00  0.00     0.053 C 
BRANCH   6   7
ATOM      7  C   UNL     1       9.039  -4.320  39.508  1.00  0.00     0.041 C 
ATOM      8  O   UNL     1       9.111  -3.945  38.309  1.00  0.00    -0.550 OA
ATOM      9  O   UNL     1      10.016  -5.162  40.026  1.00  0.00    -0.550 OA
ENDBRANCH   6   7
ENDBRANCH   5   6
ENDBRANCH   4   5
ENDBRANCH   3   4
ENDBRANCH   2   3
ENDBRANCH   1   2
BRANCH   1  10
ATOM     10  C   UNL     1       7.627  -8.871  42.146  1.00  0.00     0.000 C 
BRANCH  10  11
ATOM     11  C   UNL     1       8.067  -9.093  43.605  1.00  0.00    -0.000 C 
BRANCH  11  12
ATOM     12  C   UNL     1       7.241 -10.136  44.381  1.00  0.00    -0.000 C 
BRANCH  12  13
ATOM     13  C   UNL     1       6.313 -10.959  43.476  1.00  0.00    -0.000 C 
BRANCH  13  14
ATOM     14  C   UNL     1       6.929 -12.330  43.161  1.00  0.00    -0.000 C 
BRANCH  14  15
ATOM     15  C   UNL     1       6.550 -12.852  41.764  1.00  0.00    -0.000 C 
BRANCH  15  16
ATOM     16  C   UNL     1       7.340 -12.222  40.603  1.00  0.00    -0.003 C 
ATOM     17  C   UNL     1       6.478 -11.335  39.706  1.00  0.00     0.004 C 
ENDBRANCH  15  16
ENDBRANCH  14  15
ENDBRANCH  13  14
ENDBRANCH  12  13
ENDBRANCH  11  12
ENDBRANCH  10  11
ENDBRANCH   1  10
TORSDOF 13
ENDMDL
MODEL 2
REMARK VINA RESULT:    -4.246      2.860      4.769
REMARK INTER + INTRA:          -8.713
REMARK INTER:                  -7.955
REMARK INTRA:                  -0.758
REMARK UNBOUND:                -1.240
REMARK SMILES CCCCCCCCCCCCCCC(=O)[O-]
REMARK SMILES IDX 9 1 10 2 11 3 12 4 13 5 14 6 15 7 16 8 17 9 8 10 7 11 6 12
REMARK SMILES IDX 5 13 4 14 3 15 2 16 1 17
REMARK H PARENT
REMARK Flexibility Score: inf
ROOT
ATOM      1  C   UNL     1       8.839  -3.634  41.169  1.00  0.00     0.000 C 
ENDROOT
BRANCH   1   2
ATOM      2  C   UNL     1       8.078  -2.362  40.767  1.00  0.00     0.000 C 
BRANCH   2   3
ATOM      3  C   UNL     1       8.139  -2.077  39.255  1.00  0.00     0.000 C 
BRANCH   3   4
ATOM      4  C   UNL     1       7.261  -2.994  38.383  1.00  0.00     0.000 C 
BRANCH   4   5
ATOM      5  C   UNL     1       6.019  -2.280  37.825  1.00  0.00     0.006 C 
BRANCH   5   6
ATOM      6  C   UNL     1       6.389  -1.168  36.832  1.00  0.00     0.053 C 
BRANCH   6   7
ATOM      7  C   UNL     1       6.289  -1.636  35.412  1.00  0.00     0.041 C 
ATOM      8  O   UNL     1       7.087  -2.504  34.972  1.00  0.00    -0.550 OA
ATOM      9  O   UNL     1       5.296  -1.130  34.582  1.00  0.00    -0.550 OA
ENDBRANCH   6   7
ENDBRANCH   5   6
ENDBRANCH   4   5
ENDBRANCH   3   4
ENDBRANCH   2   3
ENDBRANCH   1   2
BRANCH   1  10
ATOM     10  C   UNL     1       7.873  -4.812  41.366  1.00  0.00     0.000 C 
BRANCH  10  11
ATOM     11  C   UNL     1       7.500  -5.042  42.843  1.00  0.00    -0.000 C 
BRANCH  11  12
ATOM     12  C   UNL     1       7.862  -6.433  43.395  1.00  0.00    -0.000 C 
BRANCH  12  13
ATOM     13  C   UNL     1       9.199  -6.962  42.856  1.00  0.00    -0.000 C 
BRANCH  13  14
ATOM     14  C   UNL     1       8.971  -8.042  41.788  1.00  0.00    -0.000 C 
BRANCH  14  15
ATOM     15  C   UNL     1       7.532  -8.589  41.785  1.00  0.00    -0.000 C 
BRANCH  15  16
ATOM     16  C   UNL     1       7.382 -10.015  42.346  1.00  0.00    -0.003 C 
ATOM     17  C   UNL     1       7.315 -10.052  43.872  1.00  0.00     0.004 C 
ENDBRANCH  15  16
ENDBRANCH  14  15
ENDBRANCH  13  14
ENDBRANCH  12  13
ENDBRANCH  11  12
ENDBRANCH  10  11
ENDBRANCH   1  10
TORSDOF 13
ENDMDL
MODEL 3
REMARK VINA RESULT:    -4.219      3.081      7.291
REMARK INTER + INTRA:          -8.666
REMARK INTER:                  -7.285
REMARK INTRA:                  -1.381
REMARK UNBOUND:                -1.240
REMARK SMILES CCCCCCCCCCCCCCC(=O)[O-]
REMARK SMILES IDX 9 1 10 2 11 3 12 4 13 5 14 6 15 7 16 8 17 9 8 10 7 11 6 12
REMARK SMILES IDX 5 13 4 14 3 15 2 16 1 17
REMARK H PARENT
REMARK Flexibility Score: inf
ROOT
ATOM      1  C   UNL     1      10.893  -4.066  41.215  1.00  0.00     0.000 C 
ENDROOT
BRANCH   1   2
ATOM      2  C   UNL     1      10.106  -4.516  42.455  1.00  0.00     0.000 C 
BRANCH   2   3
ATOM      3  C   UNL     1       8.700  -3.893  42.532  1.00  0.00     0.000 C 
BRANCH   3   4
ATOM      4  C   UNL     1       7.539  -4.905  42.554  1.00  0.00     0.000 C 
BRANCH   4   5
ATOM      5  C   UNL     1       8.013  -6.355  42.745  1.00  0.00     0.006 C 
BRANCH   5   6
ATOM      6  C   UNL     1       7.835  -7.195  41.473  1.00  0.00     0.053 C 
BRANCH   6   7
ATOM      7  C   UNL     1       7.573  -8.636  41.790  1.00  0.00     0.041 C 
ATOM      8  O   UNL     1       7.944  -9.121  42.891  1.00  0.00    -0.550 OA
ATOM      9  O   UNL     1       6.895  -9.436  40.879  1.00  0.00    -0.550 OA
ENDBRANCH   6   7
ENDBRANCH   5   6
ENDBRANCH   4   5
ENDBRANCH   3   4
ENDBRANCH   2   3
ENDBRANCH   1   2
BRANCH   1  10
ATOM     10  C   UNL     1      10.418  -4.815  39.961  1.00  0.00     0.000 C 
BRANCH  10  11
ATOM     11  C   UNL     1      10.599  -3.997  38.668  1.00  0.00    -0.000 C 
BRANCH  11  12
ATOM     12  C   UNL     1       9.299  -3.711  37.893  1.00  0.00    -0.000 C 
BRANCH  12  13
ATOM     13  C   UNL     1       8.041  -3.842  38.763  1.00  0.00    -0.000 C 
BRANCH  13  14
ATOM     14  C   UNL     1       7.331  -2.488  38.908  1.00  0.00    -0.000 C 
BRANCH  14  15
ATOM     15  C   UNL     1       6.114  -2.345  37.976  1.00  0.00    -0.000 C 
BRANCH  15  16
ATOM     16  C   UNL     1       6.453  -1.960  36.525  1.00  0.00    -0.003 C 
ATOM     17  C   UNL     1       6.187  -0.487  36.220  1.00  0.00     0.004 C 
ENDBRANCH  15  16
ENDBRANCH  14  15
ENDBRANCH  13  14
ENDBRANCH  12  13
ENDBRANCH  11  12
ENDBRANCH  10  11
ENDBRANCH   1  10
TORSDOF 13
ENDMDL
MODEL 4
REMARK VINA RESULT:    -4.206      3.527      7.922
REMARK INTER + INTRA:          -8.643
REMARK INTER:                  -7.319
REMARK INTRA:                  -1.324
REMARK UNBOUND:                -1.240
REMARK SMILES CCCCCCCCCCCCCCC(=O)[O-]
REMARK SMILES IDX 9 1 10 2 11 3 12 4 13 5 14 6 15 7 16 8 17 9 8 10 7 11 6 12
REMARK SMILES IDX 5 13 4 14 3 15 2 16 1 17
REMARK H PARENT
REMARK Flexibility Score: inf
ROOT
ATOM      1  C   UNL     1       8.775  -1.474  41.674  1.00  0.00     0.000 C 
ENDROOT
BRANCH   1   2
ATOM      2  C   UNL     1       8.622  -2.337  42.934  1.00  0.00     0.000 C 
BRANCH   2   3
ATOM      3  C   UNL     1       8.925  -3.826  42.684  1.00  0.00     0.000 C 
BRANCH   3   4
ATOM      4  C   UNL     1       7.685  -4.724  42.515  1.00  0.00     0.000 C 
BRANCH   4   5
ATOM      5  C   UNL     1       7.713  -5.545  41.216  1.00  0.00     0.006 C 
BRANCH   5   6
ATOM      6  C   UNL     1       8.928  -6.482  41.150  1.00  0.00     0.053 C 
BRANCH   6   7
ATOM      7  C   UNL     1       8.742  -7.694  42.011  1.00  0.00     0.041 C 
ATOM      8  O   UNL     1       9.302  -7.764  43.137  1.00  0.00    -0.550 OA
ATOM      9  O   UNL     1       7.929  -8.735  41.581  1.00  0.00    -0.550 OA
ENDBRANCH   6   7
ENDBRANCH   5   6
ENDBRANCH   4   5
ENDBRANCH   3   4
ENDBRANCH   2   3
ENDBRANCH   1   2
BRANCH   1  10
ATOM     10  C   UNL     1       9.688  -2.159  40.647  1.00  0.00     0.000 C 
BRANCH  10  11
ATOM     11  C   UNL     1       8.964  -2.497  39.329  1.00  0.00    -0.000 C 
BRANCH  11  12
ATOM     12  C   UNL     1       7.448  -2.228  39.334  1.00  0.00    -0.000 C 
BRANCH  12  13
ATOM     13  C   UNL     1       6.729  -2.828  38.117  1.00  0.00    -0.000 C 
BRANCH  13  14
ATOM     14  C   UNL     1       5.683  -1.850  37.561  1.00  0.00    -0.000 C 
BRANCH  14  15
ATOM     15  C   UNL     1       6.304  -0.723  36.715  1.00  0.00    -0.000 C 
BRANCH  15  16
ATOM     16  C   UNL     1       5.452  -0.272  35.515  1.00  0.00    -0.003 C 
ATOM     17  C   UNL     1       5.550  -1.220  34.322  1.00  0.00     0.004 C 
ENDBRANCH  15  16
ENDBRANCH  14  15
ENDBRANCH  13  14
ENDBRANCH  12  13
ENDBRANCH  11  12
ENDBRANCH  10  11
ENDBRANCH   1  10
TORSDOF 13
ENDMDL
MODEL 5
REMARK VINA RESULT:    -4.201      3.862      7.640
REMARK INTER + INTRA:          -8.633
REMARK INTER:                  -7.010
REMARK INTRA:                  -1.622
REMARK UNBOUND:                -1.240
REMARK SMILES CCCCCCCCCCCCCCC(=O)[O-]
REMARK SMILES IDX 9 1 10 2 11 3 12 4 13 5 14 6 15 7 16 8 17 9 8 10 7 11 6 12
REMARK SMILES IDX 5 13 4 14 3 15 2 16 1 17
REMARK H PARENT
REMARK Flexibility Score: inf
ROOT
ATOM      1  C   UNL     1       8.253  -1.727  40.135  1.00  0.00     0.000 C 
ENDROOT
BRANCH   1   2
ATOM      2  C   UNL     1       9.235  -1.593  41.308  1.00  0.00     0.000 C 
BRANCH   2   3
ATOM      3  C   UNL     1       9.056  -2.693  42.370  1.00  0.00     0.000 C 
BRANCH   3   4
ATOM      4  C   UNL     1      10.230  -3.683  42.487  1.00  0.00     0.000 C 
BRANCH   4   5
ATOM      5  C   UNL     1       9.793  -5.150  42.332  1.00  0.00     0.006 C 
BRANCH   5   6
ATOM      6  C   UNL     1       8.342  -5.372  42.782  1.00  0.00     0.053 C 
BRANCH   6   7
ATOM      7  C   UNL     1       8.126  -6.765  43.290  1.00  0.00     0.041 C 
ATOM      8  O   UNL     1       8.309  -7.753  42.532  1.00  0.00    -0.550 OA
ATOM      9  O   UNL     1       7.746  -6.972  44.610  1.00  0.00    -0.550 OA
ENDBRANCH   6   7
ENDBRANCH   5   6
ENDBRANCH   4   5
ENDBRANCH   3   4
ENDBRANCH   2   3
ENDBRANCH   1   2
BRANCH   1  10
ATOM     10  C   UNL     1       7.530  -3.081  40.177  1.00  0.00     0.000 C 
BRANCH  10  11
ATOM     11  C   UNL     1       7.927  -4.011  39.014  1.00  0.00    -0.000 C 
BRANCH  11  12
ATOM     12  C   UNL     1       8.763  -3.345  37.906  1.00  0.00    -0.000 C 
BRANCH  12  13
ATOM     13  C   UNL     1       8.444  -3.889  36.506  1.00  0.00    -0.000 C 
BRANCH  13  14
ATOM     14  C   UNL     1       7.061  -3.414  36.036  1.00  0.00    -0.000 C 
BRANCH  14  15
ATOM     15  C   UNL     1       7.086  -2.000  35.429  1.00  0.00    -0.000 C 
BRANCH  15  16
ATOM     16  C   UNL     1       6.426  -0.912  36.297  1.00  0.00    -0.003 C 
ATOM     17  C   UNL     1       5.520  -1.485  37.385  1.00  0.00     0.004 C 
ENDBRANCH  15  16
ENDBRANCH  14  15
ENDBRANCH  13  14
ENDBRANCH  12  13
ENDBRANCH  11  12
ENDBRANCH  10  11
ENDBRANCH   1  10
TORSDOF 13
ENDMDL
MODEL 6
REMARK VINA RESULT:    -4.197      3.018      7.000
REMARK INTER + INTRA:          -8.626
REMARK INTER:                  -6.704
REMARK INTRA:                  -1.922
REMARK UNBOUND:                -1.240
REMARK SMILES CCCCCCCCCCCCCCC(=O)[O-]
REMARK SMILES IDX 9 1 10 2 11 3 12 4 13 5 14 6 15 7 16 8 17 9 8 10 7 11 6 12
REMARK SMILES IDX 5 13 4 14 3 15 2 16 1 17
REMARK H PARENT
REMARK Flexibility Score: inf
ROOT
ATOM      1  C   UNL     1       8.914  -2.657  41.629  1.00  0.00     0.000 C 
ENDROOT
BRANCH   1   2
ATOM      2  C   UNL     1       8.237  -2.981  42.969  1.00  0.00     0.000 C 
BRANCH   2   3
ATOM      3  C   UNL     1       7.603  -4.384  42.999  1.00  0.00     0.000 C 
BRANCH   3   4
ATOM      4  C   UNL     1       8.511  -5.520  42.492  1.00  0.00     0.000 C 
BRANCH   4   5
ATOM      5  C   UNL     1       7.789  -6.477  41.529  1.00  0.00     0.006 C 
BRANCH   5   6
ATOM      6  C   UNL     1       8.457  -7.859  41.478  1.00  0.00     0.053 C 
BRANCH   6   7
ATOM      7  C   UNL     1       7.544  -8.936  41.980  1.00  0.00     0.041 C 
ATOM      8  O   UNL     1       6.780  -9.543  41.184  1.00  0.00    -0.550 OA
ATOM      9  O   UNL     1       7.555  -9.286  43.325  1.00  0.00    -0.550 OA
ENDBRANCH   6   7
ENDBRANCH   5   6
ENDBRANCH   4   5
ENDBRANCH   3   4
ENDBRANCH   2   3
ENDBRANCH   1   2
BRANCH   1  10
ATOM     10  C   UNL     1       8.038  -1.719  40.785  1.00  0.00     0.000 C 
BRANCH  10  11
ATOM     11  C   UNL     1       7.594  -2.349  39.451  1.00  0.00    -0.000 C 
BRANCH  11  12
ATOM     12  C   UNL     1       8.152  -3.759  39.181  1.00  0.00    -0.000 C 
BRANCH  12  13
ATOM     13  C   UNL     1       9.149  -3.796  38.015  1.00  0.00    -0.000 C 
BRANCH  13  14
ATOM     14  C   UNL     1      10.596  -3.778  38.530  1.00  0.00    -0.000 C 
BRANCH  14  15
ATOM     15  C   UNL     1      10.866  -4.854  39.598  1.00  0.00    -0.000 C 
BRANCH  15  16
ATOM     16  C   UNL     1      11.959  -4.489  40.620  1.00  0.00    -0.003 C 
ATOM     17  C   UNL     1      12.403  -3.031  40.524  1.00  0.00     0.004 C 
ENDBRANCH  15  16
ENDBRANCH  14  15
ENDBRANCH  13  14
ENDBRANCH  12  13
ENDBRANCH  11  12
ENDBRANCH  10  11
ENDBRANCH   1  10
TORSDOF 13
ENDMDL
MODEL 7
REMARK VINA RESULT:    -4.193      2.120      3.592
REMARK INTER + INTRA:          -8.619
REMARK INTER:                  -7.776
REMARK INTRA:                  -0.842
REMARK UNBOUND:                -1.240
REMARK SMILES CCCCCCCCCCCCCCC(=O)[O-]
REMARK SMILES IDX 9 1 10 2 11 3 12 4 13 5 14 6 15 7 16 8 17 9 8 10 7 11 6 12
REMARK SMILES IDX 5 13 4 14 3 15 2 16 1 17
REMARK H PARENT
REMARK Flexibility Score: inf
ROOT
ATOM      1  C   UNL     1       7.887  -4.016  42.633  1.00  0.00     0.000 C 
ENDROOT
BRANCH   1   2
ATOM      2  C   UNL     1       9.070  -3.080  42.345  1.00  0.00     0.000 C 
BRANCH   2   3
ATOM      3  C   UNL     1       8.661  -1.817  41.565  1.00  0.00     0.000 C 
BRANCH   3   4
ATOM      4  C   UNL     1       8.842  -1.905  40.039  1.00  0.00     0.000 C 
BRANCH   4   5
ATOM      5  C   UNL     1       7.531  -2.214  39.297  1.00  0.00     0.006 C 
BRANCH   5   6
ATOM      6  C   UNL     1       7.714  -3.296  38.224  1.00  0.00     0.053 C 
BRANCH   6   7
ATOM      7  C   UNL     1       6.851  -3.041  37.026  1.00  0.00     0.041 C 
ATOM      8  O   UNL     1       6.980  -3.743  35.989  1.00  0.00    -0.550 OA
ATOM      9  O   UNL     1       5.884  -2.044  37.065  1.00  0.00    -0.550 OA
ENDBRANCH   6   7
ENDBRANCH   5   6
ENDBRANCH   4   5
ENDBRANCH   3   4
ENDBRANCH   2   3
ENDBRANCH   1   2
BRANCH   1  10
ATOM     10  C   UNL     1       7.802  -5.133  41.583  1.00  0.00     0.000 C 
BRANCH  10  11
ATOM     11  C   UNL     1       7.602  -6.529  42.204  1.00  0.00    -0.000 C 
BRANCH  11  12
ATOM     12  C   UNL     1       8.267  -6.730  43.578  1.00  0.00    -0.000 C 
BRANCH  12  13
ATOM     13  C   UNL     1       8.813  -8.151  43.778  1.00  0.00    -0.000 C 
BRANCH  13  14
ATOM     14  C   UNL     1       7.863  -9.193  43.169  1.00  0.00    -0.000 C 
BRANCH  14  15
ATOM     15  C   UNL     1       7.233 -10.120  44.225  1.00  0.00    -0.000 C 
BRANCH  15  16
ATOM     16  C   UNL     1       6.649 -11.431  43.668  1.00  0.00    -0.003 C 
ATOM     17  C   UNL     1       5.467 -11.206  42.727  1.00  0.00     0.004 C 
ENDBRANCH  15  16
ENDBRANCH  14  15
ENDBRANCH  13  14
ENDBRANCH  12  13
ENDBRANCH  11  12
ENDBRANCH  10  11
ENDBRANCH   1  10
TORSDOF 13
ENDMDL
MODEL 8
REMARK VINA RESULT:    -4.167      3.867      6.466
REMARK INTER + INTRA:          -8.574
REMARK INTER:                  -6.918
REMARK INTRA:                  -1.656
REMARK UNBOUND:                -1.240
REMARK SMILES CCCCCCCCCCCCCCC(=O)[O-]
REMARK SMILES IDX 9 1 10 2 11 3 12 4 13 5 14 6 15 7 16 8 17 9 8 10 7 11 6 12
REMARK SMILES IDX 5 13 4 14 3 15 2 16 1 17
REMARK H PARENT
REMARK Flexibility Score: inf
ROOT
ATOM      1  C   UNL     1       8.253  -3.883  39.037  1.00  0.00     0.000 C 
ENDROOT
BRANCH   1   2
ATOM      2  C   UNL     1       7.759  -2.429  39.071  1.00  0.00     0.000 C 
BRANCH   2   3
ATOM      3  C   UNL     1       6.928  -2.047  37.833  1.00  0.00     0.000 C 
BRANCH   3   4
ATOM      4  C   UNL     1       6.689  -3.191  36.830  1.00  0.00     0.000 C 
BRANCH   4   5
ATOM      5  C   UNL     1       7.670  -3.163  35.646  1.00  0.00     0.006 C 
BRANCH   5   6
ATOM      6  C   UNL     1       8.150  -4.570  35.259  1.00  0.00     0.053 C 
BRANCH   6   7
ATOM      7  C   UNL     1       9.468  -4.530  34.547  1.00  0.00     0.041 C 
ATOM      8  O   UNL     1      10.113  -3.452  34.464  1.00  0.00    -0.550 OA
ATOM      9  O   UNL     1       9.995  -5.692  33.997  1.00  0.00    -0.550 OA
ENDBRANCH   6   7
ENDBRANCH   5   6
ENDBRANCH   4   5
ENDBRANCH   3   4
ENDBRANCH   2   3
ENDBRANCH   1   2
BRANCH   1  10
ATOM     10  C   UNL     1       9.760  -3.944  38.745  1.00  0.00     0.000 C 
BRANCH  10  11
ATOM     11  C   UNL     1      10.579  -4.495  39.928  1.00  0.00    -0.000 C 
BRANCH  11  12
ATOM     12  C   UNL     1      10.781  -3.509  41.094  1.00  0.00    -0.000 C 
BRANCH  12  13
ATOM     13  C   UNL     1      10.135  -3.987  42.402  1.00  0.00    -0.000 C 
BRANCH  13  14
ATOM     14  C   UNL     1       8.770  -3.317  42.616  1.00  0.00    -0.000 C 
BRANCH  14  15
ATOM     15  C   UNL     1       7.623  -4.330  42.784  1.00  0.00    -0.000 C 
BRANCH  15  16
ATOM     16  C   UNL     1       8.066  -5.803  42.842  1.00  0.00    -0.003 C 
ATOM     17  C   UNL     1       7.686  -6.591  41.590  1.00  0.00     0.004 C 
ENDBRANCH  15  16
ENDBRANCH  14  15
ENDBRANCH  13  14
ENDBRANCH  12  13
ENDBRANCH  11  12
ENDBRANCH  10  11
ENDBRANCH   1  10
TORSDOF 13
ENDMDL
MODEL 9
REMARK VINA RESULT:    -4.061      3.177      7.447
REMARK INTER + INTRA:          -8.387
REMARK INTER:                  -7.032
REMARK INTRA:                  -1.354
REMARK UNBOUND:                -1.240
REMARK SMILES CCCCCCCCCCCCCCC(=O)[O-]
REMARK SMILES IDX 9 1 10 2 11 3 12 4 13 5 14 6 15 7 16 8 17 9 8 10 7 11 6 12
REMARK SMILES IDX 5 13 4 14 3 15 2 16 1 17
REMARK H PARENT
REMARK Flexibility Score: inf
ROOT
ATOM      1  C   UNL     1       9.540  -3.842  40.024  1.00  0.00     0.000 C 
ENDROOT
BRANCH   1   2
ATOM      2  C   UNL     1       9.913  -4.462  41.379  1.00  0.00     0.000 C 
BRANCH   2   3
ATOM      3  C   UNL     1       8.748  -4.450  42.386  1.00  0.00     0.000 C 
BRANCH   3   4
ATOM      4  C   UNL     1       7.527  -5.296  41.980  1.00  0.00     0.000 C 
BRANCH   4   5
ATOM      5  C   UNL     1       7.893  -6.749  41.635  1.00  0.00     0.006 C 
BRANCH   5   6
ATOM      6  C   UNL     1       8.176  -7.588  42.890  1.00  0.00     0.053 C 
BRANCH   6   7
ATOM      7  C   UNL     1       7.614  -8.972  42.771  1.00  0.00     0.041 C 
ATOM      8  O   UNL     1       7.190  -9.392  41.662  1.00  0.00    -0.550 OA
ATOM      9  O   UNL     1       7.585  -9.807  43.880  1.00  0.00    -0.550 OA
ENDBRANCH   6   7
ENDBRANCH   5   6
ENDBRANCH   4   5
ENDBRANCH   3   4
ENDBRANCH   2   3
ENDBRANCH   1   2
BRANCH   1  10
ATOM     10  C   UNL     1       9.394  -2.317  40.140  1.00  0.00     0.000 C 
BRANCH  10  11
ATOM     11  C   UNL     1       7.993  -1.815  39.742  1.00  0.00    -0.000 C 
BRANCH  11  12
ATOM     12  C   UNL     1       7.114  -2.851  39.017  1.00  0.00    -0.000 C 
BRANCH  12  13
ATOM     13  C   UNL     1       6.226  -2.227  37.930  1.00  0.00    -0.000 C 
BRANCH  13  14
ATOM     14  C   UNL     1       7.018  -2.015  36.631  1.00  0.00    -0.000 C 
BRANCH  14  15
ATOM     15  C   UNL     1       6.743  -3.102  35.576  1.00  0.00    -0.000 C 
BRANCH  15  16
ATOM     16  C   UNL     1       7.766  -4.253  35.553  1.00  0.00    -0.003 C 
ATOM     17  C   UNL     1       9.122  -3.858  36.135  1.00  0.00     0.004 C 
ENDBRANCH  15  16
ENDBRANCH  14  15
ENDBRANCH  13  14
ENDBRANCH  12  13
ENDBRANCH  11  12
ENDBRANCH  10  11
ENDBRANCH   1  10
TORSDOF 13
ENDMDL
