MODEL 1
REMARK VINA RESULT:    -7.287      0.000      0.000
REMARK INTER + INTRA:          -8.617
REMARK INTER:                  -8.778
REMARK INTRA:                   0.160
REMARK UNBOUND:                 0.160
REMARK SMILES Oc1cc(O)c2c(c1)O[C@@H](c1ccc(O)c(O)c1)[C@H](O)C2
REMARK SMILES IDX 21 1 19 2 10 3 9 4 7 5 8 6 2 7 3 8 4 9 6 10 20 11 11 13
REMARK SMILES IDX 18 14 12 15 16 16 13 17 14 18 17 19 15 21 5 23 1 25
REMARK H PARENT 20 12 17 20 15 22 5 24 1 26
REMARK Flexibility Score: inf
ROOT
ATOM      1  C   UNL     1       8.754   7.701  16.832  1.00  0.00     0.079 C 
ATOM      2  C   UNL     1      10.262   7.407  16.735  1.00  0.00     0.164 C 
ATOM      3  C   UNL     1      10.542   6.469  15.541  1.00  0.00     0.232 C 
ATOM      4  O   UNL     1      10.025   7.041  14.338  1.00  0.00    -0.482 OA
ATOM      5  C   UNL     1       8.831   7.772  14.306  1.00  0.00     0.131 A 
ATOM      6  C   UNL     1       8.298   8.156  13.073  1.00  0.00     0.093 A 
ATOM      7  C   UNL     1       7.105   8.886  13.017  1.00  0.00     0.122 A 
ATOM      8  C   UNL     1       6.445   9.233  14.199  1.00  0.00     0.092 A 
ATOM      9  C   UNL     1       6.973   8.858  15.444  1.00  0.00     0.126 A 
ATOM     10  C   UNL     1       8.183   8.141  15.503  1.00  0.00     0.039 A 
ENDROOT
BRANCH   2  11
ATOM     11  O   UNL     1      10.737   6.859  17.940  1.00  0.00    -0.389 OA
ATOM     12  H   UNL     1       9.998   6.898  18.602  1.00  0.00     0.211 HD
ENDBRANCH   2  11
BRANCH   3  13
ATOM     13  C   UNL     1      12.023   6.214  15.386  1.00  0.00    -0.001 A 
ATOM     14  C   UNL     1      12.699   6.614  14.220  1.00  0.00     0.057 A 
ATOM     15  C   UNL     1      12.751   5.617  16.428  1.00  0.00     0.012 A 
ATOM     16  C   UNL     1      14.080   6.404  14.089  1.00  0.00     0.157 A 
ATOM     17  C   UNL     1      14.125   5.405  16.299  1.00  0.00     0.050 A 
ATOM     18  C   UNL     1      14.794   5.793  15.134  1.00  0.00     0.157 A 
BRANCH  16  19
ATOM     19  O   UNL     1      14.741   6.799  12.928  1.00  0.00    -0.504 OA
ATOM     20  H   UNL     1      15.096   6.121  12.263  1.00  0.00     0.293 HD
ENDBRANCH  16  19
BRANCH  18  21
ATOM     21  O   UNL     1      16.167   5.568  15.033  1.00  0.00    -0.504 OA
ATOM     22  H   UNL     1      16.804   5.779  15.792  1.00  0.00     0.293 HD
ENDBRANCH  18  21
ENDBRANCH   3  13
BRANCH   9  23
ATOM     23  O   UNL     1       6.299   9.196  16.617  1.00  0.00    -0.507 OA
ATOM     24  H   UNL     1       6.333   8.603  17.438  1.00  0.00     0.293 HD
ENDBRANCH   9  23
BRANCH   7  25
ATOM     25  O   UNL     1       6.565   9.271  11.791  1.00  0.00    -0.508 OA
ATOM     26  H   UNL     1       5.842   8.727  11.337  1.00  0.00     0.293 HD
ENDBRANCH   7  25
TORSDOF 6
ENDMDL
MODEL 2
REMARK VINA RESULT:    -7.181      9.521     10.609
REMARK INTER + INTRA:          -8.489
REMARK INTER:                  -8.710
REMARK INTRA:                   0.221
REMARK UNBOUND:                 0.160
REMARK SMILES Oc1cc(O)c2c(c1)O[C@@H](c1ccc(O)c(O)c1)[C@H](O)C2
REMARK SMILES IDX 21 1 19 2 10 3 9 4 7 5 8 6 2 7 3 8 4 9 6 10 20 11 11 13
REMARK SMILES IDX 18 14 12 15 16 16 13 17 14 18 17 19 15 21 5 23 1 25
REMARK H PARENT 20 12 17 20 15 22 5 24 1 26
REMARK Flexibility Score: inf
ROOT
ATOM      1  C   UNL     1      11.604  15.357  19.932  1.00  0.00     0.079 C 
ATOM      2  C   UNL     1      12.877  15.054  19.120  1.00  0.00     0.164 C 
ATOM      3  C   UNL     1      14.121  15.584  19.868  1.00  0.00     0.232 C 
ATOM      4  O   UNL     1      14.173  15.027  21.182  1.00  0.00    -0.482 OA
ATOM      5  C   UNL     1      13.024  14.792  21.946  1.00  0.00     0.131 A 
ATOM      6  C   UNL     1      13.159  14.407  23.283  1.00  0.00     0.093 A 
ATOM      7  C   UNL     1      12.023  14.167  24.066  1.00  0.00     0.122 A 
ATOM      8  C   UNL     1      10.750  14.314  23.508  1.00  0.00     0.092 A 
ATOM      9  C   UNL     1      10.602  14.695  22.166  1.00  0.00     0.126 A 
ATOM     10  C   UNL     1      11.742  14.916  21.371  1.00  0.00     0.039 A 
ENDROOT
BRANCH   2  11
ATOM     11  O   UNL     1      12.782  15.605  17.829  1.00  0.00    -0.389 OA
ATOM     12  H   UNL     1      12.184  15.020  17.295  1.00  0.00     0.211 HD
ENDBRANCH   2  11
BRANCH   3  13
ATOM     13  C   UNL     1      15.389  15.245  19.121  1.00  0.00    -0.001 A 
ATOM     14  C   UNL     1      16.405  14.496  19.740  1.00  0.00     0.057 A 
ATOM     15  C   UNL     1      15.546  15.634  17.781  1.00  0.00     0.012 A 
ATOM     16  C   UNL     1      17.570  14.157  19.037  1.00  0.00     0.157 A 
ATOM     17  C   UNL     1      16.706  15.299  17.079  1.00  0.00     0.050 A 
ATOM     18  C   UNL     1      17.721  14.563  17.700  1.00  0.00     0.157 A 
BRANCH  16  19
ATOM     19  O   UNL     1      18.574  13.418  19.660  1.00  0.00    -0.504 OA
ATOM     20  H   UNL     1      18.372  12.793  20.432  1.00  0.00     0.293 HD
ENDBRANCH  16  19
BRANCH  18  21
ATOM     21  O   UNL     1      18.868  14.244  16.975  1.00  0.00    -0.504 OA
ATOM     22  H   UNL     1      19.737  14.751  17.092  1.00  0.00     0.293 HD
ENDBRANCH  18  21
ENDBRANCH   3  13
BRANCH   9  23
ATOM     23  O   UNL     1       9.327  14.853  21.623  1.00  0.00    -0.507 OA
ATOM     24  H   UNL     1       8.502  14.496  22.092  1.00  0.00     0.293 HD
ENDBRANCH   9  23
BRANCH   7  25
ATOM     25  O   UNL     1      12.149  13.785  25.400  1.00  0.00    -0.508 OA
ATOM     26  H   UNL     1      12.391  12.836  25.658  1.00  0.00     0.293 HD
ENDBRANCH   7  25
TORSDOF 6
ENDMDL
MODEL 3
REMARK VINA RESULT:    -7.041     10.278     14.409
REMARK INTER + INTRA:          -8.321
REMARK INTER:                  -8.467
REMARK INTRA:                   0.146
REMARK UNBOUND:                 0.160
REMARK SMILES Oc1cc(O)c2c(c1)O[C@@H](c1ccc(O)c(O)c1)[C@H](O)C2
REMARK SMILES IDX 21 1 19 2 10 3 9 4 7 5 8 6 2 7 3 8 4 9 6 10 20 11 11 13
REMARK SMILES IDX 18 14 12 15 16 16 13 17 14 18 17 19 15 21 5 23 1 25
REMARK H PARENT 20 12 17 20 15 22 5 24 1 26
REMARK Flexibility Score: inf
ROOT
ATOM      1  C   UNL     1      23.738   8.869  18.134  1.00  0.00     0.079 C 
ATOM      2  C   UNL     1      22.257   8.879  18.555  1.00  0.00     0.164 C 
ATOM      3  C   UNL     1      22.100   9.583  19.921  1.00  0.00     0.232 C 
ATOM      4  O   UNL     1      22.653  10.899  19.859  1.00  0.00    -0.482 OA
ATOM      5  C   UNL     1      23.804  11.196  19.119  1.00  0.00     0.131 A 
ATOM      6  C   UNL     1      24.386  12.461  19.239  1.00  0.00     0.093 A 
ATOM      7  C   UNL     1      25.537  12.780  18.509  1.00  0.00     0.122 A 
ATOM      8  C   UNL     1      26.107  11.830  17.657  1.00  0.00     0.092 A 
ATOM      9  C   UNL     1      25.529  10.559  17.524  1.00  0.00     0.126 A 
ATOM     10  C   UNL     1      24.359  10.242  18.241  1.00  0.00     0.039 A 
ENDROOT
BRANCH   2  11
ATOM     11  O   UNL     1      21.744   7.570  18.591  1.00  0.00    -0.389 OA
ATOM     12  H   UNL     1      21.739   7.274  19.538  1.00  0.00     0.211 HD
ENDBRANCH   2  11
BRANCH   3  13
ATOM     13  C   UNL     1      20.647   9.663  20.327  1.00  0.00    -0.001 A 
ATOM     14  C   UNL     1      20.012  10.908  20.472  1.00  0.00     0.057 A 
ATOM     15  C   UNL     1      19.901   8.488  20.517  1.00  0.00     0.012 A 
ATOM     16  C   UNL     1      18.655  10.980  20.821  1.00  0.00     0.157 A 
ATOM     17  C   UNL     1      18.551   8.557  20.866  1.00  0.00     0.050 A 
ATOM     18  C   UNL     1      17.923   9.798  21.021  1.00  0.00     0.157 A 
BRANCH  16  19
ATOM     19  O   UNL     1      18.035  12.219  20.968  1.00  0.00    -0.504 OA
ATOM     20  H   UNL     1      17.187  12.327  21.513  1.00  0.00     0.293 HD
ENDBRANCH  16  19
BRANCH  18  21
ATOM     21  O   UNL     1      16.574   9.836  21.371  1.00  0.00    -0.504 OA
ATOM     22  H   UNL     1      16.189  10.572  21.950  1.00  0.00     0.293 HD
ENDBRANCH  18  21
ENDBRANCH   3  13
BRANCH   9  23
ATOM     23  O   UNL     1      26.113   9.612  16.682  1.00  0.00    -0.507 OA
ATOM     24  H   UNL     1      25.816   8.643  16.686  1.00  0.00     0.293 HD
ENDBRANCH   9  23
BRANCH   7  25
ATOM     25  O   UNL     1      26.125  14.039  18.625  1.00  0.00    -0.508 OA
ATOM     26  H   UNL     1      26.851  14.223  19.307  1.00  0.00     0.293 HD
ENDBRANCH   7  25
TORSDOF 6
ENDMDL
MODEL 4
REMARK VINA RESULT:    -6.866      2.434      6.815
REMARK INTER + INTRA:          -8.111
REMARK INTER:                  -7.792
REMARK INTRA:                  -0.319
REMARK UNBOUND:                 0.160
REMARK SMILES Oc1cc(O)c2c(c1)O[C@@H](c1ccc(O)c(O)c1)[C@H](O)C2
REMARK SMILES IDX 21 1 19 2 10 3 9 4 7 5 8 6 2 7 3 8 4 9 6 10 20 11 11 13
REMARK SMILES IDX 18 14 12 15 16 16 13 17 14 18 17 19 15 21 5 23 1 25
REMARK H PARENT 20 12 17 20 15 22 5 24 1 26
REMARK Flexibility Score: inf
ROOT
ATOM      1  C   UNL     1      13.433   6.769  13.927  1.00  0.00     0.079 C 
ATOM      2  C   UNL     1      11.911   6.871  14.138  1.00  0.00     0.164 C 
ATOM      3  C   UNL     1      11.541   8.279  14.655  1.00  0.00     0.232 C 
ATOM      4  O   UNL     1      12.029   9.274  13.753  1.00  0.00    -0.482 OA
ATOM      5  C   UNL     1      13.250   9.144  13.079  1.00  0.00     0.131 A 
ATOM      6  C   UNL     1      13.745  10.226  12.347  1.00  0.00     0.093 A 
ATOM      7  C   UNL     1      14.963  10.119  11.666  1.00  0.00     0.122 A 
ATOM      8  C   UNL     1      15.687   8.924  11.718  1.00  0.00     0.092 A 
ATOM      9  C   UNL     1      15.197   7.829  12.445  1.00  0.00     0.126 A 
ATOM     10  C   UNL     1      13.963   7.928  13.114  1.00  0.00     0.039 A 
ENDROOT
BRANCH   2  11
ATOM     11  O   UNL     1      11.465   5.869  15.019  1.00  0.00    -0.389 OA
ATOM     12  H   UNL     1      12.263   5.376  15.344  1.00  0.00     0.211 HD
ENDBRANCH   2  11
BRANCH   3  13
ATOM     13  C   UNL     1      10.046   8.426  14.811  1.00  0.00    -0.001 A 
ATOM     14  C   UNL     1       9.226   8.625  13.687  1.00  0.00     0.057 A 
ATOM     15  C   UNL     1       9.453   8.315  16.079  1.00  0.00     0.012 A 
ATOM     16  C   UNL     1       7.834   8.732  13.829  1.00  0.00     0.157 A 
ATOM     17  C   UNL     1       8.068   8.422  16.224  1.00  0.00     0.050 A 
ATOM     18  C   UNL     1       7.254   8.632  15.106  1.00  0.00     0.157 A 
BRANCH  16  19
ATOM     19  O   UNL     1       7.029   8.934  12.710  1.00  0.00    -0.504 OA
ATOM     20  H   UNL     1       7.088   9.784  12.161  1.00  0.00     0.293 HD
ENDBRANCH  16  19
BRANCH  18  21
ATOM     21  O   UNL     1       5.875   8.736  15.281  1.00  0.00    -0.504 OA
ATOM     22  H   UNL     1       5.415   9.629  15.408  1.00  0.00     0.293 HD
ENDBRANCH  18  21
ENDBRANCH   3  13
BRANCH   9  23
ATOM     23  O   UNL     1      15.935   6.646  12.504  1.00  0.00    -0.507 OA
ATOM     24  H   UNL     1      15.571   5.775  12.133  1.00  0.00     0.293 HD
ENDBRANCH   9  23
BRANCH   7  25
ATOM     25  O   UNL     1      15.465  11.195  10.935  1.00  0.00    -0.508 OA
ATOM     26  H   UNL     1      15.647  11.121   9.942  1.00  0.00     0.293 HD
ENDBRANCH   7  25
TORSDOF 6
ENDMDL
MODEL 5
REMARK VINA RESULT:    -6.762      8.954     11.786
REMARK INTER + INTRA:          -7.986
REMARK INTER:                  -7.671
REMARK INTRA:                  -0.314
REMARK UNBOUND:                 0.160
REMARK SMILES Oc1cc(O)c2c(c1)O[C@@H](c1ccc(O)c(O)c1)[C@H](O)C2
REMARK SMILES IDX 21 1 19 2 10 3 9 4 7 5 8 6 2 7 3 8 4 9 6 10 20 11 11 13
REMARK SMILES IDX 18 14 12 15 16 16 13 17 14 18 17 19 15 21 5 23 1 25
REMARK H PARENT 20 12 17 20 15 22 5 24 1 26
REMARK Flexibility Score: inf
ROOT
ATOM      1  C   UNL     1      16.751  14.118  19.645  1.00  0.00     0.079 C 
ATOM      2  C   UNL     1      15.445  14.545  20.340  1.00  0.00     0.164 C 
ATOM      3  C   UNL     1      14.394  13.419  20.230  1.00  0.00     0.232 C 
ATOM      4  O   UNL     1      14.920  12.204  20.768  1.00  0.00    -0.482 OA
ATOM      5  C   UNL     1      16.264  11.837  20.621  1.00  0.00     0.131 A 
ATOM      6  C   UNL     1      16.671  10.562  21.022  1.00  0.00     0.093 A 
ATOM      7  C   UNL     1      18.009  10.173  20.884  1.00  0.00     0.122 A 
ATOM      8  C   UNL     1      18.940  11.064  20.343  1.00  0.00     0.092 A 
ATOM      9  C   UNL     1      18.544  12.348  19.942  1.00  0.00     0.126 A 
ATOM     10  C   UNL     1      17.204  12.749  20.099  1.00  0.00     0.039 A 
ENDROOT
BRANCH   2  11
ATOM     11  O   UNL     1      14.965  15.749  19.795  1.00  0.00    -0.389 OA
ATOM     12  H   UNL     1      14.968  16.430  20.517  1.00  0.00     0.211 HD
ENDBRANCH   2  11
BRANCH   3  13
ATOM     13  C   UNL     1      13.123  13.788  20.959  1.00  0.00    -0.001 A 
ATOM     14  C   UNL     1      13.053  13.705  22.361  1.00  0.00     0.057 A 
ATOM     15  C   UNL     1      12.012  14.266  20.245  1.00  0.00     0.012 A 
ATOM     16  C   UNL     1      11.883  14.076  23.039  1.00  0.00     0.157 A 
ATOM     17  C   UNL     1      10.846  14.635  20.919  1.00  0.00     0.050 A 
ATOM     18  C   UNL     1      10.773  14.540  22.312  1.00  0.00     0.157 A 
BRANCH  16  19
ATOM     19  O   UNL     1      11.820  13.985  24.428  1.00  0.00    -0.504 OA
ATOM     20  H   UNL     1      11.885  14.807  25.017  1.00  0.00     0.293 HD
ENDBRANCH  16  19
BRANCH  18  21
ATOM     21  O   UNL     1       9.595  14.914  22.957  1.00  0.00    -0.504 OA
ATOM     22  H   UNL     1       8.683  14.754  22.547  1.00  0.00     0.293 HD
ENDBRANCH  18  21
ENDBRANCH   3  13
BRANCH   9  23
ATOM     23  O   UNL     1      19.478  13.224  19.389  1.00  0.00    -0.507 OA
ATOM     24  H   UNL     1      19.260  13.789  18.576  1.00  0.00     0.293 HD
ENDBRANCH   9  23
BRANCH   7  25
ATOM     25  O   UNL     1      18.423   8.902  21.280  1.00  0.00    -0.508 OA
ATOM     26  H   UNL     1      18.552   8.668  22.257  1.00  0.00     0.293 HD
ENDBRANCH   7  25
TORSDOF 6
ENDMDL
MODEL 6
REMARK VINA RESULT:    -6.666      1.768      6.838
REMARK INTER + INTRA:          -7.870
REMARK INTER:                  -7.495
REMARK INTRA:                  -0.375
REMARK UNBOUND:                 0.160
REMARK SMILES Oc1cc(O)c2c(c1)O[C@@H](c1ccc(O)c(O)c1)[C@H](O)C2
REMARK SMILES IDX 21 1 19 2 10 3 9 4 7 5 8 6 2 7 3 8 4 9 6 10 20 11 11 13
REMARK SMILES IDX 18 14 12 15 16 16 13 17 14 18 17 19 15 21 5 23 1 25
REMARK H PARENT 20 12 17 20 15 22 5 24 1 26
REMARK Flexibility Score: inf
ROOT
ATOM      1  C   UNL     1      13.897   6.013  15.485  1.00  0.00     0.079 C 
ATOM      2  C   UNL     1      12.358   5.987  15.492  1.00  0.00     0.164 C 
ATOM      3  C   UNL     1      11.803   7.384  15.136  1.00  0.00     0.232 C 
ATOM      4  O   UNL     1      12.330   7.812  13.879  1.00  0.00    -0.482 OA
ATOM      5  C   UNL     1      13.641   7.527  13.476  1.00  0.00     0.131 A 
ATOM      6  C   UNL     1      14.143   8.119  12.315  1.00  0.00     0.093 A 
ATOM      7  C   UNL     1      15.450   7.848  11.893  1.00  0.00     0.122 A 
ATOM      8  C   UNL     1      16.256   6.982  12.637  1.00  0.00     0.092 A 
ATOM      9  C   UNL     1      15.761   6.377  13.802  1.00  0.00     0.126 A 
ATOM     10  C   UNL     1      14.440   6.631  14.216  1.00  0.00     0.039 A 
ENDROOT
BRANCH   2  11
ATOM     11  O   UNL     1      11.877   5.547  16.739  1.00  0.00    -0.389 OA
ATOM     12  H   UNL     1      12.550   5.793  17.425  1.00  0.00     0.211 HD
ENDBRANCH   2  11
BRANCH   3  13
ATOM     13  C   UNL     1      10.294   7.370  15.075  1.00  0.00    -0.001 A 
ATOM     14  C   UNL     1       9.536   8.178  15.940  1.00  0.00     0.057 A 
ATOM     15  C   UNL     1       9.632   6.584  14.118  1.00  0.00     0.012 A 
ATOM     16  C   UNL     1       8.136   8.186  15.864  1.00  0.00     0.157 A 
ATOM     17  C   UNL     1       8.238   6.590  14.041  1.00  0.00     0.050 A 
ATOM     18  C   UNL     1       7.484   7.385  14.910  1.00  0.00     0.157 A 
BRANCH  16  19
ATOM     19  O   UNL     1       7.392   8.986  16.729  1.00  0.00    -0.504 OA
ATOM     20  H   UNL     1       7.159   8.680  17.667  1.00  0.00     0.293 HD
ENDBRANCH  16  19
BRANCH  18  21
ATOM     21  O   UNL     1       6.094   7.370  14.811  1.00  0.00    -0.504 OA
ATOM     22  H   UNL     1       5.612   6.849  14.089  1.00  0.00     0.293 HD
ENDBRANCH  18  21
ENDBRANCH   3  13
BRANCH   9  23
ATOM     23  O   UNL     1      16.578   5.525  14.546  1.00  0.00    -0.507 OA
ATOM     24  H   UNL     1      17.444   5.158  14.170  1.00  0.00     0.293 HD
ENDBRANCH   9  23
BRANCH   7  25
ATOM     25  O   UNL     1      15.959   8.437  10.737  1.00  0.00    -0.508 OA
ATOM     26  H   UNL     1      15.423   9.113  10.207  1.00  0.00     0.293 HD
ENDBRANCH   7  25
TORSDOF 6
ENDMDL
MODEL 7
REMARK VINA RESULT:    -6.605      1.793      2.294
REMARK INTER + INTRA:          -7.796
REMARK INTER:                  -7.472
REMARK INTRA:                  -0.324
REMARK UNBOUND:                 0.160
REMARK SMILES Oc1cc(O)c2c(c1)O[C@@H](c1ccc(O)c(O)c1)[C@H](O)C2
REMARK SMILES IDX 21 1 19 2 10 3 9 4 7 5 8 6 2 7 3 8 4 9 6 10 20 11 11 13
REMARK SMILES IDX 18 14 12 15 16 16 13 17 14 18 17 19 15 21 5 23 1 25
REMARK H PARENT 20 12 17 20 15 22 5 24 1 26
REMARK Flexibility Score: inf
ROOT
ATOM      1  C   UNL     1      11.146   8.142  16.952  1.00  0.00     0.079 C 
ATOM      2  C   UNL     1      12.467   7.959  16.181  1.00  0.00     0.164 C 
ATOM      3  C   UNL     1      12.523   6.548  15.555  1.00  0.00     0.232 C 
ATOM      4  O   UNL     1      11.379   6.336  14.726  1.00  0.00    -0.482 OA
ATOM      5  C   UNL     1      10.113   6.839  15.048  1.00  0.00     0.131 A 
ATOM      6  C   UNL     1       9.009   6.452  14.284  1.00  0.00     0.093 A 
ATOM      7  C   UNL     1       7.733   6.942  14.588  1.00  0.00     0.122 A 
ATOM      8  C   UNL     1       7.563   7.821  15.661  1.00  0.00     0.092 A 
ATOM      9  C   UNL     1       8.665   8.222  16.432  1.00  0.00     0.126 A 
ATOM     10  C   UNL     1       9.951   7.747  16.115  1.00  0.00     0.039 A 
ENDROOT
BRANCH   2  11
ATOM     11  O   UNL     1      13.568   8.189  17.025  1.00  0.00    -0.389 OA
ATOM     12  H   UNL     1      13.476   9.104  17.399  1.00  0.00     0.211 HD
ENDBRANCH   2  11
BRANCH   3  13
ATOM     13  C   UNL     1      13.782   6.364  14.741  1.00  0.00    -0.001 A 
ATOM     14  C   UNL     1      13.902   6.949  13.468  1.00  0.00     0.057 A 
ATOM     15  C   UNL     1      14.867   5.646  15.269  1.00  0.00     0.012 A 
ATOM     16  C   UNL     1      15.082   6.802  12.725  1.00  0.00     0.157 A 
ATOM     17  C   UNL     1      16.042   5.498  14.530  1.00  0.00     0.050 A 
ATOM     18  C   UNL     1      16.156   6.070  13.259  1.00  0.00     0.157 A 
BRANCH  16  19
ATOM     19  O   UNL     1      15.190   7.380  11.462  1.00  0.00    -0.504 OA
ATOM     20  H   UNL     1      15.738   8.219  11.307  1.00  0.00     0.293 HD
ENDBRANCH  16  19
BRANCH  18  21
ATOM     21  O   UNL     1      17.342   5.905  12.544  1.00  0.00    -0.504 OA
ATOM     22  H   UNL     1      17.498   5.108  11.939  1.00  0.00     0.293 HD
ENDBRANCH  18  21
ENDBRANCH   3  13
BRANCH   9  23
ATOM     23  O   UNL     1       8.482   9.088  17.510  1.00  0.00    -0.507 OA
ATOM     24  H   UNL     1       8.854   8.878  18.429  1.00  0.00     0.293 HD
ENDBRANCH   9  23
BRANCH   7  25
ATOM     25  O   UNL     1       6.627   6.558  13.832  1.00  0.00    -0.508 OA
ATOM     26  H   UNL     1       6.718   6.284  12.862  1.00  0.00     0.293 HD
ENDBRANCH   7  25
TORSDOF 6
ENDMDL
MODEL 8
REMARK VINA RESULT:    -6.517     10.162     12.931
REMARK INTER + INTRA:          -7.690
REMARK INTER:                  -7.422
REMARK INTRA:                  -0.268
REMARK UNBOUND:                 0.160
REMARK SMILES Oc1cc(O)c2c(c1)O[C@@H](c1ccc(O)c(O)c1)[C@H](O)C2
REMARK SMILES IDX 21 1 19 2 10 3 9 4 7 5 8 6 2 7 3 8 4 9 6 10 20 11 11 13
REMARK SMILES IDX 18 14 12 15 16 16 13 17 14 18 17 19 15 21 5 23 1 25
REMARK H PARENT 20 12 17 20 15 22 5 24 1 26
REMARK Flexibility Score: inf
ROOT
ATOM      1  C   UNL     1      19.258   9.806  20.592  1.00  0.00     0.079 C 
ATOM      2  C   UNL     1      20.416  10.575  19.930  1.00  0.00     0.164 C 
ATOM      3  C   UNL     1      21.768  10.076  20.486  1.00  0.00     0.232 C 
ATOM      4  O   UNL     1      21.881   8.664  20.300  1.00  0.00    -0.482 OA
ATOM      5  C   UNL     1      20.786   7.800  20.421  1.00  0.00     0.131 A 
ATOM      6  C   UNL     1      21.000   6.419  20.396  1.00  0.00     0.093 A 
ATOM      7  C   UNL     1      19.920   5.536  20.515  1.00  0.00     0.122 A 
ATOM      8  C   UNL     1      18.623   6.038  20.661  1.00  0.00     0.092 A 
ATOM      9  C   UNL     1      18.396   7.422  20.682  1.00  0.00     0.126 A 
ATOM     10  C   UNL     1      19.478   8.312  20.542  1.00  0.00     0.039 A 
ENDROOT
BRANCH   2  11
ATOM     11  O   UNL     1      20.263  11.960  20.121  1.00  0.00    -0.389 OA
ATOM     12  H   UNL     1      20.035  12.362  19.243  1.00  0.00     0.211 HD
ENDBRANCH   2  11
BRANCH   3  13
ATOM     13  C   UNL     1      22.925  10.772  19.806  1.00  0.00    -0.001 A 
ATOM     14  C   UNL     1      22.905  11.004  18.420  1.00  0.00     0.057 A 
ATOM     15  C   UNL     1      24.012  11.237  20.563  1.00  0.00     0.012 A 
ATOM     16  C   UNL     1      23.965  11.675  17.795  1.00  0.00     0.157 A 
ATOM     17  C   UNL     1      25.070  11.905  19.942  1.00  0.00     0.050 A 
ATOM     18  C   UNL     1      25.054  12.126  18.561  1.00  0.00     0.157 A 
BRANCH  16  19
ATOM     19  O   UNL     1      23.940  11.897  16.419  1.00  0.00    -0.504 OA
ATOM     20  H   UNL     1      23.113  12.252  15.954  1.00  0.00     0.293 HD
ENDBRANCH  16  19
BRANCH  18  21
ATOM     21  O   UNL     1      26.125  12.794  17.969  1.00  0.00    -0.504 OA
ATOM     22  H   UNL     1      27.079  12.468  18.059  1.00  0.00     0.293 HD
ENDBRANCH  18  21
ENDBRANCH   3  13
BRANCH   9  23
ATOM     23  O   UNL     1      17.100   7.913  20.843  1.00  0.00    -0.507 OA
ATOM     24  H   UNL     1      16.394   7.790  20.127  1.00  0.00     0.293 HD
ENDBRANCH   9  23
BRANCH   7  25
ATOM     25  O   UNL     1      20.124   4.158  20.493  1.00  0.00    -0.508 OA
ATOM     26  H   UNL     1      19.475   3.533  20.030  1.00  0.00     0.293 HD
ENDBRANCH   7  25
TORSDOF 6
ENDMDL
MODEL 9
REMARK VINA RESULT:    -6.419      9.458     11.444
REMARK INTER + INTRA:          -7.572
REMARK INTER:                  -7.229
REMARK INTRA:                  -0.343
REMARK UNBOUND:                 0.160
REMARK SMILES Oc1cc(O)c2c(c1)O[C@@H](c1ccc(O)c(O)c1)[C@H](O)C2
REMARK SMILES IDX 21 1 19 2 10 3 9 4 7 5 8 6 2 7 3 8 4 9 6 10 20 11 11 13
REMARK SMILES IDX 18 14 12 15 16 16 13 17 14 18 17 19 15 21 5 23 1 25
REMARK H PARENT 20 12 17 20 15 22 5 24 1 26
REMARK Flexibility Score: inf
ROOT
ATOM      1  C   UNL     1      16.491  13.968  19.244  1.00  0.00     0.079 C 
ATOM      2  C   UNL     1      15.176  13.889  20.041  1.00  0.00     0.164 C 
ATOM      3  C   UNL     1      14.604  15.307  20.260  1.00  0.00     0.232 C 
ATOM      4  O   UNL     1      14.435  15.965  19.002  1.00  0.00    -0.482 OA
ATOM      5  C   UNL     1      15.331  15.798  17.940  1.00  0.00     0.131 A 
ATOM      6  C   UNL     1      15.200  16.599  16.803  1.00  0.00     0.093 A 
ATOM      7  C   UNL     1      16.085  16.450  15.729  1.00  0.00     0.122 A 
ATOM      8  C   UNL     1      17.104  15.496  15.794  1.00  0.00     0.092 A 
ATOM      9  C   UNL     1      17.243  14.681  16.928  1.00  0.00     0.126 A 
ATOM     10  C   UNL     1      16.341  14.815  18.001  1.00  0.00     0.039 A 
ENDROOT
BRANCH   2  11
ATOM     11  O   UNL     1      15.379  13.224  21.264  1.00  0.00    -0.389 OA
ATOM     12  H   UNL     1      16.054  12.513  21.112  1.00  0.00     0.211 HD
ENDBRANCH   2  11
BRANCH   3  13
ATOM     13  C   UNL     1      13.280  15.253  20.986  1.00  0.00    -0.001 A 
ATOM     14  C   UNL     1      12.121  14.806  20.328  1.00  0.00     0.057 A 
ATOM     15  C   UNL     1      13.205  15.603  22.344  1.00  0.00     0.012 A 
ATOM     16  C   UNL     1      10.899  14.729  21.011  1.00  0.00     0.157 A 
ATOM     17  C   UNL     1      11.989  15.527  23.026  1.00  0.00     0.050 A 
ATOM     18  C   UNL     1      10.833  15.094  22.367  1.00  0.00     0.157 A 
BRANCH  16  19
ATOM     19  O   UNL     1       9.753  14.290  20.350  1.00  0.00    -0.504 OA
ATOM     20  H   UNL     1       9.090  13.666  20.795  1.00  0.00     0.293 HD
ENDBRANCH  16  19
BRANCH  18  21
ATOM     21  O   UNL     1       9.633  15.030  23.073  1.00  0.00    -0.504 OA
ATOM     22  H   UNL     1       8.971  15.796  23.081  1.00  0.00     0.293 HD
ENDBRANCH  18  21
ENDBRANCH   3  13
BRANCH   9  23
ATOM     23  O   UNL     1      18.272  13.742  16.990  1.00  0.00    -0.507 OA
ATOM     24  H   UNL     1      18.491  13.142  16.203  1.00  0.00     0.293 HD
ENDBRANCH   9  23
BRANCH   7  25
ATOM     25  O   UNL     1      15.963  17.247  14.592  1.00  0.00    -0.508 OA
ATOM     26  H   UNL     1      15.108  17.268  14.049  1.00  0.00     0.293 HD
ENDBRANCH   7  25
TORSDOF 6
ENDMDL
