MODEL 1
REMARK VINA RESULT:    -4.502      0.000      0.000
REMARK INTER + INTRA:         -10.795
REMARK INTER:                  -8.450
REMARK INTRA:                  -2.344
REMARK UNBOUND:                -2.344
REMARK SMILES O=C([O-])CCCCCCCCCCCCCCC(=O)[O-]
REMARK SMILES IDX 10 1 9 2 8 3 7 4 6 5 5 6 4 7 2 8 1 9 3 10 11 11 12 12 13 13
REMARK SMILES IDX 14 14 15 15 16 16 17 17 18 18 19 19 20 20
REMARK H PARENT
REMARK Flexibility Score: inf
ROOT
ATOM      1  C   UNL     1       1.318   5.414  31.942  1.00  0.00     0.000 C 
ENDROOT
BRANCH   1   2
ATOM      2  C   UNL     1       2.321   4.549  31.164  1.00  0.00     0.000 C 
BRANCH   2   3
ATOM      3  C   UNL     1       1.737   4.111  29.813  1.00  0.00     0.000 C 
BRANCH   3   4
ATOM      4  C   UNL     1       2.819   3.806  28.761  1.00  0.00     0.000 C 
BRANCH   4   5
ATOM      5  C   UNL     1       3.783   4.968  28.458  1.00  0.00     0.000 C 
BRANCH   5   6
ATOM      6  C   UNL     1       3.127   6.094  27.641  1.00  0.00     0.006 C 
BRANCH   6   7
ATOM      7  C   UNL     1       3.788   6.275  26.267  1.00  0.00     0.053 C 
BRANCH   7   8
ATOM      8  C   UNL     1       3.431   5.167  25.324  1.00  0.00     0.041 C 
ATOM      9  O   UNL     1       2.239   4.774  25.231  1.00  0.00    -0.550 OA
ATOM     10  O   UNL     1       4.419   4.548  24.571  1.00  0.00    -0.550 OA
ENDBRANCH   7   8
ENDBRANCH   6   7
ENDBRANCH   5   6
ENDBRANCH   4   5
ENDBRANCH   3   4
ENDBRANCH   2   3
ENDBRANCH   1   2
BRANCH   1  11
ATOM     11  C   UNL     1       1.337   6.886  31.501  1.00  0.00     0.000 C 
BRANCH  11  12
ATOM     12  C   UNL     1       0.009   7.331  30.872  1.00  0.00     0.000 C 
BRANCH  12  13
ATOM     13  C   UNL     1       0.216   7.781  29.417  1.00  0.00     0.000 C 
BRANCH  13  14
ATOM     14  C   UNL     1      -0.352   6.777  28.401  1.00  0.00     0.000 C 
BRANCH  14  15
ATOM     15  C   UNL     1      -1.495   5.930  28.987  1.00  0.00     0.000 C 
BRANCH  15  16
ATOM     16  C   UNL     1      -1.594   4.540  28.339  1.00  0.00     0.006 C 
BRANCH  16  17
ATOM     17  C   UNL     1      -0.812   4.441  27.022  1.00  0.00     0.053 C 
BRANCH  17  18
ATOM     18  C   UNL     1      -1.745   4.199  25.878  1.00  0.00     0.041 C 
ATOM     19  O   UNL     1      -1.298   3.822  24.765  1.00  0.00    -0.550 OA
ATOM     20  O   UNL     1      -3.104   4.444  26.028  1.00  0.00    -0.550 OA
ENDBRANCH  17  18
ENDBRANCH  16  17
ENDBRANCH  15  16
ENDBRANCH  14  15
ENDBRANCH  13  14
ENDBRANCH  12  13
ENDBRANCH  11  12
ENDBRANCH   1  11
TORSDOF 15
ENDMDL
MODEL 2
REMARK VINA RESULT:    -4.444      2.675      2.971
REMARK INTER + INTRA:         -10.685
REMARK INTER:                  -8.099
REMARK INTRA:                  -2.587
REMARK UNBOUND:                -2.344
REMARK SMILES O=C([O-])CCCCCCCCCCCCCCC(=O)[O-]
REMARK SMILES IDX 10 1 9 2 8 3 7 4 6 5 5 6 4 7 2 8 1 9 3 10 11 11 12 12 13 13
REMARK SMILES IDX 14 14 15 15 16 16 17 17 18 18 19 19 20 20
REMARK H PARENT
REMARK Flexibility Score: inf
ROOT
ATOM      1  C   UNL     1       1.250   5.242  31.982  1.00  0.00     0.000 C 
ENDROOT
BRANCH   1   2
ATOM      2  C   UNL     1       2.415   4.567  31.244  1.00  0.00     0.000 C 
BRANCH   2   3
ATOM      3  C   UNL     1       1.972   4.060  29.864  1.00  0.00     0.000 C 
BRANCH   3   4
ATOM      4  C   UNL     1       2.812   4.643  28.712  1.00  0.00     0.000 C 
BRANCH   4   5
ATOM      5  C   UNL     1       4.204   5.161  29.115  1.00  0.00     0.000 C 
BRANCH   5   6
ATOM      6  C   UNL     1       4.385   6.665  28.849  1.00  0.00     0.006 C 
BRANCH   6   7
ATOM      7  C   UNL     1       4.409   7.486  30.146  1.00  0.00     0.053 C 
BRANCH   7   8
ATOM      8  C   UNL     1       5.805   7.843  30.555  1.00  0.00     0.041 C 
ATOM      9  O   UNL     1       6.148   9.050  30.654  1.00  0.00    -0.550 OA
ATOM     10  O   UNL     1       6.737   6.842  30.798  1.00  0.00    -0.550 OA
ENDBRANCH   7   8
ENDBRANCH   6   7
ENDBRANCH   5   6
ENDBRANCH   4   5
ENDBRANCH   3   4
ENDBRANCH   2   3
ENDBRANCH   1   2
BRANCH   1  11
ATOM     11  C   UNL     1       1.294   6.776  31.883  1.00  0.00     0.000 C 
BRANCH  11  12
ATOM     12  C   UNL     1       0.171   7.343  31.003  1.00  0.00     0.000 C 
BRANCH  12  13
ATOM     13  C   UNL     1       0.667   7.577  29.567  1.00  0.00     0.000 C 
BRANCH  13  14
ATOM     14  C   UNL     1      -0.184   6.839  28.521  1.00  0.00     0.000 C 
BRANCH  14  15
ATOM     15  C   UNL     1      -1.291   5.983  29.161  1.00  0.00     0.000 C 
BRANCH  15  16
ATOM     16  C   UNL     1      -1.454   4.618  28.475  1.00  0.00     0.006 C 
BRANCH  16  17
ATOM     17  C   UNL     1      -0.651   4.507  27.172  1.00  0.00     0.053 C 
BRANCH  17  18
ATOM     18  C   UNL     1      -1.572   4.365  26.002  1.00  0.00     0.041 C 
ATOM     19  O   UNL     1      -1.421   3.418  25.187  1.00  0.00    -0.550 OA
ATOM     20  O   UNL     1      -2.564   5.312  25.781  1.00  0.00    -0.550 OA
ENDBRANCH  17  18
ENDBRANCH  16  17
ENDBRANCH  15  16
ENDBRANCH  14  15
ENDBRANCH  13  14
ENDBRANCH  12  13
ENDBRANCH  11  12
ENDBRANCH   1  11
TORSDOF 15
ENDMDL
MODEL 3
REMARK VINA RESULT:    -4.367      1.995      4.738
REMARK INTER + INTRA:         -10.541
REMARK INTER:                  -8.165
REMARK INTRA:                  -2.376
REMARK UNBOUND:                -2.344
REMARK SMILES O=C([O-])CCCCCCCCCCCCCCC(=O)[O-]
REMARK SMILES IDX 10 1 9 2 8 3 7 4 6 5 5 6 4 7 2 8 1 9 3 10 11 11 12 12 13 13
REMARK SMILES IDX 14 14 15 15 16 16 17 17 18 18 19 19 20 20
REMARK H PARENT
REMARK Flexibility Score: inf
ROOT
ATOM      1  C   UNL     1       5.065   5.225  30.866  1.00  0.00     0.000 C 
ENDROOT
BRANCH   1   2
ATOM      2  C   UNL     1       4.473   4.596  29.596  1.00  0.00     0.000 C 
BRANCH   2   3
ATOM      3  C   UNL     1       2.994   4.237  29.798  1.00  0.00     0.000 C 
BRANCH   3   4
ATOM      4  C   UNL     1       2.369   4.930  31.022  1.00  0.00     0.000 C 
BRANCH   4   5
ATOM      5  C   UNL     1       1.301   5.991  30.699  1.00  0.00     0.000 C 
BRANCH   5   6
ATOM      6  C   UNL     1       0.610   5.754  29.345  1.00  0.00     0.006 C 
BRANCH   6   7
ATOM      7  C   UNL     1      -0.906   5.979  29.420  1.00  0.00     0.053 C 
BRANCH   7   8
ATOM      8  C   UNL     1      -1.619   5.381  28.246  1.00  0.00     0.041 C 
ATOM      9  O   UNL     1      -2.507   4.506  28.422  1.00  0.00    -0.550 OA
ATOM     10  O   UNL     1      -1.280   5.765  26.955  1.00  0.00    -0.550 OA
ENDBRANCH   7   8
ENDBRANCH   6   7
ENDBRANCH   5   6
ENDBRANCH   4   5
ENDBRANCH   3   4
ENDBRANCH   2   3
ENDBRANCH   1   2
BRANCH   1  11
ATOM     11  C   UNL     1       5.916   6.471  30.571  1.00  0.00     0.000 C 
BRANCH  11  12
ATOM     12  C   UNL     1       5.079   7.756  30.508  1.00  0.00     0.000 C 
BRANCH  12  13
ATOM     13  C   UNL     1       4.961   8.262  29.062  1.00  0.00     0.000 C 
BRANCH  13  14
ATOM     14  C   UNL     1       3.504   8.512  28.640  1.00  0.00     0.000 C 
BRANCH  14  15
ATOM     15  C   UNL     1       3.042   7.553  27.528  1.00  0.00     0.000 C 
BRANCH  15  16
ATOM     16  C   UNL     1       4.216   6.850  26.828  1.00  0.00     0.006 C 
BRANCH  16  17
ATOM     17  C   UNL     1       3.777   6.036  25.603  1.00  0.00     0.053 C 
BRANCH  17  18
ATOM     18  C   UNL     1       3.151   4.747  26.030  1.00  0.00     0.041 C 
ATOM     19  O   UNL     1       3.871   3.750  26.296  1.00  0.00    -0.550 OA
ATOM     20  O   UNL     1       1.768   4.630  26.081  1.00  0.00    -0.550 OA
ENDBRANCH  17  18
ENDBRANCH  16  17
ENDBRANCH  15  16
ENDBRANCH  14  15
ENDBRANCH  13  14
ENDBRANCH  12  13
ENDBRANCH  11  12
ENDBRANCH   1  11
TORSDOF 15
ENDMDL
MODEL 4
REMARK VINA RESULT:    -4.351      1.260      5.103
REMARK INTER + INTRA:         -10.510
REMARK INTER:                  -8.420
REMARK INTRA:                  -2.090
REMARK UNBOUND:                -2.344
REMARK SMILES O=C([O-])CCCCCCCCCCCCCCC(=O)[O-]
REMARK SMILES IDX 10 1 9 2 8 3 7 4 6 5 5 6 4 7 2 8 1 9 3 10 11 11 12 12 13 13
REMARK SMILES IDX 14 14 15 15 16 16 17 17 18 18 19 19 20 20
REMARK H PARENT
REMARK Flexibility Score: inf
ROOT
ATOM      1  C   UNL     1      -0.147   7.371  30.722  1.00  0.00     0.000 C 
ENDROOT
BRANCH   1   2
ATOM      2  C   UNL     1      -0.161   7.893  29.278  1.00  0.00     0.000 C 
BRANCH   2   3
ATOM      3  C   UNL     1      -0.964   6.958  28.363  1.00  0.00     0.000 C 
BRANCH   3   4
ATOM      4  C   UNL     1      -1.290   5.605  29.022  1.00  0.00     0.000 C 
BRANCH   4   5
ATOM      5  C   UNL     1      -2.181   4.668  28.187  1.00  0.00     0.000 C 
BRANCH   5   6
ATOM      6  C   UNL     1      -2.654   5.307  26.870  1.00  0.00     0.006 C 
BRANCH   6   7
ATOM      7  C   UNL     1      -3.642   4.410  26.111  1.00  0.00     0.053 C 
BRANCH   7   8
ATOM      8  C   UNL     1      -2.953   3.553  25.095  1.00  0.00     0.041 C 
ATOM      9  O   UNL     1      -1.791   3.842  24.704  1.00  0.00    -0.550 OA
ATOM     10  O   UNL     1      -3.604   2.452  24.555  1.00  0.00    -0.550 OA
ENDBRANCH   7   8
ENDBRANCH   6   7
ENDBRANCH   5   6
ENDBRANCH   4   5
ENDBRANCH   3   4
ENDBRANCH   2   3
ENDBRANCH   1   2
BRANCH   1  11
ATOM     11  C   UNL     1       1.178   7.662  31.445  1.00  0.00     0.000 C 
BRANCH  11  12
ATOM     12  C   UNL     1       1.606   6.519  32.377  1.00  0.00     0.000 C 
BRANCH  12  13
ATOM     13  C   UNL     1       1.271   5.153  31.758  1.00  0.00     0.000 C 
BRANCH  13  14
ATOM     14  C   UNL     1       2.474   4.518  31.042  1.00  0.00     0.000 C 
BRANCH  14  15
ATOM     15  C   UNL     1       2.195   4.245  29.553  1.00  0.00     0.000 C 
BRANCH  15  16
ATOM     16  C   UNL     1       2.566   5.436  28.654  1.00  0.00     0.006 C 
BRANCH  16  17
ATOM     17  C   UNL     1       2.230   5.193  27.177  1.00  0.00     0.053 C 
BRANCH  17  18
ATOM     18  C   UNL     1       3.445   4.730  26.435  1.00  0.00     0.041 C 
ATOM     19  O   UNL     1       3.797   3.524  26.486  1.00  0.00    -0.550 OA
ATOM     20  O   UNL     1       4.219   5.645  25.732  1.00  0.00    -0.550 OA
ENDBRANCH  17  18
ENDBRANCH  16  17
ENDBRANCH  15  16
ENDBRANCH  14  15
ENDBRANCH  13  14
ENDBRANCH  12  13
ENDBRANCH  11  12
ENDBRANCH   1  11
TORSDOF 15
ENDMDL
MODEL 5
REMARK VINA RESULT:    -4.341      1.408      2.537
REMARK INTER + INTRA:         -10.492
REMARK INTER:                  -8.276
REMARK INTRA:                  -2.216
REMARK UNBOUND:                -2.344
REMARK SMILES O=C([O-])CCCCCCCCCCCCCCC(=O)[O-]
REMARK SMILES IDX 10 1 9 2 8 3 7 4 6 5 5 6 4 7 2 8 1 9 3 10 11 11 12 12 13 13
REMARK SMILES IDX 14 14 15 15 16 16 17 17 18 18 19 19 20 20
REMARK H PARENT
REMARK Flexibility Score: inf
ROOT
ATOM      1  C   UNL     1       0.132   7.233  31.232  1.00  0.00     0.000 C 
ENDROOT
BRANCH   1   2
ATOM      2  C   UNL     1       1.254   6.546  32.024  1.00  0.00     0.000 C 
BRANCH   2   3
ATOM      3  C   UNL     1       2.559   6.515  31.216  1.00  0.00     0.000 C 
BRANCH   3   4
ATOM      4  C   UNL     1       3.026   5.086  30.882  1.00  0.00     0.000 C 
BRANCH   4   5
ATOM      5  C   UNL     1       1.909   4.116  30.456  1.00  0.00     0.000 C 
BRANCH   5   6
ATOM      6  C   UNL     1       1.980   3.737  28.967  1.00  0.00     0.006 C 
BRANCH   6   7
ATOM      7  C   UNL     1       2.705   4.800  28.130  1.00  0.00     0.053 C 
BRANCH   7   8
ATOM      8  C   UNL     1       3.795   4.204  27.293  1.00  0.00     0.041 C 
ATOM      9  O   UNL     1       4.112   4.733  26.195  1.00  0.00    -0.550 OA
ATOM     10  O   UNL     1       4.441   3.048  27.710  1.00  0.00    -0.550 OA
ENDBRANCH   7   8
ENDBRANCH   6   7
ENDBRANCH   5   6
ENDBRANCH   4   5
ENDBRANCH   3   4
ENDBRANCH   2   3
ENDBRANCH   1   2
BRANCH   1  11
ATOM     11  C   UNL     1       0.559   7.609  29.804  1.00  0.00     0.000 C 
BRANCH  11  12
ATOM     12  C   UNL     1      -0.307   6.935  28.731  1.00  0.00     0.000 C 
BRANCH  12  13
ATOM     13  C   UNL     1      -1.273   5.921  29.365  1.00  0.00     0.000 C 
BRANCH  13  14
ATOM     14  C   UNL     1      -1.473   4.670  28.494  1.00  0.00     0.000 C 
BRANCH  14  15
ATOM     15  C   UNL     1      -2.657   4.813  27.523  1.00  0.00     0.000 C 
BRANCH  15  16
ATOM     16  C   UNL     1      -2.219   4.799  26.050  1.00  0.00     0.006 C 
BRANCH  16  17
ATOM     17  C   UNL     1      -1.038   3.854  25.789  1.00  0.00     0.053 C 
BRANCH  17  18
ATOM     18  C   UNL     1      -0.220   4.345  24.637  1.00  0.00     0.041 C 
ATOM     19  O   UNL     1      -0.696   4.335  23.473  1.00  0.00    -0.550 OA
ATOM     20  O   UNL     1       1.088   4.764  24.843  1.00  0.00    -0.550 OA
ENDBRANCH  17  18
ENDBRANCH  16  17
ENDBRANCH  15  16
ENDBRANCH  14  15
ENDBRANCH  13  14
ENDBRANCH  12  13
ENDBRANCH  11  12
ENDBRANCH   1  11
TORSDOF 15
ENDMDL
MODEL 6
REMARK VINA RESULT:    -4.302      1.667      5.654
REMARK INTER + INTRA:         -10.419
REMARK INTER:                  -8.498
REMARK INTRA:                  -1.922
REMARK UNBOUND:                -2.344
REMARK SMILES O=C([O-])CCCCCCCCCCCCCCC(=O)[O-]
REMARK SMILES IDX 10 1 9 2 8 3 7 4 6 5 5 6 4 7 2 8 1 9 3 10 11 11 12 12 13 13
REMARK SMILES IDX 14 14 15 15 16 16 17 17 18 18 19 19 20 20
REMARK H PARENT
REMARK Flexibility Score: inf
ROOT
ATOM      1  C   UNL     1       0.640   7.961  29.661  1.00  0.00     0.000 C 
ENDROOT
BRANCH   1   2
ATOM      2  C   UNL     1       0.077   7.003  28.600  1.00  0.00     0.000 C 
BRANCH   2   3
ATOM      3  C   UNL     1      -1.086   6.177  29.167  1.00  0.00     0.000 C 
BRANCH   3   4
ATOM      4  C   UNL     1      -1.318   4.861  28.402  1.00  0.00     0.000 C 
BRANCH   4   5
ATOM      5  C   UNL     1      -2.705   4.720  27.748  1.00  0.00     0.000 C 
BRANCH   5   6
ATOM      6  C   UNL     1      -2.630   4.402  26.245  1.00  0.00     0.006 C 
BRANCH   6   7
ATOM      7  C   UNL     1      -3.939   4.735  25.516  1.00  0.00     0.053 C 
BRANCH   7   8
ATOM      8  C   UNL     1      -4.559   3.519  24.898  1.00  0.00     0.041 C 
ATOM      9  O   UNL     1      -5.807   3.452  24.744  1.00  0.00    -0.550 OA
ATOM     10  O   UNL     1      -3.763   2.446  24.521  1.00  0.00    -0.550 OA
ENDBRANCH   7   8
ENDBRANCH   6   7
ENDBRANCH   5   6
ENDBRANCH   4   5
ENDBRANCH   3   4
ENDBRANCH   2   3
ENDBRANCH   1   2
BRANCH   1  11
ATOM     11  C   UNL     1       0.147   7.630  31.079  1.00  0.00     0.000 C 
BRANCH  11  12
ATOM     12  C   UNL     1       1.272   7.117  31.990  1.00  0.00     0.000 C 
BRANCH  12  13
ATOM     13  C   UNL     1       1.232   5.585  32.099  1.00  0.00     0.000 C 
BRANCH  13  14
ATOM     14  C   UNL     1       2.388   4.908  31.344  1.00  0.00     0.000 C 
BRANCH  14  15
ATOM     15  C   UNL     1       1.896   4.049  30.166  1.00  0.00     0.000 C 
BRANCH  15  16
ATOM     16  C   UNL     1       2.687   4.310  28.873  1.00  0.00     0.006 C 
BRANCH  16  17
ATOM     17  C   UNL     1       3.543   5.582  28.946  1.00  0.00     0.053 C 
BRANCH  17  18
ATOM     18  C   UNL     1       3.811   6.110  27.572  1.00  0.00     0.041 C 
ATOM     19  O   UNL     1       3.917   7.348  27.379  1.00  0.00    -0.550 OA
ATOM     20  O   UNL     1       3.889   5.235  26.496  1.00  0.00    -0.550 OA
ENDBRANCH  17  18
ENDBRANCH  16  17
ENDBRANCH  15  16
ENDBRANCH  14  15
ENDBRANCH  13  14
ENDBRANCH  12  13
ENDBRANCH  11  12
ENDBRANCH   1  11
TORSDOF 15
ENDMDL
MODEL 7
REMARK VINA RESULT:    -4.296      2.806      5.973
REMARK INTER + INTRA:         -10.408
REMARK INTER:                  -7.816
REMARK INTRA:                  -2.592
REMARK UNBOUND:                -2.344
REMARK SMILES O=C([O-])CCCCCCCCCCCCCCC(=O)[O-]
REMARK SMILES IDX 10 1 9 2 8 3 7 4 6 5 5 6 4 7 2 8 1 9 3 10 11 11 12 12 13 13
REMARK SMILES IDX 14 14 15 15 16 16 17 17 18 18 19 19 20 20
REMARK H PARENT
REMARK Flexibility Score: inf
ROOT
ATOM      1  C   UNL     1       3.109   4.842  30.654  1.00  0.00     0.000 C 
ENDROOT
BRANCH   1   2
ATOM      2  C   UNL     1       2.632   6.148  31.307  1.00  0.00     0.000 C 
BRANCH   2   3
ATOM      3  C   UNL     1       1.107   6.291  31.201  1.00  0.00     0.000 C 
BRANCH   3   4
ATOM      4  C   UNL     1       0.669   7.661  30.652  1.00  0.00     0.000 C 
BRANCH   4   5
ATOM      5  C   UNL     1      -0.548   7.629  29.710  1.00  0.00     0.000 C 
BRANCH   5   6
ATOM      6  C   UNL     1      -0.522   6.438  28.736  1.00  0.00     0.006 C 
BRANCH   6   7
ATOM      7  C   UNL     1      -1.733   5.514  28.917  1.00  0.00     0.053 C 
BRANCH   7   8
ATOM      8  C   UNL     1      -1.999   4.694  27.692  1.00  0.00     0.041 C 
ATOM      9  O   UNL     1      -3.177   4.537  27.277  1.00  0.00    -0.550 OA
ATOM     10  O   UNL     1      -0.948   4.078  27.025  1.00  0.00    -0.550 OA
ENDBRANCH   7   8
ENDBRANCH   6   7
ENDBRANCH   5   6
ENDBRANCH   4   5
ENDBRANCH   3   4
ENDBRANCH   2   3
ENDBRANCH   1   2
BRANCH   1  11
ATOM     11  C   UNL     1       1.981   4.100  29.919  1.00  0.00     0.000 C 
BRANCH  11  12
ATOM     12  C   UNL     1       2.343   3.765  28.466  1.00  0.00     0.000 C 
BRANCH  12  13
ATOM     13  C   UNL     1       3.307   4.812  27.886  1.00  0.00     0.000 C 
BRANCH  13  14
ATOM     14  C   UNL     1       2.576   5.926  27.118  1.00  0.00     0.000 C 
BRANCH  14  15
ATOM     15  C   UNL     1       2.963   7.331  27.612  1.00  0.00     0.000 C 
BRANCH  15  16
ATOM     16  C   UNL     1       4.388   7.386  28.184  1.00  0.00     0.006 C 
BRANCH  16  17
ATOM     17  C   UNL     1       4.648   8.650  29.015  1.00  0.00     0.053 C 
BRANCH  17  18
ATOM     18  C   UNL     1       5.394   8.307  30.266  1.00  0.00     0.041 C 
ATOM     19  O   UNL     1       5.930   7.177  30.395  1.00  0.00    -0.550 OA
ATOM     20  O   UNL     1       5.448   9.219  31.313  1.00  0.00    -0.550 OA
ENDBRANCH  17  18
ENDBRANCH  16  17
ENDBRANCH  15  16
ENDBRANCH  14  15
ENDBRANCH  13  14
ENDBRANCH  12  13
ENDBRANCH  11  12
ENDBRANCH   1  11
TORSDOF 15
ENDMDL
MODEL 8
REMARK VINA RESULT:    -4.237      2.507      5.943
REMARK INTER + INTRA:         -10.297
REMARK INTER:                  -8.083
REMARK INTRA:                  -2.214
REMARK UNBOUND:                -2.344
REMARK SMILES O=C([O-])CCCCCCCCCCCCCCC(=O)[O-]
REMARK SMILES IDX 10 1 9 2 8 3 7 4 6 5 5 6 4 7 2 8 1 9 3 10 11 11 12 12 13 13
REMARK SMILES IDX 14 14 15 15 16 16 17 17 18 18 19 19 20 20
REMARK H PARENT
REMARK Flexibility Score: inf
ROOT
ATOM      1  C   UNL     1       2.541   5.267  25.311  1.00  0.00     0.000 C 
ENDROOT
BRANCH   1   2
ATOM      2  C   UNL     1       2.261   6.636  25.948  1.00  0.00     0.000 C 
BRANCH   2   3
ATOM      3  C   UNL     1       0.756   6.838  26.180  1.00  0.00     0.000 C 
BRANCH   3   4
ATOM      4  C   UNL     1       0.409   7.126  27.653  1.00  0.00     0.000 C 
BRANCH   4   5
ATOM      5  C   UNL     1      -1.086   7.019  28.004  1.00  0.00     0.000 C 
BRANCH   5   6
ATOM      6  C   UNL     1      -1.418   5.773  28.844  1.00  0.00     0.006 C 
BRANCH   6   7
ATOM      7  C   UNL     1      -1.377   4.484  28.012  1.00  0.00     0.053 C 
BRANCH   7   8
ATOM      8  C   UNL     1      -2.353   4.521  26.876  1.00  0.00     0.041 C 
ATOM      9  O   UNL     1      -1.957   4.350  25.693  1.00  0.00    -0.550 OA
ATOM     10  O   UNL     1      -3.697   4.775  27.120  1.00  0.00    -0.550 OA
ENDBRANCH   7   8
ENDBRANCH   6   7
ENDBRANCH   5   6
ENDBRANCH   4   5
ENDBRANCH   3   4
ENDBRANCH   2   3
ENDBRANCH   1   2
BRANCH   1  11
ATOM     11  C   UNL     1       3.794   4.589  25.889  1.00  0.00     0.000 C 
BRANCH  11  12
ATOM     12  C   UNL     1       3.794   4.558  27.424  1.00  0.00     0.000 C 
BRANCH  12  13
ATOM     13  C   UNL     1       2.932   3.398  27.948  1.00  0.00     0.000 C 
BRANCH  13  14
ATOM     14  C   UNL     1       1.999   3.826  29.093  1.00  0.00     0.000 C 
BRANCH  14  15
ATOM     15  C   UNL     1       2.431   5.153  29.739  1.00  0.00     0.000 C 
BRANCH  15  16
ATOM     16  C   UNL     1       2.488   5.074  31.273  1.00  0.00     0.006 C 
BRANCH  16  17
ATOM     17  C   UNL     1       1.245   5.670  31.946  1.00  0.00     0.053 C 
BRANCH  17  18
ATOM     18  C   UNL     1       1.188   7.148  31.721  1.00  0.00     0.041 C 
ATOM     19  O   UNL     1       0.143   7.680  31.266  1.00  0.00    -0.550 OA
ATOM     20  O   UNL     1       2.310   7.930  31.963  1.00  0.00    -0.550 OA
ENDBRANCH  17  18
ENDBRANCH  16  17
ENDBRANCH  15  16
ENDBRANCH  14  15
ENDBRANCH  13  14
ENDBRANCH  12  13
ENDBRANCH  11  12
ENDBRANCH   1  11
TORSDOF 15
ENDMDL
MODEL 9
REMARK VINA RESULT:    -4.233      2.682      5.557
REMARK INTER + INTRA:         -10.288
REMARK INTER:                  -7.853
REMARK INTRA:                  -2.435
REMARK UNBOUND:                -2.344
REMARK SMILES O=C([O-])CCCCCCCCCCCCCCC(=O)[O-]
REMARK SMILES IDX 10 1 9 2 8 3 7 4 6 5 5 6 4 7 2 8 1 9 3 10 11 11 12 12 13 13
REMARK SMILES IDX 14 14 15 15 16 16 17 17 18 18 19 19 20 20
REMARK H PARENT
REMARK Flexibility Score: inf
ROOT
ATOM      1  C   UNL     1       3.297   7.046  27.150  1.00  0.00     0.000 C 
ENDROOT
BRANCH   1   2
ATOM      2  C   UNL     1       1.903   7.567  26.772  1.00  0.00     0.000 C 
BRANCH   2   3
ATOM      3  C   UNL     1       0.803   6.753  27.468  1.00  0.00     0.000 C 
BRANCH   3   4
ATOM      4  C   UNL     1      -0.003   5.875  26.494  1.00  0.00     0.000 C 
BRANCH   4   5
ATOM      5  C   UNL     1       0.332   6.073  25.005  1.00  0.00     0.000 C 
BRANCH   5   6
ATOM      6  C   UNL     1       0.778   4.774  24.312  1.00  0.00     0.006 C 
BRANCH   6   7
ATOM      7  C   UNL     1       0.018   4.524  23.002  1.00  0.00     0.053 C 
BRANCH   7   8
ATOM      8  C   UNL     1      -1.466   4.525  23.207  1.00  0.00     0.041 C 
ATOM      9  O   UNL     1      -1.999   3.695  23.989  1.00  0.00    -0.550 OA
ATOM     10  O   UNL     1      -2.264   5.423  22.511  1.00  0.00    -0.550 OA
ENDBRANCH   7   8
ENDBRANCH   6   7
ENDBRANCH   5   6
ENDBRANCH   4   5
ENDBRANCH   3   4
ENDBRANCH   2   3
ENDBRANCH   1   2
BRANCH   1  11
ATOM     11  C   UNL     1       3.985   6.301  25.995  1.00  0.00     0.000 C 
BRANCH  11  12
ATOM     12  C   UNL     1       3.896   4.775  26.139  1.00  0.00     0.000 C 
BRANCH  12  13
ATOM     13  C   UNL     1       3.800   4.370  27.619  1.00  0.00     0.000 C 
BRANCH  13  14
ATOM     14  C   UNL     1       2.651   3.385  27.889  1.00  0.00     0.000 C 
BRANCH  14  15
ATOM     15  C   UNL     1       1.827   3.770  29.129  1.00  0.00     0.000 C 
BRANCH  15  16
ATOM     16  C   UNL     1       2.660   4.511  30.187  1.00  0.00     0.006 C 
BRANCH  16  17
ATOM     17  C   UNL     1       1.805   5.079  31.328  1.00  0.00     0.053 C 
BRANCH  17  18
ATOM     18  C   UNL     1       1.605   6.550  31.148  1.00  0.00     0.041 C 
ATOM     19  O   UNL     1       0.471   7.062  31.329  1.00  0.00    -0.550 OA
ATOM     20  O   UNL     1       2.661   7.347  30.725  1.00  0.00    -0.550 OA
ENDBRANCH  17  18
ENDBRANCH  16  17
ENDBRANCH  15  16
ENDBRANCH  14  15
ENDBRANCH  13  14
ENDBRANCH  12  13
ENDBRANCH  11  12
ENDBRANCH   1  11
TORSDOF 15
ENDMDL
