MODEL 1
REMARK VINA RESULT:    -6.453      0.000      0.000
REMARK INTER + INTRA:          -6.453
REMARK INTER:                  -6.453
REMARK INTRA:                   0.000
REMARK UNBOUND:                 0.000
REMARK SMILES Cc1cc2cc3c(C)cc(=O)oc3c(C)c2o1
REMARK SMILES IDX 8 1 7 2 9 3 10 4 11 5 12 6 13 7 6 8 5 9 4 10 3 11 2 12 17 13
REMARK SMILES IDX 16 14 14 15 15 16 1 17
REMARK H PARENT
REMARK Flexibility Score: inf
ROOT
ATOM      1  C   UNL     1      -4.995  -5.605  -0.127  1.00  0.00     0.045 C 
ATOM      2  C   UNL     1      -4.906  -4.112  -0.314  1.00  0.00    -0.033 A 
ATOM      3  C   UNL     1      -5.782  -3.280   0.394  1.00  0.00     0.098 A 
ATOM      4  C   UNL     1      -5.708  -1.897   0.226  1.00  0.00     0.336 A 
ATOM      5  O   UNL     1      -6.493  -1.144   0.861  1.00  0.00    -0.246 OA
ATOM      6  O   UNL     1      -4.814  -1.364  -0.598  1.00  0.00    -0.422 OA
ATOM      7  C   UNL     1      -3.953  -2.094  -1.300  1.00  0.00     0.145 A 
ATOM      8  C   UNL     1      -3.965  -3.521  -1.187  1.00  0.00     0.022 A 
ATOM      9  C   UNL     1      -3.050  -4.291  -1.946  1.00  0.00     0.024 A 
ATOM     10  C   UNL     1      -2.167  -3.620  -2.785  1.00  0.00     0.022 A 
ATOM     11  C   UNL     1      -1.197  -4.104  -3.632  1.00  0.00     0.054 A 
ATOM     12  C   UNL     1      -0.649  -2.964  -4.209  1.00  0.00     0.102 A 
ATOM     13  O   UNL     1      -1.240  -1.876  -3.752  1.00  0.00    -0.461 OA
ATOM     14  C   UNL     1      -2.155  -2.255  -2.892  1.00  0.00     0.140 A 
ATOM     15  C   UNL     1      -3.028  -1.449  -2.156  1.00  0.00     0.036 A 
ATOM     16  C   UNL     1      -3.020   0.045  -2.310  1.00  0.00     0.052 C 
ATOM     17  C   UNL     1       0.444  -2.953  -5.223  1.00  0.00     0.087 C 
ENDROOT
TORSDOF 0
ENDMDL
MODEL 2
REMARK VINA RESULT:    -6.319      1.329      1.972
REMARK INTER + INTRA:          -6.319
REMARK INTER:                  -6.319
REMARK INTRA:                   0.000
REMARK UNBOUND:                 0.000
REMARK SMILES Cc1cc2cc3c(C)cc(=O)oc3c(C)c2o1
REMARK SMILES IDX 8 1 7 2 9 3 10 4 11 5 12 6 13 7 6 8 5 9 4 10 3 11 2 12 17 13
REMARK SMILES IDX 16 14 14 15 15 16 1 17
REMARK H PARENT
REMARK Flexibility Score: inf
ROOT
ATOM      1  C   UNL     1      -5.577  -4.860   2.349  1.00  0.00     0.045 C 
ATOM      2  C   UNL     1      -5.807  -3.601   1.553  1.00  0.00    -0.033 A 
ATOM      3  C   UNL     1      -6.782  -2.690   1.981  1.00  0.00     0.098 A 
ATOM      4  C   UNL     1      -7.004  -1.523   1.250  1.00  0.00     0.336 A 
ATOM      5  O   UNL     1      -7.878  -0.701   1.630  1.00  0.00    -0.246 OA
ATOM      6  O   UNL     1      -6.299  -1.269   0.154  1.00  0.00    -0.422 OA
ATOM      7  C   UNL     1      -5.359  -2.089  -0.308  1.00  0.00     0.145 A 
ATOM      8  C   UNL     1      -5.072  -3.309   0.383  1.00  0.00     0.022 A 
ATOM      9  C   UNL     1      -4.076  -4.181  -0.122  1.00  0.00     0.024 A 
ATOM     10  C   UNL     1      -3.412  -3.812  -1.286  1.00  0.00     0.022 A 
ATOM     11  C   UNL     1      -2.427  -4.460  -1.995  1.00  0.00     0.054 A 
ATOM     12  C   UNL     1      -2.165  -3.612  -3.066  1.00  0.00     0.102 A 
ATOM     13  O   UNL     1      -2.932  -2.539  -3.014  1.00  0.00    -0.461 OA
ATOM     14  C   UNL     1      -3.686  -2.644  -1.945  1.00  0.00     0.140 A 
ATOM     15  C   UNL     1      -4.650  -1.744  -1.483  1.00  0.00     0.036 A 
ATOM     16  C   UNL     1      -4.958  -0.482  -2.238  1.00  0.00     0.052 C 
ATOM     17  C   UNL     1      -1.173  -3.873  -4.148  1.00  0.00     0.087 C 
ENDROOT
TORSDOF 0
ENDMDL
MODEL 3
REMARK VINA RESULT:    -6.055      8.577     11.346
REMARK INTER + INTRA:          -6.055
REMARK INTER:                  -6.055
REMARK INTRA:                   0.000
REMARK UNBOUND:                 0.000
REMARK SMILES Cc1cc2cc3c(C)cc(=O)oc3c(C)c2o1
REMARK SMILES IDX 8 1 7 2 9 3 10 4 11 5 12 6 13 7 6 8 5 9 4 10 3 11 2 12 17 13
REMARK SMILES IDX 16 14 14 15 15 16 1 17
REMARK H PARENT
REMARK Flexibility Score: inf
ROOT
ATOM      1  C   UNL     1       6.599   5.958   0.667  1.00  0.00     0.045 C 
ATOM      2  C   UNL     1       6.249   4.684  -0.058  1.00  0.00    -0.033 A 
ATOM      3  C   UNL     1       7.175   3.633  -0.080  1.00  0.00     0.098 A 
ATOM      4  C   UNL     1       6.861   2.451  -0.750  1.00  0.00     0.336 A 
ATOM      5  O   UNL     1       7.689   1.503  -0.774  1.00  0.00    -0.246 OA
ATOM      6  O   UNL     1       5.693   2.314  -1.365  1.00  0.00    -0.422 OA
ATOM      7  C   UNL     1       4.768   3.269  -1.383  1.00  0.00     0.145 A 
ATOM      8  C   UNL     1       5.014   4.514  -0.721  1.00  0.00     0.022 A 
ATOM      9  C   UNL     1       4.027   5.531  -0.754  1.00  0.00     0.024 A 
ATOM     10  C   UNL     1       2.845   5.274  -1.440  1.00  0.00     0.022 A 
ATOM     11  C   UNL     1       1.740   6.068  -1.644  1.00  0.00     0.054 A 
ATOM     12  C   UNL     1       0.888   5.277  -2.406  1.00  0.00     0.102 A 
ATOM     13  O   UNL     1       1.433   4.100  -2.650  1.00  0.00    -0.461 OA
ATOM     14  C   UNL     1       2.611   4.083  -2.072  1.00  0.00     0.140 A 
ATOM     15  C   UNL     1       3.545   3.044  -2.060  1.00  0.00     0.036 A 
ATOM     16  C   UNL     1       3.282   1.754  -2.785  1.00  0.00     0.052 C 
ATOM     17  C   UNL     1      -0.454   5.692  -2.907  1.00  0.00     0.087 C 
ENDROOT
TORSDOF 0
ENDMDL
MODEL 4
REMARK VINA RESULT:    -6.017      1.698      5.841
REMARK INTER + INTRA:          -6.017
REMARK INTER:                  -6.017
REMARK INTRA:                   0.000
REMARK UNBOUND:                 0.000
REMARK SMILES Cc1cc2cc3c(C)cc(=O)oc3c(C)c2o1
REMARK SMILES IDX 8 1 7 2 9 3 10 4 11 5 12 6 13 7 6 8 5 9 4 10 3 11 2 12 17 13
REMARK SMILES IDX 16 14 14 15 15 16 1 17
REMARK H PARENT
REMARK Flexibility Score: inf
ROOT
ATOM      1  C   UNL     1      -3.224   0.014  -3.378  1.00  0.00     0.045 C 
ATOM      2  C   UNL     1      -2.811  -1.411  -3.111  1.00  0.00    -0.033 A 
ATOM      3  C   UNL     1      -1.864  -2.017  -3.947  1.00  0.00     0.098 A 
ATOM      4  C   UNL     1      -1.478  -3.336  -3.710  1.00  0.00     0.336 A 
ATOM      5  O   UNL     1      -0.626  -3.885  -4.457  1.00  0.00    -0.246 OA
ATOM      6  O   UNL     1      -1.999  -4.020  -2.699  1.00  0.00    -0.422 OA
ATOM      7  C   UNL     1      -2.902  -3.507  -1.867  1.00  0.00     0.145 A 
ATOM      8  C   UNL     1      -3.353  -2.161  -2.044  1.00  0.00     0.022 A 
ATOM      9  C   UNL     1      -4.322  -1.626  -1.159  1.00  0.00     0.024 A 
ATOM     10  C   UNL     1      -4.804  -2.444  -0.143  1.00  0.00     0.022 A 
ATOM     11  C   UNL     1      -5.740  -2.197   0.834  1.00  0.00     0.054 A 
ATOM     12  C   UNL     1      -5.809  -3.388   1.549  1.00  0.00     0.102 A 
ATOM     13  O   UNL     1      -4.984  -4.287   1.044  1.00  0.00    -0.461 OA
ATOM     14  C   UNL     1      -4.370  -3.731   0.026  1.00  0.00     0.140 A 
ATOM     15  C   UNL     1      -3.408  -4.302  -0.811  1.00  0.00     0.036 A 
ATOM     16  C   UNL     1      -2.967  -5.727  -0.628  1.00  0.00     0.052 C 
ATOM     17  C   UNL     1      -6.701  -3.641   2.715  1.00  0.00     0.087 C 
ENDROOT
TORSDOF 0
ENDMDL
MODEL 5
REMARK VINA RESULT:    -5.953      0.984      5.276
REMARK INTER + INTRA:          -5.953
REMARK INTER:                  -5.953
REMARK INTRA:                   0.000
REMARK UNBOUND:                 0.000
REMARK SMILES Cc1cc2cc3c(C)cc(=O)oc3c(C)c2o1
REMARK SMILES IDX 8 1 7 2 9 3 10 4 11 5 12 6 13 7 6 8 5 9 4 10 3 11 2 12 17 13
REMARK SMILES IDX 16 14 14 15 15 16 1 17
REMARK H PARENT
REMARK Flexibility Score: inf
ROOT
ATOM      1  C   UNL     1      -0.675  -5.241  -3.895  1.00  0.00     0.045 C 
ATOM      2  C   UNL     1      -0.940  -3.757  -3.908  1.00  0.00    -0.033 A 
ATOM      3  C   UNL     1      -0.220  -2.941  -4.790  1.00  0.00     0.098 A 
ATOM      4  C   UNL     1      -0.457  -1.567  -4.807  1.00  0.00     0.336 A 
ATOM      5  O   UNL     1       0.187  -0.829  -5.598  1.00  0.00    -0.246 OA
ATOM      6  O   UNL     1      -1.358  -1.027  -3.997  1.00  0.00    -0.422 OA
ATOM      7  C   UNL     1      -2.077  -1.742  -3.136  1.00  0.00     0.145 A 
ATOM      8  C   UNL     1      -1.892  -3.159  -3.054  1.00  0.00     0.022 A 
ATOM      9  C   UNL     1      -2.655  -3.911  -2.127  1.00  0.00     0.024 A 
ATOM     10  C   UNL     1      -3.562  -3.232  -1.321  1.00  0.00     0.022 A 
ATOM     11  C   UNL     1      -4.410  -3.697  -0.342  1.00  0.00     0.054 A 
ATOM     12  C   UNL     1      -5.062  -2.556   0.114  1.00  0.00     0.102 A 
ATOM     13  O   UNL     1      -4.640  -1.485  -0.532  1.00  0.00    -0.461 OA
ATOM     14  C   UNL     1      -3.739  -1.877  -1.401  1.00  0.00     0.140 A 
ATOM     15  C   UNL     1      -3.021  -1.091  -2.306  1.00  0.00     0.036 A 
ATOM     16  C   UNL     1      -3.208   0.399  -2.358  1.00  0.00     0.052 C 
ATOM     17  C   UNL     1      -6.083  -2.525   1.200  1.00  0.00     0.087 C 
ENDROOT
TORSDOF 0
ENDMDL
MODEL 6
REMARK VINA RESULT:    -5.940      4.071      7.163
REMARK INTER + INTRA:          -5.940
REMARK INTER:                  -5.940
REMARK INTRA:                   0.000
REMARK UNBOUND:                 0.000
REMARK SMILES Cc1cc2cc3c(C)cc(=O)oc3c(C)c2o1
REMARK SMILES IDX 8 1 7 2 9 3 10 4 11 5 12 6 13 7 6 8 5 9 4 10 3 11 2 12 17 13
REMARK SMILES IDX 16 14 14 15 15 16 1 17
REMARK H PARENT
REMARK Flexibility Score: inf
ROOT
ATOM      1  C   UNL     1      -1.285   5.077  -5.332  1.00  0.00     0.045 C 
ATOM      2  C   UNL     1      -1.199   3.948  -4.337  1.00  0.00    -0.033 A 
ATOM      3  C   UNL     1      -0.171   3.949  -3.386  1.00  0.00     0.098 A 
ATOM      4  C   UNL     1      -0.083   2.907  -2.464  1.00  0.00     0.336 A 
ATOM      5  O   UNL     1       0.839   2.903  -1.606  1.00  0.00    -0.246 OA
ATOM      6  O   UNL     1      -0.965   1.916  -2.479  1.00  0.00    -0.422 OA
ATOM      7  C   UNL     1      -1.966   1.852  -3.352  1.00  0.00     0.145 A 
ATOM      8  C   UNL     1      -2.125   2.881  -4.335  1.00  0.00     0.022 A 
ATOM      9  C   UNL     1      -3.188   2.799  -5.268  1.00  0.00     0.024 A 
ATOM     10  C   UNL     1      -4.043   1.705  -5.192  1.00  0.00     0.022 A 
ATOM     11  C   UNL     1      -5.132   1.368  -5.963  1.00  0.00     0.054 A 
ATOM     12  C   UNL     1      -5.577   0.169  -5.418  1.00  0.00     0.102 A 
ATOM     13  O   UNL     1      -4.817  -0.195  -4.401  1.00  0.00    -0.461 OA
ATOM     14  C   UNL     1      -3.891   0.723  -4.251  1.00  0.00     0.140 A 
ATOM     15  C   UNL     1      -2.868   0.762  -3.301  1.00  0.00     0.036 A 
ATOM     16  C   UNL     1      -2.699  -0.343  -2.296  1.00  0.00     0.052 C 
ATOM     17  C   UNL     1      -6.737  -0.625  -5.914  1.00  0.00     0.087 C 
ENDROOT
TORSDOF 0
ENDMDL
MODEL 7
REMARK VINA RESULT:    -5.917      2.094      3.486
REMARK INTER + INTRA:          -5.917
REMARK INTER:                  -5.917
REMARK INTRA:                   0.000
REMARK UNBOUND:                 0.000
REMARK SMILES Cc1cc2cc3c(C)cc(=O)oc3c(C)c2o1
REMARK SMILES IDX 8 1 7 2 9 3 10 4 11 5 12 6 13 7 6 8 5 9 4 10 3 11 2 12 17 13
REMARK SMILES IDX 16 14 14 15 15 16 1 17
REMARK H PARENT
REMARK Flexibility Score: inf
ROOT
ATOM      1  C   UNL     1      -7.150  -1.331   1.373  1.00  0.00     0.045 C 
ATOM      2  C   UNL     1      -6.397  -2.636   1.316  1.00  0.00    -0.033 A 
ATOM      3  C   UNL     1      -6.737  -3.662   2.206  1.00  0.00     0.098 A 
ATOM      4  C   UNL     1      -6.044  -4.872   2.162  1.00  0.00     0.336 A 
ATOM      5  O   UNL     1      -6.345  -5.798   2.959  1.00  0.00    -0.246 OA
ATOM      6  O   UNL     1      -5.066  -5.057   1.284  1.00  0.00    -0.422 OA
ATOM      7  C   UNL     1      -4.692  -4.127   0.410  1.00  0.00     0.145 A 
ATOM      8  C   UNL     1      -5.351  -2.856   0.393  1.00  0.00     0.022 A 
ATOM      9  C   UNL     1      -4.939  -1.867  -0.535  1.00  0.00     0.024 A 
ATOM     10  C   UNL     1      -3.894  -2.175  -1.399  1.00  0.00     0.022 A 
ATOM     11  C   UNL     1      -3.290  -1.416  -2.375  1.00  0.00     0.054 A 
ATOM     12  C   UNL     1      -2.308  -2.251  -2.896  1.00  0.00     0.102 A 
ATOM     13  O   UNL     1      -2.313  -3.421  -2.284  1.00  0.00    -0.461 OA
ATOM     14  C   UNL     1      -3.265  -3.390  -1.382  1.00  0.00     0.140 A 
ATOM     15  C   UNL     1      -3.640  -4.404  -0.496  1.00  0.00     0.036 A 
ATOM     16  C   UNL     1      -2.917  -5.720  -0.472  1.00  0.00     0.052 C 
ATOM     17  C   UNL     1      -1.356  -1.886  -3.984  1.00  0.00     0.087 C 
ENDROOT
TORSDOF 0
ENDMDL
MODEL 8
REMARK VINA RESULT:    -5.881      5.894      8.129
REMARK INTER + INTRA:          -5.881
REMARK INTER:                  -5.881
REMARK INTRA:                   0.000
REMARK UNBOUND:                 0.000
REMARK SMILES Cc1cc2cc3c(C)cc(=O)oc3c(C)c2o1
REMARK SMILES IDX 8 1 7 2 9 3 10 4 11 5 12 6 13 7 6 8 5 9 4 10 3 11 2 12 17 13
REMARK SMILES IDX 16 14 14 15 15 16 1 17
REMARK H PARENT
REMARK Flexibility Score: inf
ROOT
ATOM      1  C   UNL     1      -2.571   0.882  -3.496  1.00  0.00     0.045 C 
ATOM      2  C   UNL     1      -2.451   2.293  -4.010  1.00  0.00    -0.033 A 
ATOM      3  C   UNL     1      -3.416   2.781  -4.901  1.00  0.00     0.098 A 
ATOM      4  C   UNL     1      -3.312   4.086  -5.384  1.00  0.00     0.336 A 
ATOM      5  O   UNL     1      -4.176   4.530  -6.185  1.00  0.00    -0.246 OA
ATOM      6  O   UNL     1      -2.308   4.867  -5.006  1.00  0.00    -0.422 OA
ATOM      7  C   UNL     1      -1.359   4.469  -4.164  1.00  0.00     0.145 A 
ATOM      8  C   UNL     1      -1.391   3.143  -3.625  1.00  0.00     0.022 A 
ATOM      9  C   UNL     1      -0.371   2.724  -2.736  1.00  0.00     0.024 A 
ATOM     10  C   UNL     1       0.637   3.630  -2.422  1.00  0.00     0.022 A 
ATOM     11  C   UNL     1       1.740   3.493  -1.612  1.00  0.00     0.054 A 
ATOM     12  C   UNL     1       2.379   4.725  -1.695  1.00  0.00     0.102 A 
ATOM     13  O   UNL     1       1.720   5.543  -2.494  1.00  0.00    -0.461 OA
ATOM     14  C   UNL     1       0.666   4.898  -2.937  1.00  0.00     0.140 A 
ATOM     15  C   UNL     1      -0.322   5.364  -3.808  1.00  0.00     0.036 A 
ATOM     16  C   UNL     1      -0.255   6.750  -4.386  1.00  0.00     0.052 C 
ATOM     17  C   UNL     1       3.649   5.085  -1.001  1.00  0.00     0.087 C 
ENDROOT
TORSDOF 0
ENDMDL
MODEL 9
REMARK VINA RESULT:    -5.825      2.991      4.675
REMARK INTER + INTRA:          -5.825
REMARK INTER:                  -5.825
REMARK INTRA:                   0.000
REMARK UNBOUND:                 0.000
REMARK SMILES Cc1cc2cc3c(C)cc(=O)oc3c(C)c2o1
REMARK SMILES IDX 8 1 7 2 9 3 10 4 11 5 12 6 13 7 6 8 5 9 4 10 3 11 2 12 17 13
REMARK SMILES IDX 16 14 14 15 15 16 1 17
REMARK H PARENT
REMARK Flexibility Score: inf
ROOT
ATOM      1  C   UNL     1      -1.874  -3.652  -4.158  1.00  0.00     0.045 C 
ATOM      2  C   UNL     1      -1.798  -2.265  -3.571  1.00  0.00    -0.033 A 
ATOM      3  C   UNL     1      -2.899  -1.757  -2.869  1.00  0.00     0.098 A 
ATOM      4  C   UNL     1      -2.838  -0.475  -2.325  1.00  0.00     0.336 A 
ATOM      5  O   UNL     1      -3.824  -0.013  -1.693  1.00  0.00    -0.246 OA
ATOM      6  O   UNL     1      -1.747   0.267  -2.466  1.00  0.00    -0.422 OA
ATOM      7  C   UNL     1      -0.666  -0.152  -3.119  1.00  0.00     0.145 A 
ATOM      8  C   UNL     1      -0.649  -1.455  -3.709  1.00  0.00     0.022 A 
ATOM      9  C   UNL     1       0.503  -1.890  -4.411  1.00  0.00     0.024 A 
ATOM     10  C   UNL     1       1.582  -1.018  -4.502  1.00  0.00     0.022 A 
ATOM     11  C   UNL     1       2.801  -1.167  -5.122  1.00  0.00     0.054 A 
ATOM     12  C   UNL     1       3.456   0.035  -4.880  1.00  0.00     0.102 A 
ATOM     13  O   UNL     1       2.695   0.850  -4.173  1.00  0.00    -0.461 OA
ATOM     14  C   UNL     1       1.565   0.228  -3.935  1.00  0.00     0.140 A 
ATOM     15  C   UNL     1       0.459   0.700  -3.223  1.00  0.00     0.036 A 
ATOM     16  C   UNL     1       0.448   2.083  -2.634  1.00  0.00     0.052 C 
ATOM     17  C   UNL     1       4.823   0.383  -5.362  1.00  0.00     0.087 C 
ENDROOT
TORSDOF 0
ENDMDL
