MODEL 1
REMARK VINA RESULT:    20.326      0.000      0.000
REMARK INTER + INTRA:          51.902
REMARK INTER:                  53.598
REMARK INTRA:                  -1.697
REMARK UNBOUND:                -1.697
REMARK SMILES CCCCCCCCCCCCCCCCCCCCCCCCCCCCCC(=O)[O-]
REMARK SMILES IDX 16 1 17 2 18 3 19 4 20 5 21 6 22 7 23 8 24 9 25 10 26 11
REMARK SMILES IDX 27 12 28 13 29 14 30 15 31 16 32 17 15 18 14 19 13 20 12 21
REMARK SMILES IDX 11 22 10 23 9 24 8 25 7 26 6 27 5 28 4 29 3 30 2 31 1 32
REMARK H PARENT
REMARK Flexibility Score: inf
ROOT
ATOM      1  C   UNL     1      73.594  53.901  -4.377  1.00  0.00     0.000 C 
ENDROOT
BRANCH   1   2
ATOM      2  C   UNL     1      73.945  52.418  -4.200  1.00  0.00     0.000 C 
BRANCH   2   3
ATOM      3  C   UNL     1      74.493  52.097  -2.798  1.00  0.00     0.000 C 
BRANCH   3   4
ATOM      4  C   UNL     1      75.326  50.804  -2.783  1.00  0.00     0.000 C 
BRANCH   4   5
ATOM      5  C   UNL     1      76.093  50.602  -4.104  1.00  0.00     0.000 C 
BRANCH   5   6
ATOM      6  C   UNL     1      77.604  50.376  -3.898  1.00  0.00     0.000 C 
BRANCH   6   7
ATOM      7  C   UNL     1      77.995  48.916  -3.588  1.00  0.00     0.000 C 
BRANCH   7   8
ATOM      8  C   UNL     1      79.173  48.735  -2.615  1.00  0.00     0.000 C 
BRANCH   8   9
ATOM      9  C   UNL     1      80.329  47.852  -3.131  1.00  0.00     0.000 C 
BRANCH   9  10
ATOM     10  C   UNL     1      81.723  48.500  -2.998  1.00  0.00     0.000 C 
BRANCH  10  11
ATOM     11  C   UNL     1      81.692  50.029  -3.180  1.00  0.00     0.000 C 
BRANCH  11  12
ATOM     12  C   UNL     1      82.125  50.796  -1.916  1.00  0.00     0.000 C 
BRANCH  12  13
ATOM     13  C   UNL     1      81.064  51.751  -1.334  1.00  0.00     0.006 C 
BRANCH  13  14
ATOM     14  C   UNL     1      79.755  51.818  -2.133  1.00  0.00     0.053 C 
BRANCH  14  15
ATOM     15  C   UNL     1      79.486  53.192  -2.669  1.00  0.00     0.041 C 
ATOM     16  O   UNL     1      78.557  53.889  -2.186  1.00  0.00    -0.550 OA
ATOM     17  O   UNL     1      80.237  53.685  -3.730  1.00  0.00    -0.550 OA
ENDBRANCH  14  15
ENDBRANCH  13  14
ENDBRANCH  12  13
ENDBRANCH  11  12
ENDBRANCH  10  11
ENDBRANCH   9  10
ENDBRANCH   8   9
ENDBRANCH   7   8
ENDBRANCH   6   7
ENDBRANCH   5   6
ENDBRANCH   4   5
ENDBRANCH   3   4
ENDBRANCH   2   3
ENDBRANCH   1   2
BRANCH   1  18
ATOM     18  C   UNL     1      74.612  54.839  -3.704  1.00  0.00     0.000 C 
BRANCH  18  19
ATOM     19  C   UNL     1      74.612  56.248  -4.316  1.00  0.00     0.000 C 
BRANCH  19  20
ATOM     20  C   UNL     1      74.043  57.311  -3.357  1.00  0.00     0.000 C 
BRANCH  20  21
ATOM     21  C   UNL     1      74.612  58.712  -3.625  1.00  0.00     0.000 C 
BRANCH  21  22
ATOM     22  C   UNL     1      73.616  59.836  -3.282  1.00  0.00     0.000 C 
BRANCH  22  23
ATOM     23  C   UNL     1      73.302  59.907  -1.772  1.00  0.00     0.000 C 
BRANCH  23  24
ATOM     24  C   UNL     1      71.889  59.418  -1.395  1.00  0.00    -0.000 C 
BRANCH  24  25
ATOM     25  C   UNL     1      71.100  58.743  -2.531  1.00  0.00    -0.000 C 
BRANCH  25  26
ATOM     26  C   UNL     1      69.836  58.021  -2.037  1.00  0.00    -0.000 C 
BRANCH  26  27
ATOM     27  C   UNL     1      68.585  58.876  -2.284  1.00  0.00    -0.000 C 
BRANCH  27  28
ATOM     28  C   UNL     1      67.811  59.199  -0.991  1.00  0.00    -0.000 C 
BRANCH  28  29
ATOM     29  C   UNL     1      67.311  60.655  -0.866  1.00  0.00    -0.000 C 
BRANCH  29  30
ATOM     30  C   UNL     1      67.954  61.659  -1.840  1.00  0.00    -0.000 C 
BRANCH  30  31
ATOM     31  C   UNL     1      68.338  62.983  -1.167  1.00  0.00    -0.003 C 
ATOM     32  C   UNL     1      69.855  63.139  -1.094  1.00  0.00     0.004 C 
ENDBRANCH  30  31
ENDBRANCH  29  30
ENDBRANCH  28  29
ENDBRANCH  27  28
ENDBRANCH  26  27
ENDBRANCH  25  26
ENDBRANCH  24  25
ENDBRANCH  23  24
ENDBRANCH  22  23
ENDBRANCH  21  22
ENDBRANCH  20  21
ENDBRANCH  19  20
ENDBRANCH  18  19
ENDBRANCH   1  18
TORSDOF 28
ENDMDL
MODEL 2
REMARK VINA RESULT:    21.053      1.302      2.297
REMARK INTER + INTRA:          53.817
REMARK INTER:                  54.562
REMARK INTRA:                  -0.745
REMARK UNBOUND:                -1.697
REMARK SMILES CCCCCCCCCCCCCCCCCCCCCCCCCCCCCC(=O)[O-]
REMARK SMILES IDX 16 1 17 2 18 3 19 4 20 5 21 6 22 7 23 8 24 9 25 10 26 11
REMARK SMILES IDX 27 12 28 13 29 14 30 15 31 16 32 17 15 18 14 19 13 20 12 21
REMARK SMILES IDX 11 22 10 23 9 24 8 25 7 26 6 27 5 28 4 29 3 30 2 31 1 32
REMARK H PARENT
REMARK Flexibility Score: inf
ROOT
ATOM      1  C   UNL     1      73.454  52.548  -3.815  1.00  0.00     0.000 C 
ENDROOT
BRANCH   1   2
ATOM      2  C   UNL     1      74.314  51.904  -2.720  1.00  0.00     0.000 C 
BRANCH   2   3
ATOM      3  C   UNL     1      74.965  50.585  -3.171  1.00  0.00     0.000 C 
BRANCH   3   4
ATOM      4  C   UNL     1      76.286  50.819  -3.925  1.00  0.00     0.000 C 
BRANCH   4   5
ATOM      5  C   UNL     1      77.208  49.587  -3.863  1.00  0.00     0.000 C 
BRANCH   5   6
ATOM      6  C   UNL     1      78.671  49.940  -3.533  1.00  0.00     0.000 C 
BRANCH   6   7
ATOM      7  C   UNL     1      79.451  48.821  -2.813  1.00  0.00     0.000 C 
BRANCH   7   8
ATOM      8  C   UNL     1      80.863  48.537  -3.358  1.00  0.00     0.000 C 
BRANCH   8   9
ATOM      9  C   UNL     1      82.026  49.081  -2.502  1.00  0.00     0.000 C 
BRANCH   9  10
ATOM     10  C   UNL     1      81.838  50.542  -2.041  1.00  0.00     0.000 C 
BRANCH  10  11
ATOM     11  C   UNL     1      80.834  50.679  -0.881  1.00  0.00     0.000 C 
BRANCH  11  12
ATOM     12  C   UNL     1      80.357  52.127  -0.663  1.00  0.00     0.000 C 
BRANCH  12  13
ATOM     13  C   UNL     1      80.615  53.086  -1.842  1.00  0.00     0.006 C 
BRANCH  13  14
ATOM     14  C   UNL     1      79.780  52.798  -3.098  1.00  0.00     0.053 C 
BRANCH  14  15
ATOM     15  C   UNL     1      80.093  53.743  -4.218  1.00  0.00     0.041 C 
ATOM     16  O   UNL     1      80.184  53.319  -5.398  1.00  0.00    -0.550 OA
ATOM     17  O   UNL     1      80.325  55.088  -3.949  1.00  0.00    -0.550 OA
ENDBRANCH  14  15
ENDBRANCH  13  14
ENDBRANCH  12  13
ENDBRANCH  11  12
ENDBRANCH  10  11
ENDBRANCH   9  10
ENDBRANCH   8   9
ENDBRANCH   7   8
ENDBRANCH   6   7
ENDBRANCH   5   6
ENDBRANCH   4   5
ENDBRANCH   3   4
ENDBRANCH   2   3
ENDBRANCH   1   2
BRANCH   1  18
ATOM     18  C   UNL     1      73.695  54.062  -3.949  1.00  0.00     0.000 C 
BRANCH  18  19
ATOM     19  C   UNL     1      72.435  54.889  -3.653  1.00  0.00     0.000 C 
BRANCH  19  20
ATOM     20  C   UNL     1      72.755  56.362  -3.335  1.00  0.00     0.000 C 
BRANCH  20  21
ATOM     21  C   UNL     1      71.494  57.237  -3.260  1.00  0.00     0.000 C 
BRANCH  21  22
ATOM     22  C   UNL     1      71.688  58.490  -2.387  1.00  0.00     0.000 C 
BRANCH  22  23
ATOM     23  C   UNL     1      70.474  58.770  -1.475  1.00  0.00     0.000 C 
BRANCH  23  24
ATOM     24  C   UNL     1      69.191  58.015  -1.879  1.00  0.00    -0.000 C 
BRANCH  24  25
ATOM     25  C   UNL     1      67.973  58.904  -2.188  1.00  0.00    -0.000 C 
BRANCH  25  26
ATOM     26  C   UNL     1      67.095  59.169  -0.954  1.00  0.00    -0.000 C 
BRANCH  26  27
ATOM     27  C   UNL     1      67.132  60.653  -0.563  1.00  0.00    -0.000 C 
BRANCH  27  28
ATOM     28  C   UNL     1      67.942  61.516  -1.551  1.00  0.00    -0.000 C 
BRANCH  28  29
ATOM     29  C   UNL     1      69.000  62.440  -0.909  1.00  0.00    -0.000 C 
BRANCH  29  30
ATOM     30  C   UNL     1      68.698  63.947  -0.995  1.00  0.00    -0.000 C 
BRANCH  30  31
ATOM     31  C   UNL     1      68.638  64.463  -2.439  1.00  0.00    -0.003 C 
ATOM     32  C   UNL     1      69.617  63.704  -3.331  1.00  0.00     0.004 C 
ENDBRANCH  30  31
ENDBRANCH  29  30
ENDBRANCH  28  29
ENDBRANCH  27  28
ENDBRANCH  26  27
ENDBRANCH  25  26
ENDBRANCH  24  25
ENDBRANCH  23  24
ENDBRANCH  22  23
ENDBRANCH  21  22
ENDBRANCH  20  21
ENDBRANCH  19  20
ENDBRANCH  18  19
ENDBRANCH   1  18
TORSDOF 28
ENDMDL
MODEL 3
REMARK VINA RESULT:    21.075      3.575     12.490
REMARK INTER + INTRA:          53.876
REMARK INTER:                  56.400
REMARK INTRA:                  -2.524
REMARK UNBOUND:                -1.697
REMARK SMILES CCCCCCCCCCCCCCCCCCCCCCCCCCCCCC(=O)[O-]
REMARK SMILES IDX 16 1 17 2 18 3 19 4 20 5 21 6 22 7 23 8 24 9 25 10 26 11
REMARK SMILES IDX 27 12 28 13 29 14 30 15 31 16 32 17 15 18 14 19 13 20 12 21
REMARK SMILES IDX 11 22 10 23 9 24 8 25 7 26 6 27 5 28 4 29 3 30 2 31 1 32
REMARK H PARENT
REMARK Flexibility Score: inf
ROOT
ATOM      1  C   UNL     1      74.744  55.847  -3.869  1.00  0.00     0.000 C 
ENDROOT
BRANCH   1   2
ATOM      2  C   UNL     1      73.870  57.089  -3.649  1.00  0.00     0.000 C 
BRANCH   2   3
ATOM      3  C   UNL     1      74.675  58.400  -3.686  1.00  0.00     0.000 C 
BRANCH   3   4
ATOM      4  C   UNL     1      73.835  59.582  -4.200  1.00  0.00     0.000 C 
BRANCH   4   5
ATOM      5  C   UNL     1      73.547  60.607  -3.087  1.00  0.00     0.000 C 
BRANCH   5   6
ATOM      6  C   UNL     1      73.933  60.103  -1.684  1.00  0.00     0.000 C 
BRANCH   6   7
ATOM      7  C   UNL     1      72.746  59.591  -0.841  1.00  0.00     0.000 C 
BRANCH   7   8
ATOM      8  C   UNL     1      71.348  59.858  -1.428  1.00  0.00     0.000 C 
BRANCH   8   9
ATOM      9  C   UNL     1      70.502  58.603  -1.725  1.00  0.00     0.000 C 
BRANCH   9  10
ATOM     10  C   UNL     1      69.268  58.871  -2.612  1.00  0.00     0.000 C 
BRANCH  10  11
ATOM     11  C   UNL     1      67.938  58.645  -1.871  1.00  0.00     0.000 C 
BRANCH  11  12
ATOM     12  C   UNL     1      67.127  59.939  -1.678  1.00  0.00     0.000 C 
BRANCH  12  13
ATOM     13  C   UNL     1      67.876  61.082  -0.962  1.00  0.00     0.006 C 
BRANCH  13  14
ATOM     14  C   UNL     1      68.478  62.138  -1.900  1.00  0.00     0.053 C 
BRANCH  14  15
ATOM     15  C   UNL     1      68.903  63.373  -1.164  1.00  0.00     0.041 C 
ATOM     16  O   UNL     1      68.182  64.403  -1.186  1.00  0.00    -0.550 OA
ATOM     17  O   UNL     1      70.119  63.397  -0.488  1.00  0.00    -0.550 OA
ENDBRANCH  14  15
ENDBRANCH  13  14
ENDBRANCH  12  13
ENDBRANCH  11  12
ENDBRANCH  10  11
ENDBRANCH   9  10
ENDBRANCH   8   9
ENDBRANCH   7   8
ENDBRANCH   6   7
ENDBRANCH   5   6
ENDBRANCH   4   5
ENDBRANCH   3   4
ENDBRANCH   2   3
ENDBRANCH   1   2
BRANCH   1  18
ATOM     18  C   UNL     1      73.978  54.689  -4.532  1.00  0.00     0.000 C 
BRANCH  18  19
ATOM     19  C   UNL     1      73.530  53.622  -3.522  1.00  0.00     0.000 C 
BRANCH  19  20
ATOM     20  C   UNL     1      73.959  52.200  -3.931  1.00  0.00     0.000 C 
BRANCH  20  21
ATOM     21  C   UNL     1      74.291  51.313  -2.722  1.00  0.00     0.000 C 
BRANCH  21  22
ATOM     22  C   UNL     1      75.472  50.360  -2.988  1.00  0.00     0.000 C 
BRANCH  22  23
ATOM     23  C   UNL     1      76.448  50.908  -4.051  1.00  0.00     0.000 C 
BRANCH  23  24
ATOM     24  C   UNL     1      77.596  49.945  -4.413  1.00  0.00    -0.000 C 
BRANCH  24  25
ATOM     25  C   UNL     1      77.960  48.915  -3.329  1.00  0.00    -0.000 C 
BRANCH  25  26
ATOM     26  C   UNL     1      79.440  48.975  -2.917  1.00  0.00    -0.000 C 
BRANCH  26  27
ATOM     27  C   UNL     1      79.634  49.895  -1.704  1.00  0.00    -0.000 C 
BRANCH  27  28
ATOM     28  C   UNL     1      80.960  50.679  -1.748  1.00  0.00    -0.000 C 
BRANCH  28  29
ATOM     29  C   UNL     1      80.819  52.217  -1.764  1.00  0.00    -0.000 C 
BRANCH  29  30
ATOM     30  C   UNL     1      79.726  52.769  -2.697  1.00  0.00    -0.000 C 
BRANCH  30  31
ATOM     31  C   UNL     1      80.229  53.898  -3.606  1.00  0.00    -0.003 C 
ATOM     32  C   UNL     1      80.100  53.513  -5.078  1.00  0.00     0.004 C 
ENDBRANCH  30  31
ENDBRANCH  29  30
ENDBRANCH  28  29
ENDBRANCH  27  28
ENDBRANCH  26  27
ENDBRANCH  25  26
ENDBRANCH  24  25
ENDBRANCH  23  24
ENDBRANCH  22  23
ENDBRANCH  21  22
ENDBRANCH  20  21
ENDBRANCH  19  20
ENDBRANCH  18  19
ENDBRANCH   1  18
TORSDOF 28
ENDMDL
MODEL 4
REMARK VINA RESULT:    21.203      3.641     12.158
REMARK INTER + INTRA:          54.212
REMARK INTER:                  55.576
REMARK INTRA:                  -1.364
REMARK UNBOUND:                -1.697
REMARK SMILES CCCCCCCCCCCCCCCCCCCCCCCCCCCCCC(=O)[O-]
REMARK SMILES IDX 16 1 17 2 18 3 19 4 20 5 21 6 22 7 23 8 24 9 25 10 26 11
REMARK SMILES IDX 27 12 28 13 29 14 30 15 31 16 32 17 15 18 14 19 13 20 12 21
REMARK SMILES IDX 11 22 10 23 9 24 8 25 7 26 6 27 5 28 4 29 3 30 2 31 1 32
REMARK H PARENT
REMARK Flexibility Score: inf
ROOT
ATOM      1  C   UNL     1      73.623  51.948  -3.146  1.00  0.00     0.000 C 
ENDROOT
BRANCH   1   2
ATOM      2  C   UNL     1      73.878  52.867  -4.348  1.00  0.00     0.000 C 
BRANCH   2   3
ATOM      3  C   UNL     1      73.567  54.344  -4.047  1.00  0.00     0.000 C 
BRANCH   3   4
ATOM      4  C   UNL     1      74.846  55.187  -3.902  1.00  0.00     0.000 C 
BRANCH   4   5
ATOM      5  C   UNL     1      74.647  56.624  -4.419  1.00  0.00     0.000 C 
BRANCH   5   6
ATOM      6  C   UNL     1      74.047  57.571  -3.362  1.00  0.00     0.000 C 
BRANCH   6   7
ATOM      7  C   UNL     1      74.492  59.042  -3.497  1.00  0.00     0.000 C 
BRANCH   7   8
ATOM      8  C   UNL     1      73.944  60.004  -2.428  1.00  0.00     0.000 C 
BRANCH   8   9
ATOM      9  C   UNL     1      72.407  60.104  -2.350  1.00  0.00     0.000 C 
BRANCH   9  10
ATOM     10  C   UNL     1      71.742  58.963  -1.551  1.00  0.00     0.000 C 
BRANCH  10  11
ATOM     11  C   UNL     1      70.593  58.285  -2.320  1.00  0.00     0.000 C 
BRANCH  11  12
ATOM     12  C   UNL     1      69.223  58.464  -1.640  1.00  0.00     0.000 C 
BRANCH  12  13
ATOM     13  C   UNL     1      68.003  58.293  -2.568  1.00  0.00     0.006 C 
BRANCH  13  14
ATOM     14  C   UNL     1      67.042  59.491  -2.588  1.00  0.00     0.053 C 
BRANCH  14  15
ATOM     15  C   UNL     1      67.238  60.396  -1.410  1.00  0.00     0.041 C 
ATOM     16  O   UNL     1      67.965  61.417  -1.509  1.00  0.00    -0.550 OA
ATOM     17  O   UNL     1      66.647  60.087  -0.188  1.00  0.00    -0.550 OA
ENDBRANCH  14  15
ENDBRANCH  13  14
ENDBRANCH  12  13
ENDBRANCH  11  12
ENDBRANCH  10  11
ENDBRANCH   9  10
ENDBRANCH   8   9
ENDBRANCH   7   8
ENDBRANCH   6   7
ENDBRANCH   5   6
ENDBRANCH   4   5
ENDBRANCH   3   4
ENDBRANCH   2   3
ENDBRANCH   1   2
BRANCH   1  18
ATOM     18  C   UNL     1      74.869  51.142  -2.738  1.00  0.00     0.000 C 
BRANCH  18  19
ATOM     19  C   UNL     1      75.903  51.039  -3.869  1.00  0.00     0.000 C 
BRANCH  19  20
ATOM     20  C   UNL     1      77.226  50.400  -3.406  1.00  0.00     0.000 C 
BRANCH  20  21
ATOM     21  C   UNL     1      77.616  49.176  -4.246  1.00  0.00     0.000 C 
BRANCH  21  22
ATOM     22  C   UNL     1      78.420  48.134  -3.446  1.00  0.00     0.000 C 
BRANCH  22  23
ATOM     23  C   UNL     1      79.632  48.753  -2.719  1.00  0.00     0.000 C 
BRANCH  23  24
ATOM     24  C   UNL     1      80.994  48.428  -3.366  1.00  0.00    -0.000 C 
BRANCH  24  25
ATOM     25  C   UNL     1      82.124  49.428  -3.061  1.00  0.00    -0.000 C 
BRANCH  25  26
ATOM     26  C   UNL     1      81.955  50.129  -1.703  1.00  0.00    -0.000 C 
BRANCH  26  27
ATOM     27  C   UNL     1      81.605  51.611  -1.893  1.00  0.00    -0.000 C 
BRANCH  27  28
ATOM     28  C   UNL     1      80.278  52.008  -1.216  1.00  0.00    -0.000 C 
BRANCH  28  29
ATOM     29  C   UNL     1      79.183  52.538  -2.168  1.00  0.00    -0.000 C 
BRANCH  29  30
ATOM     30  C   UNL     1      79.461  53.919  -2.789  1.00  0.00    -0.000 C 
BRANCH  30  31
ATOM     31  C   UNL     1      80.533  53.876  -3.886  1.00  0.00    -0.003 C 
ATOM     32  C   UNL     1      79.930  53.441  -5.220  1.00  0.00     0.004 C 
ENDBRANCH  30  31
ENDBRANCH  29  30
ENDBRANCH  28  29
ENDBRANCH  27  28
ENDBRANCH  26  27
ENDBRANCH  25  26
ENDBRANCH  24  25
ENDBRANCH  23  24
ENDBRANCH  22  23
ENDBRANCH  21  22
ENDBRANCH  20  21
ENDBRANCH  19  20
ENDBRANCH  18  19
ENDBRANCH   1  18
TORSDOF 28
ENDMDL
MODEL 5
REMARK VINA RESULT:    21.276      1.069      2.092
REMARK INTER + INTRA:          54.405
REMARK INTER:                  56.097
REMARK INTRA:                  -1.692
REMARK UNBOUND:                -1.697
REMARK SMILES CCCCCCCCCCCCCCCCCCCCCCCCCCCCCC(=O)[O-]
REMARK SMILES IDX 16 1 17 2 18 3 19 4 20 5 21 6 22 7 23 8 24 9 25 10 26 11
REMARK SMILES IDX 27 12 28 13 29 14 30 15 31 16 32 17 15 18 14 19 13 20 12 21
REMARK SMILES IDX 11 22 10 23 9 24 8 25 7 26 6 27 5 28 4 29 3 30 2 31 1 32
REMARK H PARENT
REMARK Flexibility Score: inf
ROOT
ATOM      1  C   UNL     1      74.474  55.908  -4.264  1.00  0.00     0.000 C 
ENDROOT
BRANCH   1   2
ATOM      2  C   UNL     1      73.548  54.719  -3.971  1.00  0.00     0.000 C 
BRANCH   2   3
ATOM      3  C   UNL     1      74.183  53.365  -4.334  1.00  0.00     0.000 C 
BRANCH   3   4
ATOM      4  C   UNL     1      74.666  52.600  -3.089  1.00  0.00     0.000 C 
BRANCH   4   5
ATOM      5  C   UNL     1      74.225  51.124  -3.117  1.00  0.00     0.000 C 
BRANCH   5   6
ATOM      6  C   UNL     1      75.404  50.137  -3.015  1.00  0.00     0.000 C 
BRANCH   6   7
ATOM      7  C   UNL     1      76.663  50.566  -3.796  1.00  0.00     0.000 C 
BRANCH   7   8
ATOM      8  C   UNL     1      77.688  49.451  -4.071  1.00  0.00     0.000 C 
BRANCH   8   9
ATOM      9  C   UNL     1      78.273  48.764  -2.820  1.00  0.00     0.000 C 
BRANCH   9  10
ATOM     10  C   UNL     1      79.647  48.101  -3.051  1.00  0.00     0.000 C 
BRANCH  10  11
ATOM     11  C   UNL     1      80.724  49.100  -3.511  1.00  0.00     0.000 C 
BRANCH  11  12
ATOM     12  C   UNL     1      81.995  49.061  -2.641  1.00  0.00     0.000 C 
BRANCH  12  13
ATOM     13  C   UNL     1      82.125  50.208  -1.619  1.00  0.00     0.006 C 
BRANCH  13  14
ATOM     14  C   UNL     1      81.663  51.580  -2.132  1.00  0.00     0.053 C 
BRANCH  14  15
ATOM     15  C   UNL     1      80.372  52.015  -1.508  1.00  0.00     0.041 C 
ATOM     16  O   UNL     1      80.185  51.868  -0.273  1.00  0.00    -0.550 OA
ATOM     17  O   UNL     1      79.359  52.546  -2.300  1.00  0.00    -0.550 OA
ENDBRANCH  14  15
ENDBRANCH  13  14
ENDBRANCH  12  13
ENDBRANCH  11  12
ENDBRANCH  10  11
ENDBRANCH   9  10
ENDBRANCH   8   9
ENDBRANCH   7   8
ENDBRANCH   6   7
ENDBRANCH   5   6
ENDBRANCH   4   5
ENDBRANCH   3   4
ENDBRANCH   2   3
ENDBRANCH   1   2
BRANCH   1  18
ATOM     18  C   UNL     1      74.198  57.117  -3.352  1.00  0.00     0.000 C 
BRANCH  18  19
ATOM     19  C   UNL     1      74.685  58.440  -3.962  1.00  0.00     0.000 C 
BRANCH  19  20
ATOM     20  C   UNL     1      73.769  59.628  -3.609  1.00  0.00     0.000 C 
BRANCH  20  21
ATOM     21  C   UNL     1      73.903  60.060  -2.142  1.00  0.00     0.000 C 
BRANCH  21  22
ATOM     22  C   UNL     1      72.568  60.000  -1.377  1.00  0.00     0.000 C 
BRANCH  22  23
ATOM     23  C   UNL     1      71.652  58.861  -1.874  1.00  0.00     0.000 C 
BRANCH  23  24
ATOM     24  C   UNL     1      70.147  59.116  -1.656  1.00  0.00    -0.000 C 
BRANCH  24  25
ATOM     25  C   UNL     1      69.203  58.089  -2.306  1.00  0.00    -0.000 C 
BRANCH  25  26
ATOM     26  C   UNL     1      67.721  58.484  -2.199  1.00  0.00    -0.000 C 
BRANCH  26  27
ATOM     27  C   UNL     1      67.541  59.683  -1.258  1.00  0.00    -0.000 C 
BRANCH  27  28
ATOM     28  C   UNL     1      67.340  61.014  -2.010  1.00  0.00    -0.000 C 
BRANCH  28  29
ATOM     29  C   UNL     1      68.042  62.239  -1.384  1.00  0.00    -0.000 C 
BRANCH  29  30
ATOM     30  C   UNL     1      68.865  63.097  -2.361  1.00  0.00    -0.000 C 
BRANCH  30  31
ATOM     31  C   UNL     1      69.515  64.313  -1.688  1.00  0.00    -0.003 C 
ATOM     32  C   UNL     1      68.937  64.539  -0.293  1.00  0.00     0.004 C 
ENDBRANCH  30  31
ENDBRANCH  29  30
ENDBRANCH  28  29
ENDBRANCH  27  28
ENDBRANCH  26  27
ENDBRANCH  25  26
ENDBRANCH  24  25
ENDBRANCH  23  24
ENDBRANCH  22  23
ENDBRANCH  21  22
ENDBRANCH  20  21
ENDBRANCH  19  20
ENDBRANCH  18  19
ENDBRANCH   1  18
TORSDOF 28
ENDMDL
MODEL 6
REMARK VINA RESULT:    21.469      3.346     12.738
REMARK INTER + INTRA:          54.915
REMARK INTER:                  57.272
REMARK INTRA:                  -2.357
REMARK UNBOUND:                -1.697
REMARK SMILES CCCCCCCCCCCCCCCCCCCCCCCCCCCCCC(=O)[O-]
REMARK SMILES IDX 16 1 17 2 18 3 19 4 20 5 21 6 22 7 23 8 24 9 25 10 26 11
REMARK SMILES IDX 27 12 28 13 29 14 30 15 31 16 32 17 15 18 14 19 13 20 12 21
REMARK SMILES IDX 11 22 10 23 9 24 8 25 7 26 6 27 5 28 4 29 3 30 2 31 1 32
REMARK H PARENT
REMARK Flexibility Score: inf
ROOT
ATOM      1  C   UNL     1      73.438  54.681  -3.980  1.00  0.00     0.000 C 
ENDROOT
BRANCH   1   2
ATOM      2  C   UNL     1      71.916  54.875  -3.961  1.00  0.00     0.000 C 
BRANCH   2   3
ATOM      3  C   UNL     1      71.444  55.779  -2.808  1.00  0.00     0.000 C 
BRANCH   3   4
ATOM      4  C   UNL     1      70.887  57.120  -3.314  1.00  0.00     0.000 C 
BRANCH   4   5
ATOM      5  C   UNL     1      71.313  58.295  -2.412  1.00  0.00     0.000 C 
BRANCH   5   6
ATOM      6  C   UNL     1      72.662  58.915  -2.823  1.00  0.00     0.000 C 
BRANCH   6   7
ATOM      7  C   UNL     1      73.062  60.165  -2.011  1.00  0.00     0.000 C 
BRANCH   7   8
ATOM      8  C   UNL     1      72.068  60.596  -0.918  1.00  0.00     0.000 C 
BRANCH   8   9
ATOM      9  C   UNL     1      70.990  61.605  -1.363  1.00  0.00     0.000 C 
BRANCH   9  10
ATOM     10  C   UNL     1      70.555  62.590  -0.257  1.00  0.00     0.000 C 
BRANCH  10  11
ATOM     11  C   UNL     1      69.455  63.562  -0.720  1.00  0.00     0.000 C 
BRANCH  11  12
ATOM     12  C   UNL     1      68.652  63.036  -1.924  1.00  0.00     0.000 C 
BRANCH  12  13
ATOM     13  C   UNL     1      67.494  62.080  -1.573  1.00  0.00     0.006 C 
BRANCH  13  14
ATOM     14  C   UNL     1      67.430  60.808  -2.431  1.00  0.00     0.053 C 
BRANCH  14  15
ATOM     15  C   UNL     1      67.445  59.562  -1.599  1.00  0.00     0.041 C 
ATOM     16  O   UNL     1      67.758  58.459  -2.117  1.00  0.00    -0.550 OA
ATOM     17  O   UNL     1      67.073  59.613  -0.260  1.00  0.00    -0.550 OA
ENDBRANCH  14  15
ENDBRANCH  13  14
ENDBRANCH  12  13
ENDBRANCH  11  12
ENDBRANCH  10  11
ENDBRANCH   9  10
ENDBRANCH   8   9
ENDBRANCH   7   8
ENDBRANCH   6   7
ENDBRANCH   5   6
ENDBRANCH   4   5
ENDBRANCH   3   4
ENDBRANCH   2   3
ENDBRANCH   1   2
BRANCH   1  18
ATOM     18  C   UNL     1      73.850  53.230  -4.286  1.00  0.00     0.000 C 
BRANCH  18  19
ATOM     19  C   UNL     1      74.676  52.599  -3.154  1.00  0.00     0.000 C 
BRANCH  19  20
ATOM     20  C   UNL     1      74.200  51.179  -2.794  1.00  0.00     0.000 C 
BRANCH  20  21
ATOM     21  C   UNL     1      75.217  50.098  -3.187  1.00  0.00     0.000 C 
BRANCH  21  22
ATOM     22  C   UNL     1      76.530  50.686  -3.737  1.00  0.00     0.000 C 
BRANCH  22  23
ATOM     23  C   UNL     1      77.549  49.594  -4.127  1.00  0.00     0.000 C 
BRANCH  23  24
ATOM     24  C   UNL     1      78.526  49.206  -2.999  1.00  0.00    -0.000 C 
BRANCH  24  25
ATOM     25  C   UNL     1      79.954  48.854  -3.455  1.00  0.00    -0.000 C 
BRANCH  25  26
ATOM     26  C   UNL     1      81.036  49.370  -2.494  1.00  0.00    -0.000 C 
BRANCH  26  27
ATOM     27  C   UNL     1      80.449  50.388  -1.505  1.00  0.00    -0.000 C 
BRANCH  27  28
ATOM     28  C   UNL     1      81.325  51.646  -1.345  1.00  0.00    -0.000 C 
BRANCH  28  29
ATOM     29  C   UNL     1      80.658  52.974  -1.767  1.00  0.00    -0.000 C 
BRANCH  29  30
ATOM     30  C   UNL     1      79.424  52.831  -2.676  1.00  0.00    -0.000 C 
BRANCH  30  31
ATOM     31  C   UNL     1      79.432  53.817  -3.853  1.00  0.00    -0.003 C 
ATOM     32  C   UNL     1      80.461  53.406  -4.903  1.00  0.00     0.004 C 
ENDBRANCH  30  31
ENDBRANCH  29  30
ENDBRANCH  28  29
ENDBRANCH  27  28
ENDBRANCH  26  27
ENDBRANCH  25  26
ENDBRANCH  24  25
ENDBRANCH  23  24
ENDBRANCH  22  23
ENDBRANCH  21  22
ENDBRANCH  20  21
ENDBRANCH  19  20
ENDBRANCH  18  19
ENDBRANCH   1  18
TORSDOF 28
ENDMDL
MODEL 7
REMARK VINA RESULT:    21.543      3.635     12.914
REMARK INTER + INTRA:          55.110
REMARK INTER:                  57.320
REMARK INTRA:                  -2.210
REMARK UNBOUND:                -1.697
REMARK SMILES CCCCCCCCCCCCCCCCCCCCCCCCCCCCCC(=O)[O-]
REMARK SMILES IDX 16 1 17 2 18 3 19 4 20 5 21 6 22 7 23 8 24 9 25 10 26 11
REMARK SMILES IDX 27 12 28 13 29 14 30 15 31 16 32 17 15 18 14 19 13 20 12 21
REMARK SMILES IDX 11 22 10 23 9 24 8 25 7 26 6 27 5 28 4 29 3 30 2 31 1 32
REMARK H PARENT
REMARK Flexibility Score: inf
ROOT
ATOM      1  C   UNL     1      73.783  56.955  -3.488  1.00  0.00     0.000 C 
ENDROOT
BRANCH   1   2
ATOM      2  C   UNL     1      74.545  58.287  -3.476  1.00  0.00     0.000 C 
BRANCH   2   3
ATOM      3  C   UNL     1      73.701  59.462  -4.002  1.00  0.00     0.000 C 
BRANCH   3   4
ATOM      4  C   UNL     1      73.533  60.571  -2.949  1.00  0.00     0.000 C 
BRANCH   4   5
ATOM      5  C   UNL     1      73.766  60.045  -1.520  1.00  0.00     0.000 C 
BRANCH   5   6
ATOM      6  C   UNL     1      72.501  59.438  -0.883  1.00  0.00     0.000 C 
BRANCH   6   7
ATOM      7  C   UNL     1      71.222  59.595  -1.732  1.00  0.00     0.000 C 
BRANCH   7   8
ATOM      8  C   UNL     1      70.209  58.441  -1.630  1.00  0.00     0.000 C 
BRANCH   8   9
ATOM      9  C   UNL     1      68.985  58.549  -2.561  1.00  0.00     0.000 C 
BRANCH   9  10
ATOM     10  C   UNL     1      67.669  58.897  -1.833  1.00  0.00     0.000 C 
BRANCH  10  11
ATOM     11  C   UNL     1      67.834  60.039  -0.814  1.00  0.00     0.000 C 
BRANCH  11  12
ATOM     12  C   UNL     1      68.232  61.377  -1.464  1.00  0.00     0.000 C 
BRANCH  12  13
ATOM     13  C   UNL     1      68.872  62.405  -0.510  1.00  0.00     0.006 C 
BRANCH  13  14
ATOM     14  C   UNL     1      69.799  63.422  -1.191  1.00  0.00     0.053 C 
BRANCH  14  15
ATOM     15  C   UNL     1      69.187  64.008  -2.427  1.00  0.00     0.041 C 
ATOM     16  O   UNL     1      68.053  64.549  -2.377  1.00  0.00    -0.550 OA
ATOM     17  O   UNL     1      69.855  63.921  -3.644  1.00  0.00    -0.550 OA
ENDBRANCH  14  15
ENDBRANCH  13  14
ENDBRANCH  12  13
ENDBRANCH  11  12
ENDBRANCH  10  11
ENDBRANCH   9  10
ENDBRANCH   8   9
ENDBRANCH   7   8
ENDBRANCH   6   7
ENDBRANCH   5   6
ENDBRANCH   4   5
ENDBRANCH   3   4
ENDBRANCH   2   3
ENDBRANCH   1   2
BRANCH   1  18
ATOM     18  C   UNL     1      74.654  55.775  -3.953  1.00  0.00     0.000 C 
BRANCH  18  19
ATOM     19  C   UNL     1      73.846  54.704  -4.702  1.00  0.00     0.000 C 
BRANCH  19  20
ATOM     20  C   UNL     1      73.502  53.492  -3.814  1.00  0.00     0.000 C 
BRANCH  20  21
ATOM     21  C   UNL     1      74.751  52.744  -3.327  1.00  0.00     0.000 C 
BRANCH  21  22
ATOM     22  C   UNL     1      74.431  51.342  -2.776  1.00  0.00     0.000 C 
BRANCH  22  23
ATOM     23  C   UNL     1      75.536  50.313  -3.097  1.00  0.00     0.000 C 
BRANCH  23  24
ATOM     24  C   UNL     1      76.380  50.656  -4.341  1.00  0.00    -0.000 C 
BRANCH  24  25
ATOM     25  C   UNL     1      77.898  50.754  -4.102  1.00  0.00    -0.000 C 
BRANCH  25  26
ATOM     26  C   UNL     1      78.254  51.169  -2.665  1.00  0.00    -0.000 C 
BRANCH  26  27
ATOM     27  C   UNL     1      79.514  52.045  -2.644  1.00  0.00    -0.000 C 
BRANCH  27  28
ATOM     28  C   UNL     1      80.318  51.913  -1.336  1.00  0.00    -0.000 C 
BRANCH  28  29
ATOM     29  C   UNL     1      81.523  50.947  -1.396  1.00  0.00    -0.000 C 
BRANCH  29  30
ATOM     30  C   UNL     1      82.124  50.728  -2.797  1.00  0.00    -0.000 C 
BRANCH  30  31
ATOM     31  C   UNL     1      82.034  49.269  -3.264  1.00  0.00    -0.003 C 
ATOM     32  C   UNL     1      80.717  48.635  -2.825  1.00  0.00     0.004 C 
ENDBRANCH  30  31
ENDBRANCH  29  30
ENDBRANCH  28  29
ENDBRANCH  27  28
ENDBRANCH  26  27
ENDBRANCH  25  26
ENDBRANCH  24  25
ENDBRANCH  23  24
ENDBRANCH  22  23
ENDBRANCH  21  22
ENDBRANCH  20  21
ENDBRANCH  19  20
ENDBRANCH  18  19
ENDBRANCH   1  18
TORSDOF 28
ENDMDL
MODEL 8
REMARK VINA RESULT:    21.784      1.030      4.009
REMARK INTER + INTRA:          55.746
REMARK INTER:                  57.620
REMARK INTRA:                  -1.874
REMARK UNBOUND:                -1.697
REMARK SMILES CCCCCCCCCCCCCCCCCCCCCCCCCCCCCC(=O)[O-]
REMARK SMILES IDX 16 1 17 2 18 3 19 4 20 5 21 6 22 7 23 8 24 9 25 10 26 11
REMARK SMILES IDX 27 12 28 13 29 14 30 15 31 16 32 17 15 18 14 19 13 20 12 21
REMARK SMILES IDX 11 22 10 23 9 24 8 25 7 26 6 27 5 28 4 29 3 30 2 31 1 32
REMARK H PARENT
REMARK Flexibility Score: inf
ROOT
ATOM      1  C   UNL     1      71.689  55.439  -3.433  1.00  0.00     0.000 C 
ENDROOT
BRANCH   1   2
ATOM      2  C   UNL     1      73.080  55.328  -4.073  1.00  0.00     0.000 C 
BRANCH   2   3
ATOM      3  C   UNL     1      73.462  53.879  -4.424  1.00  0.00     0.000 C 
BRANCH   3   4
ATOM      4  C   UNL     1      74.109  53.147  -3.236  1.00  0.00     0.000 C 
BRANCH   4   5
ATOM      5  C   UNL     1      73.830  51.632  -3.275  1.00  0.00     0.000 C 
BRANCH   5   6
ATOM      6  C   UNL     1      75.034  50.782  -2.824  1.00  0.00     0.000 C 
BRANCH   6   7
ATOM      7  C   UNL     1      76.166  50.676  -3.867  1.00  0.00     0.000 C 
BRANCH   7   8
ATOM      8  C   UNL     1      76.933  49.341  -3.883  1.00  0.00     0.000 C 
BRANCH   8   9
ATOM      9  C   UNL     1      78.458  49.455  -4.085  1.00  0.00     0.000 C 
BRANCH   9  10
ATOM     10  C   UNL     1      79.287  48.572  -3.128  1.00  0.00     0.000 C 
BRANCH  10  11
ATOM     11  C   UNL     1      79.942  49.375  -1.990  1.00  0.00     0.000 C 
BRANCH  11  12
ATOM     12  C   UNL     1      81.289  50.004  -2.392  1.00  0.00     0.000 C 
BRANCH  12  13
ATOM     13  C   UNL     1      81.491  51.465  -1.943  1.00  0.00     0.006 C 
BRANCH  13  14
ATOM     14  C   UNL     1      80.211  52.174  -1.476  1.00  0.00     0.053 C 
BRANCH  14  15
ATOM     15  C   UNL     1      79.601  53.014  -2.556  1.00  0.00     0.041 C 
ATOM     16  O   UNL     1      80.052  52.963  -3.729  1.00  0.00    -0.550 OA
ATOM     17  O   UNL     1      78.559  53.886  -2.256  1.00  0.00    -0.550 OA
ENDBRANCH  14  15
ENDBRANCH  13  14
ENDBRANCH  12  13
ENDBRANCH  11  12
ENDBRANCH  10  11
ENDBRANCH   9  10
ENDBRANCH   8   9
ENDBRANCH   7   8
ENDBRANCH   6   7
ENDBRANCH   5   6
ENDBRANCH   4   5
ENDBRANCH   3   4
ENDBRANCH   2   3
ENDBRANCH   1   2
BRANCH   1  18
ATOM     18  C   UNL     1      71.465  56.785  -2.724  1.00  0.00     0.000 C 
BRANCH  18  19
ATOM     19  C   UNL     1      70.194  57.502  -3.204  1.00  0.00     0.000 C 
BRANCH  19  20
ATOM     20  C   UNL     1      69.617  58.460  -2.144  1.00  0.00     0.000 C 
BRANCH  20  21
ATOM     21  C   UNL     1      68.106  58.681  -2.309  1.00  0.00     0.000 C 
BRANCH  21  22
ATOM     22  C   UNL     1      67.392  58.947  -0.971  1.00  0.00     0.000 C 
BRANCH  22  23
ATOM     23  C   UNL     1      67.051  60.439  -0.769  1.00  0.00     0.000 C 
BRANCH  23  24
ATOM     24  C   UNL     1      67.710  61.384  -1.794  1.00  0.00    -0.000 C 
BRANCH  24  25
ATOM     25  C   UNL     1      67.903  62.837  -1.322  1.00  0.00    -0.000 C 
BRANCH  25  26
ATOM     26  C   UNL     1      69.298  63.096  -0.731  1.00  0.00    -0.000 C 
BRANCH  26  27
ATOM     27  C   UNL     1      70.388  62.444  -1.593  1.00  0.00    -0.000 C 
BRANCH  27  28
ATOM     28  C   UNL     1      71.228  61.407  -0.821  1.00  0.00    -0.000 C 
BRANCH  28  29
ATOM     29  C   UNL     1      71.794  60.249  -1.673  1.00  0.00    -0.000 C 
BRANCH  29  30
ATOM     30  C   UNL     1      73.261  59.879  -1.389  1.00  0.00    -0.000 C 
BRANCH  30  31
ATOM     31  C   UNL     1      74.146  59.941  -2.641  1.00  0.00    -0.003 C 
ATOM     32  C   UNL     1      73.339  60.385  -3.858  1.00  0.00     0.004 C 
ENDBRANCH  30  31
ENDBRANCH  29  30
ENDBRANCH  28  29
ENDBRANCH  27  28
ENDBRANCH  26  27
ENDBRANCH  25  26
ENDBRANCH  24  25
ENDBRANCH  23  24
ENDBRANCH  22  23
ENDBRANCH  21  22
ENDBRANCH  20  21
ENDBRANCH  19  20
ENDBRANCH  18  19
ENDBRANCH   1  18
TORSDOF 28
ENDMDL
MODEL 9
REMARK VINA RESULT:    21.913      1.275      1.813
REMARK INTER + INTRA:          56.086
REMARK INTER:                  57.241
REMARK INTRA:                  -1.156
REMARK UNBOUND:                -1.697
REMARK SMILES CCCCCCCCCCCCCCCCCCCCCCCCCCCCCC(=O)[O-]
REMARK SMILES IDX 16 1 17 2 18 3 19 4 20 5 21 6 22 7 23 8 24 9 25 10 26 11
REMARK SMILES IDX 27 12 28 13 29 14 30 15 31 16 32 17 15 18 14 19 13 20 12 21
REMARK SMILES IDX 11 22 10 23 9 24 8 25 7 26 6 27 5 28 4 29 3 30 2 31 1 32
REMARK H PARENT
REMARK Flexibility Score: inf
ROOT
ATOM      1  C   UNL     1      73.459  53.620  -3.817  1.00  0.00     0.000 C 
ENDROOT
BRANCH   1   2
ATOM      2  C   UNL     1      74.605  52.698  -3.377  1.00  0.00     0.000 C 
BRANCH   2   3
ATOM      3  C   UNL     1      74.149  51.245  -3.156  1.00  0.00     0.000 C 
BRANCH   3   4
ATOM      4  C   UNL     1      75.334  50.301  -2.888  1.00  0.00     0.000 C 
BRANCH   4   5
ATOM      5  C   UNL     1      76.462  50.490  -3.920  1.00  0.00     0.000 C 
BRANCH   5   6
ATOM      6  C   UNL     1      77.515  49.365  -3.881  1.00  0.00     0.000 C 
BRANCH   6   7
ATOM      7  C   UNL     1      78.834  49.749  -3.179  1.00  0.00     0.000 C 
BRANCH   7   8
ATOM      8  C   UNL     1      79.743  48.573  -2.781  1.00  0.00     0.000 C 
BRANCH   8   9
ATOM      9  C   UNL     1      81.209  48.680  -3.249  1.00  0.00     0.000 C 
BRANCH   9  10
ATOM     10  C   UNL     1      81.922  49.972  -2.795  1.00  0.00     0.000 C 
BRANCH  10  11
ATOM     11  C   UNL     1      81.499  50.424  -1.386  1.00  0.00     0.000 C 
BRANCH  11  12
ATOM     12  C   UNL     1      81.100  51.910  -1.323  1.00  0.00     0.000 C 
BRANCH  12  13
ATOM     13  C   UNL     1      79.818  52.278  -2.098  1.00  0.00     0.006 C 
BRANCH  13  14
ATOM     14  C   UNL     1      79.822  53.685  -2.712  1.00  0.00     0.053 C 
BRANCH  14  15
ATOM     15  C   UNL     1      80.148  53.666  -4.174  1.00  0.00     0.041 C 
ATOM     16  O   UNL     1      80.728  52.672  -4.681  1.00  0.00    -0.550 OA
ATOM     17  O   UNL     1      79.846  54.767  -4.970  1.00  0.00    -0.550 OA
ENDBRANCH  14  15
ENDBRANCH  13  14
ENDBRANCH  12  13
ENDBRANCH  11  12
ENDBRANCH  10  11
ENDBRANCH   9  10
ENDBRANCH   8   9
ENDBRANCH   7   8
ENDBRANCH   6   7
ENDBRANCH   5   6
ENDBRANCH   4   5
ENDBRANCH   3   4
ENDBRANCH   2   3
ENDBRANCH   1   2
BRANCH   1  18
ATOM     18  C   UNL     1      73.903  54.668  -4.853  1.00  0.00     0.000 C 
BRANCH  18  19
ATOM     19  C   UNL     1      74.812  55.749  -4.248  1.00  0.00     0.000 C 
BRANCH  19  20
ATOM     20  C   UNL     1      74.021  56.963  -3.724  1.00  0.00     0.000 C 
BRANCH  20  21
ATOM     21  C   UNL     1      74.923  58.170  -3.427  1.00  0.00     0.000 C 
BRANCH  21  22
ATOM     22  C   UNL     1      74.135  59.487  -3.303  1.00  0.00     0.000 C 
BRANCH  22  23
ATOM     23  C   UNL     1      73.733  59.801  -1.846  1.00  0.00     0.000 C 
BRANCH  23  24
ATOM     24  C   UNL     1      72.249  60.183  -1.666  1.00  0.00    -0.000 C 
BRANCH  24  25
ATOM     25  C   UNL     1      71.241  59.046  -1.914  1.00  0.00    -0.000 C 
BRANCH  25  26
ATOM     26  C   UNL     1      69.806  59.418  -1.507  1.00  0.00    -0.000 C 
BRANCH  26  27
ATOM     27  C   UNL     1      68.789  58.476  -2.167  1.00  0.00    -0.000 C 
BRANCH  27  28
ATOM     28  C   UNL     1      67.329  58.827  -1.820  1.00  0.00    -0.000 C 
BRANCH  28  29
ATOM     29  C   UNL     1      66.938  60.307  -2.028  1.00  0.00    -0.000 C 
BRANCH  29  30
ATOM     30  C   UNL     1      66.435  61.039  -0.771  1.00  0.00    -0.000 C 
BRANCH  30  31
ATOM     31  C   UNL     1      64.968  60.728  -0.445  1.00  0.00    -0.003 C 
ATOM     32  C   UNL     1      64.162  62.013  -0.274  1.00  0.00     0.004 C 
ENDBRANCH  30  31
ENDBRANCH  29  30
ENDBRANCH  28  29
ENDBRANCH  27  28
ENDBRANCH  26  27
ENDBRANCH  25  26
ENDBRANCH  24  25
ENDBRANCH  23  24
ENDBRANCH  22  23
ENDBRANCH  21  22
ENDBRANCH  20  21
ENDBRANCH  19  20
ENDBRANCH  18  19
ENDBRANCH   1  18
TORSDOF 28
ENDMDL
