MODEL 1
REMARK VINA RESULT:    -4.118      0.000      0.000
REMARK INTER + INTRA:          -9.644
REMARK INTER:                  -7.729
REMARK INTRA:                  -1.916
REMARK UNBOUND:                -1.916
REMARK SMILES O=C([O-])CCCCCCCCCCCCCCC(=O)[O-]
REMARK SMILES IDX 10 1 9 2 8 3 7 4 6 5 5 6 4 7 2 8 1 9 3 10 11 11 12 12 13 13
REMARK SMILES IDX 14 14 15 15 16 16 17 17 18 18 19 19 20 20
REMARK H PARENT
REMARK Flexibility Score: inf
ROOT
ATOM      1  C   UNL     1       9.840 -22.684  40.746  1.00  0.00     0.000 C 
ENDROOT
BRANCH   1   2
ATOM      2  C   UNL     1      10.955 -22.243  41.711  1.00  0.00     0.000 C 
BRANCH   2   3
ATOM      3  C   UNL     1      12.267 -21.910  40.982  1.00  0.00     0.000 C 
BRANCH   3   4
ATOM      4  C   UNL     1      13.246 -23.093  40.947  1.00  0.00     0.000 C 
BRANCH   4   5
ATOM      5  C   UNL     1      14.248 -22.941  39.793  1.00  0.00     0.000 C 
BRANCH   5   6
ATOM      6  C   UNL     1      13.666 -22.170  38.593  1.00  0.00     0.006 C 
BRANCH   6   7
ATOM      7  C   UNL     1      14.622 -21.131  37.986  1.00  0.00     0.053 C 
BRANCH   7   8
ATOM      8  C   UNL     1      14.847 -21.364  36.524  1.00  0.00     0.041 C 
ATOM      9  O   UNL     1      15.989 -21.186  36.022  1.00  0.00    -0.550 OA
ATOM     10  O   UNL     1      13.804 -21.808  35.722  1.00  0.00    -0.550 OA
ENDBRANCH   7   8
ENDBRANCH   6   7
ENDBRANCH   5   6
ENDBRANCH   4   5
ENDBRANCH   3   4
ENDBRANCH   2   3
ENDBRANCH   1   2
BRANCH   1  11
ATOM     11  C   UNL     1       9.711 -24.213  40.655  1.00  0.00     0.000 C 
BRANCH  11  12
ATOM     12  C   UNL     1      10.176 -24.764  39.295  1.00  0.00     0.000 C 
BRANCH  12  13
ATOM     13  C   UNL     1      10.410 -26.283  39.321  1.00  0.00     0.000 C 
BRANCH  13  14
ATOM     14  C   UNL     1      11.249 -26.735  40.527  1.00  0.00     0.000 C 
BRANCH  14  15
ATOM     15  C   UNL     1      12.750 -26.573  40.242  1.00  0.00     0.000 C 
BRANCH  15  16
ATOM     16  C   UNL     1      13.293 -27.641  39.277  1.00  0.00     0.006 C 
BRANCH  16  17
ATOM     17  C   UNL     1      14.219 -27.091  38.180  1.00  0.00     0.053 C 
BRANCH  17  18
ATOM     18  C   UNL     1      13.454 -26.400  37.093  1.00  0.00     0.041 C 
ATOM     19  O   UNL     1      12.503 -26.989  36.514  1.00  0.00    -0.550 OA
ATOM     20  O   UNL     1      13.814 -25.119  36.694  1.00  0.00    -0.550 OA
ENDBRANCH  17  18
ENDBRANCH  16  17
ENDBRANCH  15  16
ENDBRANCH  14  15
ENDBRANCH  13  14
ENDBRANCH  12  13
ENDBRANCH  11  12
ENDBRANCH   1  11
TORSDOF 15
ENDMDL
MODEL 2
REMARK VINA RESULT:    -4.105      1.979      4.806
REMARK INTER + INTRA:          -9.621
REMARK INTER:                  -7.361
REMARK INTRA:                  -2.260
REMARK UNBOUND:                -1.916
REMARK SMILES O=C([O-])CCCCCCCCCCCCCCC(=O)[O-]
REMARK SMILES IDX 10 1 9 2 8 3 7 4 6 5 5 6 4 7 2 8 1 9 3 10 11 11 12 12 13 13
REMARK SMILES IDX 14 14 15 15 16 16 17 17 18 18 19 19 20 20
REMARK H PARENT
REMARK Flexibility Score: inf
ROOT
ATOM      1  C   UNL     1       8.599 -25.736  41.041  1.00  0.00     0.000 C 
ENDROOT
BRANCH   1   2
ATOM      2  C   UNL     1       9.779 -26.336  41.825  1.00  0.00     0.000 C 
BRANCH   2   3
ATOM      3  C   UNL     1       9.881 -27.861  41.663  1.00  0.00     0.000 C 
BRANCH   3   4
ATOM      4  C   UNL     1      11.292 -28.397  41.949  1.00  0.00     0.000 C 
BRANCH   4   5
ATOM      5  C   UNL     1      12.266 -27.999  40.831  1.00  0.00     0.000 C 
BRANCH   5   6
ATOM      6  C   UNL     1      11.737 -28.340  39.426  1.00  0.00     0.006 C 
BRANCH   6   7
ATOM      7  C   UNL     1      11.851 -27.192  38.411  1.00  0.00     0.053 C 
BRANCH   7   8
ATOM      8  C   UNL     1      12.777 -27.530  37.284  1.00  0.00     0.041 C 
ATOM      9  O   UNL     1      12.817 -26.804  36.256  1.00  0.00    -0.550 OA
ATOM     10  O   UNL     1      13.620 -28.630  37.383  1.00  0.00    -0.550 OA
ENDBRANCH   7   8
ENDBRANCH   6   7
ENDBRANCH   5   6
ENDBRANCH   4   5
ENDBRANCH   3   4
ENDBRANCH   2   3
ENDBRANCH   1   2
BRANCH   1  11
ATOM     11  C   UNL     1       8.986 -25.337  39.607  1.00  0.00     0.000 C 
BRANCH  11  12
ATOM     12  C   UNL     1      10.035 -24.211  39.572  1.00  0.00     0.000 C 
BRANCH  12  13
ATOM     13  C   UNL     1       9.640 -23.008  40.443  1.00  0.00     0.000 C 
BRANCH  13  14
ATOM     14  C   UNL     1      10.852 -22.313  41.083  1.00  0.00     0.000 C 
BRANCH  14  15
ATOM     15  C   UNL     1      11.917 -23.339  41.498  1.00  0.00     0.000 C 
BRANCH  15  16
ATOM     16  C   UNL     1      13.253 -23.145  40.761  1.00  0.00     0.006 C 
BRANCH  16  17
ATOM     17  C   UNL     1      13.765 -24.402  40.036  1.00  0.00     0.053 C 
BRANCH  17  18
ATOM     18  C   UNL     1      13.921 -24.177  38.563  1.00  0.00     0.041 C 
ATOM     19  O   UNL     1      13.066 -23.501  37.932  1.00  0.00    -0.550 OA
ATOM     20  O   UNL     1      14.989 -24.745  37.882  1.00  0.00    -0.550 OA
ENDBRANCH  17  18
ENDBRANCH  16  17
ENDBRANCH  15  16
ENDBRANCH  14  15
ENDBRANCH  13  14
ENDBRANCH  12  13
ENDBRANCH  11  12
ENDBRANCH   1  11
TORSDOF 15
ENDMDL
MODEL 3
REMARK VINA RESULT:    -4.064      1.618      4.990
REMARK INTER + INTRA:          -9.543
REMARK INTER:                  -7.700
REMARK INTRA:                  -1.843
REMARK UNBOUND:                -1.916
REMARK SMILES O=C([O-])CCCCCCCCCCCCCCC(=O)[O-]
REMARK SMILES IDX 10 1 9 2 8 3 7 4 6 5 5 6 4 7 2 8 1 9 3 10 11 11 12 12 13 13
REMARK SMILES IDX 14 14 15 15 16 16 17 17 18 18 19 19 20 20
REMARK H PARENT
REMARK Flexibility Score: inf
ROOT
ATOM      1  C   UNL     1       9.570 -23.287  40.965  1.00  0.00     0.000 C 
ENDROOT
BRANCH   1   2
ATOM      2  C   UNL     1      10.098 -24.730  40.878  1.00  0.00     0.000 C 
BRANCH   2   3
ATOM      3  C   UNL     1      10.913 -24.983  39.599  1.00  0.00     0.000 C 
BRANCH   3   4
ATOM      4  C   UNL     1      11.953 -26.102  39.767  1.00  0.00     0.000 C 
BRANCH   4   5
ATOM      5  C   UNL     1      12.700 -26.357  38.450  1.00  0.00     0.000 C 
BRANCH   5   6
ATOM      6  C   UNL     1      14.037 -25.597  38.364  1.00  0.00     0.006 C 
BRANCH   6   7
ATOM      7  C   UNL     1      15.209 -26.438  37.831  1.00  0.00     0.053 C 
BRANCH   7   8
ATOM      8  C   UNL     1      15.458 -27.650  38.675  1.00  0.00     0.041 C 
ATOM      9  O   UNL     1      15.456 -28.796  38.154  1.00  0.00    -0.550 OA
ATOM     10  O   UNL     1      15.725 -27.510  40.031  1.00  0.00    -0.550 OA
ENDBRANCH   7   8
ENDBRANCH   6   7
ENDBRANCH   5   6
ENDBRANCH   4   5
ENDBRANCH   3   4
ENDBRANCH   2   3
ENDBRANCH   1   2
BRANCH   1  11
ATOM     11  C   UNL     1      10.700 -22.244  40.961  1.00  0.00     0.000 C 
BRANCH  11  12
ATOM     12  C   UNL     1      11.591 -22.336  42.213  1.00  0.00     0.000 C 
BRANCH  12  13
ATOM     13  C   UNL     1      13.046 -21.929  41.932  1.00  0.00     0.000 C 
BRANCH  13  14
ATOM     14  C   UNL     1      13.789 -22.945  41.050  1.00  0.00     0.000 C 
BRANCH  14  15
ATOM     15  C   UNL     1      14.416 -22.256  39.828  1.00  0.00     0.000 C 
BRANCH  15  16
ATOM     16  C   UNL     1      13.366 -21.652  38.879  1.00  0.00     0.006 C 
BRANCH  16  17
ATOM     17  C   UNL     1      13.952 -20.767  37.767  1.00  0.00     0.053 C 
BRANCH  17  18
ATOM     18  C   UNL     1      14.455 -21.576  36.611  1.00  0.00     0.041 C 
ATOM     19  O   UNL     1      15.500 -21.226  36.001  1.00  0.00    -0.550 OA
ATOM     20  O   UNL     1      13.751 -22.694  36.185  1.00  0.00    -0.550 OA
ENDBRANCH  17  18
ENDBRANCH  16  17
ENDBRANCH  15  16
ENDBRANCH  14  15
ENDBRANCH  13  14
ENDBRANCH  12  13
ENDBRANCH  11  12
ENDBRANCH   1  11
TORSDOF 15
ENDMDL
MODEL 4
REMARK VINA RESULT:    -4.025      2.970      5.396
REMARK INTER + INTRA:          -9.471
REMARK INTER:                  -7.687
REMARK INTRA:                  -1.784
REMARK UNBOUND:                -1.916
REMARK SMILES O=C([O-])CCCCCCCCCCCCCCC(=O)[O-]
REMARK SMILES IDX 10 1 9 2 8 3 7 4 6 5 5 6 4 7 2 8 1 9 3 10 11 11 12 12 13 13
REMARK SMILES IDX 14 14 15 15 16 16 17 17 18 18 19 19 20 20
REMARK H PARENT
REMARK Flexibility Score: inf
ROOT
ATOM      1  C   UNL     1       9.761 -26.538  41.914  1.00  0.00     0.000 C 
ENDROOT
BRANCH   1   2
ATOM      2  C   UNL     1       9.612 -28.046  41.646  1.00  0.00     0.000 C 
BRANCH   2   3
ATOM      3  C   UNL     1      10.789 -28.622  40.842  1.00  0.00     0.000 C 
BRANCH   3   4
ATOM      4  C   UNL     1      12.090 -27.831  41.044  1.00  0.00     0.000 C 
BRANCH   4   5
ATOM      5  C   UNL     1      12.879 -27.731  39.730  1.00  0.00     0.000 C 
BRANCH   5   6
ATOM      6  C   UNL     1      12.387 -26.588  38.823  1.00  0.00     0.006 C 
BRANCH   6   7
ATOM      7  C   UNL     1      13.158 -25.269  38.994  1.00  0.00     0.053 C 
BRANCH   7   8
ATOM      8  C   UNL     1      13.782 -24.815  37.710  1.00  0.00     0.041 C 
ATOM      9  O   UNL     1      13.636 -25.494  36.659  1.00  0.00    -0.550 OA
ATOM     10  O   UNL     1      14.497 -23.625  37.667  1.00  0.00    -0.550 OA
ENDBRANCH   7   8
ENDBRANCH   6   7
ENDBRANCH   5   6
ENDBRANCH   4   5
ENDBRANCH   3   4
ENDBRANCH   2   3
ENDBRANCH   1   2
BRANCH   1  11
ATOM     11  C   UNL     1       8.745 -25.696  41.126  1.00  0.00     0.000 C 
BRANCH  11  12
ATOM     12  C   UNL     1       9.091 -25.603  39.629  1.00  0.00     0.000 C 
BRANCH  12  13
ATOM     13  C   UNL     1       9.457 -24.175  39.195  1.00  0.00     0.000 C 
BRANCH  13  14
ATOM     14  C   UNL     1       9.571 -23.203  40.379  1.00  0.00     0.000 C 
BRANCH  14  15
ATOM     15  C   UNL     1      11.017 -22.712  40.548  1.00  0.00     0.000 C 
BRANCH  15  16
ATOM     16  C   UNL     1      11.350 -22.323  41.999  1.00  0.00     0.006 C 
BRANCH  16  17
ATOM     17  C   UNL     1      12.627 -21.481  42.152  1.00  0.00     0.053 C 
BRANCH  17  18
ATOM     18  C   UNL     1      13.274 -21.676  43.489  1.00  0.00     0.041 C 
ATOM     19  O   UNL     1      12.665 -22.294  44.402  1.00  0.00    -0.550 OA
ATOM     20  O   UNL     1      14.532 -21.145  43.738  1.00  0.00    -0.550 OA
ENDBRANCH  17  18
ENDBRANCH  16  17
ENDBRANCH  15  16
ENDBRANCH  14  15
ENDBRANCH  13  14
ENDBRANCH  12  13
ENDBRANCH  11  12
ENDBRANCH   1  11
TORSDOF 15
ENDMDL
MODEL 5
REMARK VINA RESULT:    -4.024      1.641      2.138
REMARK INTER + INTRA:          -9.468
REMARK INTER:                  -7.349
REMARK INTRA:                  -2.119
REMARK UNBOUND:                -1.916
REMARK SMILES O=C([O-])CCCCCCCCCCCCCCC(=O)[O-]
REMARK SMILES IDX 10 1 9 2 8 3 7 4 6 5 5 6 4 7 2 8 1 9 3 10 11 11 12 12 13 13
REMARK SMILES IDX 14 14 15 15 16 16 17 17 18 18 19 19 20 20
REMARK H PARENT
REMARK Flexibility Score: inf
ROOT
ATOM      1  C   UNL     1      10.596 -22.963  41.611  1.00  0.00     0.000 C 
ENDROOT
BRANCH   1   2
ATOM      2  C   UNL     1      11.551 -21.758  41.557  1.00  0.00     0.000 C 
BRANCH   2   3
ATOM      3  C   UNL     1      12.831 -21.982  42.379  1.00  0.00     0.000 C 
BRANCH   3   4
ATOM      4  C   UNL     1      14.110 -21.681  41.583  1.00  0.00     0.000 C 
BRANCH   4   5
ATOM      5  C   UNL     1      13.852 -20.603  40.520  1.00  0.00     0.000 C 
BRANCH   5   6
ATOM      6  C   UNL     1      14.579 -20.886  39.192  1.00  0.00     0.006 C 
BRANCH   6   7
ATOM      7  C   UNL     1      13.649 -21.287  38.035  1.00  0.00     0.053 C 
BRANCH   7   8
ATOM      8  C   UNL     1      14.416 -21.668  36.807  1.00  0.00     0.041 C 
ATOM      9  O   UNL     1      13.836 -21.725  35.690  1.00  0.00    -0.550 OA
ATOM     10  O   UNL     1      15.778 -21.929  36.890  1.00  0.00    -0.550 OA
ENDBRANCH   7   8
ENDBRANCH   6   7
ENDBRANCH   5   6
ENDBRANCH   4   5
ENDBRANCH   3   4
ENDBRANCH   2   3
ENDBRANCH   1   2
BRANCH   1  11
ATOM     11  C   UNL     1      10.094 -23.381  40.220  1.00  0.00     0.000 C 
BRANCH  11  12
ATOM     12  C   UNL     1      11.165 -24.130  39.407  1.00  0.00     0.000 C 
BRANCH  12  13
ATOM     13  C   UNL     1      11.792 -25.295  40.190  1.00  0.00     0.000 C 
BRANCH  13  14
ATOM     14  C   UNL     1      13.317 -25.167  40.329  1.00  0.00     0.000 C 
BRANCH  14  15
ATOM     15  C   UNL     1      13.954 -24.733  39.000  1.00  0.00     0.000 C 
BRANCH  15  16
ATOM     16  C   UNL     1      13.914 -25.838  37.930  1.00  0.00     0.006 C 
BRANCH  16  17
ATOM     17  C   UNL     1      15.078 -26.839  38.010  1.00  0.00     0.053 C 
BRANCH  17  18
ATOM     18  C   UNL     1      14.610 -28.219  38.358  1.00  0.00     0.041 C 
ATOM     19  O   UNL     1      15.364 -29.210  38.167  1.00  0.00    -0.550 OA
ATOM     20  O   UNL     1      13.330 -28.414  38.858  1.00  0.00    -0.550 OA
ENDBRANCH  17  18
ENDBRANCH  16  17
ENDBRANCH  15  16
ENDBRANCH  14  15
ENDBRANCH  13  14
ENDBRANCH  12  13
ENDBRANCH  11  12
ENDBRANCH   1  11
TORSDOF 15
ENDMDL
MODEL 6
REMARK VINA RESULT:    -3.943      2.947      6.338
REMARK INTER + INTRA:          -9.316
REMARK INTER:                  -7.736
REMARK INTRA:                  -1.580
REMARK UNBOUND:                -1.916
REMARK SMILES O=C([O-])CCCCCCCCCCCCCCC(=O)[O-]
REMARK SMILES IDX 10 1 9 2 8 3 7 4 6 5 5 6 4 7 2 8 1 9 3 10 11 11 12 12 13 13
REMARK SMILES IDX 14 14 15 15 16 16 17 17 18 18 19 19 20 20
REMARK H PARENT
REMARK Flexibility Score: inf
ROOT
ATOM      1  C   UNL     1       9.812 -23.363  40.145  1.00  0.00     0.000 C 
ENDROOT
BRANCH   1   2
ATOM      2  C   UNL     1       9.518 -24.817  39.735  1.00  0.00     0.000 C 
BRANCH   2   3
ATOM      3  C   UNL     1       9.527 -25.781  40.932  1.00  0.00     0.000 C 
BRANCH   3   4
ATOM      4  C   UNL     1       8.133 -26.343  41.253  1.00  0.00     0.000 C 
BRANCH   4   5
ATOM      5  C   UNL     1       8.096 -27.864  41.043  1.00  0.00     0.000 C 
BRANCH   5   6
ATOM      6  C   UNL     1       8.470 -28.653  42.312  1.00  0.00     0.006 C 
BRANCH   6   7
ATOM      7  C   UNL     1       9.363 -29.877  42.054  1.00  0.00     0.053 C 
BRANCH   7   8
ATOM      8  C   UNL     1      10.777 -29.640  42.487  1.00  0.00     0.041 C 
ATOM      9  O   UNL     1      11.410 -28.637  42.064  1.00  0.00    -0.550 OA
ATOM     10  O   UNL     1      11.385 -30.510  43.383  1.00  0.00    -0.550 OA
ENDBRANCH   7   8
ENDBRANCH   6   7
ENDBRANCH   5   6
ENDBRANCH   4   5
ENDBRANCH   3   4
ENDBRANCH   2   3
ENDBRANCH   1   2
BRANCH   1  11
ATOM     11  C   UNL     1      10.668 -23.271  41.419  1.00  0.00     0.000 C 
BRANCH  11  12
ATOM     12  C   UNL     1      11.368 -21.908  41.562  1.00  0.00     0.000 C 
BRANCH  12  13
ATOM     13  C   UNL     1      12.532 -21.735  40.573  1.00  0.00     0.000 C 
BRANCH  13  14
ATOM     14  C   UNL     1      13.547 -22.887  40.642  1.00  0.00     0.000 C 
BRANCH  14  15
ATOM     15  C   UNL     1      13.587 -23.663  39.316  1.00  0.00     0.000 C 
BRANCH  15  16
ATOM     16  C   UNL     1      13.440 -25.183  39.509  1.00  0.00     0.006 C 
BRANCH  16  17
ATOM     17  C   UNL     1      12.882 -25.926  38.285  1.00  0.00     0.053 C 
BRANCH  17  18
ATOM     18  C   UNL     1      13.851 -25.935  37.142  1.00  0.00     0.041 C 
ATOM     19  O   UNL     1      13.440 -25.777  35.962  1.00  0.00    -0.550 OA
ATOM     20  O   UNL     1      15.202 -26.153  37.377  1.00  0.00    -0.550 OA
ENDBRANCH  17  18
ENDBRANCH  16  17
ENDBRANCH  15  16
ENDBRANCH  14  15
ENDBRANCH  13  14
ENDBRANCH  12  13
ENDBRANCH  11  12
ENDBRANCH   1  11
TORSDOF 15
ENDMDL
MODEL 7
REMARK VINA RESULT:    -3.914      1.915      5.403
REMARK INTER + INTRA:          -9.262
REMARK INTER:                  -7.199
REMARK INTRA:                  -2.063
REMARK UNBOUND:                -1.916
REMARK SMILES O=C([O-])CCCCCCCCCCCCCCC(=O)[O-]
REMARK SMILES IDX 10 1 9 2 8 3 7 4 6 5 5 6 4 7 2 8 1 9 3 10 11 11 12 12 13 13
REMARK SMILES IDX 14 14 15 15 16 16 17 17 18 18 19 19 20 20
REMARK H PARENT
REMARK Flexibility Score: inf
ROOT
ATOM      1  C   UNL     1      10.611 -25.207  41.126  1.00  0.00     0.000 C 
ENDROOT
BRANCH   1   2
ATOM      2  C   UNL     1       9.755 -26.335  41.728  1.00  0.00     0.000 C 
BRANCH   2   3
ATOM      3  C   UNL     1       8.324 -26.355  41.165  1.00  0.00     0.000 C 
BRANCH   3   4
ATOM      4  C   UNL     1       8.038 -27.597  40.309  1.00  0.00     0.000 C 
BRANCH   4   5
ATOM      5  C   UNL     1       9.231 -28.564  40.331  1.00  0.00     0.000 C 
BRANCH   5   6
ATOM      6  C   UNL     1       9.494 -29.221  38.963  1.00  0.00     0.006 C 
BRANCH   6   7
ATOM      7  C   UNL     1      10.962 -29.174  38.510  1.00  0.00     0.053 C 
BRANCH   7   8
ATOM      8  C   UNL     1      11.527 -27.789  38.583  1.00  0.00     0.041 C 
ATOM      9  O   UNL     1      12.540 -27.553  39.293  1.00  0.00    -0.550 OA
ATOM     10  O   UNL     1      10.953 -26.765  37.841  1.00  0.00    -0.550 OA
ENDBRANCH   7   8
ENDBRANCH   6   7
ENDBRANCH   5   6
ENDBRANCH   4   5
ENDBRANCH   3   4
ENDBRANCH   2   3
ENDBRANCH   1   2
BRANCH   1  11
ATOM     11  C   UNL     1       9.815 -24.315  40.158  1.00  0.00     0.000 C 
BRANCH  11  12
ATOM     12  C   UNL     1       9.648 -22.878  40.684  1.00  0.00     0.000 C 
BRANCH  12  13
ATOM     13  C   UNL     1      10.813 -22.440  41.585  1.00  0.00     0.000 C 
BRANCH  13  14
ATOM     14  C   UNL     1      11.989 -21.846  40.793  1.00  0.00     0.000 C 
BRANCH  14  15
ATOM     15  C   UNL     1      13.294 -22.592  41.109  1.00  0.00     0.000 C 
BRANCH  15  16
ATOM     16  C   UNL     1      14.092 -22.962  39.846  1.00  0.00     0.006 C 
BRANCH  16  17
ATOM     17  C   UNL     1      13.564 -24.201  39.103  1.00  0.00     0.053 C 
BRANCH  17  18
ATOM     18  C   UNL     1      13.793 -24.112  37.626  1.00  0.00     0.041 C 
ATOM     19  O   UNL     1      13.766 -25.153  36.917  1.00  0.00    -0.550 OA
ATOM     20  O   UNL     1      14.073 -22.886  37.038  1.00  0.00    -0.550 OA
ENDBRANCH  17  18
ENDBRANCH  16  17
ENDBRANCH  15  16
ENDBRANCH  14  15
ENDBRANCH  13  14
ENDBRANCH  12  13
ENDBRANCH  11  12
ENDBRANCH   1  11
TORSDOF 15
ENDMDL
MODEL 8
REMARK VINA RESULT:    -3.914      1.581      2.021
REMARK INTER + INTRA:          -9.261
REMARK INTER:                  -7.480
REMARK INTRA:                  -1.781
REMARK UNBOUND:                -1.916
REMARK SMILES O=C([O-])CCCCCCCCCCCCCCC(=O)[O-]
REMARK SMILES IDX 10 1 9 2 8 3 7 4 6 5 5 6 4 7 2 8 1 9 3 10 11 11 12 12 13 13
REMARK SMILES IDX 14 14 15 15 16 16 17 17 18 18 19 19 20 20
REMARK H PARENT
REMARK Flexibility Score: inf
ROOT
ATOM      1  C   UNL     1      11.165 -22.895  41.743  1.00  0.00     0.000 C 
ENDROOT
BRANCH   1   2
ATOM      2  C   UNL     1      11.964 -21.590  41.903  1.00  0.00     0.000 C 
BRANCH   2   3
ATOM      3  C   UNL     1      13.463 -21.840  42.129  1.00  0.00     0.000 C 
BRANCH   3   4
ATOM      4  C   UNL     1      14.353 -21.011  41.190  1.00  0.00     0.000 C 
BRANCH   4   5
ATOM      5  C   UNL     1      13.545 -20.481  39.996  1.00  0.00     0.000 C 
BRANCH   5   6
ATOM      6  C   UNL     1      13.933 -21.153  38.666  1.00  0.00     0.006 C 
BRANCH   6   7
ATOM      7  C   UNL     1      13.811 -20.239  37.437  1.00  0.00     0.053 C 
BRANCH   7   8
ATOM      8  C   UNL     1      14.119 -20.966  36.164  1.00  0.00     0.041 C 
ATOM      9  O   UNL     1      14.950 -21.913  36.160  1.00  0.00    -0.550 OA
ATOM     10  O   UNL     1      13.464 -20.620  34.990  1.00  0.00    -0.550 OA
ENDBRANCH   7   8
ENDBRANCH   6   7
ENDBRANCH   5   6
ENDBRANCH   4   5
ENDBRANCH   3   4
ENDBRANCH   2   3
ENDBRANCH   1   2
BRANCH   1  11
ATOM     11  C   UNL     1       9.937 -22.728  40.834  1.00  0.00     0.000 C 
BRANCH  11  12
ATOM     12  C   UNL     1       9.725 -23.934  39.902  1.00  0.00     0.000 C 
BRANCH  12  13
ATOM     13  C   UNL     1       9.308 -25.203  40.663  1.00  0.00     0.000 C 
BRANCH  13  14
ATOM     14  C   UNL     1      10.389 -26.294  40.640  1.00  0.00     0.000 C 
BRANCH  14  15
ATOM     15  C   UNL     1      11.507 -25.937  39.648  1.00  0.00     0.000 C 
BRANCH  15  16
ATOM     16  C   UNL     1      12.889 -25.834  40.317  1.00  0.00     0.006 C 
BRANCH  16  17
ATOM     17  C   UNL     1      13.812 -24.768  39.704  1.00  0.00     0.053 C 
BRANCH  17  18
ATOM     18  C   UNL     1      14.952 -25.378  38.948  1.00  0.00     0.041 C 
ATOM     19  O   UNL     1      15.049 -25.209  37.703  1.00  0.00    -0.550 OA
ATOM     20  O   UNL     1      15.886 -26.162  39.611  1.00  0.00    -0.550 OA
ENDBRANCH  17  18
ENDBRANCH  16  17
ENDBRANCH  15  16
ENDBRANCH  14  15
ENDBRANCH  13  14
ENDBRANCH  12  13
ENDBRANCH  11  12
ENDBRANCH   1  11
TORSDOF 15
ENDMDL
MODEL 9
REMARK VINA RESULT:    -3.901      2.195      2.848
REMARK INTER + INTRA:          -9.237
REMARK INTER:                  -7.046
REMARK INTRA:                  -2.190
REMARK UNBOUND:                -1.916
REMARK SMILES O=C([O-])CCCCCCCCCCCCCCC(=O)[O-]
REMARK SMILES IDX 10 1 9 2 8 3 7 4 6 5 5 6 4 7 2 8 1 9 3 10 11 11 12 12 13 13
REMARK SMILES IDX 14 14 15 15 16 16 17 17 18 18 19 19 20 20
REMARK H PARENT
REMARK Flexibility Score: inf
ROOT
ATOM      1  C   UNL     1       9.610 -23.992  39.950  1.00  0.00     0.000 C 
ENDROOT
BRANCH   1   2
ATOM      2  C   UNL     1       9.843 -22.622  40.611  1.00  0.00     0.000 C 
BRANCH   2   3
ATOM      3  C   UNL     1      10.803 -22.701  41.809  1.00  0.00     0.000 C 
BRANCH   3   4
ATOM      4  C   UNL     1      11.964 -21.700  41.708  1.00  0.00     0.000 C 
BRANCH   4   5
ATOM      5  C   UNL     1      13.182 -22.342  41.029  1.00  0.00     0.000 C 
BRANCH   5   6
ATOM      6  C   UNL     1      13.471 -21.752  39.636  1.00  0.00     0.006 C 
BRANCH   6   7
ATOM      7  C   UNL     1      13.012 -22.637  38.467  1.00  0.00     0.053 C 
BRANCH   7   8
ATOM      8  C   UNL     1      14.083 -22.799  37.432  1.00  0.00     0.041 C 
ATOM      9  O   UNL     1      15.114 -23.475  37.687  1.00  0.00    -0.550 OA
ATOM     10  O   UNL     1      13.927 -22.229  36.175  1.00  0.00    -0.550 OA
ENDBRANCH   7   8
ENDBRANCH   6   7
ENDBRANCH   5   6
ENDBRANCH   4   5
ENDBRANCH   3   4
ENDBRANCH   2   3
ENDBRANCH   1   2
BRANCH   1  11
ATOM     11  C   UNL     1       9.691 -25.153  40.955  1.00  0.00     0.000 C 
BRANCH  11  12
ATOM     12  C   UNL     1      10.653 -26.264  40.496  1.00  0.00     0.000 C 
BRANCH  12  13
ATOM     13  C   UNL     1      12.075 -25.742  40.235  1.00  0.00     0.000 C 
BRANCH  13  14
ATOM     14  C   UNL     1      12.678 -26.282  38.929  1.00  0.00     0.000 C 
BRANCH  14  15
ATOM     15  C   UNL     1      14.130 -26.735  39.142  1.00  0.00     0.000 C 
BRANCH  15  16
ATOM     16  C   UNL     1      14.584 -26.616  40.608  1.00  0.00     0.006 C 
BRANCH  16  17
ATOM     17  C   UNL     1      15.029 -27.943  41.243  1.00  0.00     0.053 C 
BRANCH  17  18
ATOM     18  C   UNL     1      13.909 -28.935  41.317  1.00  0.00     0.041 C 
ATOM     19  O   UNL     1      13.956 -29.995  40.638  1.00  0.00    -0.550 OA
ATOM     20  O   UNL     1      12.798 -28.673  42.108  1.00  0.00    -0.550 OA
ENDBRANCH  17  18
ENDBRANCH  16  17
ENDBRANCH  15  16
ENDBRANCH  14  15
ENDBRANCH  13  14
ENDBRANCH  12  13
ENDBRANCH  11  12
ENDBRANCH   1  11
TORSDOF 15
ENDMDL
