MODEL 1
REMARK VINA RESULT:     0.495      0.000      0.000
REMARK INTER + INTRA:           1.899
REMARK INTER:                   1.247
REMARK INTRA:                   0.652
REMARK UNBOUND:                 0.652
REMARK SMILES CCCCCCCCCCCCCCCCCCCCCCCCCCCC(=O)[O-]
REMARK SMILES IDX 15 1 16 2 17 3 18 4 19 5 20 6 21 7 22 8 23 9 24 10 25 11
REMARK SMILES IDX 26 12 27 13 28 14 29 15 30 16 14 17 13 18 12 19 11 20 10 21
REMARK SMILES IDX 9 22 8 23 7 24 6 25 5 26 4 27 3 28 2 29 1 30
REMARK H PARENT
REMARK Flexibility Score: inf
ROOT
ATOM      1  C   UNL     1      24.991   5.131  -2.640  1.00  0.00     0.000 C 
ENDROOT
BRANCH   1   2
ATOM      2  C   UNL     1      26.035   5.105  -1.507  1.00  0.00     0.000 C 
BRANCH   2   3
ATOM      3  C   UNL     1      26.437   3.698  -1.023  1.00  0.00     0.000 C 
BRANCH   3   4
ATOM      4  C   UNL     1      27.933   3.353  -1.162  1.00  0.00     0.000 C 
BRANCH   4   5
ATOM      5  C   UNL     1      28.872   4.265  -0.345  1.00  0.00     0.000 C 
BRANCH   5   6
ATOM      6  C   UNL     1      28.264   5.649  -0.062  1.00  0.00     0.000 C 
BRANCH   6   7
ATOM      7  C   UNL     1      29.124   6.767  -0.673  1.00  0.00     0.000 C 
BRANCH   7   8
ATOM      8  C   UNL     1      29.028   8.085   0.109  1.00  0.00     0.000 C 
BRANCH   8   9
ATOM      9  C   UNL     1      27.648   8.751  -0.008  1.00  0.00     0.000 C 
BRANCH   9  10
ATOM     10  C   UNL     1      27.677   9.889  -1.039  1.00  0.00     0.000 C 
BRANCH  10  11
ATOM     11  C   UNL     1      29.103  10.258  -1.477  1.00  0.00     0.000 C 
BRANCH  11  12
ATOM     12  C   UNL     1      29.125  11.163  -2.722  1.00  0.00     0.006 C 
BRANCH  12  13
ATOM     13  C   UNL     1      27.969  10.857  -3.682  1.00  0.00     0.053 C 
BRANCH  13  14
ATOM     14  C   UNL     1      27.802   9.384  -3.900  1.00  0.00     0.041 C 
ATOM     15  O   UNL     1      28.800   8.618  -3.842  1.00  0.00    -0.550 OA
ATOM     16  O   UNL     1      26.539   8.851  -4.119  1.00  0.00    -0.550 OA
ENDBRANCH  13  14
ENDBRANCH  12  13
ENDBRANCH  11  12
ENDBRANCH  10  11
ENDBRANCH   9  10
ENDBRANCH   8   9
ENDBRANCH   7   8
ENDBRANCH   6   7
ENDBRANCH   5   6
ENDBRANCH   4   5
ENDBRANCH   3   4
ENDBRANCH   2   3
ENDBRANCH   1   2
BRANCH   1  17
ATOM     17  C   UNL     1      23.653   4.452  -2.294  1.00  0.00     0.000 C 
BRANCH  17  18
ATOM     18  C   UNL     1      23.772   2.925  -2.080  1.00  0.00     0.000 C 
BRANCH  18  19
ATOM     19  C   UNL     1      23.550   2.101  -3.360  1.00  0.00     0.000 C 
BRANCH  19  20
ATOM     20  C   UNL     1      24.141   0.685  -3.253  1.00  0.00     0.000 C 
BRANCH  20  21
ATOM     21  C   UNL     1      23.081  -0.386  -2.934  1.00  0.00     0.000 C 
BRANCH  21  22
ATOM     22  C   UNL     1      23.376  -1.253  -1.695  1.00  0.00    -0.000 C 
BRANCH  22  23
ATOM     23  C   UNL     1      24.005  -2.609  -2.046  1.00  0.00    -0.000 C 
BRANCH  23  24
ATOM     24  C   UNL     1      25.196  -2.434  -3.001  1.00  0.00    -0.000 C 
BRANCH  24  25
ATOM     25  C   UNL     1      25.764  -3.769  -3.524  1.00  0.00    -0.000 C 
BRANCH  25  26
ATOM     26  C   UNL     1      27.300  -3.837  -3.638  1.00  0.00    -0.000 C 
BRANCH  26  27
ATOM     27  C   UNL     1      27.940  -5.007  -2.855  1.00  0.00    -0.000 C 
BRANCH  27  28
ATOM     28  C   UNL     1      26.944  -5.763  -1.957  1.00  0.00    -0.000 C 
BRANCH  28  29
ATOM     29  C   UNL     1      27.188  -5.580  -0.449  1.00  0.00    -0.003 C 
ATOM     30  C   UNL     1      27.860  -4.249  -0.114  1.00  0.00     0.004 C 
ENDBRANCH  28  29
ENDBRANCH  27  28
ENDBRANCH  26  27
ENDBRANCH  25  26
ENDBRANCH  24  25
ENDBRANCH  23  24
ENDBRANCH  22  23
ENDBRANCH  21  22
ENDBRANCH  20  21
ENDBRANCH  19  20
ENDBRANCH  18  19
ENDBRANCH  17  18
ENDBRANCH   1  17
TORSDOF 26
ENDMDL
MODEL 2
REMARK VINA RESULT:     0.767      2.011      3.543
REMARK INTER + INTRA:           2.584
REMARK INTER:                   3.825
REMARK INTRA:                  -1.240
REMARK UNBOUND:                 0.652
REMARK SMILES CCCCCCCCCCCCCCCCCCCCCCCCCCCC(=O)[O-]
REMARK SMILES IDX 15 1 16 2 17 3 18 4 19 5 20 6 21 7 22 8 23 9 24 10 25 11
REMARK SMILES IDX 26 12 27 13 28 14 29 15 30 16 14 17 13 18 12 19 11 20 10 21
REMARK SMILES IDX 9 22 8 23 7 24 6 25 5 26 4 27 3 28 2 29 1 30
REMARK H PARENT
REMARK Flexibility Score: inf
ROOT
ATOM      1  C   UNL     1      25.100   4.431  -1.819  1.00  0.00     0.000 C 
ENDROOT
BRANCH   1   2
ATOM      2  C   UNL     1      25.294   5.729  -2.627  1.00  0.00     0.000 C 
BRANCH   2   3
ATOM      3  C   UNL     1      26.126   6.817  -1.920  1.00  0.00     0.000 C 
BRANCH   3   4
ATOM      4  C   UNL     1      25.946   8.247  -2.469  1.00  0.00     0.000 C 
BRANCH   4   5
ATOM      5  C   UNL     1      26.721   8.527  -3.773  1.00  0.00     0.000 C 
BRANCH   5   6
ATOM      6  C   UNL     1      27.463   9.874  -3.751  1.00  0.00     0.000 C 
BRANCH   6   7
ATOM      7  C   UNL     1      28.859   9.728  -3.126  1.00  0.00     0.000 C 
BRANCH   7   8
ATOM      8  C   UNL     1      28.971  10.414  -1.756  1.00  0.00     0.000 C 
BRANCH   8   9
ATOM      9  C   UNL     1      27.850  10.006  -0.789  1.00  0.00     0.000 C 
BRANCH   9  10
ATOM     10  C   UNL     1      28.329   8.907   0.171  1.00  0.00     0.000 C 
BRANCH  10  11
ATOM     11  C   UNL     1      29.092   7.782  -0.547  1.00  0.00     0.000 C 
BRANCH  11  12
ATOM     12  C   UNL     1      28.912   6.415   0.135  1.00  0.00     0.006 C 
BRANCH  12  13
ATOM     13  C   UNL     1      28.889   5.261  -0.875  1.00  0.00     0.053 C 
BRANCH  13  14
ATOM     14  C   UNL     1      28.624   3.945  -0.210  1.00  0.00     0.041 C 
ATOM     15  O   UNL     1      29.125   2.888  -0.677  1.00  0.00    -0.550 OA
ATOM     16  O   UNL     1      27.863   3.891   0.950  1.00  0.00    -0.550 OA
ENDBRANCH  13  14
ENDBRANCH  12  13
ENDBRANCH  11  12
ENDBRANCH  10  11
ENDBRANCH   9  10
ENDBRANCH   8   9
ENDBRANCH   7   8
ENDBRANCH   6   7
ENDBRANCH   5   6
ENDBRANCH   4   5
ENDBRANCH   3   4
ENDBRANCH   2   3
ENDBRANCH   1   2
BRANCH   1  17
ATOM     17  C   UNL     1      24.690   3.208  -2.660  1.00  0.00     0.000 C 
BRANCH  17  18
ATOM     18  C   UNL     1      23.189   2.856  -2.548  1.00  0.00     0.000 C 
BRANCH  18  19
ATOM     19  C   UNL     1      22.839   1.456  -3.080  1.00  0.00     0.000 C 
BRANCH  19  20
ATOM     20  C   UNL     1      23.906   0.409  -2.714  1.00  0.00     0.000 C 
BRANCH  20  21
ATOM     21  C   UNL     1      23.306  -0.879  -2.119  1.00  0.00     0.000 C 
BRANCH  21  22
ATOM     22  C   UNL     1      23.923  -2.191  -2.638  1.00  0.00    -0.000 C 
BRANCH  22  23
ATOM     23  C   UNL     1      25.429  -2.079  -2.915  1.00  0.00    -0.000 C 
BRANCH  23  24
ATOM     24  C   UNL     1      25.869  -3.085  -3.990  1.00  0.00    -0.000 C 
BRANCH  24  25
ATOM     25  C   UNL     1      25.646  -4.555  -3.581  1.00  0.00    -0.000 C 
BRANCH  25  26
ATOM     26  C   UNL     1      26.685  -5.559  -4.121  1.00  0.00    -0.000 C 
BRANCH  26  27
ATOM     27  C   UNL     1      28.038  -5.533  -3.373  1.00  0.00    -0.000 C 
BRANCH  27  28
ATOM     28  C   UNL     1      28.031  -4.633  -2.123  1.00  0.00    -0.000 C 
BRANCH  28  29
ATOM     29  C   UNL     1      27.795  -5.387  -0.803  1.00  0.00    -0.003 C 
ATOM     30  C   UNL     1      27.559  -4.451   0.381  1.00  0.00     0.004 C 
ENDBRANCH  28  29
ENDBRANCH  27  28
ENDBRANCH  26  27
ENDBRANCH  25  26
ENDBRANCH  24  25
ENDBRANCH  23  24
ENDBRANCH  22  23
ENDBRANCH  21  22
ENDBRANCH  20  21
ENDBRANCH  19  20
ENDBRANCH  18  19
ENDBRANCH  17  18
ENDBRANCH   1  17
TORSDOF 26
ENDMDL
MODEL 3
REMARK VINA RESULT:     1.250      1.749      2.439
REMARK INTER + INTRA:           3.802
REMARK INTER:                   4.640
REMARK INTRA:                  -0.838
REMARK UNBOUND:                 0.652
REMARK SMILES CCCCCCCCCCCCCCCCCCCCCCCCCCCC(=O)[O-]
REMARK SMILES IDX 15 1 16 2 17 3 18 4 19 5 20 6 21 7 22 8 23 9 24 10 25 11
REMARK SMILES IDX 26 12 27 13 28 14 29 15 30 16 14 17 13 18 12 19 11 20 10 21
REMARK SMILES IDX 9 22 8 23 7 24 6 25 5 26 4 27 3 28 2 29 1 30
REMARK H PARENT
REMARK Flexibility Score: inf
ROOT
ATOM      1  C   UNL     1      26.152   3.948  -1.400  1.00  0.00     0.000 C 
ENDROOT
BRANCH   1   2
ATOM      2  C   UNL     1      27.221   2.928  -0.963  1.00  0.00     0.000 C 
BRANCH   2   3
ATOM      3  C   UNL     1      28.461   3.536  -0.280  1.00  0.00     0.000 C 
BRANCH   3   4
ATOM      4  C   UNL     1      29.069   4.765  -0.985  1.00  0.00     0.000 C 
BRANCH   4   5
ATOM      5  C   UNL     1      29.066   6.050  -0.132  1.00  0.00     0.000 C 
BRANCH   5   6
ATOM      6  C   UNL     1      28.341   7.221  -0.817  1.00  0.00     0.000 C 
BRANCH   6   7
ATOM      7  C   UNL     1      26.947   6.799  -1.308  1.00  0.00     0.000 C 
BRANCH   7   8
ATOM      8  C   UNL     1      26.198   7.937  -2.019  1.00  0.00     0.000 C 
BRANCH   8   9
ATOM      9  C   UNL     1      26.274   7.838  -3.550  1.00  0.00     0.000 C 
BRANCH   9  10
ATOM     10  C   UNL     1      27.479   8.623  -4.089  1.00  0.00     0.000 C 
BRANCH  10  11
ATOM     11  C   UNL     1      27.345  10.139  -3.874  1.00  0.00     0.000 C 
BRANCH  11  12
ATOM     12  C   UNL     1      28.692  10.875  -3.983  1.00  0.00     0.006 C 
BRANCH  12  13
ATOM     13  C   UNL     1      29.042  11.639  -2.701  1.00  0.00     0.053 C 
BRANCH  13  14
ATOM     14  C   UNL     1      28.890  13.119  -2.876  1.00  0.00     0.041 C 
ATOM     15  O   UNL     1      29.095  13.896  -1.906  1.00  0.00    -0.550 OA
ATOM     16  O   UNL     1      28.570  13.644  -4.121  1.00  0.00    -0.550 OA
ENDBRANCH  13  14
ENDBRANCH  12  13
ENDBRANCH  11  12
ENDBRANCH  10  11
ENDBRANCH   9  10
ENDBRANCH   8   9
ENDBRANCH   7   8
ENDBRANCH   6   7
ENDBRANCH   5   6
ENDBRANCH   4   5
ENDBRANCH   3   4
ENDBRANCH   2   3
ENDBRANCH   1   2
BRANCH   1  17
ATOM     17  C   UNL     1      24.730   3.372  -1.532  1.00  0.00     0.000 C 
BRANCH  17  18
ATOM     18  C   UNL     1      24.455   2.716  -2.905  1.00  0.00     0.000 C 
BRANCH  18  19
ATOM     19  C   UNL     1      23.140   1.920  -2.958  1.00  0.00     0.000 C 
BRANCH  19  20
ATOM     20  C   UNL     1      23.304   0.485  -2.427  1.00  0.00     0.000 C 
BRANCH  20  21
ATOM     21  C   UNL     1      23.510  -0.551  -3.549  1.00  0.00     0.000 C 
BRANCH  21  22
ATOM     22  C   UNL     1      24.001  -1.934  -3.081  1.00  0.00    -0.000 C 
BRANCH  22  23
ATOM     23  C   UNL     1      25.529  -2.081  -3.140  1.00  0.00    -0.000 C 
BRANCH  23  24
ATOM     24  C   UNL     1      25.935  -3.553  -3.311  1.00  0.00    -0.000 C 
BRANCH  24  25
ATOM     25  C   UNL     1      27.355  -3.734  -3.883  1.00  0.00    -0.000 C 
BRANCH  25  26
ATOM     26  C   UNL     1      27.905  -5.174  -3.849  1.00  0.00    -0.000 C 
BRANCH  26  27
ATOM     27  C   UNL     1      28.054  -5.761  -2.426  1.00  0.00    -0.000 C 
BRANCH  27  28
ATOM     28  C   UNL     1      26.762  -5.682  -1.592  1.00  0.00    -0.000 C 
BRANCH  28  29
ATOM     29  C   UNL     1      26.961  -5.131  -0.170  1.00  0.00    -0.003 C 
ATOM     30  C   UNL     1      28.166  -4.198  -0.058  1.00  0.00     0.004 C 
ENDBRANCH  28  29
ENDBRANCH  27  28
ENDBRANCH  26  27
ENDBRANCH  25  26
ENDBRANCH  24  25
ENDBRANCH  23  24
ENDBRANCH  22  23
ENDBRANCH  21  22
ENDBRANCH  20  21
ENDBRANCH  19  20
ENDBRANCH  18  19
ENDBRANCH  17  18
ENDBRANCH   1  17
TORSDOF 26
ENDMDL
MODEL 4
REMARK VINA RESULT:     1.317      3.874     11.172
REMARK INTER + INTRA:           3.970
REMARK INTER:                   5.646
REMARK INTRA:                  -1.676
REMARK UNBOUND:                 0.652
REMARK SMILES CCCCCCCCCCCCCCCCCCCCCCCCCCCC(=O)[O-]
REMARK SMILES IDX 15 1 16 2 17 3 18 4 19 5 20 6 21 7 22 8 23 9 24 10 25 11
REMARK SMILES IDX 26 12 27 13 28 14 29 15 30 16 14 17 13 18 12 19 11 20 10 21
REMARK SMILES IDX 9 22 8 23 7 24 6 25 5 26 4 27 3 28 2 29 1 30
REMARK H PARENT
REMARK Flexibility Score: inf
ROOT
ATOM      1  C   UNL     1      25.037   6.362  -3.303  1.00  0.00     0.000 C 
ENDROOT
BRANCH   1   2
ATOM      2  C   UNL     1      24.594   5.405  -2.179  1.00  0.00     0.000 C 
BRANCH   2   3
ATOM      3  C   UNL     1      25.041   3.941  -2.358  1.00  0.00     0.000 C 
BRANCH   3   4
ATOM      4  C   UNL     1      24.161   3.092  -3.297  1.00  0.00     0.000 C 
BRANCH   4   5
ATOM      5  C   UNL     1      23.289   2.045  -2.573  1.00  0.00     0.000 C 
BRANCH   5   6
ATOM      6  C   UNL     1      23.151   0.732  -3.362  1.00  0.00     0.000 C 
BRANCH   6   7
ATOM      7  C   UNL     1      22.722  -0.424  -2.445  1.00  0.00     0.000 C 
BRANCH   7   8
ATOM      8  C   UNL     1      23.646  -1.646  -2.558  1.00  0.00     0.000 C 
BRANCH   8   9
ATOM      9  C   UNL     1      24.769  -1.454  -3.588  1.00  0.00     0.000 C 
BRANCH   9  10
ATOM     10  C   UNL     1      25.949  -2.391  -3.290  1.00  0.00     0.000 C 
BRANCH  10  11
ATOM     11  C   UNL     1      25.713  -3.823  -3.795  1.00  0.00     0.000 C 
BRANCH  11  12
ATOM     12  C   UNL     1      25.960  -4.883  -2.707  1.00  0.00     0.006 C 
BRANCH  12  13
ATOM     13  C   UNL     1      26.565  -4.278  -1.434  1.00  0.00     0.053 C 
BRANCH  13  14
ATOM     14  C   UNL     1      27.835  -4.967  -1.040  1.00  0.00     0.041 C 
ATOM     15  O   UNL     1      28.188  -5.001   0.169  1.00  0.00    -0.550 OA
ATOM     16  O   UNL     1      28.603  -5.614  -1.999  1.00  0.00    -0.550 OA
ENDBRANCH  13  14
ENDBRANCH  12  13
ENDBRANCH  11  12
ENDBRANCH  10  11
ENDBRANCH   9  10
ENDBRANCH   8   9
ENDBRANCH   7   8
ENDBRANCH   6   7
ENDBRANCH   5   6
ENDBRANCH   4   5
ENDBRANCH   3   4
ENDBRANCH   2   3
ENDBRANCH   1   2
BRANCH   1  17
ATOM     17  C   UNL     1      25.826   7.594  -2.822  1.00  0.00     0.000 C 
BRANCH  17  18
ATOM     18  C   UNL     1      26.790   8.165  -3.887  1.00  0.00     0.000 C 
BRANCH  18  19
ATOM     19  C   UNL     1      28.271   8.111  -3.474  1.00  0.00     0.000 C 
BRANCH  19  20
ATOM     20  C   UNL     1      29.074   9.302  -4.026  1.00  0.00     0.000 C 
BRANCH  20  21
ATOM     21  C   UNL     1      28.242  10.594  -4.124  1.00  0.00     0.000 C 
BRANCH  21  22
ATOM     22  C   UNL     1      27.738  11.153  -2.780  1.00  0.00    -0.000 C 
BRANCH  22  23
ATOM     23  C   UNL     1      28.862  11.357  -1.754  1.00  0.00    -0.000 C 
BRANCH  23  24
ATOM     24  C   UNL     1      29.124  10.068  -0.959  1.00  0.00    -0.000 C 
BRANCH  24  25
ATOM     25  C   UNL     1      27.942   9.651  -0.061  1.00  0.00    -0.000 C 
BRANCH  25  26
ATOM     26  C   UNL     1      27.858   8.147   0.268  1.00  0.00    -0.000 C 
BRANCH  26  27
ATOM     27  C   UNL     1      28.674   7.244  -0.686  1.00  0.00    -0.000 C 
BRANCH  27  28
ATOM     28  C   UNL     1      28.957   5.843  -0.112  1.00  0.00    -0.000 C 
BRANCH  28  29
ATOM     29  C   UNL     1      27.782   4.859  -0.238  1.00  0.00    -0.003 C 
ATOM     30  C   UNL     1      28.208   3.401  -0.076  1.00  0.00     0.004 C 
ENDBRANCH  28  29
ENDBRANCH  27  28
ENDBRANCH  26  27
ENDBRANCH  25  26
ENDBRANCH  24  25
ENDBRANCH  23  24
ENDBRANCH  22  23
ENDBRANCH  21  22
ENDBRANCH  20  21
ENDBRANCH  19  20
ENDBRANCH  18  19
ENDBRANCH  17  18
ENDBRANCH   1  17
TORSDOF 26
ENDMDL
MODEL 5
REMARK VINA RESULT:     1.600      3.300      4.469
REMARK INTER + INTRA:           4.684
REMARK INTER:                   4.869
REMARK INTRA:                  -0.185
REMARK UNBOUND:                 0.652
REMARK SMILES CCCCCCCCCCCCCCCCCCCCCCCCCCCC(=O)[O-]
REMARK SMILES IDX 15 1 16 2 17 3 18 4 19 5 20 6 21 7 22 8 23 9 24 10 25 11
REMARK SMILES IDX 26 12 27 13 28 14 29 15 30 16 14 17 13 18 12 19 11 20 10 21
REMARK SMILES IDX 9 22 8 23 7 24 6 25 5 26 4 27 3 28 2 29 1 30
REMARK H PARENT
REMARK Flexibility Score: inf
ROOT
ATOM      1  C   UNL     1      26.611   5.223  -0.735  1.00  0.00     0.000 C 
ENDROOT
BRANCH   1   2
ATOM      2  C   UNL     1      28.099   4.965  -0.429  1.00  0.00     0.000 C 
BRANCH   2   3
ATOM      3  C   UNL     1      28.938   6.230  -0.162  1.00  0.00     0.000 C 
BRANCH   3   4
ATOM      4  C   UNL     1      29.025   7.225  -1.336  1.00  0.00     0.000 C 
BRANCH   4   5
ATOM      5  C   UNL     1      27.685   7.901  -1.694  1.00  0.00     0.000 C 
BRANCH   5   6
ATOM      6  C   UNL     1      27.859   9.135  -2.595  1.00  0.00     0.000 C 
BRANCH   6   7
ATOM      7  C   UNL     1      27.972  10.420  -1.759  1.00  0.00     0.000 C 
BRANCH   7   8
ATOM      8  C   UNL     1      28.900  10.259  -0.546  1.00  0.00     0.000 C 
BRANCH   8   9
ATOM      9  C   UNL     1      28.181   9.684   0.684  1.00  0.00     0.000 C 
BRANCH   9  10
ATOM     10  C   UNL     1      29.125   9.635   1.895  1.00  0.00     0.000 C 
BRANCH  10  11
ATOM     11  C   UNL     1      28.764  10.671   2.972  1.00  0.00     0.000 C 
BRANCH  11  12
ATOM     12  C   UNL     1      28.840  10.095   4.397  1.00  0.00     0.006 C 
BRANCH  12  13
ATOM     13  C   UNL     1      28.974   8.567   4.398  1.00  0.00     0.053 C 
BRANCH  13  14
ATOM     14  C   UNL     1      28.517   7.970   5.694  1.00  0.00     0.041 C 
ATOM     15  O   UNL     1      27.550   8.481   6.320  1.00  0.00    -0.550 OA
ATOM     16  O   UNL     1      29.125   6.823   6.186  1.00  0.00    -0.550 OA
ENDBRANCH  13  14
ENDBRANCH  12  13
ENDBRANCH  11  12
ENDBRANCH  10  11
ENDBRANCH   9  10
ENDBRANCH   8   9
ENDBRANCH   7   8
ENDBRANCH   6   7
ENDBRANCH   5   6
ENDBRANCH   4   5
ENDBRANCH   3   4
ENDBRANCH   2   3
ENDBRANCH   1   2
BRANCH   1  17
ATOM     17  C   UNL     1      25.736   3.956  -0.780  1.00  0.00     0.000 C 
BRANCH  17  18
ATOM     18  C   UNL     1      25.592   3.356  -2.197  1.00  0.00     0.000 C 
BRANCH  18  19
ATOM     19  C   UNL     1      24.135   3.074  -2.605  1.00  0.00     0.000 C 
BRANCH  19  20
ATOM     20  C   UNL     1      23.933   1.626  -3.084  1.00  0.00     0.000 C 
BRANCH  20  21
ATOM     21  C   UNL     1      22.963   0.828  -2.192  1.00  0.00     0.000 C 
BRANCH  21  22
ATOM     22  C   UNL     1      23.020  -0.701  -2.366  1.00  0.00    -0.000 C 
BRANCH  22  23
ATOM     23  C   UNL     1      24.042  -1.148  -3.421  1.00  0.00    -0.000 C 
BRANCH  23  24
ATOM     24  C   UNL     1      24.686  -2.488  -3.033  1.00  0.00    -0.000 C 
BRANCH  24  25
ATOM     25  C   UNL     1      26.068  -2.715  -3.679  1.00  0.00    -0.000 C 
BRANCH  25  26
ATOM     26  C   UNL     1      26.547  -4.179  -3.724  1.00  0.00    -0.000 C 
BRANCH  26  27
ATOM     27  C   UNL     1      25.910  -5.087  -2.645  1.00  0.00    -0.000 C 
BRANCH  27  28
ATOM     28  C   UNL     1      26.932  -5.663  -1.647  1.00  0.00    -0.000 C 
BRANCH  28  29
ATOM     29  C   UNL     1      27.545  -4.621  -0.698  1.00  0.00    -0.003 C 
ATOM     30  C   UNL     1      28.629  -5.207   0.207  1.00  0.00     0.004 C 
ENDBRANCH  28  29
ENDBRANCH  27  28
ENDBRANCH  26  27
ENDBRANCH  25  26
ENDBRANCH  24  25
ENDBRANCH  23  24
ENDBRANCH  22  23
ENDBRANCH  21  22
ENDBRANCH  20  21
ENDBRANCH  19  20
ENDBRANCH  18  19
ENDBRANCH  17  18
ENDBRANCH   1  17
TORSDOF 26
ENDMDL
MODEL 6
REMARK VINA RESULT:     1.935      3.854     12.028
REMARK INTER + INTRA:           5.528
REMARK INTER:                   0.863
REMARK INTRA:                   4.665
REMARK UNBOUND:                 0.652
REMARK SMILES CCCCCCCCCCCCCCCCCCCCCCCCCCCC(=O)[O-]
REMARK SMILES IDX 15 1 16 2 17 3 18 4 19 5 20 6 21 7 22 8 23 9 24 10 25 11
REMARK SMILES IDX 26 12 27 13 28 14 29 15 30 16 14 17 13 18 12 19 11 20 10 21
REMARK SMILES IDX 9 22 8 23 7 24 6 25 5 26 4 27 3 28 2 29 1 30
REMARK H PARENT
REMARK Flexibility Score: inf
ROOT
ATOM      1  C   UNL     1      23.780   3.307  -2.127  1.00  0.00     0.000 C 
ENDROOT
BRANCH   1   2
ATOM      2  C   UNL     1      23.417   2.393  -3.314  1.00  0.00     0.000 C 
BRANCH   2   3
ATOM      3  C   UNL     1      23.468   0.883  -3.012  1.00  0.00     0.000 C 
BRANCH   3   4
ATOM      4  C   UNL     1      22.202   0.296  -2.357  1.00  0.00     0.000 C 
BRANCH   4   5
ATOM      5  C   UNL     1      22.461  -0.944  -1.477  1.00  0.00     0.000 C 
BRANCH   5   6
ATOM      6  C   UNL     1      23.323  -2.007  -2.179  1.00  0.00     0.000 C 
BRANCH   6   7
ATOM      7  C   UNL     1      24.107  -1.397  -3.352  1.00  0.00     0.000 C 
BRANCH   7   8
ATOM      8  C   UNL     1      25.563  -1.885  -3.410  1.00  0.00     0.000 C 
BRANCH   8   9
ATOM      9  C   UNL     1      25.742  -3.302  -2.843  1.00  0.00     0.000 C 
BRANCH   9  10
ATOM     10  C   UNL     1      26.028  -4.308  -3.967  1.00  0.00     0.000 C 
BRANCH  10  11
ATOM     11  C   UNL     1      26.360  -5.712  -3.438  1.00  0.00     0.000 C 
BRANCH  11  12
ATOM     12  C   UNL     1      27.665  -5.745  -2.622  1.00  0.00     0.006 C 
BRANCH  12  13
ATOM     13  C   UNL     1      27.826  -4.503  -1.736  1.00  0.00     0.053 C 
BRANCH  13  14
ATOM     14  C   UNL     1      27.738  -4.843  -0.280  1.00  0.00     0.041 C 
ATOM     15  O   UNL     1      26.865  -5.654   0.129  1.00  0.00    -0.550 OA
ATOM     16  O   UNL     1      28.649  -4.303   0.618  1.00  0.00    -0.550 OA
ENDBRANCH  13  14
ENDBRANCH  12  13
ENDBRANCH  11  12
ENDBRANCH  10  11
ENDBRANCH   9  10
ENDBRANCH   8   9
ENDBRANCH   7   8
ENDBRANCH   6   7
ENDBRANCH   5   6
ENDBRANCH   4   5
ENDBRANCH   3   4
ENDBRANCH   2   3
ENDBRANCH   1   2
BRANCH   1  17
ATOM     17  C   UNL     1      24.905   4.318  -2.417  1.00  0.00     0.000 C 
BRANCH  17  18
ATOM     18  C   UNL     1      25.517   4.942  -1.142  1.00  0.00     0.000 C 
BRANCH  18  19
ATOM     19  C   UNL     1      26.919   5.539  -1.356  1.00  0.00     0.000 C 
BRANCH  19  20
ATOM     20  C   UNL     1      26.866   7.020  -1.769  1.00  0.00     0.000 C 
BRANCH  20  21
ATOM     21  C   UNL     1      28.249   7.698  -1.752  1.00  0.00     0.000 C 
BRANCH  21  22
ATOM     22  C   UNL     1      28.751   8.197  -3.121  1.00  0.00    -0.000 C 
BRANCH  22  23
ATOM     23  C   UNL     1      27.631   8.777  -3.997  1.00  0.00    -0.000 C 
BRANCH  23  24
ATOM     24  C   UNL     1      27.363  10.249  -3.648  1.00  0.00    -0.000 C 
BRANCH  24  25
ATOM     25  C   UNL     1      28.488  11.201  -4.102  1.00  0.00    -0.000 C 
BRANCH  25  26
ATOM     26  C   UNL     1      29.125  12.054  -2.987  1.00  0.00    -0.000 C 
BRANCH  26  27
ATOM     27  C   UNL     1      28.713  11.636  -1.556  1.00  0.00    -0.000 C 
BRANCH  27  28
ATOM     28  C   UNL     1      29.027  10.163  -1.234  1.00  0.00    -0.000 C 
BRANCH  28  29
ATOM     29  C   UNL     1      28.288   9.614  -0.002  1.00  0.00    -0.003 C 
ATOM     30  C   UNL     1      29.088   9.775   1.291  1.00  0.00     0.004 C 
ENDBRANCH  28  29
ENDBRANCH  27  28
ENDBRANCH  26  27
ENDBRANCH  25  26
ENDBRANCH  24  25
ENDBRANCH  23  24
ENDBRANCH  22  23
ENDBRANCH  21  22
ENDBRANCH  20  21
ENDBRANCH  19  20
ENDBRANCH  18  19
ENDBRANCH  17  18
ENDBRANCH   1  17
TORSDOF 26
ENDMDL
MODEL 7
REMARK VINA RESULT:     1.942      3.813     11.807
REMARK INTER + INTRA:           5.545
REMARK INTER:                   5.276
REMARK INTRA:                   0.270
REMARK UNBOUND:                 0.652
REMARK SMILES CCCCCCCCCCCCCCCCCCCCCCCCCCCC(=O)[O-]
REMARK SMILES IDX 15 1 16 2 17 3 18 4 19 5 20 6 21 7 22 8 23 9 24 10 25 11
REMARK SMILES IDX 26 12 27 13 28 14 29 15 30 16 14 17 13 18 12 19 11 20 10 21
REMARK SMILES IDX 9 22 8 23 7 24 6 25 5 26 4 27 3 28 2 29 1 30
REMARK H PARENT
REMARK Flexibility Score: inf
ROOT
ATOM      1  C   UNL     1      24.041   4.479  -2.248  1.00  0.00     0.000 C 
ENDROOT
BRANCH   1   2
ATOM      2  C   UNL     1      24.366   3.087  -2.826  1.00  0.00     0.000 C 
BRANCH   2   3
ATOM      3  C   UNL     1      23.212   2.068  -2.759  1.00  0.00     0.000 C 
BRANCH   3   4
ATOM      4  C   UNL     1      23.573   0.700  -2.148  1.00  0.00     0.000 C 
BRANCH   4   5
ATOM      5  C   UNL     1      22.383  -0.275  -2.031  1.00  0.00     0.000 C 
BRANCH   5   6
ATOM      6  C   UNL     1      22.781  -1.739  -2.284  1.00  0.00     0.000 C 
BRANCH   6   7
ATOM      7  C   UNL     1      23.696  -1.860  -3.513  1.00  0.00     0.000 C 
BRANCH   7   8
ATOM      8  C   UNL     1      25.186  -1.749  -3.158  1.00  0.00     0.000 C 
BRANCH   8   9
ATOM      9  C   UNL     1      26.058  -2.766  -3.911  1.00  0.00     0.000 C 
BRANCH   9  10
ATOM     10  C   UNL     1      26.880  -3.613  -2.929  1.00  0.00     0.000 C 
BRANCH  10  11
ATOM     11  C   UNL     1      27.547  -4.823  -3.603  1.00  0.00     0.000 C 
BRANCH  11  12
ATOM     12  C   UNL     1      28.011  -5.884  -2.589  1.00  0.00     0.006 C 
BRANCH  12  13
ATOM     13  C   UNL     1      27.052  -6.008  -1.399  1.00  0.00     0.053 C 
BRANCH  13  14
ATOM     14  C   UNL     1      27.582  -5.309  -0.184  1.00  0.00     0.041 C 
ATOM     15  O   UNL     1      26.979  -5.411   0.918  1.00  0.00    -0.550 OA
ATOM     16  O   UNL     1      28.764  -4.585  -0.256  1.00  0.00    -0.550 OA
ENDBRANCH  13  14
ENDBRANCH  12  13
ENDBRANCH  11  12
ENDBRANCH  10  11
ENDBRANCH   9  10
ENDBRANCH   8   9
ENDBRANCH   7   8
ENDBRANCH   6   7
ENDBRANCH   5   6
ENDBRANCH   4   5
ENDBRANCH   3   4
ENDBRANCH   2   3
ENDBRANCH   1   2
BRANCH   1  17
ATOM     17  C   UNL     1      25.106   5.555  -2.530  1.00  0.00     0.000 C 
BRANCH  17  18
ATOM     18  C   UNL     1      26.250   5.578  -1.491  1.00  0.00     0.000 C 
BRANCH  18  19
ATOM     19  C   UNL     1      27.042   4.261  -1.413  1.00  0.00     0.000 C 
BRANCH  19  20
ATOM     20  C   UNL     1      27.625   4.013  -0.010  1.00  0.00     0.000 C 
BRANCH  20  21
ATOM     21  C   UNL     1      28.939   4.777   0.238  1.00  0.00     0.000 C 
BRANCH  21  22
ATOM     22  C   UNL     1      29.057   6.131  -0.486  1.00  0.00    -0.000 C 
BRANCH  22  23
ATOM     23  C   UNL     1      28.306   7.263   0.230  1.00  0.00    -0.000 C 
BRANCH  23  24
ATOM     24  C   UNL     1      29.125   8.563   0.219  1.00  0.00    -0.000 C 
BRANCH  24  25
ATOM     25  C   UNL     1      29.087   9.301  -1.134  1.00  0.00    -0.000 C 
BRANCH  25  26
ATOM     26  C   UNL     1      27.705   9.368  -1.814  1.00  0.00    -0.000 C 
BRANCH  26  27
ATOM     27  C   UNL     1      27.740   9.137  -3.343  1.00  0.00    -0.000 C 
BRANCH  27  28
ATOM     28  C   UNL     1      28.495  10.237  -4.112  1.00  0.00    -0.000 C 
BRANCH  28  29
ATOM     29  C   UNL     1      28.921  11.435  -3.247  1.00  0.00    -0.003 C 
ATOM     30  C   UNL     1      28.760  12.774  -3.966  1.00  0.00     0.004 C 
ENDBRANCH  28  29
ENDBRANCH  27  28
ENDBRANCH  26  27
ENDBRANCH  25  26
ENDBRANCH  24  25
ENDBRANCH  23  24
ENDBRANCH  22  23
ENDBRANCH  21  22
ENDBRANCH  20  21
ENDBRANCH  19  20
ENDBRANCH  18  19
ENDBRANCH  17  18
ENDBRANCH   1  17
TORSDOF 26
ENDMDL
MODEL 8
REMARK VINA RESULT:     2.878      4.364     11.874
REMARK INTER + INTRA:           7.905
REMARK INTER:                   8.773
REMARK INTRA:                  -0.868
REMARK UNBOUND:                 0.652
REMARK SMILES CCCCCCCCCCCCCCCCCCCCCCCCCCCC(=O)[O-]
REMARK SMILES IDX 15 1 16 2 17 3 18 4 19 5 20 6 21 7 22 8 23 9 24 10 25 11
REMARK SMILES IDX 26 12 27 13 28 14 29 15 30 16 14 17 13 18 12 19 11 20 10 21
REMARK SMILES IDX 9 22 8 23 7 24 6 25 5 26 4 27 3 28 2 29 1 30
REMARK H PARENT
REMARK Flexibility Score: inf
ROOT
ATOM      1  C   UNL     1      26.058   5.565  -0.922  1.00  0.00     0.000 C 
ENDROOT
BRANCH   1   2
ATOM      2  C   UNL     1      25.618   4.440  -1.879  1.00  0.00     0.000 C 
BRANCH   2   3
ATOM      3  C   UNL     1      24.146   4.510  -2.332  1.00  0.00     0.000 C 
BRANCH   3   4
ATOM      4  C   UNL     1      23.337   3.211  -2.149  1.00  0.00     0.000 C 
BRANCH   4   5
ATOM      5  C   UNL     1      23.570   2.159  -3.255  1.00  0.00     0.000 C 
BRANCH   5   6
ATOM      6  C   UNL     1      24.471   1.000  -2.797  1.00  0.00     0.000 C 
BRANCH   6   7
ATOM      7  C   UNL     1      24.279  -0.236  -3.689  1.00  0.00     0.000 C 
BRANCH   7   8
ATOM      8  C   UNL     1      24.023  -1.517  -2.882  1.00  0.00     0.000 C 
BRANCH   8   9
ATOM      9  C   UNL     1      25.298  -2.341  -2.646  1.00  0.00     0.000 C 
BRANCH   9  10
ATOM     10  C   UNL     1      25.826  -2.920  -3.967  1.00  0.00     0.000 C 
BRANCH  10  11
ATOM     11  C   UNL     1      26.017  -4.444  -3.914  1.00  0.00     0.000 C 
BRANCH  11  12
ATOM     12  C   UNL     1      27.244  -4.859  -3.084  1.00  0.00     0.006 C 
BRANCH  12  13
ATOM     13  C   UNL     1      26.896  -5.900  -2.014  1.00  0.00     0.053 C 
BRANCH  13  14
ATOM     14  C   UNL     1      27.376  -5.485  -0.657  1.00  0.00     0.041 C 
ATOM     15  O   UNL     1      26.812  -5.932   0.378  1.00  0.00    -0.550 OA
ATOM     16  O   UNL     1      28.473  -4.644  -0.533  1.00  0.00    -0.550 OA
ENDBRANCH  13  14
ENDBRANCH  12  13
ENDBRANCH  11  12
ENDBRANCH  10  11
ENDBRANCH   9  10
ENDBRANCH   8   9
ENDBRANCH   7   8
ENDBRANCH   6   7
ENDBRANCH   5   6
ENDBRANCH   4   5
ENDBRANCH   3   4
ENDBRANCH   2   3
ENDBRANCH   1   2
BRANCH   1  17
ATOM     17  C   UNL     1      26.079   6.971  -1.551  1.00  0.00     0.000 C 
BRANCH  17  18
ATOM     18  C   UNL     1      25.970   6.959  -3.092  1.00  0.00     0.000 C 
BRANCH  18  19
ATOM     19  C   UNL     1      25.833   8.360  -3.714  1.00  0.00     0.000 C 
BRANCH  19  20
ATOM     20  C   UNL     1      27.055   9.249  -3.425  1.00  0.00     0.000 C 
BRANCH  20  21
ATOM     21  C   UNL     1      28.377   8.460  -3.386  1.00  0.00     0.000 C 
BRANCH  21  22
ATOM     22  C   UNL     1      28.999   8.291  -1.987  1.00  0.00    -0.000 C 
BRANCH  22  23
ATOM     23  C   UNL     1      29.007   9.592  -1.171  1.00  0.00    -0.000 C 
BRANCH  23  24
ATOM     24  C   UNL     1      28.100   9.475   0.063  1.00  0.00    -0.000 C 
BRANCH  24  25
ATOM     25  C   UNL     1      28.865   9.129   1.356  1.00  0.00    -0.000 C 
BRANCH  25  26
ATOM     26  C   UNL     1      29.069  10.300   2.339  1.00  0.00    -0.000 C 
BRANCH  26  27
ATOM     27  C   UNL     1      29.103   9.878   3.827  1.00  0.00    -0.000 C 
BRANCH  27  28
ATOM     28  C   UNL     1      27.875   9.054   4.259  1.00  0.00    -0.000 C 
BRANCH  28  29
ATOM     29  C   UNL     1      27.992   8.433   5.661  1.00  0.00    -0.003 C 
ATOM     30  C   UNL     1      28.988   9.171   6.555  1.00  0.00     0.004 C 
ENDBRANCH  28  29
ENDBRANCH  27  28
ENDBRANCH  26  27
ENDBRANCH  25  26
ENDBRANCH  24  25
ENDBRANCH  23  24
ENDBRANCH  22  23
ENDBRANCH  21  22
ENDBRANCH  20  21
ENDBRANCH  19  20
ENDBRANCH  18  19
ENDBRANCH  17  18
ENDBRANCH   1  17
TORSDOF 26
ENDMDL
MODEL 9
REMARK VINA RESULT:     3.075      4.231     11.270
REMARK INTER + INTRA:           8.400
REMARK INTER:                   9.329
REMARK INTRA:                  -0.929
REMARK UNBOUND:                 0.652
REMARK SMILES CCCCCCCCCCCCCCCCCCCCCCCCCCCC(=O)[O-]
REMARK SMILES IDX 15 1 16 2 17 3 18 4 19 5 20 6 21 7 22 8 23 9 24 10 25 11
REMARK SMILES IDX 26 12 27 13 28 14 29 15 30 16 14 17 13 18 12 19 11 20 10 21
REMARK SMILES IDX 9 22 8 23 7 24 6 25 5 26 4 27 3 28 2 29 1 30
REMARK H PARENT
REMARK Flexibility Score: inf
ROOT
ATOM      1  C   UNL     1      20.373   1.759  -2.572  1.00  0.00     0.000 C 
ENDROOT
BRANCH   1   2
ATOM      2  C   UNL     1      19.243   2.215  -1.629  1.00  0.00     0.000 C 
BRANCH   2   3
ATOM      3  C   UNL     1      19.026   1.321  -0.392  1.00  0.00     0.000 C 
BRANCH   3   4
ATOM      4  C   UNL     1      19.434  -0.156  -0.565  1.00  0.00     0.000 C 
BRANCH   4   5
ATOM      5  C   UNL     1      20.633  -0.587   0.305  1.00  0.00     0.000 C 
BRANCH   5   6
ATOM      6  C   UNL     1      21.550  -1.600  -0.401  1.00  0.00     0.000 C 
BRANCH   6   7
ATOM      7  C   UNL     1      22.405  -0.917  -1.479  1.00  0.00     0.000 C 
BRANCH   7   8
ATOM      8  C   UNL     1      23.749  -1.625  -1.708  1.00  0.00     0.000 C 
BRANCH   8   9
ATOM      9  C   UNL     1      24.132  -1.714  -3.193  1.00  0.00     0.000 C 
BRANCH   9  10
ATOM     10  C   UNL     1      25.636  -1.979  -3.355  1.00  0.00     0.000 C 
BRANCH  10  11
ATOM     11  C   UNL     1      25.989  -3.473  -3.272  1.00  0.00     0.000 C 
BRANCH  11  12
ATOM     12  C   UNL     1      27.383  -3.785  -3.844  1.00  0.00     0.006 C 
BRANCH  12  13
ATOM     13  C   UNL     1      27.999  -5.042  -3.217  1.00  0.00     0.053 C 
BRANCH  13  14
ATOM     14  C   UNL     1      27.434  -5.320  -1.858  1.00  0.00     0.041 C 
ATOM     15  O   UNL     1      26.474  -6.125  -1.724  1.00  0.00    -0.550 OA
ATOM     16  O   UNL     1      27.996  -4.727  -0.735  1.00  0.00    -0.550 OA
ENDBRANCH  13  14
ENDBRANCH  12  13
ENDBRANCH  11  12
ENDBRANCH  10  11
ENDBRANCH   9  10
ENDBRANCH   8   9
ENDBRANCH   7   8
ENDBRANCH   6   7
ENDBRANCH   5   6
ENDBRANCH   4   5
ENDBRANCH   3   4
ENDBRANCH   2   3
ENDBRANCH   1   2
BRANCH   1  17
ATOM     17  C   UNL     1      21.735   2.428  -2.312  1.00  0.00     0.000 C 
BRANCH  17  18
ATOM     18  C   UNL     1      22.889   1.824  -3.144  1.00  0.00     0.000 C 
BRANCH  18  19
ATOM     19  C   UNL     1      24.289   2.210  -2.635  1.00  0.00     0.000 C 
BRANCH  19  20
ATOM     20  C   UNL     1      24.381   3.698  -2.253  1.00  0.00     0.000 C 
BRANCH  20  21
ATOM     21  C   UNL     1      25.699   4.054  -1.540  1.00  0.00     0.000 C 
BRANCH  21  22
ATOM     22  C   UNL     1      25.899   5.553  -1.244  1.00  0.00    -0.000 C 
BRANCH  22  23
ATOM     23  C   UNL     1      25.569   6.452  -2.444  1.00  0.00    -0.000 C 
BRANCH  23  24
ATOM     24  C   UNL     1      26.130   7.868  -2.243  1.00  0.00    -0.000 C 
BRANCH  24  25
ATOM     25  C   UNL     1      27.450   8.118  -3.000  1.00  0.00    -0.000 C 
BRANCH  25  26
ATOM     26  C   UNL     1      27.645   9.550  -3.539  1.00  0.00    -0.000 C 
BRANCH  26  27
ATOM     27  C   UNL     1      28.943  10.236  -3.056  1.00  0.00    -0.000 C 
BRANCH  27  28
ATOM     28  C   UNL     1      28.868  10.737  -1.601  1.00  0.00    -0.000 C 
BRANCH  28  29
ATOM     29  C   UNL     1      28.950   9.624  -0.544  1.00  0.00    -0.003 C 
ATOM     30  C   UNL     1      27.598   9.311   0.095  1.00  0.00     0.004 C 
ENDBRANCH  28  29
ENDBRANCH  27  28
ENDBRANCH  26  27
ENDBRANCH  25  26
ENDBRANCH  24  25
ENDBRANCH  23  24
ENDBRANCH  22  23
ENDBRANCH  21  22
ENDBRANCH  20  21
ENDBRANCH  19  20
ENDBRANCH  18  19
ENDBRANCH  17  18
ENDBRANCH   1  17
TORSDOF 26
ENDMDL
