MODEL 1
REMARK VINA RESULT:    -3.614      0.000      0.000
REMARK INTER + INTRA:         -14.132
REMARK INTER:                  -9.107
REMARK INTRA:                  -5.025
REMARK UNBOUND:                -5.025
REMARK SMILES CCCCCCCCCCCCCCCCCCCCCCCCCCCC(=O)[O-]
REMARK SMILES IDX 15 1 16 2 17 3 18 4 19 5 20 6 21 7 22 8 23 9 24 10 25 11
REMARK SMILES IDX 26 12 27 13 28 14 29 15 30 16 14 17 13 18 12 19 11 20 10 21
REMARK SMILES IDX 9 22 8 23 7 24 6 25 5 26 4 27 3 28 2 29 1 30
REMARK H PARENT
REMARK Flexibility Score: inf
ROOT
ATOM      1  C   UNL     1     139.139 129.324 113.568  1.00  0.00     0.000 C 
ENDROOT
BRANCH   1   2
ATOM      2  C   UNL     1     140.560 129.792 113.940  1.00  0.00     0.000 C 
BRANCH   2   3
ATOM      3  C   UNL     1     140.788 130.037 115.445  1.00  0.00     0.000 C 
BRANCH   3   4
ATOM      4  C   UNL     1     141.873 129.154 116.093  1.00  0.00     0.000 C 
BRANCH   4   5
ATOM      5  C   UNL     1     141.933 127.709 115.563  1.00  0.00     0.000 C 
BRANCH   5   6
ATOM      6  C   UNL     1     143.280 127.376 114.900  1.00  0.00     0.000 C 
BRANCH   6   7
ATOM      7  C   UNL     1     144.440 127.322 115.908  1.00  0.00     0.000 C 
BRANCH   7   8
ATOM      8  C   UNL     1     145.666 128.124 115.438  1.00  0.00     0.000 C 
BRANCH   8   9
ATOM      9  C   UNL     1     145.280 129.321 114.556  1.00  0.00     0.000 C 
BRANCH   9  10
ATOM     10  C   UNL     1     145.097 130.618 115.365  1.00  0.00     0.000 C 
BRANCH  10  11
ATOM     11  C   UNL     1     146.424 131.183 115.898  1.00  0.00     0.000 C 
BRANCH  11  12
ATOM     12  C   UNL     1     146.350 132.621 116.447  1.00  0.00     0.006 C 
BRANCH  12  13
ATOM     13  C   UNL     1     145.088 133.393 116.017  1.00  0.00     0.053 C 
BRANCH  13  14
ATOM     14  C   UNL     1     145.411 134.639 115.248  1.00  0.00     0.041 C 
ATOM     15  O   UNL     1     144.664 135.649 115.336  1.00  0.00    -0.550 OA
ATOM     16  O   UNL     1     146.512 134.671 114.400  1.00  0.00    -0.550 OA
ENDBRANCH  13  14
ENDBRANCH  12  13
ENDBRANCH  11  12
ENDBRANCH  10  11
ENDBRANCH   9  10
ENDBRANCH   8   9
ENDBRANCH   7   8
ENDBRANCH   6   7
ENDBRANCH   5   6
ENDBRANCH   4   5
ENDBRANCH   3   4
ENDBRANCH   2   3
ENDBRANCH   1   2
BRANCH   1  17
ATOM     17  C   UNL     1     138.918 127.799 113.636  1.00  0.00     0.000 C 
BRANCH  17  18
ATOM     18  C   UNL     1     137.841 127.339 114.640  1.00  0.00     0.000 C 
BRANCH  18  19
ATOM     19  C   UNL     1     138.251 127.433 116.120  1.00  0.00     0.000 C 
BRANCH  19  20
ATOM     20  C   UNL     1     137.700 128.688 116.812  1.00  0.00     0.000 C 
BRANCH  20  21
ATOM     21  C   UNL     1     137.501 128.440 118.315  1.00  0.00     0.000 C 
BRANCH  21  22
ATOM     22  C   UNL     1     138.262 129.447 119.195  1.00  0.00    -0.000 C 
BRANCH  22  23
ATOM     23  C   UNL     1     139.789 129.450 119.008  1.00  0.00    -0.000 C 
BRANCH  23  24
ATOM     24  C   UNL     1     140.531 128.696 120.123  1.00  0.00    -0.000 C 
BRANCH  24  25
ATOM     25  C   UNL     1     140.908 127.278 119.671  1.00  0.00    -0.000 C 
BRANCH  25  26
ATOM     26  C   UNL     1     142.371 127.169 119.205  1.00  0.00    -0.000 C 
BRANCH  26  27
ATOM     27  C   UNL     1     143.381 128.008 120.016  1.00  0.00    -0.000 C 
BRANCH  27  28
ATOM     28  C   UNL     1     144.811 128.035 119.448  1.00  0.00    -0.000 C 
BRANCH  28  29
ATOM     29  C   UNL     1     145.223 129.424 118.939  1.00  0.00    -0.003 C 
ATOM     30  C   UNL     1     144.022 130.363 118.870  1.00  0.00     0.004 C 
ENDBRANCH  28  29
ENDBRANCH  27  28
ENDBRANCH  26  27
ENDBRANCH  25  26
ENDBRANCH  24  25
ENDBRANCH  23  24
ENDBRANCH  22  23
ENDBRANCH  21  22
ENDBRANCH  20  21
ENDBRANCH  19  20
ENDBRANCH  18  19
ENDBRANCH  17  18
ENDBRANCH   1  17
TORSDOF 26
ENDMDL
MODEL 2
REMARK VINA RESULT:    -3.600      4.226      8.171
REMARK INTER + INTRA:         -14.096
REMARK INTER:                  -9.115
REMARK INTRA:                  -4.981
REMARK UNBOUND:                -5.025
REMARK SMILES CCCCCCCCCCCCCCCCCCCCCCCCCCCC(=O)[O-]
REMARK SMILES IDX 15 1 16 2 17 3 18 4 19 5 20 6 21 7 22 8 23 9 24 10 25 11
REMARK SMILES IDX 26 12 27 13 28 14 29 15 30 16 14 17 13 18 12 19 11 20 10 21
REMARK SMILES IDX 9 22 8 23 7 24 6 25 5 26 4 27 3 28 2 29 1 30
REMARK H PARENT
REMARK Flexibility Score: inf
ROOT
ATOM      1  C   UNL     1     138.209 129.653 114.299  1.00  0.00     0.000 C 
ENDROOT
BRANCH   1   2
ATOM      2  C   UNL     1     138.560 128.320 113.610  1.00  0.00     0.000 C 
BRANCH   2   3
ATOM      3  C   UNL     1     138.517 127.083 114.530  1.00  0.00     0.000 C 
BRANCH   3   4
ATOM      4  C   UNL     1     137.718 127.270 115.836  1.00  0.00     0.000 C 
BRANCH   4   5
ATOM      5  C   UNL     1     138.546 127.133 117.127  1.00  0.00     0.000 C 
BRANCH   5   6
ATOM      6  C   UNL     1     138.730 128.472 117.859  1.00  0.00     0.000 C 
BRANCH   6   7
ATOM      7  C   UNL     1     137.440 129.305 117.906  1.00  0.00     0.000 C 
BRANCH   7   8
ATOM      8  C   UNL     1     136.393 128.716 118.870  1.00  0.00     0.000 C 
BRANCH   8   9
ATOM      9  C   UNL     1     134.962 128.832 118.323  1.00  0.00     0.000 C 
BRANCH   9  10
ATOM     10  C   UNL     1     134.915 129.461 116.919  1.00  0.00     0.000 C 
BRANCH  10  11
ATOM     11  C   UNL     1     134.399 128.489 115.845  1.00  0.00     0.000 C 
BRANCH  11  12
ATOM     12  C   UNL     1     132.898 128.149 115.937  1.00  0.00     0.006 C 
BRANCH  12  13
ATOM     13  C   UNL     1     132.095 128.506 114.672  1.00  0.00     0.053 C 
BRANCH  13  14
ATOM     14  C   UNL     1     131.867 129.982 114.534  1.00  0.00     0.041 C 
ATOM     15  O   UNL     1     132.281 130.593 113.514  1.00  0.00    -0.550 OA
ATOM     16  O   UNL     1     131.238 130.690 115.551  1.00  0.00    -0.550 OA
ENDBRANCH  13  14
ENDBRANCH  12  13
ENDBRANCH  11  12
ENDBRANCH  10  11
ENDBRANCH   9  10
ENDBRANCH   8   9
ENDBRANCH   7   8
ENDBRANCH   6   7
ENDBRANCH   5   6
ENDBRANCH   4   5
ENDBRANCH   3   4
ENDBRANCH   2   3
ENDBRANCH   1   2
BRANCH   1  17
ATOM     17  C   UNL     1     139.418 130.552 114.630  1.00  0.00     0.000 C 
BRANCH  17  18
ATOM     18  C   UNL     1     140.652 130.347 113.728  1.00  0.00     0.000 C 
BRANCH  18  19
ATOM     19  C   UNL     1     141.948 129.979 114.474  1.00  0.00     0.000 C 
BRANCH  19  20
ATOM     20  C   UNL     1     141.690 129.463 115.896  1.00  0.00     0.000 C 
BRANCH  20  21
ATOM     21  C   UNL     1     141.980 127.957 115.992  1.00  0.00     0.000 C 
BRANCH  21  22
ATOM     22  C   UNL     1     142.874 127.445 114.849  1.00  0.00    -0.000 C 
BRANCH  22  23
ATOM     23  C   UNL     1     144.372 127.349 115.190  1.00  0.00    -0.000 C 
BRANCH  23  24
ATOM     24  C   UNL     1     145.220 128.410 114.469  1.00  0.00    -0.000 C 
BRANCH  24  25
ATOM     25  C   UNL     1     146.018 129.251 115.475  1.00  0.00    -0.000 C 
BRANCH  25  26
ATOM     26  C   UNL     1     145.414 130.650 115.696  1.00  0.00    -0.000 C 
BRANCH  26  27
ATOM     27  C   UNL     1     144.706 130.850 117.052  1.00  0.00    -0.000 C 
BRANCH  27  28
ATOM     28  C   UNL     1     145.295 130.039 118.221  1.00  0.00    -0.000 C 
BRANCH  28  29
ATOM     29  C   UNL     1     144.277 129.078 118.851  1.00  0.00    -0.003 C 
ATOM     30  C   UNL     1     144.734 127.628 118.718  1.00  0.00     0.004 C 
ENDBRANCH  28  29
ENDBRANCH  27  28
ENDBRANCH  26  27
ENDBRANCH  25  26
ENDBRANCH  24  25
ENDBRANCH  23  24
ENDBRANCH  22  23
ENDBRANCH  21  22
ENDBRANCH  20  21
ENDBRANCH  19  20
ENDBRANCH  18  19
ENDBRANCH  17  18
ENDBRANCH   1  17
TORSDOF 26
ENDMDL
MODEL 3
REMARK VINA RESULT:    -3.564      3.181      7.097
REMARK INTER + INTRA:         -14.006
REMARK INTER:                  -8.937
REMARK INTRA:                  -5.069
REMARK UNBOUND:                -5.025
REMARK SMILES CCCCCCCCCCCCCCCCCCCCCCCCCCCC(=O)[O-]
REMARK SMILES IDX 15 1 16 2 17 3 18 4 19 5 20 6 21 7 22 8 23 9 24 10 25 11
REMARK SMILES IDX 26 12 27 13 28 14 29 15 30 16 14 17 13 18 12 19 11 20 10 21
REMARK SMILES IDX 9 22 8 23 7 24 6 25 5 26 4 27 3 28 2 29 1 30
REMARK H PARENT
REMARK Flexibility Score: inf
ROOT
ATOM      1  C   UNL     1     143.741 133.363 116.319  1.00  0.00     0.000 C 
ENDROOT
BRANCH   1   2
ATOM      2  C   UNL     1     142.599 132.426 115.877  1.00  0.00     0.000 C 
BRANCH   2   3
ATOM      3  C   UNL     1     141.873 131.702 117.029  1.00  0.00     0.000 C 
BRANCH   3   4
ATOM      4  C   UNL     1     140.637 130.881 116.607  1.00  0.00     0.000 C 
BRANCH   4   5
ATOM      5  C   UNL     1     140.263 130.994 115.117  1.00  0.00     0.000 C 
BRANCH   5   6
ATOM      6  C   UNL     1     139.074 130.097 114.735  1.00  0.00     0.000 C 
BRANCH   6   7
ATOM      7  C   UNL     1     139.269 129.400 113.379  1.00  0.00     0.000 C 
BRANCH   7   8
ATOM      8  C   UNL     1     138.842 127.922 113.410  1.00  0.00     0.000 C 
BRANCH   8   9
ATOM      9  C   UNL     1     138.779 127.360 114.838  1.00  0.00     0.000 C 
BRANCH   9  10
ATOM     10  C   UNL     1     137.358 127.402 115.428  1.00  0.00     0.000 C 
BRANCH  10  11
ATOM     11  C   UNL     1     137.341 127.255 116.959  1.00  0.00     0.000 C 
BRANCH  11  12
ATOM     12  C   UNL     1     138.729 127.134 117.620  1.00  0.00     0.006 C 
BRANCH  12  13
ATOM     13  C   UNL     1     139.096 128.321 118.531  1.00  0.00     0.053 C 
BRANCH  13  14
ATOM     14  C   UNL     1     139.320 127.905 119.954  1.00  0.00     0.041 C 
ATOM     15  O   UNL     1     139.997 126.875 120.213  1.00  0.00    -0.550 OA
ATOM     16  O   UNL     1     138.745 128.628 120.992  1.00  0.00    -0.550 OA
ENDBRANCH  13  14
ENDBRANCH  12  13
ENDBRANCH  11  12
ENDBRANCH  10  11
ENDBRANCH   9  10
ENDBRANCH   8   9
ENDBRANCH   7   8
ENDBRANCH   6   7
ENDBRANCH   5   6
ENDBRANCH   4   5
ENDBRANCH   3   4
ENDBRANCH   2   3
ENDBRANCH   1   2
BRANCH   1  17
ATOM     17  C   UNL     1     144.970 132.651 116.920  1.00  0.00     0.000 C 
BRANCH  17  18
ATOM     18  C   UNL     1     146.193 132.556 115.986  1.00  0.00     0.000 C 
BRANCH  18  19
ATOM     19  C   UNL     1     146.788 131.144 115.837  1.00  0.00     0.000 C 
BRANCH  19  20
ATOM     20  C   UNL     1     145.924 130.061 116.498  1.00  0.00     0.000 C 
BRANCH  20  21
ATOM     21  C   UNL     1     145.852 128.806 115.615  1.00  0.00     0.000 C 
BRANCH  21  22
ATOM     22  C   UNL     1     144.900 128.969 114.417  1.00  0.00    -0.000 C 
BRANCH  22  23
ATOM     23  C   UNL     1     143.413 129.119 114.783  1.00  0.00    -0.000 C 
BRANCH  23  24
ATOM     24  C   UNL     1     142.702 127.770 114.968  1.00  0.00    -0.000 C 
BRANCH  24  25
ATOM     25  C   UNL     1     142.212 127.600 116.413  1.00  0.00    -0.000 C 
BRANCH  25  26
ATOM     26  C   UNL     1     143.344 127.228 117.388  1.00  0.00    -0.000 C 
BRANCH  26  27
ATOM     27  C   UNL     1     143.079 127.586 118.865  1.00  0.00    -0.000 C 
BRANCH  27  28
ATOM     28  C   UNL     1     143.240 129.076 119.215  1.00  0.00    -0.000 C 
BRANCH  28  29
ATOM     29  C   UNL     1     142.793 129.404 120.646  1.00  0.00    -0.003 C 
ATOM     30  C   UNL     1     141.875 130.624 120.669  1.00  0.00     0.004 C 
ENDBRANCH  28  29
ENDBRANCH  27  28
ENDBRANCH  26  27
ENDBRANCH  25  26
ENDBRANCH  24  25
ENDBRANCH  23  24
ENDBRANCH  22  23
ENDBRANCH  21  22
ENDBRANCH  20  21
ENDBRANCH  19  20
ENDBRANCH  18  19
ENDBRANCH  17  18
ENDBRANCH   1  17
TORSDOF 26
ENDMDL
MODEL 4
REMARK VINA RESULT:    -3.542      3.439      6.295
REMARK INTER + INTRA:         -13.951
REMARK INTER:                  -8.826
REMARK INTRA:                  -5.125
REMARK UNBOUND:                -5.025
REMARK SMILES CCCCCCCCCCCCCCCCCCCCCCCCCCCC(=O)[O-]
REMARK SMILES IDX 15 1 16 2 17 3 18 4 19 5 20 6 21 7 22 8 23 9 24 10 25 11
REMARK SMILES IDX 26 12 27 13 28 14 29 15 30 16 14 17 13 18 12 19 11 20 10 21
REMARK SMILES IDX 9 22 8 23 7 24 6 25 5 26 4 27 3 28 2 29 1 30
REMARK H PARENT
REMARK Flexibility Score: inf
ROOT
ATOM      1  C   UNL     1     138.727 129.457 113.411  1.00  0.00     0.000 C 
ENDROOT
BRANCH   1   2
ATOM      2  C   UNL     1     138.927 127.928 113.432  1.00  0.00     0.000 C 
BRANCH   2   3
ATOM      3  C   UNL     1     138.147 127.188 114.537  1.00  0.00     0.000 C 
BRANCH   3   4
ATOM      4  C   UNL     1     137.663 128.076 115.701  1.00  0.00     0.000 C 
BRANCH   4   5
ATOM      5  C   UNL     1     138.721 128.354 116.785  1.00  0.00     0.000 C 
BRANCH   5   6
ATOM      6  C   UNL     1     139.151 127.081 117.535  1.00  0.00     0.000 C 
BRANCH   6   7
ATOM      7  C   UNL     1     139.901 127.387 118.840  1.00  0.00     0.000 C 
BRANCH   7   8
ATOM      8  C   UNL     1     140.590 128.763 118.816  1.00  0.00     0.000 C 
BRANCH   8   9
ATOM      9  C   UNL     1     142.063 128.673 118.387  1.00  0.00     0.000 C 
BRANCH   9  10
ATOM     10  C   UNL     1     142.854 127.633 119.201  1.00  0.00     0.000 C 
BRANCH  10  11
ATOM     11  C   UNL     1     144.034 128.248 119.971  1.00  0.00     0.000 C 
BRANCH  11  12
ATOM     12  C   UNL     1     143.729 128.643 121.430  1.00  0.00     0.006 C 
BRANCH  12  13
ATOM     13  C   UNL     1     142.525 127.903 122.042  1.00  0.00     0.053 C 
BRANCH  13  14
ATOM     14  C   UNL     1     142.574 127.867 123.540  1.00  0.00     0.041 C 
ATOM     15  O   UNL     1     143.424 128.557 124.163  1.00  0.00    -0.550 OA
ATOM     16  O   UNL     1     141.710 127.040 124.248  1.00  0.00    -0.550 OA
ENDBRANCH  13  14
ENDBRANCH  12  13
ENDBRANCH  11  12
ENDBRANCH  10  11
ENDBRANCH   9  10
ENDBRANCH   8   9
ENDBRANCH   7   8
ENDBRANCH   6   7
ENDBRANCH   5   6
ENDBRANCH   4   5
ENDBRANCH   3   4
ENDBRANCH   2   3
ENDBRANCH   1   2
BRANCH   1  17
ATOM     17  C   UNL     1     140.029 130.282 113.375  1.00  0.00     0.000 C 
BRANCH  17  18
ATOM     18  C   UNL     1     140.824 130.309 114.696  1.00  0.00     0.000 C 
BRANCH  18  19
ATOM     19  C   UNL     1     142.233 129.695 114.618  1.00  0.00     0.000 C 
BRANCH  19  20
ATOM     20  C   UNL     1     142.281 128.246 115.123  1.00  0.00     0.000 C 
BRANCH  20  21
ATOM     21  C   UNL     1     143.615 127.581 114.752  1.00  0.00     0.000 C 
BRANCH  21  22
ATOM     22  C   UNL     1     144.443 127.170 115.983  1.00  0.00    -0.000 C 
BRANCH  22  23
ATOM     23  C   UNL     1     145.698 128.024 116.236  1.00  0.00    -0.000 C 
BRANCH  23  24
ATOM     24  C   UNL     1     145.865 129.161 115.216  1.00  0.00    -0.000 C 
BRANCH  24  25
ATOM     25  C   UNL     1     145.653 130.530 115.879  1.00  0.00    -0.000 C 
BRANCH  25  26
ATOM     26  C   UNL     1     145.595 130.447 117.415  1.00  0.00    -0.000 C 
BRANCH  26  27
ATOM     27  C   UNL     1     144.786 131.567 118.101  1.00  0.00    -0.000 C 
BRANCH  27  28
ATOM     28  C   UNL     1     143.465 131.939 117.402  1.00  0.00    -0.000 C 
BRANCH  28  29
ATOM     29  C   UNL     1     142.352 132.312 118.391  1.00  0.00    -0.003 C 
ATOM     30  C   UNL     1     142.766 132.002 119.827  1.00  0.00     0.004 C 
ENDBRANCH  28  29
ENDBRANCH  27  28
ENDBRANCH  26  27
ENDBRANCH  25  26
ENDBRANCH  24  25
ENDBRANCH  23  24
ENDBRANCH  22  23
ENDBRANCH  21  22
ENDBRANCH  20  21
ENDBRANCH  19  20
ENDBRANCH  18  19
ENDBRANCH  17  18
ENDBRANCH   1  17
TORSDOF 26
ENDMDL
MODEL 5
REMARK VINA RESULT:    -3.540      2.773      6.051
REMARK INTER + INTRA:         -13.946
REMARK INTER:                  -8.759
REMARK INTRA:                  -5.187
REMARK UNBOUND:                -5.025
REMARK SMILES CCCCCCCCCCCCCCCCCCCCCCCCCCCC(=O)[O-]
REMARK SMILES IDX 15 1 16 2 17 3 18 4 19 5 20 6 21 7 22 8 23 9 24 10 25 11
REMARK SMILES IDX 26 12 27 13 28 14 29 15 30 16 14 17 13 18 12 19 11 20 10 21
REMARK SMILES IDX 9 22 8 23 7 24 6 25 5 26 4 27 3 28 2 29 1 30
REMARK H PARENT
REMARK Flexibility Score: inf
ROOT
ATOM      1  C   UNL     1     139.814 130.682 114.413  1.00  0.00     0.000 C 
ENDROOT
BRANCH   1   2
ATOM      2  C   UNL     1     138.536 129.895 114.063  1.00  0.00     0.000 C 
BRANCH   2   3
ATOM      3  C   UNL     1     138.779 128.535 113.378  1.00  0.00     0.000 C 
BRANCH   3   4
ATOM      4  C   UNL     1     138.561 127.302 114.280  1.00  0.00     0.000 C 
BRANCH   4   5
ATOM      5  C   UNL     1     137.378 127.418 115.259  1.00  0.00     0.000 C 
BRANCH   5   6
ATOM      6  C   UNL     1     137.815 127.328 116.730  1.00  0.00     0.000 C 
BRANCH   6   7
ATOM      7  C   UNL     1     139.340 127.396 116.901  1.00  0.00     0.000 C 
BRANCH   7   8
ATOM      8  C   UNL     1     139.758 128.162 118.170  1.00  0.00     0.000 C 
BRANCH   8   9
ATOM      9  C   UNL     1     139.859 129.676 117.933  1.00  0.00     0.000 C 
BRANCH   9  10
ATOM     10  C   UNL     1     141.308 130.190 117.997  1.00  0.00     0.000 C 
BRANCH  10  11
ATOM     11  C   UNL     1     141.642 130.873 119.334  1.00  0.00     0.000 C 
BRANCH  11  12
ATOM     12  C   UNL     1     142.881 130.315 120.063  1.00  0.00     0.006 C 
BRANCH  12  13
ATOM     13  C   UNL     1     143.572 129.152 119.326  1.00  0.00     0.053 C 
BRANCH  13  14
ATOM     14  C   UNL     1     144.890 128.786 119.939  1.00  0.00     0.041 C 
ATOM     15  O   UNL     1     145.953 128.907 119.275  1.00  0.00    -0.550 OA
ATOM     16  O   UNL     1     144.942 128.271 121.229  1.00  0.00    -0.550 OA
ENDBRANCH  13  14
ENDBRANCH  12  13
ENDBRANCH  11  12
ENDBRANCH  10  11
ENDBRANCH   9  10
ENDBRANCH   8   9
ENDBRANCH   7   8
ENDBRANCH   6   7
ENDBRANCH   5   6
ENDBRANCH   4   5
ENDBRANCH   3   4
ENDBRANCH   2   3
ENDBRANCH   1   2
BRANCH   1  17
ATOM     17  C   UNL     1     141.094 130.189 113.708  1.00  0.00     0.000 C 
BRANCH  17  18
ATOM     18  C   UNL     1     142.228 129.737 114.651  1.00  0.00     0.000 C 
BRANCH  18  19
ATOM     19  C   UNL     1     142.151 128.266 115.098  1.00  0.00     0.000 C 
BRANCH  19  20
ATOM     20  C   UNL     1     143.472 127.511 114.890  1.00  0.00     0.000 C 
BRANCH  20  21
ATOM     21  C   UNL     1     144.324 127.536 116.168  1.00  0.00     0.000 C 
BRANCH  21  22
ATOM     22  C   UNL     1     145.751 128.058 115.927  1.00  0.00    -0.000 C 
BRANCH  22  23
ATOM     23  C   UNL     1     145.834 129.429 115.233  1.00  0.00    -0.000 C 
BRANCH  23  24
ATOM     24  C   UNL     1     146.341 130.542 116.164  1.00  0.00    -0.000 C 
BRANCH  24  25
ATOM     25  C   UNL     1     145.634 131.872 115.866  1.00  0.00    -0.000 C 
BRANCH  25  26
ATOM     26  C   UNL     1     144.286 132.009 116.597  1.00  0.00    -0.000 C 
BRANCH  26  27
ATOM     27  C   UNL     1     143.288 132.992 115.950  1.00  0.00    -0.000 C 
BRANCH  27  28
ATOM     28  C   UNL     1     142.356 133.718 116.937  1.00  0.00    -0.000 C 
BRANCH  28  29
ATOM     29  C   UNL     1     140.869 133.472 116.643  1.00  0.00    -0.003 C 
ATOM     30  C   UNL     1     140.026 134.685 117.023  1.00  0.00     0.004 C 
ENDBRANCH  28  29
ENDBRANCH  27  28
ENDBRANCH  26  27
ENDBRANCH  25  26
ENDBRANCH  24  25
ENDBRANCH  23  24
ENDBRANCH  22  23
ENDBRANCH  21  22
ENDBRANCH  20  21
ENDBRANCH  19  20
ENDBRANCH  18  19
ENDBRANCH  17  18
ENDBRANCH   1  17
TORSDOF 26
ENDMDL
MODEL 6
REMARK VINA RESULT:    -3.538      3.114      6.648
REMARK INTER + INTRA:         -13.940
REMARK INTER:                  -8.894
REMARK INTRA:                  -5.046
REMARK UNBOUND:                -5.025
REMARK SMILES CCCCCCCCCCCCCCCCCCCCCCCCCCCC(=O)[O-]
REMARK SMILES IDX 15 1 16 2 17 3 18 4 19 5 20 6 21 7 22 8 23 9 24 10 25 11
REMARK SMILES IDX 26 12 27 13 28 14 29 15 30 16 14 17 13 18 12 19 11 20 10 21
REMARK SMILES IDX 9 22 8 23 7 24 6 25 5 26 4 27 3 28 2 29 1 30
REMARK H PARENT
REMARK Flexibility Score: inf
ROOT
ATOM      1  C   UNL     1     141.399 129.348 116.491  1.00  0.00     0.000 C 
ENDROOT
BRANCH   1   2
ATOM      2  C   UNL     1     141.197 130.483 115.469  1.00  0.00     0.000 C 
BRANCH   2   3
ATOM      3  C   UNL     1     141.144 130.028 113.996  1.00  0.00     0.000 C 
BRANCH   3   4
ATOM      4  C   UNL     1     139.861 130.424 113.237  1.00  0.00     0.000 C 
BRANCH   4   5
ATOM      5  C   UNL     1     138.625 129.567 113.565  1.00  0.00     0.000 C 
BRANCH   5   6
ATOM      6  C   UNL     1     138.899 128.059 113.444  1.00  0.00     0.000 C 
BRANCH   6   7
ATOM      7  C   UNL     1     138.113 127.228 114.471  1.00  0.00     0.000 C 
BRANCH   7   8
ATOM      8  C   UNL     1     137.984 127.940 115.829  1.00  0.00     0.000 C 
BRANCH   8   9
ATOM      9  C   UNL     1     138.506 127.083 116.993  1.00  0.00     0.000 C 
BRANCH   9  10
ATOM     10  C   UNL     1     138.650 127.884 118.299  1.00  0.00     0.000 C 
BRANCH  10  11
ATOM     11  C   UNL     1     139.820 127.400 119.172  1.00  0.00     0.000 C 
BRANCH  11  12
ATOM     12  C   UNL     1     139.607 127.546 120.692  1.00  0.00     0.006 C 
BRANCH  12  13
ATOM     13  C   UNL     1     138.376 128.389 121.075  1.00  0.00     0.053 C 
BRANCH  13  14
ATOM     14  C   UNL     1     138.746 129.761 121.554  1.00  0.00     0.041 C 
ATOM     15  O   UNL     1     138.125 130.770 121.125  1.00  0.00    -0.550 OA
ATOM     16  O   UNL     1     139.804 129.931 122.439  1.00  0.00    -0.550 OA
ENDBRANCH  13  14
ENDBRANCH  12  13
ENDBRANCH  11  12
ENDBRANCH  10  11
ENDBRANCH   9  10
ENDBRANCH   8   9
ENDBRANCH   7   8
ENDBRANCH   6   7
ENDBRANCH   5   6
ENDBRANCH   4   5
ENDBRANCH   3   4
ENDBRANCH   2   3
ENDBRANCH   1   2
BRANCH   1  17
ATOM     17  C   UNL     1     141.969 128.040 115.906  1.00  0.00     0.000 C 
BRANCH  17  18
ATOM     18  C   UNL     1     142.925 127.267 116.837  1.00  0.00     0.000 C 
BRANCH  18  19
ATOM     19  C   UNL     1     144.379 127.171 116.340  1.00  0.00     0.000 C 
BRANCH  19  20
ATOM     20  C   UNL     1     144.493 127.262 114.811  1.00  0.00     0.000 C 
BRANCH  20  21
ATOM     21  C   UNL     1     145.490 128.356 114.402  1.00  0.00     0.000 C 
BRANCH  21  22
ATOM     22  C   UNL     1     144.902 129.774 114.506  1.00  0.00    -0.000 C 
BRANCH  22  23
ATOM     23  C   UNL     1     145.529 130.659 115.598  1.00  0.00    -0.000 C 
BRANCH  23  24
ATOM     24  C   UNL     1     144.567 130.945 116.762  1.00  0.00    -0.000 C 
BRANCH  24  25
ATOM     25  C   UNL     1     145.222 130.613 118.111  1.00  0.00    -0.000 C 
BRANCH  25  26
ATOM     26  C   UNL     1     144.263 129.901 119.081  1.00  0.00    -0.000 C 
BRANCH  26  27
ATOM     27  C   UNL     1     144.792 128.577 119.672  1.00  0.00    -0.000 C 
BRANCH  27  28
ATOM     28  C   UNL     1     144.531 128.384 121.177  1.00  0.00    -0.000 C 
BRANCH  28  29
ATOM     29  C   UNL     1     143.073 128.665 121.570  1.00  0.00    -0.003 C 
ATOM     30  C   UNL     1     142.718 127.983 122.888  1.00  0.00     0.004 C 
ENDBRANCH  28  29
ENDBRANCH  27  28
ENDBRANCH  26  27
ENDBRANCH  25  26
ENDBRANCH  24  25
ENDBRANCH  23  24
ENDBRANCH  22  23
ENDBRANCH  21  22
ENDBRANCH  20  21
ENDBRANCH  19  20
ENDBRANCH  18  19
ENDBRANCH  17  18
ENDBRANCH   1  17
TORSDOF 26
ENDMDL
MODEL 7
REMARK VINA RESULT:    -3.528      2.463      6.972
REMARK INTER + INTRA:         -13.914
REMARK INTER:                  -8.531
REMARK INTRA:                  -5.382
REMARK UNBOUND:                -5.025
REMARK SMILES CCCCCCCCCCCCCCCCCCCCCCCCCCCC(=O)[O-]
REMARK SMILES IDX 15 1 16 2 17 3 18 4 19 5 20 6 21 7 22 8 23 9 24 10 25 11
REMARK SMILES IDX 26 12 27 13 28 14 29 15 30 16 14 17 13 18 12 19 11 20 10 21
REMARK SMILES IDX 9 22 8 23 7 24 6 25 5 26 4 27 3 28 2 29 1 30
REMARK H PARENT
REMARK Flexibility Score: inf
ROOT
ATOM      1  C   UNL     1     145.274 129.975 118.509  1.00  0.00     0.000 C 
ENDROOT
BRANCH   1   2
ATOM      2  C   UNL     1     143.991 129.488 119.210  1.00  0.00     0.000 C 
BRANCH   2   3
ATOM      3  C   UNL     1     143.989 127.995 119.594  1.00  0.00     0.000 C 
BRANCH   3   4
ATOM      4  C   UNL     1     142.846 127.164 118.977  1.00  0.00     0.000 C 
BRANCH   4   5
ATOM      5  C   UNL     1     141.430 127.598 119.398  1.00  0.00     0.000 C 
BRANCH   5   6
ATOM      6  C   UNL     1     140.377 127.323 118.312  1.00  0.00     0.000 C 
BRANCH   6   7
ATOM      7  C   UNL     1     139.125 128.201 118.463  1.00  0.00     0.000 C 
BRANCH   7   8
ATOM      8  C   UNL     1     138.102 127.968 117.337  1.00  0.00     0.000 C 
BRANCH   8   9
ATOM      9  C   UNL     1     138.738 127.337 116.089  1.00  0.00     0.000 C 
BRANCH   9  10
ATOM     10  C   UNL     1     137.788 127.333 114.878  1.00  0.00     0.000 C 
BRANCH  10  11
ATOM     11  C   UNL     1     138.483 127.747 113.571  1.00  0.00     0.000 C 
BRANCH  11  12
ATOM     12  C   UNL     1     139.399 128.983 113.680  1.00  0.00     0.006 C 
BRANCH  12  13
ATOM     13  C   UNL     1     138.906 130.202 112.878  1.00  0.00     0.053 C 
BRANCH  13  14
ATOM     14  C   UNL     1     138.173 131.193 113.731  1.00  0.00     0.041 C 
ATOM     15  O   UNL     1     137.913 132.342 113.287  1.00  0.00    -0.550 OA
ATOM     16  O   UNL     1     137.814 130.864 115.033  1.00  0.00    -0.550 OA
ENDBRANCH  13  14
ENDBRANCH  12  13
ENDBRANCH  11  12
ENDBRANCH  10  11
ENDBRANCH   9  10
ENDBRANCH   8   9
ENDBRANCH   7   8
ENDBRANCH   6   7
ENDBRANCH   5   6
ENDBRANCH   4   5
ENDBRANCH   3   4
ENDBRANCH   2   3
ENDBRANCH   1   2
BRANCH   1  17
ATOM     17  C   UNL     1     145.170 131.368 117.856  1.00  0.00     0.000 C 
BRANCH  17  18
ATOM     18  C   UNL     1     145.344 131.389 116.324  1.00  0.00     0.000 C 
BRANCH  18  19
ATOM     19  C   UNL     1     146.433 130.446 115.781  1.00  0.00     0.000 C 
BRANCH  19  20
ATOM     20  C   UNL     1     145.873 129.361 114.851  1.00  0.00     0.000 C 
BRANCH  20  21
ATOM     21  C   UNL     1     145.937 127.980 115.520  1.00  0.00     0.000 C 
BRANCH  21  22
ATOM     22  C   UNL     1     144.559 127.475 115.984  1.00  0.00    -0.000 C 
BRANCH  22  23
ATOM     23  C   UNL     1     143.534 127.254 114.858  1.00  0.00    -0.000 C 
BRANCH  23  24
ATOM     24  C   UNL     1     142.218 128.014 115.088  1.00  0.00    -0.000 C 
BRANCH  24  25
ATOM     25  C   UNL     1     142.440 129.239 115.987  1.00  0.00    -0.000 C 
BRANCH  25  26
ATOM     26  C   UNL     1     142.277 130.571 115.233  1.00  0.00    -0.000 C 
BRANCH  26  27
ATOM     27  C   UNL     1     141.187 131.510 115.791  1.00  0.00    -0.000 C 
BRANCH  27  28
ATOM     28  C   UNL     1     140.612 131.100 117.159  1.00  0.00    -0.000 C 
BRANCH  28  29
ATOM     29  C   UNL     1     141.387 131.706 118.337  1.00  0.00    -0.003 C 
ATOM     30  C   UNL     1     140.455 132.027 119.502  1.00  0.00     0.004 C 
ENDBRANCH  28  29
ENDBRANCH  27  28
ENDBRANCH  26  27
ENDBRANCH  25  26
ENDBRANCH  24  25
ENDBRANCH  23  24
ENDBRANCH  22  23
ENDBRANCH  21  22
ENDBRANCH  20  21
ENDBRANCH  19  20
ENDBRANCH  18  19
ENDBRANCH  17  18
ENDBRANCH   1  17
TORSDOF 26
ENDMDL
MODEL 8
REMARK VINA RESULT:    -3.524     10.690     14.002
REMARK INTER + INTRA:         -13.906
REMARK INTER:                  -8.457
REMARK INTRA:                  -5.449
REMARK UNBOUND:                -5.025
REMARK SMILES CCCCCCCCCCCCCCCCCCCCCCCCCCCC(=O)[O-]
REMARK SMILES IDX 15 1 16 2 17 3 18 4 19 5 20 6 21 7 22 8 23 9 24 10 25 11
REMARK SMILES IDX 26 12 27 13 28 14 29 15 30 16 14 17 13 18 12 19 11 20 10 21
REMARK SMILES IDX 9 22 8 23 7 24 6 25 5 26 4 27 3 28 2 29 1 30
REMARK H PARENT
REMARK Flexibility Score: inf
ROOT
ATOM      1  C   UNL     1     132.986 129.536 115.200  1.00  0.00     0.000 C 
ENDROOT
BRANCH   1   2
ATOM      2  C   UNL     1     133.271 130.418 116.432  1.00  0.00     0.000 C 
BRANCH   2   3
ATOM      3  C   UNL     1     132.057 130.659 117.351  1.00  0.00     0.000 C 
BRANCH   3   4
ATOM      4  C   UNL     1     132.264 130.255 118.825  1.00  0.00     0.000 C 
BRANCH   4   5
ATOM      5  C   UNL     1     132.427 128.743 119.065  1.00  0.00     0.000 C 
BRANCH   5   6
ATOM      6  C   UNL     1     131.232 128.129 119.814  1.00  0.00     0.000 C 
BRANCH   6   7
ATOM      7  C   UNL     1     130.277 129.192 120.380  1.00  0.00     0.000 C 
BRANCH   7   8
ATOM      8  C   UNL     1     128.871 129.112 119.761  1.00  0.00     0.000 C 
BRANCH   8   9
ATOM      9  C   UNL     1     128.145 130.466 119.778  1.00  0.00     0.000 C 
BRANCH   9  10
ATOM     10  C   UNL     1     128.724 131.460 118.756  1.00  0.00     0.000 C 
BRANCH  10  11
ATOM     11  C   UNL     1     129.517 132.601 119.415  1.00  0.00     0.000 C 
BRANCH  11  12
ATOM     12  C   UNL     1     128.937 133.117 120.747  1.00  0.00     0.006 C 
BRANCH  12  13
ATOM     13  C   UNL     1     129.725 132.665 121.991  1.00  0.00     0.053 C 
BRANCH  13  14
ATOM     14  C   UNL     1     128.836 132.401 123.169  1.00  0.00     0.041 C 
ATOM     15  O   UNL     1     128.052 133.295 123.584  1.00  0.00    -0.550 OA
ATOM     16  O   UNL     1     128.903 131.184 123.837  1.00  0.00    -0.550 OA
ENDBRANCH  13  14
ENDBRANCH  12  13
ENDBRANCH  11  12
ENDBRANCH  10  11
ENDBRANCH   9  10
ENDBRANCH   8   9
ENDBRANCH   7   8
ENDBRANCH   6   7
ENDBRANCH   5   6
ENDBRANCH   4   5
ENDBRANCH   3   4
ENDBRANCH   2   3
ENDBRANCH   1   2
BRANCH   1  17
ATOM     17  C   UNL     1     132.946 128.020 115.481  1.00  0.00     0.000 C 
BRANCH  17  18
ATOM     18  C   UNL     1     132.171 127.182 114.444  1.00  0.00     0.000 C 
BRANCH  18  19
ATOM     19  C   UNL     1     130.675 126.992 114.750  1.00  0.00     0.000 C 
BRANCH  19  20
ATOM     20  C   UNL     1     130.336 127.217 116.230  1.00  0.00     0.000 C 
BRANCH  20  21
ATOM     21  C   UNL     1     129.489 128.486 116.410  1.00  0.00     0.000 C 
BRANCH  21  22
ATOM     22  C   UNL     1     129.312 129.280 115.104  1.00  0.00    -0.000 C 
BRANCH  22  23
ATOM     23  C   UNL     1     128.116 130.248 115.088  1.00  0.00    -0.000 C 
BRANCH  23  24
ATOM     24  C   UNL     1     128.426 131.573 114.375  1.00  0.00    -0.000 C 
BRANCH  24  25
ATOM     25  C   UNL     1     129.924 131.688 114.055  1.00  0.00    -0.000 C 
BRANCH  25  26
ATOM     26  C   UNL     1     130.534 133.022 114.522  1.00  0.00    -0.000 C 
BRANCH  26  27
ATOM     27  C   UNL     1     129.961 133.578 115.842  1.00  0.00    -0.000 C 
BRANCH  27  28
ATOM     28  C   UNL     1     129.770 135.105 115.878  1.00  0.00    -0.000 C 
BRANCH  28  29
ATOM     29  C   UNL     1     128.346 135.519 116.274  1.00  0.00    -0.003 C 
ATOM     30  C   UNL     1     127.501 134.301 116.638  1.00  0.00     0.004 C 
ENDBRANCH  28  29
ENDBRANCH  27  28
ENDBRANCH  26  27
ENDBRANCH  25  26
ENDBRANCH  24  25
ENDBRANCH  23  24
ENDBRANCH  22  23
ENDBRANCH  21  22
ENDBRANCH  20  21
ENDBRANCH  19  20
ENDBRANCH  18  19
ENDBRANCH  17  18
ENDBRANCH   1  17
TORSDOF 26
ENDMDL
MODEL 9
REMARK VINA RESULT:    -3.493      2.697      6.640
REMARK INTER + INTRA:         -13.826
REMARK INTER:                  -8.913
REMARK INTRA:                  -4.913
REMARK UNBOUND:                -5.025
REMARK SMILES CCCCCCCCCCCCCCCCCCCCCCCCCCCC(=O)[O-]
REMARK SMILES IDX 15 1 16 2 17 3 18 4 19 5 20 6 21 7 22 8 23 9 24 10 25 11
REMARK SMILES IDX 26 12 27 13 28 14 29 15 30 16 14 17 13 18 12 19 11 20 10 21
REMARK SMILES IDX 9 22 8 23 7 24 6 25 5 26 4 27 3 28 2 29 1 30
REMARK H PARENT
REMARK Flexibility Score: inf
ROOT
ATOM      1  C   UNL     1     140.480 130.086 116.266  1.00  0.00     0.000 C 
ENDROOT
BRANCH   1   2
ATOM      2  C   UNL     1     140.399 130.870 114.941  1.00  0.00     0.000 C 
BRANCH   2   3
ATOM      3  C   UNL     1     140.319 129.994 113.674  1.00  0.00     0.000 C 
BRANCH   3   4
ATOM      4  C   UNL     1     138.914 129.452 113.343  1.00  0.00     0.000 C 
BRANCH   4   5
ATOM      5  C   UNL     1     138.815 127.918 113.262  1.00  0.00     0.000 C 
BRANCH   5   6
ATOM      6  C   UNL     1     138.499 127.272 114.621  1.00  0.00     0.000 C 
BRANCH   6   7
ATOM      7  C   UNL     1     137.303 127.929 115.328  1.00  0.00     0.000 C 
BRANCH   7   8
ATOM      8  C   UNL     1     137.118 127.423 116.769  1.00  0.00     0.000 C 
BRANCH   8   9
ATOM      9  C   UNL     1     138.448 127.337 117.534  1.00  0.00     0.000 C 
BRANCH   9  10
ATOM     10  C   UNL     1     138.464 128.221 118.794  1.00  0.00     0.000 C 
BRANCH  10  11
ATOM     11  C   UNL     1     139.834 128.244 119.491  1.00  0.00     0.000 C 
BRANCH  11  12
ATOM     12  C   UNL     1     140.325 126.879 120.015  1.00  0.00     0.006 C 
BRANCH  12  13
ATOM     13  C   UNL     1     141.499 126.973 121.008  1.00  0.00     0.053 C 
BRANCH  13  14
ATOM     14  C   UNL     1     142.583 127.891 120.531  1.00  0.00     0.041 C 
ATOM     15  O   UNL     1     142.784 128.991 121.112  1.00  0.00    -0.550 OA
ATOM     16  O   UNL     1     143.345 127.555 119.418  1.00  0.00    -0.550 OA
ENDBRANCH  13  14
ENDBRANCH  12  13
ENDBRANCH  11  12
ENDBRANCH  10  11
ENDBRANCH   9  10
ENDBRANCH   8   9
ENDBRANCH   7   8
ENDBRANCH   6   7
ENDBRANCH   5   6
ENDBRANCH   4   5
ENDBRANCH   3   4
ENDBRANCH   2   3
ENDBRANCH   1   2
BRANCH   1  17
ATOM     17  C   UNL     1     141.809 129.340 116.499  1.00  0.00     0.000 C 
BRANCH  17  18
ATOM     18  C   UNL     1     141.734 127.806 116.350  1.00  0.00     0.000 C 
BRANCH  18  19
ATOM     19  C   UNL     1     142.462 127.237 115.119  1.00  0.00     0.000 C 
BRANCH  19  20
ATOM     20  C   UNL     1     143.719 128.035 114.748  1.00  0.00     0.000 C 
BRANCH  20  21
ATOM     21  C   UNL     1     144.978 127.166 114.884  1.00  0.00     0.000 C 
BRANCH  21  22
ATOM     22  C   UNL     1     145.833 127.535 116.109  1.00  0.00    -0.000 C 
BRANCH  22  23
ATOM     23  C   UNL     1     145.485 128.884 116.763  1.00  0.00    -0.000 C 
BRANCH  23  24
ATOM     24  C   UNL     1     146.343 130.045 116.236  1.00  0.00    -0.000 C 
BRANCH  24  25
ATOM     25  C   UNL     1     145.470 131.114 115.564  1.00  0.00    -0.000 C 
BRANCH  25  26
ATOM     26  C   UNL     1     145.827 132.543 116.010  1.00  0.00    -0.000 C 
BRANCH  26  27
ATOM     27  C   UNL     1     145.047 133.060 117.238  1.00  0.00    -0.000 C 
BRANCH  27  28
ATOM     28  C   UNL     1     143.680 132.391 117.471  1.00  0.00    -0.000 C 
BRANCH  28  29
ATOM     29  C   UNL     1     142.502 133.290 117.070  1.00  0.00    -0.003 C 
ATOM     30  C   UNL     1     141.380 133.218 118.103  1.00  0.00     0.004 C 
ENDBRANCH  28  29
ENDBRANCH  27  28
ENDBRANCH  26  27
ENDBRANCH  25  26
ENDBRANCH  24  25
ENDBRANCH  23  24
ENDBRANCH  22  23
ENDBRANCH  21  22
ENDBRANCH  20  21
ENDBRANCH  19  20
ENDBRANCH  18  19
ENDBRANCH  17  18
ENDBRANCH   1  17
TORSDOF 26
ENDMDL
