MODEL 1
REMARK VINA RESULT:    -3.504      0.000      0.000
REMARK INTER + INTRA:          -4.428
REMARK INTER:                  -4.221
REMARK INTRA:                  -0.207
REMARK UNBOUND:                -0.207
REMARK SMILES OCC(O)CO
REMARK SMILES IDX 3 1 5 2 6 3 2 5 1 6 4 8
REMARK H PARENT 6 4 1 7 4 9
REMARK Flexibility Score: inf
ROOT
ATOM      1  C   UNL     1     148.760 155.399 127.429  1.00  0.00     0.165 C 
ENDROOT
BRANCH   1   2
ATOM      2  C   UNL     1     149.718 156.102 128.407  1.00  0.00     0.190 C 
BRANCH   2   3
ATOM      3  O   UNL     1     150.964 155.459 128.451  1.00  0.00    -0.394 OA
ATOM      4  H   UNL     1     150.903 154.669 127.854  1.00  0.00     0.210 HD
ENDBRANCH   2   3
ENDBRANCH   1   2
BRANCH   1   5
ATOM      5  C   UNL     1     149.085 153.902 127.269  1.00  0.00     0.190 C 
BRANCH   5   6
ATOM      6  O   UNL     1     150.179 153.730 126.409  1.00  0.00    -0.394 OA
ATOM      7  H   UNL     1     150.490 152.794 126.530  1.00  0.00     0.210 HD
ENDBRANCH   5   6
ENDBRANCH   1   5
BRANCH   1   8
ATOM      8  O   UNL     1     148.748 156.052 126.184  1.00  0.00    -0.388 OA
ATOM      9  H   UNL     1     148.206 156.878 126.281  1.00  0.00     0.211 HD
ENDBRANCH   1   8
TORSDOF 5
ENDMDL
MODEL 2
REMARK VINA RESULT:    -3.255      0.774      2.716
REMARK INTER + INTRA:          -4.128
REMARK INTER:                  -3.917
REMARK INTRA:                  -0.211
REMARK UNBOUND:                -0.207
REMARK SMILES OCC(O)CO
REMARK SMILES IDX 3 1 5 2 6 3 2 5 1 6 4 8
REMARK H PARENT 6 4 1 7 4 9
REMARK Flexibility Score: inf
ROOT
ATOM      1  C   UNL     1     149.314 154.525 128.083  1.00  0.00     0.165 C 
ENDROOT
BRANCH   1   2
ATOM      2  C   UNL     1     149.233 153.443 126.991  1.00  0.00     0.190 C 
BRANCH   2   3
ATOM      3  O   UNL     1     150.418 153.386 126.241  1.00  0.00    -0.394 OA
ATOM      4  H   UNL     1     151.170 153.480 126.880  1.00  0.00     0.210 HD
ENDBRANCH   2   3
ENDBRANCH   1   2
BRANCH   1   5
ATOM      5  C   UNL     1     149.148 155.945 127.510  1.00  0.00     0.190 C 
BRANCH   5   6
ATOM      6  O   UNL     1     148.662 155.888 126.196  1.00  0.00    -0.394 OA
ATOM      7  H   UNL     1     148.949 156.728 125.750  1.00  0.00     0.210 HD
ENDBRANCH   5   6
ENDBRANCH   1   5
BRANCH   1   8
ATOM      8  O   UNL     1     150.511 154.410 128.813  1.00  0.00    -0.388 OA
ATOM      9  H   UNL     1     151.109 155.151 128.532  1.00  0.00     0.211 HD
ENDBRANCH   1   8
TORSDOF 5
ENDMDL
MODEL 3
REMARK VINA RESULT:    -3.247      1.226      2.495
REMARK INTER + INTRA:          -4.118
REMARK INTER:                  -3.898
REMARK INTRA:                  -0.220
REMARK UNBOUND:                -0.207
REMARK SMILES OCC(O)CO
REMARK SMILES IDX 3 1 5 2 6 3 2 5 1 6 4 8
REMARK H PARENT 6 4 1 7 4 9
REMARK Flexibility Score: inf
ROOT
ATOM      1  C   UNL     1     149.142 155.648 128.568  1.00  0.00     0.165 C 
ENDROOT
BRANCH   1   2
ATOM      2  C   UNL     1     149.615 154.184 128.527  1.00  0.00     0.190 C 
BRANCH   2   3
ATOM      3  O   UNL     1     150.202 153.871 127.291  1.00  0.00    -0.394 OA
ATOM      4  H   UNL     1     150.567 152.952 127.368  1.00  0.00     0.210 HD
ENDBRANCH   2   3
ENDBRANCH   1   2
BRANCH   1   5
ATOM      5  C   UNL     1     149.555 156.429 127.307  1.00  0.00     0.190 C 
BRANCH   5   6
ATOM      6  O   UNL     1     148.728 156.088 126.228  1.00  0.00    -0.394 OA
ATOM      7  H   UNL     1     147.795 156.270 126.516  1.00  0.00     0.210 HD
ENDBRANCH   5   6
ENDBRANCH   1   5
BRANCH   1   8
ATOM      8  O   UNL     1     149.598 156.288 129.734  1.00  0.00    -0.388 OA
ATOM      9  H   UNL     1     150.189 155.652 130.217  1.00  0.00     0.211 HD
ENDBRANCH   1   8
TORSDOF 5
ENDMDL
MODEL 4
REMARK VINA RESULT:    -3.237      0.777      2.360
REMARK INTER + INTRA:          -4.106
REMARK INTER:                  -3.901
REMARK INTRA:                  -0.205
REMARK UNBOUND:                -0.207
REMARK SMILES OCC(O)CO
REMARK SMILES IDX 3 1 5 2 6 3 2 5 1 6 4 8
REMARK H PARENT 6 4 1 7 4 9
REMARK Flexibility Score: inf
ROOT
ATOM      1  C   UNL     1     148.961 155.059 126.999  1.00  0.00     0.165 C 
ENDROOT
BRANCH   1   2
ATOM      2  C   UNL     1     149.333 153.566 127.008  1.00  0.00     0.190 C 
BRANCH   2   3
ATOM      3  O   UNL     1     150.484 153.322 126.243  1.00  0.00    -0.394 OA
ATOM      4  H   UNL     1     151.174 153.969 126.544  1.00  0.00     0.210 HD
ENDBRANCH   2   3
ENDBRANCH   1   2
BRANCH   1   5
ATOM      5  C   UNL     1     149.520 155.807 128.224  1.00  0.00     0.190 C 
BRANCH   5   6
ATOM      6  O   UNL     1     150.855 155.446 128.450  1.00  0.00    -0.394 OA
ATOM      7  H   UNL     1     151.192 156.038 129.173  1.00  0.00     0.210 HD
ENDBRANCH   5   6
ENDBRANCH   1   5
BRANCH   1   8
ATOM      8  O   UNL     1     147.569 155.227 126.894  1.00  0.00    -0.388 OA
ATOM      9  H   UNL     1     147.137 154.428 127.297  1.00  0.00     0.211 HD
ENDBRANCH   1   8
TORSDOF 5
ENDMDL
MODEL 5
REMARK VINA RESULT:    -3.232      1.580      2.453
REMARK INTER + INTRA:          -4.100
REMARK INTER:                  -4.098
REMARK INTRA:                  -0.003
REMARK UNBOUND:                -0.207
REMARK SMILES OCC(O)CO
REMARK SMILES IDX 3 1 5 2 6 3 2 5 1 6 4 8
REMARK H PARENT 6 4 1 7 4 9
REMARK Flexibility Score: inf
ROOT
ATOM      1  C   UNL     1     149.361 155.691 128.477  1.00  0.00     0.165 C 
ENDROOT
BRANCH   1   2
ATOM      2  C   UNL     1     148.576 155.070 129.646  1.00  0.00     0.190 C 
BRANCH   2   3
ATOM      3  O   UNL     1     148.798 155.773 130.840  1.00  0.00    -0.394 OA
ATOM      4  H   UNL     1     149.353 155.190 131.420  1.00  0.00     0.210 HD
ENDBRANCH   2   3
ENDBRANCH   1   2
BRANCH   1   5
ATOM      5  C   UNL     1     148.871 155.181 127.109  1.00  0.00     0.190 C 
BRANCH   5   6
ATOM      6  O   UNL     1     148.825 156.233 126.183  1.00  0.00    -0.394 OA
ATOM      7  H   UNL     1     149.139 157.046 126.661  1.00  0.00     0.210 HD
ENDBRANCH   5   6
ENDBRANCH   1   5
BRANCH   1   8
ATOM      8  O   UNL     1     150.742 155.476 128.633  1.00  0.00    -0.388 OA
ATOM      9  H   UNL     1     150.931 155.417 129.606  1.00  0.00     0.211 HD
ENDBRANCH   1   8
TORSDOF 5
ENDMDL
MODEL 6
REMARK VINA RESULT:    -3.215      1.445      2.426
REMARK INTER + INTRA:          -4.080
REMARK INTER:                  -3.858
REMARK INTRA:                  -0.222
REMARK UNBOUND:                -0.207
REMARK SMILES OCC(O)CO
REMARK SMILES IDX 3 1 5 2 6 3 2 5 1 6 4 8
REMARK H PARENT 6 4 1 7 4 9
REMARK Flexibility Score: inf
ROOT
ATOM      1  C   UNL     1     149.636 155.207 127.588  1.00  0.00     0.165 C 
ENDROOT
BRANCH   1   2
ATOM      2  C   UNL     1     149.937 156.711 127.468  1.00  0.00     0.190 C 
BRANCH   2   3
ATOM      3  O   UNL     1     149.283 157.275 126.362  1.00  0.00    -0.394 OA
ATOM      4  H   UNL     1     148.361 156.908 126.353  1.00  0.00     0.210 HD
ENDBRANCH   2   3
ENDBRANCH   1   2
BRANCH   1   5
ATOM      5  C   UNL     1     148.144 154.929 127.852  1.00  0.00     0.190 C 
BRANCH   5   6
ATOM      6  O   UNL     1     147.397 155.123 126.682  1.00  0.00    -0.394 OA
ATOM      7  H   UNL     1     147.811 155.889 126.203  1.00  0.00     0.210 HD
ENDBRANCH   5   6
ENDBRANCH   1   5
BRANCH   1   8
ATOM      8  O   UNL     1     150.444 154.612 128.574  1.00  0.00    -0.388 OA
ATOM      9  H   UNL     1     151.148 154.087 128.110  1.00  0.00     0.211 HD
ENDBRANCH   1   8
TORSDOF 5
ENDMDL
MODEL 7
REMARK VINA RESULT:    -3.168      0.871      2.451
REMARK INTER + INTRA:          -4.023
REMARK INTER:                  -3.813
REMARK INTRA:                  -0.210
REMARK UNBOUND:                -0.207
REMARK SMILES OCC(O)CO
REMARK SMILES IDX 3 1 5 2 6 3 2 5 1 6 4 8
REMARK H PARENT 6 4 1 7 4 9
REMARK Flexibility Score: inf
ROOT
ATOM      1  C   UNL     1     149.185 153.867 127.374  1.00  0.00     0.165 C 
ENDROOT
BRANCH   1   2
ATOM      2  C   UNL     1     148.136 154.897 126.917  1.00  0.00     0.190 C 
BRANCH   2   3
ATOM      3  O   UNL     1     148.745 156.029 126.354  1.00  0.00    -0.394 OA
ATOM      4  H   UNL     1     149.296 155.712 125.592  1.00  0.00     0.210 HD
ENDBRANCH   2   3
ENDBRANCH   1   2
BRANCH   1   5
ATOM      5  C   UNL     1     149.838 154.255 128.713  1.00  0.00     0.190 C 
BRANCH   5   6
ATOM      6  O   UNL     1     150.780 155.275 128.520  1.00  0.00    -0.394 OA
ATOM      7  H   UNL     1     151.128 155.170 127.595  1.00  0.00     0.210 HD
ENDBRANCH   5   6
ENDBRANCH   1   5
BRANCH   1   8
ATOM      8  O   UNL     1     150.155 153.665 126.376  1.00  0.00    -0.388 OA
ATOM      9  H   UNL     1     150.210 152.689 126.202  1.00  0.00     0.211 HD
ENDBRANCH   1   8
TORSDOF 5
ENDMDL
MODEL 8
REMARK VINA RESULT:    -3.154      1.732      2.867
REMARK INTER + INTRA:          -4.006
REMARK INTER:                  -3.798
REMARK INTRA:                  -0.208
REMARK UNBOUND:                -0.207
REMARK SMILES OCC(O)CO
REMARK SMILES IDX 3 1 5 2 6 3 2 5 1 6 4 8
REMARK H PARENT 6 4 1 7 4 9
REMARK Flexibility Score: inf
ROOT
ATOM      1  C   UNL     1     148.583 154.917 127.246  1.00  0.00     0.165 C 
ENDROOT
BRANCH   1   2
ATOM      2  C   UNL     1     149.262 153.664 126.665  1.00  0.00     0.190 C 
BRANCH   2   3
ATOM      3  O   UNL     1     148.725 153.326 125.414  1.00  0.00    -0.394 OA
ATOM      4  H   UNL     1     148.899 152.359 125.276  1.00  0.00     0.210 HD
ENDBRANCH   2   3
ENDBRANCH   1   2
BRANCH   1   5
ATOM      5  C   UNL     1     147.118 154.655 127.643  1.00  0.00     0.190 C 
BRANCH   5   6
ATOM      6  O   UNL     1     146.276 154.812 126.534  1.00  0.00    -0.394 OA
ATOM      7  H   UNL     1     146.499 155.692 126.130  1.00  0.00     0.210 HD
ENDBRANCH   5   6
ENDBRANCH   1   5
BRANCH   1   8
ATOM      8  O   UNL     1     148.680 155.998 126.353  1.00  0.00    -0.388 OA
ATOM      9  H   UNL     1     147.827 156.050 125.846  1.00  0.00     0.211 HD
ENDBRANCH   1   8
TORSDOF 5
ENDMDL
MODEL 9
REMARK VINA RESULT:    -3.094      1.594      3.137
REMARK INTER + INTRA:          -3.934
REMARK INTER:                  -3.716
REMARK INTRA:                  -0.217
REMARK UNBOUND:                -0.207
REMARK SMILES OCC(O)CO
REMARK SMILES IDX 3 1 5 2 6 3 2 5 1 6 4 8
REMARK H PARENT 6 4 1 7 4 9
REMARK Flexibility Score: inf
ROOT
ATOM      1  C   UNL     1     148.482 154.081 127.049  1.00  0.00     0.165 C 
ENDROOT
BRANCH   1   2
ATOM      2  C   UNL     1     146.970 153.887 127.264  1.00  0.00     0.190 C 
BRANCH   2   3
ATOM      3  O   UNL     1     146.227 154.839 126.549  1.00  0.00    -0.394 OA
ATOM      4  H   UNL     1     145.272 154.585 126.635  1.00  0.00     0.210 HD
ENDBRANCH   2   3
ENDBRANCH   1   2
BRANCH   1   5
ATOM      5  C   UNL     1     148.940 155.511 127.387  1.00  0.00     0.190 C 
BRANCH   5   6
ATOM      6  O   UNL     1     148.835 156.338 126.260  1.00  0.00    -0.394 OA
ATOM      7  H   UNL     1     147.918 156.720 126.272  1.00  0.00     0.210 HD
ENDBRANCH   5   6
ENDBRANCH   1   5
BRANCH   1   8
ATOM      8  O   UNL     1     148.850 153.727 125.738  1.00  0.00    -0.388 OA
ATOM      9  H   UNL     1     148.547 154.454 125.133  1.00  0.00     0.211 HD
ENDBRANCH   1   8
TORSDOF 5
ENDMDL
