MODEL 1
REMARK VINA RESULT:    -3.511      0.000      0.000
REMARK INTER + INTRA:          -5.481
REMARK INTER:                  -5.153
REMARK INTRA:                  -0.328
REMARK UNBOUND:                -0.328
REMARK SMILES O=C([O-])CCCCCCCC(=O)[O-]
REMARK SMILES IDX 7 1 6 2 5 3 4 4 2 5 1 6 3 7 8 8 9 9 10 10 11 11 12 12 13 13
REMARK H PARENT
REMARK Flexibility Score: inf
ROOT
ATOM      1  C   UNL     1     -44.641 -37.341  15.966  1.00  0.00     0.000 C 
ENDROOT
BRANCH   1   2
ATOM      2  C   UNL     1     -43.922 -38.101  14.839  1.00  0.00     0.000 C 
BRANCH   2   3
ATOM      3  C   UNL     1     -44.515 -37.808  13.452  1.00  0.00     0.006 C 
BRANCH   3   4
ATOM      4  C   UNL     1     -45.843 -37.055  13.572  1.00  0.00     0.053 C 
BRANCH   4   5
ATOM      5  C   UNL     1     -45.765 -35.737  12.867  1.00  0.00     0.041 C 
ATOM      6  O   UNL     1     -45.416 -34.703  13.495  1.00  0.00    -0.550 OA
ATOM      7  O   UNL     1     -46.125 -35.643  11.529  1.00  0.00    -0.550 OA
ENDBRANCH   4   5
ENDBRANCH   3   4
ENDBRANCH   2   3
ENDBRANCH   1   2
BRANCH   1   8
ATOM      8  C   UNL     1     -45.144 -38.274  17.080  1.00  0.00     0.000 C 
BRANCH   8   9
ATOM      9  C   UNL     1     -45.503 -37.518  18.372  1.00  0.00     0.006 C 
BRANCH   9  10
ATOM     10  C   UNL     1     -44.289 -37.039  19.185  1.00  0.00     0.053 C 
BRANCH  10  11
ATOM     11  C   UNL     1     -44.642 -36.776  20.617  1.00  0.00     0.041 C 
ATOM     12  O   UNL     1     -44.221 -35.739  21.194  1.00  0.00    -0.550 OA
ATOM     13  O   UNL     1     -45.409 -37.694  21.324  1.00  0.00    -0.550 OA
ENDBRANCH  10  11
ENDBRANCH   9  10
ENDBRANCH   8   9
ENDBRANCH   1   8
TORSDOF 8
ENDMDL
MODEL 2
REMARK VINA RESULT:    -3.506     11.219     13.055
REMARK INTER + INTRA:          -5.473
REMARK INTER:                  -4.854
REMARK INTRA:                  -0.619
REMARK UNBOUND:                -0.328
REMARK SMILES O=C([O-])CCCCCCCC(=O)[O-]
REMARK SMILES IDX 7 1 6 2 5 3 4 4 2 5 1 6 3 7 8 8 9 9 10 10 11 11 12 12 13 13
REMARK H PARENT
REMARK Flexibility Score: inf
ROOT
ATOM      1  C   UNL     1     -38.333 -32.721  28.206  1.00  0.00     0.000 C 
ENDROOT
BRANCH   1   2
ATOM      2  C   UNL     1     -39.731 -32.879  28.827  1.00  0.00     0.000 C 
BRANCH   2   3
ATOM      3  C   UNL     1     -40.814 -32.107  28.056  1.00  0.00     0.006 C 
BRANCH   3   4
ATOM      4  C   UNL     1     -41.410 -32.971  26.940  1.00  0.00     0.053 C 
BRANCH   4   5
ATOM      5  C   UNL     1     -42.800 -33.399  27.295  1.00  0.00     0.041 C 
ATOM      6  O   UNL     1     -42.994 -34.491  27.891  1.00  0.00    -0.550 OA
ATOM      7  O   UNL     1     -43.885 -32.615  26.923  1.00  0.00    -0.550 OA
ENDBRANCH   4   5
ENDBRANCH   3   4
ENDBRANCH   2   3
ENDBRANCH   1   2
BRANCH   1   8
ATOM      8  C   UNL     1     -37.799 -34.037  27.614  1.00  0.00     0.000 C 
BRANCH   8   9
ATOM      9  C   UNL     1     -37.945 -34.103  26.083  1.00  0.00     0.006 C 
BRANCH   9  10
ATOM     10  C   UNL     1     -37.699 -32.767  25.363  1.00  0.00     0.053 C 
BRANCH  10  11
ATOM     11  C   UNL     1     -38.387 -32.711  24.033  1.00  0.00     0.041 C 
ATOM     12  O   UNL     1     -39.627 -32.504  23.969  1.00  0.00    -0.550 OA
ATOM     13  O   UNL     1     -37.662 -32.919  22.867  1.00  0.00    -0.550 OA
ENDBRANCH  10  11
ENDBRANCH   9  10
ENDBRANCH   8   9
ENDBRANCH   1   8
TORSDOF 8
ENDMDL
MODEL 3
REMARK VINA RESULT:    -3.502     11.263     12.455
REMARK INTER + INTRA:          -5.467
REMARK INTER:                  -4.797
REMARK INTRA:                  -0.671
REMARK UNBOUND:                -0.328
REMARK SMILES O=C([O-])CCCCCCCC(=O)[O-]
REMARK SMILES IDX 7 1 6 2 5 3 4 4 2 5 1 6 3 7 8 8 9 9 10 10 11 11 12 12 13 13
REMARK H PARENT
REMARK Flexibility Score: inf
ROOT
ATOM      1  C   UNL     1     -38.106 -32.624  28.054  1.00  0.00     0.000 C 
ENDROOT
BRANCH   1   2
ATOM      2  C   UNL     1     -37.768 -34.035  27.548  1.00  0.00     0.000 C 
BRANCH   2   3
ATOM      3  C   UNL     1     -37.899 -34.167  26.022  1.00  0.00     0.006 C 
BRANCH   3   4
ATOM      4  C   UNL     1     -37.594 -32.834  25.331  1.00  0.00     0.053 C 
BRANCH   4   5
ATOM      5  C   UNL     1     -38.308 -32.750  24.017  1.00  0.00     0.041 C 
ATOM      6  O   UNL     1     -39.533 -32.463  23.980  1.00  0.00    -0.550 OA
ATOM      7  O   UNL     1     -37.631 -33.037  22.839  1.00  0.00    -0.550 OA
ENDBRANCH   4   5
ENDBRANCH   3   4
ENDBRANCH   2   3
ENDBRANCH   1   2
BRANCH   1   8
ATOM      8  C   UNL     1     -39.507 -32.543  28.683  1.00  0.00     0.000 C 
BRANCH   8   9
ATOM      9  C   UNL     1     -40.564 -31.987  27.711  1.00  0.00     0.006 C 
BRANCH   9  10
ATOM     10  C   UNL     1     -41.362 -33.063  26.956  1.00  0.00     0.053 C 
BRANCH  10  11
ATOM     11  C   UNL     1     -42.702 -33.308  27.579  1.00  0.00     0.041 C 
ATOM     12  O   UNL     1     -43.497 -32.351  27.769  1.00  0.00    -0.550 OA
ATOM     13  O   UNL     1     -43.059 -34.590  27.978  1.00  0.00    -0.550 OA
ENDBRANCH  10  11
ENDBRANCH   9  10
ENDBRANCH   8   9
ENDBRANCH   1   8
TORSDOF 8
ENDMDL
MODEL 4
REMARK VINA RESULT:    -3.435      3.021      5.436
REMARK INTER + INTRA:          -5.370
REMARK INTER:                  -4.905
REMARK INTRA:                  -0.465
REMARK UNBOUND:                -0.328
REMARK SMILES O=C([O-])CCCCCCCC(=O)[O-]
REMARK SMILES IDX 7 1 6 2 5 3 4 4 2 5 1 6 3 7 8 8 9 9 10 10 11 11 12 12 13 13
REMARK H PARENT
REMARK Flexibility Score: inf
ROOT
ATOM      1  C   UNL     1     -45.371 -37.348  18.204  1.00  0.00     0.000 C 
ENDROOT
BRANCH   1   2
ATOM      2  C   UNL     1     -44.773 -35.959  18.482  1.00  0.00     0.000 C 
BRANCH   2   3
ATOM      3  C   UNL     1     -45.607 -34.820  17.873  1.00  0.00     0.006 C 
BRANCH   3   4
ATOM      4  C   UNL     1     -45.024 -34.376  16.528  1.00  0.00     0.053 C 
BRANCH   4   5
ATOM      5  C   UNL     1     -44.724 -32.909  16.546  1.00  0.00     0.041 C 
ATOM      6  O   UNL     1     -45.658 -32.073  16.664  1.00  0.00    -0.550 OA
ATOM      7  O   UNL     1     -43.418 -32.465  16.381  1.00  0.00    -0.550 OA
ENDBRANCH   4   5
ENDBRANCH   3   4
ENDBRANCH   2   3
ENDBRANCH   1   2
BRANCH   1   8
ATOM      8  C   UNL     1     -44.528 -38.163  17.209  1.00  0.00     0.000 C 
BRANCH   8   9
ATOM      9  C   UNL     1     -45.045 -38.053  15.762  1.00  0.00     0.006 C 
BRANCH   9  10
ATOM     10  C   UNL     1     -43.946 -38.111  14.689  1.00  0.00     0.053 C 
BRANCH  10  11
ATOM     11  C   UNL     1     -44.500 -37.935  13.309  1.00  0.00     0.041 C 
ATOM     12  O   UNL     1     -44.261 -36.884  12.658  1.00  0.00    -0.550 OA
ATOM     13  O   UNL     1     -45.306 -38.920  12.753  1.00  0.00    -0.550 OA
ENDBRANCH  10  11
ENDBRANCH   9  10
ENDBRANCH   8   9
ENDBRANCH   1   8
TORSDOF 8
ENDMDL
MODEL 5
REMARK VINA RESULT:    -3.402      3.349      5.345
REMARK INTER + INTRA:          -5.321
REMARK INTER:                  -4.946
REMARK INTRA:                  -0.375
REMARK UNBOUND:                -0.328
REMARK SMILES O=C([O-])CCCCCCCC(=O)[O-]
REMARK SMILES IDX 7 1 6 2 5 3 4 4 2 5 1 6 3 7 8 8 9 9 10 10 11 11 12 12 13 13
REMARK H PARENT
REMARK Flexibility Score: inf
ROOT
ATOM      1  C   UNL     1     -45.388 -35.218  13.533  1.00  0.00     0.000 C 
ENDROOT
BRANCH   1   2
ATOM      2  C   UNL     1     -44.863 -36.338  12.618  1.00  0.00     0.000 C 
BRANCH   2   3
ATOM      3  C   UNL     1     -44.927 -37.724  13.280  1.00  0.00     0.006 C 
BRANCH   3   4
ATOM      4  C   UNL     1     -45.363 -37.611  14.744  1.00  0.00     0.053 C 
BRANCH   4   5
ATOM      5  C   UNL     1     -44.277 -38.094  15.653  1.00  0.00     0.041 C 
ATOM      6  O   UNL     1     -44.448 -38.095  16.900  1.00  0.00    -0.550 OA
ATOM      7  O   UNL     1     -43.056 -38.497  15.124  1.00  0.00    -0.550 OA
ENDBRANCH   4   5
ENDBRANCH   3   4
ENDBRANCH   2   3
ENDBRANCH   1   2
BRANCH   1   8
ATOM      8  C   UNL     1     -45.902 -34.003  12.742  1.00  0.00     0.000 C 
BRANCH   8   9
ATOM      9  C   UNL     1     -45.335 -32.670  13.264  1.00  0.00     0.006 C 
BRANCH   9  10
ATOM     10  C   UNL     1     -46.052 -32.117  14.506  1.00  0.00     0.053 C 
BRANCH  10  11
ATOM     11  C   UNL     1     -45.144 -32.051  15.695  1.00  0.00     0.041 C 
ATOM     12  O   UNL     1     -43.907 -31.875  15.539  1.00  0.00    -0.550 OA
ATOM     13  O   UNL     1     -45.661 -32.216  16.974  1.00  0.00    -0.550 OA
ENDBRANCH  10  11
ENDBRANCH   9  10
ENDBRANCH   8   9
ENDBRANCH   1   8
TORSDOF 8
ENDMDL
MODEL 6
REMARK VINA RESULT:    -3.345      1.507      6.461
REMARK INTER + INTRA:          -5.237
REMARK INTER:                  -4.650
REMARK INTRA:                  -0.586
REMARK UNBOUND:                -0.328
REMARK SMILES O=C([O-])CCCCCCCC(=O)[O-]
REMARK SMILES IDX 7 1 6 2 5 3 4 4 2 5 1 6 3 7 8 8 9 9 10 10 11 11 12 12 13 13
REMARK H PARENT
REMARK Flexibility Score: inf
ROOT
ATOM      1  C   UNL     1     -44.779 -37.928  16.615  1.00  0.00     0.000 C 
ENDROOT
BRANCH   1   2
ATOM      2  C   UNL     1     -45.907 -38.234  17.614  1.00  0.00     0.000 C 
BRANCH   2   3
ATOM      3  C   UNL     1     -46.125 -37.101  18.630  1.00  0.00     0.006 C 
BRANCH   3   4
ATOM      4  C   UNL     1     -45.538 -37.471  19.996  1.00  0.00     0.053 C 
BRANCH   4   5
ATOM      5  C   UNL     1     -44.281 -36.699  20.252  1.00  0.00     0.041 C 
ATOM      6  O   UNL     1     -43.222 -36.991  19.636  1.00  0.00    -0.550 OA
ATOM      7  O   UNL     1     -44.267 -35.691  21.207  1.00  0.00    -0.550 OA
ENDBRANCH   4   5
ENDBRANCH   3   4
ENDBRANCH   2   3
ENDBRANCH   1   2
BRANCH   1   8
ATOM      8  C   UNL     1     -44.704 -36.436  16.250  1.00  0.00     0.000 C 
BRANCH   8   9
ATOM      9  C   UNL     1     -45.727 -36.035  15.171  1.00  0.00     0.006 C 
BRANCH   9  10
ATOM     10  C   UNL     1     -45.949 -37.095  14.081  1.00  0.00     0.053 C 
BRANCH  10  11
ATOM     11  C   UNL     1     -44.875 -37.059  13.036  1.00  0.00     0.041 C 
ATOM     12  O   UNL     1     -44.672 -36.009  12.372  1.00  0.00    -0.550 OA
ATOM     13  O   UNL     1     -44.120 -38.195  12.776  1.00  0.00    -0.550 OA
ENDBRANCH  10  11
ENDBRANCH   9  10
ENDBRANCH   8   9
ENDBRANCH   1   8
TORSDOF 8
ENDMDL
MODEL 7
REMARK VINA RESULT:    -3.322      2.917      3.934
REMARK INTER + INTRA:          -5.204
REMARK INTER:                  -4.684
REMARK INTRA:                  -0.519
REMARK UNBOUND:                -0.328
REMARK SMILES O=C([O-])CCCCCCCC(=O)[O-]
REMARK SMILES IDX 7 1 6 2 5 3 4 4 2 5 1 6 3 7 8 8 9 9 10 10 11 11 12 12 13 13
REMARK H PARENT
REMARK Flexibility Score: inf
ROOT
ATOM      1  C   UNL     1     -44.813 -37.300  17.976  1.00  0.00     0.000 C 
ENDROOT
BRANCH   1   2
ATOM      2  C   UNL     1     -45.282 -38.470  17.095  1.00  0.00     0.000 C 
BRANCH   2   3
ATOM      3  C   UNL     1     -45.633 -38.033  15.664  1.00  0.00     0.006 C 
BRANCH   3   4
ATOM      4  C   UNL     1     -44.365 -37.763  14.849  1.00  0.00     0.053 C 
BRANCH   4   5
ATOM      5  C   UNL     1     -44.676 -37.750  13.385  1.00  0.00     0.041 C 
ATOM      6  O   UNL     1     -44.342 -36.766  12.674  1.00  0.00    -0.550 OA
ATOM      7  O   UNL     1     -45.379 -38.804  12.814  1.00  0.00    -0.550 OA
ENDBRANCH   4   5
ENDBRANCH   3   4
ENDBRANCH   2   3
ENDBRANCH   1   2
BRANCH   1   8
ATOM      8  C   UNL     1     -45.906 -36.237  18.176  1.00  0.00     0.000 C 
BRANCH   8   9
ATOM      9  C   UNL     1     -45.364 -34.799  18.069  1.00  0.00     0.006 C 
BRANCH   9  10
ATOM     10  C   UNL     1     -44.635 -34.491  16.751  1.00  0.00     0.053 C 
BRANCH  10  11
ATOM     11  C   UNL     1     -45.070 -33.184  16.162  1.00  0.00     0.041 C 
ATOM     12  O   UNL     1     -45.456 -32.248  16.911  1.00  0.00    -0.550 OA
ATOM     13  O   UNL     1     -45.079 -33.012  14.784  1.00  0.00    -0.550 OA
ENDBRANCH  10  11
ENDBRANCH   9  10
ENDBRANCH   8   9
ENDBRANCH   1   8
TORSDOF 8
ENDMDL
MODEL 8
REMARK VINA RESULT:    -3.293      1.919      2.441
REMARK INTER + INTRA:          -5.161
REMARK INTER:                  -4.592
REMARK INTRA:                  -0.569
REMARK UNBOUND:                -0.328
REMARK SMILES O=C([O-])CCCCCCCC(=O)[O-]
REMARK SMILES IDX 7 1 6 2 5 3 4 4 2 5 1 6 3 7 8 8 9 9 10 10 11 11 12 12 13 13
REMARK H PARENT
REMARK Flexibility Score: inf
ROOT
ATOM      1  C   UNL     1     -44.825 -35.306  16.933  1.00  0.00     0.000 C 
ENDROOT
BRANCH   1   2
ATOM      2  C   UNL     1     -45.365 -34.821  15.577  1.00  0.00     0.000 C 
BRANCH   2   3
ATOM      3  C   UNL     1     -45.982 -35.955  14.744  1.00  0.00     0.006 C 
BRANCH   3   4
ATOM      4  C   UNL     1     -45.030 -36.393  13.627  1.00  0.00     0.053 C 
BRANCH   4   5
ATOM      5  C   UNL     1     -44.640 -37.828  13.803  1.00  0.00     0.041 C 
ATOM      6  O   UNL     1     -45.049 -38.700  12.992  1.00  0.00    -0.550 OA
ATOM      7  O   UNL     1     -43.866 -38.209  14.892  1.00  0.00    -0.550 OA
ENDBRANCH   4   5
ENDBRANCH   3   4
ENDBRANCH   2   3
ENDBRANCH   1   2
BRANCH   1   8
ATOM      8  C   UNL     1     -45.709 -36.395  17.564  1.00  0.00     0.000 C 
BRANCH   8   9
ATOM      9  C   UNL     1     -44.890 -37.483  18.283  1.00  0.00     0.006 C 
BRANCH   9  10
ATOM     10  C   UNL     1     -43.925 -36.949  19.353  1.00  0.00     0.053 C 
BRANCH  10  11
ATOM     11  C   UNL     1     -44.608 -36.740  20.670  1.00  0.00     0.041 C 
ATOM     12  O   UNL     1     -44.486 -35.645  21.280  1.00  0.00    -0.550 OA
ATOM     13  O   UNL     1     -45.352 -37.766  21.237  1.00  0.00    -0.550 OA
ENDBRANCH  10  11
ENDBRANCH   9  10
ENDBRANCH   8   9
ENDBRANCH   1   8
TORSDOF 8
ENDMDL
