MODEL 1
REMARK VINA RESULT:    -4.422      0.000      0.000
REMARK INTER + INTRA:          -4.422
REMARK INTER:                  -4.422
REMARK INTRA:                   0.000
REMARK UNBOUND:                 0.000
REMARK SMILES C=C1CCC[C@@]2(C)C=C3OC(=O)C(C)=C3C[C@@H]12
REMARK SMILES IDX 14 1 13 2 15 3 16 4 17 5 2 6 1 7 3 8 4 9 5 10 6 11 8 12 9 13
REMARK SMILES IDX 10 14 11 15 12 16 7 17
REMARK H PARENT
REMARK Flexibility Score: inf
ROOT
ATOM      1  C   UNL     1      56.866  41.588 123.768  1.00  0.00     0.053 C 
ATOM      2  C   UNL     1      56.787  40.096 123.721  1.00  0.00     0.041 C 
ATOM      3  C   UNL     1      55.712  39.353 123.973  1.00  0.00     0.005 C 
ATOM      4  C   UNL     1      54.330  39.785 124.332  1.00  0.00     0.049 C 
ATOM      5  C   UNL     1      53.564  38.596 124.970  1.00  0.00     0.029 C 
ATOM      6  C   UNL     1      52.101  38.972 125.130  1.00  0.00    -0.073 C 
ATOM      7  C   UNL     1      51.649  39.471 126.292  1.00  0.00     0.008 C 
ATOM      8  C   UNL     1      51.199  38.927 123.917  1.00  0.00     0.031 C 
ATOM      9  C   UNL     1      51.367  37.611 123.154  1.00  0.00     0.005 C 
ATOM     10  C   UNL     1      52.844  37.286 122.877  1.00  0.00     0.012 C 
ATOM     11  C   UNL     1      53.709  37.245 124.167  1.00  0.00    -0.004 C 
ATOM     12  C   UNL     1      55.155  36.980 123.756  1.00  0.00     0.027 C 
ATOM     13  C   UNL     1      56.030  37.975 123.655  1.00  0.00     0.131 C 
ATOM     14  O   UNL     1      57.343  37.872 123.221  1.00  0.00    -0.423 OA
ATOM     15  C   UNL     1      57.824  39.175 123.249  1.00  0.00     0.339 C 
ATOM     16  O   UNL     1      58.988  39.501 122.899  1.00  0.00    -0.246 OA
ATOM     17  C   UNL     1      53.275  36.066 125.069  1.00  0.00     0.016 C 
ENDROOT
TORSDOF 0
ENDMDL
MODEL 2
REMARK VINA RESULT:    -4.330      2.797      6.120
REMARK INTER + INTRA:          -4.330
REMARK INTER:                  -4.330
REMARK INTRA:                   0.000
REMARK UNBOUND:                 0.000
REMARK SMILES C=C1CCC[C@@]2(C)C=C3OC(=O)C(C)=C3C[C@@H]12
REMARK SMILES IDX 14 1 13 2 15 3 16 4 17 5 2 6 1 7 3 8 4 9 5 10 6 11 8 12 9 13
REMARK SMILES IDX 10 14 11 15 12 16 7 17
REMARK H PARENT
REMARK Flexibility Score: inf
ROOT
ATOM      1  C   UNL     1      56.632  36.122 126.265  1.00  0.00     0.053 C 
ATOM      2  C   UNL     1      56.361  37.111 125.176  1.00  0.00     0.041 C 
ATOM      3  C   UNL     1      57.051  38.221 124.926  1.00  0.00     0.005 C 
ATOM      4  C   UNL     1      58.260  38.755 125.619  1.00  0.00     0.049 C 
ATOM      5  C   UNL     1      58.423  40.263 125.290  1.00  0.00     0.029 C 
ATOM      6  C   UNL     1      59.764  40.748 125.812  1.00  0.00    -0.073 C 
ATOM      7  C   UNL     1      59.855  41.329 127.019  1.00  0.00     0.008 C 
ATOM      8  C   UNL     1      61.013  40.421 125.026  1.00  0.00     0.031 C 
ATOM      9  C   UNL     1      60.831  40.747 123.541  1.00  0.00     0.005 C 
ATOM     10  C   UNL     1      59.532  40.151 122.973  1.00  0.00     0.012 C 
ATOM     11  C   UNL     1      58.267  40.597 123.755  1.00  0.00    -0.004 C 
ATOM     12  C   UNL     1      57.060  39.892 123.140  1.00  0.00     0.027 C 
ATOM     13  C   UNL     1      56.554  38.795 123.693  1.00  0.00     0.131 C 
ATOM     14  O   UNL     1      55.514  38.027 123.190  1.00  0.00    -0.423 OA
ATOM     15  C   UNL     1      55.386  36.978 124.091  1.00  0.00     0.339 C 
ATOM     16  O   UNL     1      54.552  36.044 123.966  1.00  0.00    -0.246 OA
ATOM     17  C   UNL     1      58.035  42.116 123.584  1.00  0.00     0.016 C 
ENDROOT
TORSDOF 0
ENDMDL
MODEL 3
REMARK VINA RESULT:    -4.261     11.292     13.403
REMARK INTER + INTRA:          -4.261
REMARK INTER:                  -4.261
REMARK INTRA:                   0.000
REMARK UNBOUND:                 0.000
REMARK SMILES C=C1CCC[C@@]2(C)C=C3OC(=O)C(C)=C3C[C@@H]12
REMARK SMILES IDX 14 1 13 2 15 3 16 4 17 5 2 6 1 7 3 8 4 9 5 10 6 11 8 12 9 13
REMARK SMILES IDX 10 14 11 15 12 16 7 17
REMARK H PARENT
REMARK Flexibility Score: inf
ROOT
ATOM      1  C   UNL     1      49.172  36.676 138.289  1.00  0.00     0.053 C 
ATOM      2  C   UNL     1      49.800  37.431 137.162  1.00  0.00     0.041 C 
ATOM      3  C   UNL     1      49.166  38.168 136.253  1.00  0.00     0.005 C 
ATOM      4  C   UNL     1      47.708  38.459 136.125  1.00  0.00     0.049 C 
ATOM      5  C   UNL     1      47.402  38.959 134.689  1.00  0.00     0.029 C 
ATOM      6  C   UNL     1      45.970  39.459 134.626  1.00  0.00    -0.073 C 
ATOM      7  C   UNL     1      44.983  38.649 134.211  1.00  0.00     0.008 C 
ATOM      8  C   UNL     1      45.649  40.824 135.191  1.00  0.00     0.031 C 
ATOM      9  C   UNL     1      46.640  41.876 134.685  1.00  0.00     0.005 C 
ATOM     10  C   UNL     1      48.101  41.427 134.861  1.00  0.00     0.012 C 
ATOM     11  C   UNL     1      48.404  40.066 134.177  1.00  0.00    -0.004 C 
ATOM     12  C   UNL     1      49.855  39.702 134.477  1.00  0.00     0.027 C 
ATOM     13  C   UNL     1      50.160  38.851 135.451  1.00  0.00     0.131 C 
ATOM     14  O   UNL     1      51.436  38.501 135.866  1.00  0.00    -0.423 OA
ATOM     15  C   UNL     1      51.232  37.629 136.928  1.00  0.00     0.339 C 
ATOM     16  O   UNL     1      52.163  37.104 137.593  1.00  0.00    -0.246 OA
ATOM     17  C   UNL     1      48.280  40.196 132.641  1.00  0.00     0.016 C 
ENDROOT
TORSDOF 0
ENDMDL
MODEL 4
REMARK VINA RESULT:    -4.230     11.491     13.762
REMARK INTER + INTRA:          -4.230
REMARK INTER:                  -4.230
REMARK INTRA:                   0.000
REMARK UNBOUND:                 0.000
REMARK SMILES C=C1CCC[C@@]2(C)C=C3OC(=O)C(C)=C3C[C@@H]12
REMARK SMILES IDX 14 1 13 2 15 3 16 4 17 5 2 6 1 7 3 8 4 9 5 10 6 11 8 12 9 13
REMARK SMILES IDX 10 14 11 15 12 16 7 17
REMARK H PARENT
REMARK Flexibility Score: inf
ROOT
ATOM      1  C   UNL     1      43.613  38.259 134.469  1.00  0.00     0.053 C 
ATOM      2  C   UNL     1      44.732  37.509 133.820  1.00  0.00     0.041 C 
ATOM      3  C   UNL     1      46.025  37.604 134.117  1.00  0.00     0.005 C 
ATOM      4  C   UNL     1      46.694  38.434 135.162  1.00  0.00     0.049 C 
ATOM      5  C   UNL     1      48.204  38.567 134.832  1.00  0.00     0.029 C 
ATOM      6  C   UNL     1      48.917  39.220 136.003  1.00  0.00    -0.073 C 
ATOM      7  C   UNL     1      49.130  40.545 136.017  1.00  0.00     0.008 C 
ATOM      8  C   UNL     1      49.237  38.383 137.221  1.00  0.00     0.031 C 
ATOM      9  C   UNL     1      49.895  37.059 136.823  1.00  0.00     0.005 C 
ATOM     10  C   UNL     1      49.107  36.330 135.722  1.00  0.00     0.012 C 
ATOM     11  C   UNL     1      48.892  37.198 134.452  1.00  0.00    -0.004 C 
ATOM     12  C   UNL     1      48.049  36.392 133.468  1.00  0.00     0.027 C 
ATOM     13  C   UNL     1      46.739  36.592 133.366  1.00  0.00     0.131 C 
ATOM     14  O   UNL     1      45.859  35.875 132.569  1.00  0.00    -0.423 OA
ATOM     15  C   UNL     1      44.612  36.425 132.842  1.00  0.00     0.339 C 
ATOM     16  O   UNL     1      43.539  36.023 132.322  1.00  0.00    -0.246 OA
ATOM     17  C   UNL     1      50.245  37.482 133.758  1.00  0.00     0.016 C 
ENDROOT
TORSDOF 0
ENDMDL
MODEL 5
REMARK VINA RESULT:    -4.213     11.442     12.936
REMARK INTER + INTRA:          -4.213
REMARK INTER:                  -4.213
REMARK INTRA:                   0.000
REMARK UNBOUND:                 0.000
REMARK SMILES C=C1CCC[C@@]2(C)C=C3OC(=O)C(C)=C3C[C@@H]12
REMARK SMILES IDX 14 1 13 2 15 3 16 4 17 5 2 6 1 7 3 8 4 9 5 10 6 11 8 12 9 13
REMARK SMILES IDX 10 14 11 15 12 16 7 17
REMARK H PARENT
REMARK Flexibility Score: inf
ROOT
ATOM      1  C   UNL     1      48.924  38.123 137.561  1.00  0.00     0.053 C 
ATOM      2  C   UNL     1      48.895  37.298 136.314  1.00  0.00     0.041 C 
ATOM      3  C   UNL     1      48.003  37.382 135.331  1.00  0.00     0.005 C 
ATOM      4  C   UNL     1      46.841  38.307 135.188  1.00  0.00     0.049 C 
ATOM      5  C   UNL     1      45.849  37.735 134.141  1.00  0.00     0.029 C 
ATOM      6  C   UNL     1      44.785  38.777 133.839  1.00  0.00    -0.073 C 
ATOM      7  C   UNL     1      43.611  38.760 134.489  1.00  0.00     0.008 C 
ATOM      8  C   UNL     1      45.130  39.924 132.916  1.00  0.00     0.031 C 
ATOM      9  C   UNL     1      45.810  39.419 131.640  1.00  0.00     0.005 C 
ATOM     10  C   UNL     1      46.972  38.459 131.944  1.00  0.00     0.012 C 
ATOM     11  C   UNL     1      46.544  37.244 132.812  1.00  0.00    -0.004 C 
ATOM     12  C   UNL     1      47.789  36.408 133.097  1.00  0.00     0.027 C 
ATOM     13  C   UNL     1      48.439  36.521 134.250  1.00  0.00     0.131 C 
ATOM     14  O   UNL     1      49.617  35.875 134.594  1.00  0.00    -0.423 OA
ATOM     15  C   UNL     1      49.917  36.349 135.865  1.00  0.00     0.339 C 
ATOM     16  O   UNL     1      50.939  36.010 136.518  1.00  0.00    -0.246 OA
ATOM     17  C   UNL     1      45.564  36.340 132.027  1.00  0.00     0.016 C 
ENDROOT
TORSDOF 0
ENDMDL
MODEL 6
REMARK VINA RESULT:    -4.188     12.259     13.828
REMARK INTER + INTRA:          -4.188
REMARK INTER:                  -4.188
REMARK INTRA:                   0.000
REMARK UNBOUND:                 0.000
REMARK SMILES C=C1CCC[C@@]2(C)C=C3OC(=O)C(C)=C3C[C@@H]12
REMARK SMILES IDX 14 1 13 2 15 3 16 4 17 5 2 6 1 7 3 8 4 9 5 10 6 11 8 12 9 13
REMARK SMILES IDX 10 14 11 15 12 16 7 17
REMARK H PARENT
REMARK Flexibility Score: inf
ROOT
ATOM      1  C   UNL     1      48.797  42.950 135.199  1.00  0.00     0.053 C 
ATOM      2  C   UNL     1      47.989  41.694 135.125  1.00  0.00     0.041 C 
ATOM      3  C   UNL     1      48.434  40.454 135.313  1.00  0.00     0.005 C 
ATOM      4  C   UNL     1      49.807  39.989 135.665  1.00  0.00     0.049 C 
ATOM      5  C   UNL     1      49.946  38.481 135.326  1.00  0.00     0.029 C 
ATOM      6  C   UNL     1      51.260  37.962 135.884  1.00  0.00    -0.073 C 
ATOM      7  C   UNL     1      52.356  37.910 135.110  1.00  0.00     0.008 C 
ATOM      8  C   UNL     1      51.355  37.658 137.362  1.00  0.00     0.031 C 
ATOM      9  C   UNL     1      50.167  36.814 137.829  1.00  0.00     0.005 C 
ATOM     10  C   UNL     1      48.822  37.404 137.373  1.00  0.00     0.012 C 
ATOM     11  C   UNL     1      48.737  37.603 135.835  1.00  0.00    -0.004 C 
ATOM     12  C   UNL     1      47.392  38.250 135.517  1.00  0.00     0.027 C 
ATOM     13  C   UNL     1      47.294  39.559 135.312  1.00  0.00     0.131 C 
ATOM     14  O   UNL     1      46.124  40.270 135.092  1.00  0.00    -0.423 OA
ATOM     15  C   UNL     1      46.534  41.593 134.981  1.00  0.00     0.339 C 
ATOM     16  O   UNL     1      45.748  42.558 134.796  1.00  0.00    -0.246 OA
ATOM     17  C   UNL     1      48.760  36.235 135.113  1.00  0.00     0.016 C 
ENDROOT
TORSDOF 0
ENDMDL
MODEL 7
REMARK VINA RESULT:    -4.112     18.409     21.285
REMARK INTER + INTRA:          -4.112
REMARK INTER:                  -4.112
REMARK INTRA:                   0.000
REMARK UNBOUND:                 0.000
REMARK SMILES C=C1CCC[C@@]2(C)C=C3OC(=O)C(C)=C3C[C@@H]12
REMARK SMILES IDX 14 1 13 2 15 3 16 4 17 5 2 6 1 7 3 8 4 9 5 10 6 11 8 12 9 13
REMARK SMILES IDX 10 14 11 15 12 16 7 17
REMARK H PARENT
REMARK Flexibility Score: inf
ROOT
ATOM      1  C   UNL     1      43.570  47.137 139.459  1.00  0.00     0.053 C 
ATOM      2  C   UNL     1      44.102  46.734 140.798  1.00  0.00     0.041 C 
ATOM      3  C   UNL     1      45.351  46.372 141.077  1.00  0.00     0.005 C 
ATOM      4  C   UNL     1      46.535  46.297 140.171  1.00  0.00     0.049 C 
ATOM      5  C   UNL     1      47.626  45.403 140.818  1.00  0.00     0.029 C 
ATOM      6  C   UNL     1      48.905  45.506 140.004  1.00  0.00    -0.073 C 
ATOM      7  C   UNL     1      49.180  44.601 139.052  1.00  0.00     0.008 C 
ATOM      8  C   UNL     1      49.779  46.728 140.171  1.00  0.00     0.031 C 
ATOM      9  C   UNL     1      50.022  47.034 141.651  1.00  0.00     0.005 C 
ATOM     10  C   UNL     1      48.715  47.056 142.460  1.00  0.00     0.012 C 
ATOM     11  C   UNL     1      47.902  45.738 142.336  1.00  0.00    -0.004 C 
ATOM     12  C   UNL     1      46.606  45.908 143.125  1.00  0.00     0.027 C 
ATOM     13  C   UNL     1      45.469  46.224 142.513  1.00  0.00     0.131 C 
ATOM     14  O   UNL     1      44.251  46.477 143.125  1.00  0.00    -0.423 OA
ATOM     15  C   UNL     1      43.395  46.801 142.079  1.00  0.00     0.339 C 
ATOM     16  O   UNL     1      42.188  47.120 142.234  1.00  0.00    -0.246 OA
ATOM     17  C   UNL     1      48.674  44.566 142.986  1.00  0.00     0.016 C 
ENDROOT
TORSDOF 0
ENDMDL
MODEL 8
REMARK VINA RESULT:    -4.098      2.046      5.670
REMARK INTER + INTRA:          -4.098
REMARK INTER:                  -4.098
REMARK INTRA:                   0.000
REMARK UNBOUND:                 0.000
REMARK SMILES C=C1CCC[C@@]2(C)C=C3OC(=O)C(C)=C3C[C@@H]12
REMARK SMILES IDX 14 1 13 2 15 3 16 4 17 5 2 6 1 7 3 8 4 9 5 10 6 11 8 12 9 13
REMARK SMILES IDX 10 14 11 15 12 16 7 17
REMARK H PARENT
REMARK Flexibility Score: inf
ROOT
ATOM      1  C   UNL     1      53.303  40.200 124.033  1.00  0.00     0.053 C 
ATOM      2  C   UNL     1      54.488  39.412 123.574  1.00  0.00     0.041 C 
ATOM      3  C   UNL     1      55.764  39.779 123.662  1.00  0.00     0.005 C 
ATOM      4  C   UNL     1      56.350  41.022 124.244  1.00  0.00     0.049 C 
ATOM      5  C   UNL     1      57.795  41.213 123.712  1.00  0.00     0.029 C 
ATOM      6  C   UNL     1      58.462  42.347 124.471  1.00  0.00    -0.073 C 
ATOM      7  C   UNL     1      58.455  43.594 123.974  1.00  0.00     0.008 C 
ATOM      8  C   UNL     1      58.989  42.082 125.863  1.00  0.00     0.031 C 
ATOM      9  C   UNL     1      59.829  40.803 125.900  1.00  0.00     0.005 C 
ATOM     10  C   UNL     1      59.105  39.616 125.244  1.00  0.00     0.012 C 
ATOM     11  C   UNL     1      58.674  39.903 123.780  1.00  0.00    -0.004 C 
ATOM     12  C   UNL     1      57.915  38.683 123.265  1.00  0.00     0.027 C 
ATOM     13  C   UNL     1      56.586  38.658 123.253  1.00  0.00     0.131 C 
ATOM     14  O   UNL     1      55.788  37.586 122.882  1.00  0.00    -0.423 OA
ATOM     15  C   UNL     1      54.488  38.033 123.081  1.00  0.00     0.339 C 
ATOM     16  O   UNL     1      53.465  37.329 122.875  1.00  0.00    -0.246 OA
ATOM     17  C   UNL     1      59.916  40.075 122.875  1.00  0.00     0.016 C 
ENDROOT
TORSDOF 0
ENDMDL
MODEL 9
REMARK VINA RESULT:    -3.987     11.794     13.118
REMARK INTER + INTRA:          -3.987
REMARK INTER:                  -3.987
REMARK INTRA:                   0.000
REMARK UNBOUND:                 0.000
REMARK SMILES C=C1CCC[C@@]2(C)C=C3OC(=O)C(C)=C3C[C@@H]12
REMARK SMILES IDX 14 1 13 2 15 3 16 4 17 5 2 6 1 7 3 8 4 9 5 10 6 11 8 12 9 13
REMARK SMILES IDX 10 14 11 15 12 16 7 17
REMARK H PARENT
REMARK Flexibility Score: inf
ROOT
ATOM      1  C   UNL     1      55.104  38.623 135.678  1.00  0.00     0.053 C 
ATOM      2  C   UNL     1      54.185  38.088 136.729  1.00  0.00     0.041 C 
ATOM      3  C   UNL     1      52.861  37.994 136.649  1.00  0.00     0.005 C 
ATOM      4  C   UNL     1      51.957  38.358 135.519  1.00  0.00     0.049 C 
ATOM      5  C   UNL     1      50.505  38.509 136.044  1.00  0.00     0.029 C 
ATOM      6  C   UNL     1      49.559  38.660 134.865  1.00  0.00    -0.073 C 
ATOM      7  C   UNL     1      49.192  39.879 134.438  1.00  0.00     0.008 C 
ATOM      8  C   UNL     1      49.168  37.428 134.081  1.00  0.00     0.031 C 
ATOM      9  C   UNL     1      48.734  36.295 135.016  1.00  0.00     0.005 C 
ATOM     10  C   UNL     1      49.751  36.052 136.143  1.00  0.00     0.012 C 
ATOM     11  C   UNL     1      50.043  37.326 136.982  1.00  0.00    -0.004 C 
ATOM     12  C   UNL     1      51.108  36.974 138.017  1.00  0.00     0.027 C 
ATOM     13  C   UNL     1      52.387  37.274 137.813  1.00  0.00     0.131 C 
ATOM     14  O   UNL     1      53.450  36.941 138.639  1.00  0.00    -0.423 OA
ATOM     15  C   UNL     1      54.571  37.431 137.981  1.00  0.00     0.339 C 
ATOM     16  O   UNL     1      55.747  37.304 138.409  1.00  0.00    -0.246 OA
ATOM     17  C   UNL     1      48.781  37.757 137.764  1.00  0.00     0.016 C 
ENDROOT
TORSDOF 0
ENDMDL
