MODEL 1
REMARK VINA RESULT:    -3.920      0.000      0.000
REMARK INTER + INTRA:          -8.603
REMARK INTER:                  -7.471
REMARK INTRA:                  -1.131
REMARK UNBOUND:                -1.131
REMARK SMILES C[C@H]1O[C@H](O[C@H]2[C@H](O)[C@@H](OCCc3ccc(O)c(O)c3)O[C@H](CO)[C@@H]2OC(=O)C=Cc2ccc(O)c(O)c2)[C@H](O)[C@H](O)[C@H]1O
REMARK SMILES IDX 6 1 7 2 9 3 21 4 22 5 25 6 5 7 4 8 1 9 2 10 43 11 3 12 41 13
REMARK SMILES IDX 39 14 44 15 42 17 40 19 8 21 26 23 27 24 28 25 29 26 30 27
REMARK SMILES IDX 31 28 38 29 32 30 36 31 33 32 34 33 37 34 35 36 10 38 11 39
REMARK SMILES IDX 12 40 13 41 20 42 14 43 18 44 15 45 16 46 19 47 17 49 23 51
REMARK SMILES IDX 24 52
REMARK H PARENT 44 16 42 18 40 20 8 22 37 35 35 37 19 48 17 50 24 53
REMARK Flexibility Score: inf
ROOT
ATOM      1  C   UNL     1       9.054  -2.370  19.558  1.00  0.00     0.199 C 
ATOM      2  C   UNL     1       7.860  -2.236  18.611  1.00  0.00     0.203 C 
ATOM      3  C   UNL     1       7.426  -3.657  18.068  1.00  0.00     0.282 C 
ATOM      4  O   UNL     1       7.936  -4.695  18.912  1.00  0.00    -0.340 OA
ATOM      5  C   UNL     1       9.347  -4.772  18.900  1.00  0.00     0.190 C 
ATOM      6  C   UNL     1      10.028  -3.367  18.870  1.00  0.00     0.240 C 
ENDROOT
BRANCH   1   7
ATOM      7  O   UNL     1       9.651  -1.097  19.797  1.00  0.00    -0.340 OA
BRANCH   7   8
ATOM      8  C   UNL     1       9.513  -0.224  18.642  1.00  0.00     0.282 C 
ATOM      9  C   UNL     1       8.518   3.042  20.125  1.00  0.00     0.041 C 
ATOM     10  C   UNL     1       9.449   1.844  19.845  1.00  0.00     0.150 C 
ATOM     11  C   UNL     1      10.760   2.351  19.192  1.00  0.00     0.174 C 
ATOM     12  O   UNL     1       8.763   0.933  18.987  1.00  0.00    -0.344 OA
ATOM     13  C   UNL     1      11.666   1.159  18.873  1.00  0.00     0.179 C 
ATOM     14  C   UNL     1      10.875   0.159  18.011  1.00  0.00     0.202 C 
BRANCH  11  15
ATOM     15  O   UNL     1      10.457   3.021  17.984  1.00  0.00    -0.388 OA
ATOM     16  H   UNL     1       9.469   2.975  17.879  1.00  0.00     0.211 HD
ENDBRANCH  11  15
BRANCH  13  17
ATOM     17  O   UNL     1      12.113   0.517  20.047  1.00  0.00    -0.387 OA
ATOM     18  H   UNL     1      11.356   0.542  20.708  1.00  0.00     0.211 HD
ENDBRANCH  13  17
BRANCH  14  19
ATOM     19  O   UNL     1      11.675  -0.966  17.744  1.00  0.00    -0.385 OA
ATOM     20  H   UNL     1      11.311  -1.393  16.926  1.00  0.00     0.211 HD
ENDBRANCH  14  19
ENDBRANCH   7   8
ENDBRANCH   1   7
BRANCH   2  21
ATOM     21  O   UNL     1       6.780  -1.562  19.231  1.00  0.00    -0.385 OA
ATOM     22  H   UNL     1       7.165  -0.926  19.852  1.00  0.00     0.211 HD
ENDBRANCH   2  21
BRANCH   6  23
ATOM     23  O   UNL     1      11.344  -3.335  19.438  1.00  0.00    -0.453 OA
BRANCH  23  24
ATOM     24  C   UNL     1      12.374  -4.020  18.791  1.00  0.00     0.331 C 
ATOM     25  O   UNL     1      12.708  -3.675  17.618  1.00  0.00    -0.247 OA
BRANCH  24  26
ATOM     26  C   UNL     1      13.000  -5.150  19.461  1.00  0.00     0.094 C 
ATOM     27  C   UNL     1      14.148  -5.053  20.122  1.00  0.00     0.016 C 
BRANCH  27  28
ATOM     28  C   UNL     1      15.078  -3.926  20.076  1.00  0.00    -0.021 A 
ATOM     29  C   UNL     1      14.519  -2.666  19.895  1.00  0.00     0.058 A 
ATOM     30  C   UNL     1      16.457  -4.087  19.982  1.00  0.00     0.012 A 
ATOM     31  C   UNL     1      15.318  -1.567  19.608  1.00  0.00     0.157 A 
ATOM     32  C   UNL     1      17.281  -2.970  19.771  1.00  0.00     0.051 A 
ATOM     33  C   UNL     1      16.707  -1.704  19.576  1.00  0.00     0.157 A 
BRANCH  31  34
ATOM     34  O   UNL     1      14.696  -0.344  19.319  1.00  0.00    -0.504 OA
ATOM     35  H   UNL     1      15.179   0.395  18.812  1.00  0.00     0.293 HD
ENDBRANCH  31  34
BRANCH  33  36
ATOM     36  O   UNL     1      17.505  -0.591  19.324  1.00  0.00    -0.504 OA
ATOM     37  H   UNL     1      17.312   0.310  19.733  1.00  0.00     0.293 HD
ENDBRANCH  33  36
ENDBRANCH  27  28
ENDBRANCH  24  26
ENDBRANCH  23  24
ENDBRANCH   6  23
BRANCH   3  38
ATOM     38  O   UNL     1       7.906  -3.815  16.742  1.00  0.00    -0.350 OA
BRANCH  38  39
ATOM     39  C   UNL     1       7.488  -2.765  15.879  1.00  0.00     0.168 C 
BRANCH  39  40
ATOM     40  C   UNL     1       8.593  -1.716  15.633  1.00  0.00     0.064 C 
BRANCH  40  41
ATOM     41  C   UNL     1       9.360  -1.978  14.367  1.00  0.00    -0.042 A 
ATOM     42  C   UNL     1       9.851  -0.905  13.587  1.00  0.00     0.054 A 
ATOM     43  C   UNL     1       9.508  -3.274  13.902  1.00  0.00     0.008 A 
ATOM     44  C   UNL     1      10.509  -1.138  12.374  1.00  0.00     0.157 A 
ATOM     45  C   UNL     1      10.137  -3.514  12.678  1.00  0.00     0.050 A 
ATOM     46  C   UNL     1      10.648  -2.465  11.896  1.00  0.00     0.157 A 
BRANCH  44  47
ATOM     47  O   UNL     1      10.956  -0.035  11.668  1.00  0.00    -0.504 OA
ATOM     48  H   UNL     1      10.761   0.139  10.698  1.00  0.00     0.293 HD
ENDBRANCH  44  47
BRANCH  46  49
ATOM     49  O   UNL     1      11.194  -2.773  10.645  1.00  0.00    -0.504 OA
ATOM     50  H   UNL     1      11.810  -3.567  10.467  1.00  0.00     0.293 HD
ENDBRANCH  46  49
ENDBRANCH  40  41
ENDBRANCH  39  40
ENDBRANCH  38  39
ENDBRANCH   3  38
BRANCH   5  51
ATOM     51  C   UNL     1       9.762  -5.617  20.113  1.00  0.00     0.192 C 
BRANCH  51  52
ATOM     52  O   UNL     1       9.110  -6.843  20.118  1.00  0.00    -0.394 OA
ATOM     53  H   UNL     1       8.138  -6.662  20.264  1.00  0.00     0.210 HD
ENDBRANCH  51  52
ENDBRANCH   5  51
TORSDOF 20
ENDMDL
MODEL 2
REMARK VINA RESULT:    -1.811      1.959      6.302
REMARK INTER + INTRA:          -4.583
REMARK INTER:                  -3.738
REMARK INTRA:                  -0.845
REMARK UNBOUND:                -1.131
REMARK SMILES C[C@H]1O[C@H](O[C@H]2[C@H](O)[C@@H](OCCc3ccc(O)c(O)c3)O[C@H](CO)[C@@H]2OC(=O)C=Cc2ccc(O)c(O)c2)[C@H](O)[C@H](O)[C@H]1O
REMARK SMILES IDX 6 1 7 2 9 3 21 4 22 5 25 6 5 7 4 8 1 9 2 10 43 11 3 12 41 13
REMARK SMILES IDX 39 14 44 15 42 17 40 19 8 21 26 23 27 24 28 25 29 26 30 27
REMARK SMILES IDX 31 28 38 29 32 30 36 31 33 32 34 33 37 34 35 36 10 38 11 39
REMARK SMILES IDX 12 40 13 41 20 42 14 43 18 44 15 45 16 46 19 47 17 49 23 51
REMARK SMILES IDX 24 52
REMARK H PARENT 44 16 42 18 40 20 8 22 37 35 35 37 19 48 17 50 24 53
REMARK Flexibility Score: inf
ROOT
ATOM      1  C   UNL     1       7.753  -0.652  17.129  1.00  0.00     0.199 C 
ATOM      2  C   UNL     1       6.762  -1.645  17.738  1.00  0.00     0.203 C 
ATOM      3  C   UNL     1       5.876  -0.935  18.839  1.00  0.00     0.282 C 
ATOM      4  O   UNL     1       5.908   0.487  18.669  1.00  0.00    -0.340 OA
ATOM      5  C   UNL     1       7.190   1.040  18.892  1.00  0.00     0.190 C 
ATOM      6  C   UNL     1       8.339   0.147  18.326  1.00  0.00     0.240 C 
ENDROOT
BRANCH   1   7
ATOM      7  O   UNL     1       8.757  -1.337  16.383  1.00  0.00    -0.340 OA
BRANCH   7   8
ATOM      8  C   UNL     1       8.214  -1.892  15.153  1.00  0.00     0.282 C 
ATOM      9  C   UNL     1      10.350  -0.396  12.497  1.00  0.00     0.041 C 
ATOM     10  C   UNL     1      10.032  -1.274  13.726  1.00  0.00     0.150 C 
ATOM     11  C   UNL     1      10.385  -2.749  13.410  1.00  0.00     0.174 C 
ATOM     12  O   UNL     1       8.647  -1.128  14.036  1.00  0.00    -0.344 OA
ATOM     13  C   UNL     1      10.029  -3.628  14.612  1.00  0.00     0.179 C 
ATOM     14  C   UNL     1       8.551  -3.393  14.970  1.00  0.00     0.202 C 
BRANCH  11  15
ATOM     15  O   UNL     1       9.633  -3.187  12.295  1.00  0.00    -0.388 OA
ATOM     16  H   UNL     1      10.284  -3.587  11.659  1.00  0.00     0.211 HD
ENDBRANCH  11  15
BRANCH  13  17
ATOM     17  O   UNL     1      10.837  -3.331  15.731  1.00  0.00    -0.387 OA
ATOM     18  H   UNL     1      11.029  -2.345  15.706  1.00  0.00     0.211 HD
ENDBRANCH  13  17
BRANCH  14  19
ATOM     19  O   UNL     1       8.215  -4.157  16.102  1.00  0.00    -0.385 OA
ATOM     20  H   UNL     1       7.750  -3.550  16.734  1.00  0.00     0.211 HD
ENDBRANCH  14  19
ENDBRANCH   7   8
ENDBRANCH   1   7
BRANCH   2  21
ATOM     21  O   UNL     1       5.963  -2.258  16.741  1.00  0.00    -0.385 OA
ATOM     22  H   UNL     1       5.045  -2.018  16.932  1.00  0.00     0.211 HD
ENDBRANCH   2  21
BRANCH   6  23
ATOM     23  O   UNL     1       9.531   0.865  17.981  1.00  0.00    -0.453 OA
BRANCH  23  24
ATOM     24  C   UNL     1      10.259   1.489  18.996  1.00  0.00     0.331 C 
ATOM     25  O   UNL     1       9.716   1.676  20.125  1.00  0.00    -0.247 OA
BRANCH  24  26
ATOM     26  C   UNL     1      11.608   1.957  18.711  1.00  0.00     0.094 C 
ATOM     27  C   UNL     1      12.652   1.140  18.620  1.00  0.00     0.016 C 
BRANCH  27  28
ATOM     28  C   UNL     1      12.690  -0.262  19.031  1.00  0.00    -0.021 A 
ATOM     29  C   UNL     1      13.931  -0.771  19.396  1.00  0.00     0.058 A 
ATOM     30  C   UNL     1      11.614  -1.128  18.860  1.00  0.00     0.012 A 
ATOM     31  C   UNL     1      14.115  -2.135  19.577  1.00  0.00     0.157 A 
ATOM     32  C   UNL     1      11.769  -2.500  19.117  1.00  0.00     0.051 A 
ATOM     33  C   UNL     1      13.029  -3.006  19.472  1.00  0.00     0.157 A 
BRANCH  31  34
ATOM     34  O   UNL     1      15.412  -2.608  19.830  1.00  0.00    -0.504 OA
ATOM     35  H   UNL     1      15.575  -3.501  20.291  1.00  0.00     0.293 HD
ENDBRANCH  31  34
BRANCH  33  36
ATOM     36  O   UNL     1      13.213  -4.370  19.691  1.00  0.00    -0.504 OA
ATOM     37  H   UNL     1      14.104  -4.819  19.546  1.00  0.00     0.293 HD
ENDBRANCH  33  36
ENDBRANCH  27  28
ENDBRANCH  24  26
ENDBRANCH  23  24
ENDBRANCH   6  23
BRANCH   3  38
ATOM     38  O   UNL     1       6.358  -1.291  20.125  1.00  0.00    -0.350 OA
BRANCH  38  39
ATOM     39  C   UNL     1       7.177  -2.453  20.100  1.00  0.00     0.168 C 
BRANCH  39  40
ATOM     40  C   UNL     1       6.359  -3.762  20.077  1.00  0.00     0.064 C 
BRANCH  40  41
ATOM     41  C   UNL     1       7.233  -4.983  20.020  1.00  0.00    -0.042 A 
ATOM     42  C   UNL     1       8.631  -4.863  19.846  1.00  0.00     0.054 A 
ATOM     43  C   UNL     1       6.661  -6.245  20.038  1.00  0.00     0.008 A 
ATOM     44  C   UNL     1       9.443  -5.996  19.727  1.00  0.00     0.157 A 
ATOM     45  C   UNL     1       7.460  -7.381  19.890  1.00  0.00     0.050 A 
ATOM     46  C   UNL     1       8.853  -7.285  19.735  1.00  0.00     0.157 A 
BRANCH  44  47
ATOM     47  O   UNL     1      10.801  -5.793  19.556  1.00  0.00    -0.504 OA
ATOM     48  H   UNL     1      11.272  -5.801  18.669  1.00  0.00     0.293 HD
ENDBRANCH  44  47
BRANCH  46  49
ATOM     49  O   UNL     1       9.580  -8.459  19.511  1.00  0.00    -0.504 OA
ATOM     50  H   UNL     1       9.289  -9.202  18.875  1.00  0.00     0.293 HD
ENDBRANCH  46  49
ENDBRANCH  40  41
ENDBRANCH  39  40
ENDBRANCH  38  39
ENDBRANCH   3  38
BRANCH   5  51
ATOM     51  C   UNL     1       7.178   2.455  18.297  1.00  0.00     0.192 C 
BRANCH  51  52
ATOM     52  O   UNL     1       7.053   2.418  16.914  1.00  0.00    -0.394 OA
ATOM     53  H   UNL     1       7.029   3.364  16.593  1.00  0.00     0.210 HD
ENDBRANCH  51  52
ENDBRANCH   5  51
TORSDOF 20
ENDMDL
MODEL 3
REMARK VINA RESULT:    -1.330      1.245      2.170
REMARK INTER + INTRA:          -3.667
REMARK INTER:                  -3.383
REMARK INTRA:                  -0.284
REMARK UNBOUND:                -1.131
REMARK SMILES C[C@H]1O[C@H](O[C@H]2[C@H](O)[C@@H](OCCc3ccc(O)c(O)c3)O[C@H](CO)[C@@H]2OC(=O)C=Cc2ccc(O)c(O)c2)[C@H](O)[C@H](O)[C@H]1O
REMARK SMILES IDX 6 1 7 2 9 3 21 4 22 5 25 6 5 7 4 8 1 9 2 10 43 11 3 12 41 13
REMARK SMILES IDX 39 14 44 15 42 17 40 19 8 21 26 23 27 24 28 25 29 26 30 27
REMARK SMILES IDX 31 28 38 29 32 30 36 31 33 32 34 33 37 34 35 36 10 38 11 39
REMARK SMILES IDX 12 40 13 41 20 42 14 43 18 44 15 45 16 46 19 47 17 49 23 51
REMARK SMILES IDX 24 52
REMARK H PARENT 44 16 42 18 40 20 8 22 37 35 35 37 19 48 17 50 24 53
REMARK Flexibility Score: inf
ROOT
ATOM      1  C   UNL     1       8.199  -1.976  18.179  1.00  0.00     0.199 C 
ATOM      2  C   UNL     1       7.174  -2.297  17.091  1.00  0.00     0.203 C 
ATOM      3  C   UNL     1       6.894  -3.853  17.040  1.00  0.00     0.282 C 
ATOM      4  O   UNL     1       7.299  -4.477  18.264  1.00  0.00    -0.340 OA
ATOM      5  C   UNL     1       8.694  -4.416  18.477  1.00  0.00     0.190 C 
ATOM      6  C   UNL     1       9.313  -3.051  18.040  1.00  0.00     0.240 C 
ENDROOT
BRANCH   1   7
ATOM      7  O   UNL     1       8.697  -0.648  18.026  1.00  0.00    -0.340 OA
BRANCH   7   8
ATOM      8  C   UNL     1       8.662   0.077  19.285  1.00  0.00     0.282 C 
ATOM      9  C   UNL     1      11.424   2.550  18.951  1.00  0.00     0.041 C 
ATOM     10  C   UNL     1      10.068   1.894  18.616  1.00  0.00     0.150 C 
ATOM     11  C   UNL     1       8.935   2.935  18.790  1.00  0.00     0.174 C 
ATOM     12  O   UNL     1       9.883   0.777  19.484  1.00  0.00    -0.344 OA
ATOM     13  C   UNL     1       7.585   2.274  18.500  1.00  0.00     0.179 C 
ATOM     14  C   UNL     1       7.446   1.031  19.396  1.00  0.00     0.202 C 
BRANCH  11  15
ATOM     15  O   UNL     1       8.927   3.407  20.124  1.00  0.00    -0.388 OA
ATOM     16  H   UNL     1       9.816   3.179  20.505  1.00  0.00     0.211 HD
ENDBRANCH  11  15
BRANCH  13  17
ATOM     17  O   UNL     1       7.472   1.892  17.146  1.00  0.00    -0.387 OA
ATOM     18  H   UNL     1       6.731   1.216  17.087  1.00  0.00     0.211 HD
ENDBRANCH  13  17
BRANCH  14  19
ATOM     19  O   UNL     1       6.231   0.382  19.113  1.00  0.00    -0.385 OA
ATOM     20  H   UNL     1       5.541   1.088  19.016  1.00  0.00     0.211 HD
ENDBRANCH  14  19
ENDBRANCH   7   8
ENDBRANCH   1   7
BRANCH   2  21
ATOM     21  O   UNL     1       5.979  -1.557  17.270  1.00  0.00    -0.385 OA
ATOM     22  H   UNL     1       5.264  -2.200  17.375  1.00  0.00     0.211 HD
ENDBRANCH   2  21
BRANCH   6  23
ATOM     23  O   UNL     1      10.515  -2.696  18.737  1.00  0.00    -0.453 OA
BRANCH  23  24
ATOM     24  C   UNL     1      11.692  -3.386  18.444  1.00  0.00     0.331 C 
ATOM     25  O   UNL     1      12.408  -3.009  17.469  1.00  0.00    -0.247 OA
BRANCH  24  26
ATOM     26  C   UNL     1      12.039  -4.558  19.235  1.00  0.00     0.094 C 
ATOM     27  C   UNL     1      13.085  -4.594  20.054  1.00  0.00     0.016 C 
BRANCH  27  28
ATOM     28  C   UNL     1      14.173  -3.619  20.108  1.00  0.00    -0.021 A 
ATOM     29  C   UNL     1      13.812  -2.279  20.018  1.00  0.00     0.058 A 
ATOM     30  C   UNL     1      15.514  -3.978  20.020  1.00  0.00     0.012 A 
ATOM     31  C   UNL     1      14.773  -1.295  19.827  1.00  0.00     0.157 A 
ATOM     32  C   UNL     1      16.500  -2.985  19.906  1.00  0.00     0.051 A 
ATOM     33  C   UNL     1      16.127  -1.637  19.803  1.00  0.00     0.157 A 
BRANCH  31  34
ATOM     34  O   UNL     1      14.347   0.026  19.626  1.00  0.00    -0.504 OA
ATOM     35  H   UNL     1      14.684   0.584  18.843  1.00  0.00     0.293 HD
ENDBRANCH  31  34
BRANCH  33  36
ATOM     36  O   UNL     1      17.087  -0.640  19.648  1.00  0.00    -0.504 OA
ATOM     37  H   UNL     1      16.907   0.200  19.120  1.00  0.00     0.293 HD
ENDBRANCH  33  36
ENDBRANCH  27  28
ENDBRANCH  24  26
ENDBRANCH  23  24
ENDBRANCH   6  23
BRANCH   3  38
ATOM     38  O   UNL     1       7.592  -4.416  15.941  1.00  0.00    -0.350 OA
BRANCH  38  39
ATOM     39  C   UNL     1       7.898  -3.457  14.936  1.00  0.00     0.168 C 
BRANCH  39  40
ATOM     40  C   UNL     1       9.412  -3.197  14.797  1.00  0.00     0.064 C 
BRANCH  40  41
ATOM     41  C   UNL     1       9.745  -2.384  13.579  1.00  0.00    -0.042 A 
ATOM     42  C   UNL     1      10.254  -3.004  12.414  1.00  0.00     0.054 A 
ATOM     43  C   UNL     1       9.648  -1.002  13.620  1.00  0.00     0.008 A 
ATOM     44  C   UNL     1      10.628  -2.247  11.298  1.00  0.00     0.157 A 
ATOM     45  C   UNL     1      10.047  -0.236  12.522  1.00  0.00     0.050 A 
ATOM     46  C   UNL     1      10.538  -0.833  11.349  1.00  0.00     0.157 A 
BRANCH  44  47
ATOM     47  O   UNL     1      11.119  -2.929  10.199  1.00  0.00    -0.504 OA
ATOM     48  H   UNL     1      10.675  -3.726   9.777  1.00  0.00     0.293 HD
ENDBRANCH  44  47
BRANCH  46  49
ATOM     49  O   UNL     1      10.993  -0.002  10.320  1.00  0.00    -0.504 OA
ATOM     50  H   UNL     1      10.535   0.090   9.411  1.00  0.00     0.293 HD
ENDBRANCH  46  49
ENDBRANCH  40  41
ENDBRANCH  39  40
ENDBRANCH  38  39
ENDBRANCH   3  38
BRANCH   5  51
ATOM     51  C   UNL     1       8.937  -4.740  19.959  1.00  0.00     0.192 C 
BRANCH  51  52
ATOM     52  O   UNL     1       9.342  -6.059  20.125  1.00  0.00    -0.394 OA
ATOM     53  H   UNL     1       8.520  -6.626  20.110  1.00  0.00     0.210 HD
ENDBRANCH  51  52
ENDBRANCH   5  51
TORSDOF 20
ENDMDL
