MODEL 1
REMARK VINA RESULT:    -7.064      0.000      0.000
REMARK INTER + INTRA:          -7.968
REMARK INTER:                  -8.510
REMARK INTRA:                   0.541
REMARK UNBOUND:                 0.541
REMARK SMILES O=c1ccn([C@@H]2O[C@H](CO)[C@H](O)[C@H]2O)c(=O)[nH]1
REMARK SMILES IDX 6 1 13 2 11 3 8 4 7 5 5 6 3 7 4 8 2 9 17 10 1 11 15 12 16 14
REMARK SMILES IDX 14 15 12 17 9 19 10 20
REMARK H PARENT 17 13 14 16 12 18 10 21
REMARK Flexibility Score: inf
ROOT
ATOM      1  C   UNL     1      29.798  20.809  41.410  1.00  0.00     0.255 C 
ATOM      2  C   UNL     1      31.070  19.994  41.607  1.00  0.00     0.196 C 
ATOM      3  C   UNL     1      31.283  19.393  40.240  1.00  0.00     0.179 C 
ATOM      4  C   UNL     1      29.854  19.339  39.665  1.00  0.00     0.178 C 
ATOM      5  O   UNL     1      29.000  20.144  40.455  1.00  0.00    -0.347 OA
ENDROOT
BRANCH   1   6
ATOM      6  N   UNL     1      29.073  20.973  42.687  1.00  0.00    -0.271 N 
ATOM      7  C   UNL     1      27.541  22.210  44.058  1.00  0.00     0.090 A 
ATOM      8  C   UNL     1      28.256  22.055  42.875  1.00  0.00     0.099 A 
ATOM      9  C   UNL     1      27.660  21.236  45.042  1.00  0.00     0.253 A 
ATOM     10  N   UNL     1      28.460  20.158  44.831  1.00  0.00    -0.274 N 
ATOM     11  O   UNL     1      27.025  21.351  46.124  1.00  0.00    -0.269 OA
ATOM     12  C   UNL     1      29.155  20.014  43.668  1.00  0.00     0.330 A 
ATOM     13  H   UNL     1      28.538  19.424  45.573  1.00  0.00     0.175 HD
ATOM     14  O   UNL     1      29.872  18.988  43.506  1.00  0.00    -0.248 OA
ENDBRANCH   1   6
BRANCH   2  15
ATOM     15  O   UNL     1      32.159  20.776  42.035  1.00  0.00    -0.386 OA
ATOM     16  H   UNL     1      32.952  20.185  42.125  1.00  0.00     0.211 HD
ENDBRANCH   2  15
BRANCH   3  17
ATOM     17  O   UNL     1      31.891  18.129  40.325  1.00  0.00    -0.387 OA
ATOM     18  H   UNL     1      32.869  18.281  40.245  1.00  0.00     0.211 HD
ENDBRANCH   3  17
BRANCH   4  19
ATOM     19  C   UNL     1      29.263  17.923  39.568  1.00  0.00     0.191 C 
BRANCH  19  20
ATOM     20  O   UNL     1      28.124  17.921  38.750  1.00  0.00    -0.394 OA
ATOM     21  H   UNL     1      27.573  18.692  39.045  1.00  0.00     0.210 HD
ENDBRANCH  19  20
ENDBRANCH   4  19
TORSDOF 5
ENDMDL
MODEL 2
REMARK VINA RESULT:    -6.086      1.553      2.991
REMARK INTER + INTRA:          -6.790
REMARK INTER:                  -7.222
REMARK INTRA:                   0.432
REMARK UNBOUND:                 0.541
REMARK SMILES O=c1ccn([C@@H]2O[C@H](CO)[C@H](O)[C@H]2O)c(=O)[nH]1
REMARK SMILES IDX 6 1 13 2 11 3 8 4 7 5 5 6 3 7 4 8 2 9 17 10 1 11 15 12 16 14
REMARK SMILES IDX 14 15 12 17 9 19 10 20
REMARK H PARENT 17 13 14 16 12 18 10 21
REMARK Flexibility Score: inf
ROOT
ATOM      1  C   UNL     1      30.383  19.822  42.448  1.00  0.00     0.255 C 
ATOM      2  C   UNL     1      29.977  19.592  40.997  1.00  0.00     0.196 C 
ATOM      3  C   UNL     1      31.310  19.427  40.312  1.00  0.00     0.179 C 
ATOM      4  C   UNL     1      32.262  20.232  41.218  1.00  0.00     0.178 C 
ATOM      5  O   UNL     1      31.620  20.503  42.450  1.00  0.00    -0.347 OA
ENDROOT
BRANCH   1   6
ATOM      6  N   UNL     1      29.350  20.596  43.168  1.00  0.00    -0.271 N 
ATOM      7  C   UNL     1      28.351  21.299  45.234  1.00  0.00     0.090 A 
ATOM      8  C   UNL     1      29.296  20.554  44.535  1.00  0.00     0.099 A 
ATOM      9  C   UNL     1      27.471  22.100  44.515  1.00  0.00     0.253 A 
ATOM     10  N   UNL     1      27.551  22.145  43.160  1.00  0.00    -0.274 N 
ATOM     11  O   UNL     1      26.604  22.785  45.121  1.00  0.00    -0.269 OA
ATOM     12  C   UNL     1      28.482  21.413  42.486  1.00  0.00     0.330 A 
ATOM     13  H   UNL     1      26.892  22.757  42.626  1.00  0.00     0.175 HD
ATOM     14  O   UNL     1      28.535  21.499  41.228  1.00  0.00    -0.248 OA
ENDBRANCH   1   6
BRANCH   2  15
ATOM     15  O   UNL     1      29.139  18.473  40.836  1.00  0.00    -0.386 OA
ATOM     16  H   UNL     1      29.391  17.793  41.513  1.00  0.00     0.211 HD
ENDBRANCH   2  15
BRANCH   3  17
ATOM     17  O   UNL     1      31.271  19.907  38.992  1.00  0.00    -0.387 OA
ATOM     18  H   UNL     1      32.215  20.009  38.701  1.00  0.00     0.211 HD
ENDBRANCH   3  17
BRANCH   4  19
ATOM     19  C   UNL     1      32.754  21.554  40.607  1.00  0.00     0.191 C 
BRANCH  19  20
ATOM     20  O   UNL     1      33.599  21.306  39.516  1.00  0.00    -0.394 OA
ATOM     21  H   UNL     1      34.502  21.152  39.897  1.00  0.00     0.210 HD
ENDBRANCH  19  20
ENDBRANCH   4  19
TORSDOF 5
ENDMDL
MODEL 3
REMARK VINA RESULT:    -5.161      9.667     11.353
REMARK INTER + INTRA:          -5.675
REMARK INTER:                  -5.667
REMARK INTRA:                  -0.009
REMARK UNBOUND:                 0.541
REMARK SMILES O=c1ccn([C@@H]2O[C@H](CO)[C@H](O)[C@H]2O)c(=O)[nH]1
REMARK SMILES IDX 6 1 13 2 11 3 8 4 7 5 5 6 3 7 4 8 2 9 17 10 1 11 15 12 16 14
REMARK SMILES IDX 14 15 12 17 9 19 10 20
REMARK H PARENT 17 13 14 16 12 18 10 21
REMARK Flexibility Score: inf
ROOT
ATOM      1  C   UNL     1      24.629  16.818  34.448  1.00  0.00     0.255 C 
ATOM      2  C   UNL     1      24.570  15.307  34.263  1.00  0.00     0.196 C 
ATOM      3  C   UNL     1      25.911  14.864  34.793  1.00  0.00     0.179 C 
ATOM      4  C   UNL     1      26.795  16.106  34.563  1.00  0.00     0.178 C 
ATOM      5  O   UNL     1      25.971  17.223  34.286  1.00  0.00    -0.347 OA
ENDROOT
BRANCH   1   6
ATOM      6  N   UNL     1      23.746  17.502  33.480  1.00  0.00    -0.271 N 
ATOM      7  C   UNL     1      22.301  19.338  32.930  1.00  0.00     0.090 A 
ATOM      8  C   UNL     1      23.112  18.662  33.837  1.00  0.00     0.099 A 
ATOM      9  C   UNL     1      22.160  18.820  31.648  1.00  0.00     0.253 A 
ATOM     10  N   UNL     1      22.813  17.679  31.305  1.00  0.00    -0.274 N 
ATOM     11  O   UNL     1      21.432  19.410  30.806  1.00  0.00    -0.269 OA
ATOM     12  C   UNL     1      23.606  17.026  32.200  1.00  0.00     0.330 A 
ATOM     13  H   UNL     1      22.710  17.300  30.335  1.00  0.00     0.175 HD
ATOM     14  O   UNL     1      24.209  15.979  31.834  1.00  0.00    -0.248 OA
ENDBRANCH   1   6
BRANCH   2  15
ATOM     15  O   UNL     1      23.492  14.714  34.947  1.00  0.00    -0.386 OA
ATOM     16  H   UNL     1      23.858  14.104  35.639  1.00  0.00     0.211 HD
ENDBRANCH   2  15
BRANCH   3  17
ATOM     17  O   UNL     1      26.379  13.725  34.117  1.00  0.00    -0.387 OA
ATOM     18  H   UNL     1      25.948  13.731  33.222  1.00  0.00     0.211 HD
ENDBRANCH   3  17
BRANCH   4  19
ATOM     19  C   UNL     1      27.827  15.951  33.436  1.00  0.00     0.191 C 
BRANCH  19  20
ATOM     20  O   UNL     1      27.186  15.847  32.193  1.00  0.00    -0.394 OA
ATOM     21  H   UNL     1      26.988  14.884  32.065  1.00  0.00     0.210 HD
ENDBRANCH  19  20
ENDBRANCH   4  19
TORSDOF 5
ENDMDL
MODEL 4
REMARK VINA RESULT:    -5.045     10.660     12.024
REMARK INTER + INTRA:          -5.536
REMARK INTER:                  -4.950
REMARK INTRA:                  -0.586
REMARK UNBOUND:                 0.541
REMARK SMILES O=c1ccn([C@@H]2O[C@H](CO)[C@H](O)[C@H]2O)c(=O)[nH]1
REMARK SMILES IDX 6 1 13 2 11 3 8 4 7 5 5 6 3 7 4 8 2 9 17 10 1 11 15 12 16 14
REMARK SMILES IDX 14 15 12 17 9 19 10 20
REMARK H PARENT 17 13 14 16 12 18 10 21
REMARK Flexibility Score: inf
ROOT
ATOM      1  C   UNL     1      35.518  17.376  32.017  1.00  0.00     0.255 C 
ATOM      2  C   UNL     1      35.226  16.278  33.032  1.00  0.00     0.196 C 
ATOM      3  C   UNL     1      35.870  15.072  32.395  1.00  0.00     0.179 C 
ATOM      4  C   UNL     1      35.824  15.413  30.893  1.00  0.00     0.178 C 
ATOM      5  O   UNL     1      35.533  16.789  30.733  1.00  0.00    -0.347 OA
ENDROOT
BRANCH   1   6
ATOM      6  N   UNL     1      34.507  18.451  32.098  1.00  0.00    -0.271 N 
ATOM      7  C   UNL     1      32.207  19.135  32.137  1.00  0.00     0.090 A 
ATOM      8  C   UNL     1      33.175  18.141  32.032  1.00  0.00     0.099 A 
ATOM      9  C   UNL     1      32.619  20.449  32.325  1.00  0.00     0.253 A 
ATOM     10  N   UNL     1      33.944  20.736  32.409  1.00  0.00    -0.274 N 
ATOM     11  O   UNL     1      31.764  21.370  32.422  1.00  0.00    -0.269 OA
ATOM     12  C   UNL     1      34.884  19.755  32.306  1.00  0.00     0.330 A 
ATOM     13  H   UNL     1      34.247  21.726  32.560  1.00  0.00     0.175 HD
ATOM     14  O   UNL     1      36.104  20.063  32.408  1.00  0.00    -0.248 OA
ENDBRANCH   1   6
BRANCH   2  15
ATOM     15  O   UNL     1      35.745  16.562  34.309  1.00  0.00    -0.386 OA
ATOM     16  H   UNL     1      36.674  16.895  34.202  1.00  0.00     0.211 HD
ENDBRANCH   2  15
BRANCH   3  17
ATOM     17  O   UNL     1      35.175  13.892  32.712  1.00  0.00    -0.387 OA
ATOM     18  H   UNL     1      35.702  13.437  33.420  1.00  0.00     0.211 HD
ENDBRANCH   3  17
BRANCH   4  19
ATOM     19  C   UNL     1      34.810  14.588  30.085  1.00  0.00     0.191 C 
BRANCH  19  20
ATOM     20  O   UNL     1      35.208  13.245  30.022  1.00  0.00    -0.394 OA
ATOM     21  H   UNL     1      35.846  13.112  30.771  1.00  0.00     0.210 HD
ENDBRANCH  19  20
ENDBRANCH   4  19
TORSDOF 5
ENDMDL
MODEL 5
REMARK VINA RESULT:    -4.819     10.068     11.517
REMARK INTER + INTRA:          -5.264
REMARK INTER:                  -4.675
REMARK INTRA:                  -0.589
REMARK UNBOUND:                 0.541
REMARK SMILES O=c1ccn([C@@H]2O[C@H](CO)[C@H](O)[C@H]2O)c(=O)[nH]1
REMARK SMILES IDX 6 1 13 2 11 3 8 4 7 5 5 6 3 7 4 8 2 9 17 10 1 11 15 12 16 14
REMARK SMILES IDX 14 15 12 17 9 19 10 20
REMARK H PARENT 17 13 14 16 12 18 10 21
REMARK Flexibility Score: inf
ROOT
ATOM      1  C   UNL     1      34.073  18.390  32.039  1.00  0.00     0.255 C 
ATOM      2  C   UNL     1      33.918  16.964  32.553  1.00  0.00     0.196 C 
ATOM      3  C   UNL     1      35.012  16.235  31.813  1.00  0.00     0.179 C 
ATOM      4  C   UNL     1      35.179  17.078  30.534  1.00  0.00     0.178 C 
ATOM      5  O   UNL     1      34.529  18.323  30.704  1.00  0.00    -0.347 OA
ENDROOT
BRANCH   1   6
ATOM      6  N   UNL     1      32.792  19.123  32.125  1.00  0.00    -0.271 N 
ATOM      7  C   UNL     1      30.402  19.153  31.914  1.00  0.00     0.090 A 
ATOM      8  C   UNL     1      31.620  18.489  31.810  1.00  0.00     0.099 A 
ATOM      9  C   UNL     1      30.396  20.469  32.362  1.00  0.00     0.253 A 
ATOM     10  N   UNL     1      31.566  21.076  32.690  1.00  0.00    -0.274 N 
ATOM     11  O   UNL     1      29.307  21.095  32.466  1.00  0.00    -0.269 OA
ATOM     12  C   UNL     1      32.754  20.417  32.585  1.00  0.00     0.330 A 
ATOM     13  H   UNL     1      31.553  22.063  33.035  1.00  0.00     0.175 HD
ATOM     14  O   UNL     1      33.816  21.012  32.919  1.00  0.00    -0.248 OA
ENDBRANCH   1   6
BRANCH   2  15
ATOM     15  O   UNL     1      34.051  16.871  33.951  1.00  0.00    -0.386 OA
ATOM     16  H   UNL     1      33.732  17.721  34.353  1.00  0.00     0.211 HD
ENDBRANCH   2  15
BRANCH   3  17
ATOM     17  O   UNL     1      34.652  14.902  31.551  1.00  0.00    -0.387 OA
ATOM     18  H   UNL     1      33.668  14.846  31.674  1.00  0.00     0.211 HD
ENDBRANCH   3  17
BRANCH   4  19
ATOM     19  C   UNL     1      34.650  16.405  29.257  1.00  0.00     0.191 C 
BRANCH  19  20
ATOM     20  O   UNL     1      35.536  15.409  28.823  1.00  0.00    -0.394 OA
ATOM     21  H   UNL     1      35.856  15.696  27.929  1.00  0.00     0.210 HD
ENDBRANCH  19  20
ENDBRANCH   4  19
TORSDOF 5
ENDMDL
MODEL 6
REMARK VINA RESULT:    -4.651      9.304     11.330
REMARK INTER + INTRA:          -5.062
REMARK INTER:                  -4.423
REMARK INTRA:                  -0.639
REMARK UNBOUND:                 0.541
REMARK SMILES O=c1ccn([C@@H]2O[C@H](CO)[C@H](O)[C@H]2O)c(=O)[nH]1
REMARK SMILES IDX 6 1 13 2 11 3 8 4 7 5 5 6 3 7 4 8 2 9 17 10 1 11 15 12 16 14
REMARK SMILES IDX 14 15 12 17 9 19 10 20
REMARK H PARENT 17 13 14 16 12 18 10 21
REMARK Flexibility Score: inf
ROOT
ATOM      1  C   UNL     1      31.971  21.684  32.198  1.00  0.00     0.255 C 
ATOM      2  C   UNL     1      30.958  21.586  31.064  1.00  0.00     0.196 C 
ATOM      3  C   UNL     1      29.848  22.486  31.546  1.00  0.00     0.179 C 
ATOM      4  C   UNL     1      30.000  22.427  33.079  1.00  0.00     0.178 C 
ATOM      5  O   UNL     1      31.259  21.866  33.403  1.00  0.00    -0.347 OA
ENDROOT
BRANCH   1   6
ATOM      6  N   UNL     1      32.814  20.471  32.257  1.00  0.00    -0.271 N 
ATOM      7  C   UNL     1      33.060  18.101  31.974  1.00  0.00     0.090 A 
ATOM      8  C   UNL     1      32.275  19.250  31.954  1.00  0.00     0.099 A 
ATOM      9  C   UNL     1      34.407  18.220  32.294  1.00  0.00     0.253 A 
ATOM     10  N   UNL     1      34.930  19.442  32.572  1.00  0.00    -0.274 N 
ATOM     11  O   UNL     1      35.142  17.196  32.321  1.00  0.00    -0.269 OA
ATOM     12  C   UNL     1      34.154  20.562  32.549  1.00  0.00     0.330 A 
ATOM     13  H   UNL     1      35.947  19.525  32.803  1.00  0.00     0.175 HD
ATOM     14  O   UNL     1      34.684  21.680  32.795  1.00  0.00    -0.248 OA
ENDBRANCH   1   6
BRANCH   2  15
ATOM     15  O   UNL     1      31.486  21.989  29.824  1.00  0.00    -0.386 OA
ATOM     16  H   UNL     1      31.844  21.186  29.361  1.00  0.00     0.211 HD
ENDBRANCH   2  15
BRANCH   3  17
ATOM     17  O   UNL     1      28.593  22.037  31.101  1.00  0.00    -0.387 OA
ATOM     18  H   UNL     1      28.133  21.654  31.894  1.00  0.00     0.211 HD
ENDBRANCH   3  17
BRANCH   4  19
ATOM     19  C   UNL     1      28.897  21.634  33.796  1.00  0.00     0.191 C 
BRANCH  19  20
ATOM     20  O   UNL     1      29.008  20.266  33.508  1.00  0.00    -0.394 OA
ATOM     21  H   UNL     1      28.186  20.022  33.008  1.00  0.00     0.210 HD
ENDBRANCH  19  20
ENDBRANCH   4  19
TORSDOF 5
ENDMDL
MODEL 7
REMARK VINA RESULT:    -4.543     10.461     11.530
REMARK INTER + INTRA:          -4.931
REMARK INTER:                  -4.237
REMARK INTRA:                  -0.694
REMARK UNBOUND:                 0.541
REMARK SMILES O=c1ccn([C@@H]2O[C@H](CO)[C@H](O)[C@H]2O)c(=O)[nH]1
REMARK SMILES IDX 6 1 13 2 11 3 8 4 7 5 5 6 3 7 4 8 2 9 17 10 1 11 15 12 16 14
REMARK SMILES IDX 14 15 12 17 9 19 10 20
REMARK H PARENT 17 13 14 16 12 18 10 21
REMARK Flexibility Score: inf
ROOT
ATOM      1  C   UNL     1      33.466  19.301  30.826  1.00  0.00     0.255 C 
ATOM      2  C   UNL     1      34.502  19.787  31.832  1.00  0.00     0.196 C 
ATOM      3  C   UNL     1      35.514  18.670  31.817  1.00  0.00     0.179 C 
ATOM      4  C   UNL     1      34.670  17.449  31.401  1.00  0.00     0.178 C 
ATOM      5  O   UNL     1      33.427  17.892  30.889  1.00  0.00    -0.347 OA
ENDROOT
BRANCH   1   6
ATOM      6  N   UNL     1      32.138  19.883  31.114  1.00  0.00    -0.271 N 
ATOM      7  C   UNL     1      30.020  19.760  32.236  1.00  0.00     0.090 A 
ATOM      8  C   UNL     1      31.263  19.215  31.928  1.00  0.00     0.099 A 
ATOM      9  C   UNL     1      29.690  21.004  31.713  1.00  0.00     0.253 A 
ATOM     10  N   UNL     1      30.579  21.663  30.925  1.00  0.00    -0.274 N 
ATOM     11  O   UNL     1      28.571  21.522  31.975  1.00  0.00    -0.269 OA
ATOM     12  C   UNL     1      31.794  21.121  30.630  1.00  0.00     0.330 A 
ATOM     13  H   UNL     1      30.327  22.604  30.542  1.00  0.00     0.175 HD
ATOM     14  O   UNL     1      32.597  21.775  29.909  1.00  0.00    -0.248 OA
ENDBRANCH   1   6
BRANCH   2  15
ATOM     15  O   UNL     1      35.059  21.032  31.485  1.00  0.00    -0.386 OA
ATOM     16  H   UNL     1      35.690  21.303  32.201  1.00  0.00     0.211 HD
ENDBRANCH   2  15
BRANCH   3  17
ATOM     17  O   UNL     1      36.125  18.513  33.073  1.00  0.00    -0.387 OA
ATOM     18  H   UNL     1      36.755  17.750  32.986  1.00  0.00     0.211 HD
ENDBRANCH   3  17
BRANCH   4  19
ATOM     19  C   UNL     1      34.417  16.438  32.530  1.00  0.00     0.191 C 
BRANCH  19  20
ATOM     20  O   UNL     1      33.827  17.071  33.633  1.00  0.00    -0.394 OA
ATOM     21  H   UNL     1      34.292  17.942  33.732  1.00  0.00     0.210 HD
ENDBRANCH  19  20
ENDBRANCH   4  19
TORSDOF 5
ENDMDL
MODEL 8
REMARK VINA RESULT:    -4.410      9.319     10.789
REMARK INTER + INTRA:          -4.771
REMARK INTER:                  -4.131
REMARK INTRA:                  -0.639
REMARK UNBOUND:                 0.541
REMARK SMILES O=c1ccn([C@@H]2O[C@H](CO)[C@H](O)[C@H]2O)c(=O)[nH]1
REMARK SMILES IDX 6 1 13 2 11 3 8 4 7 5 5 6 3 7 4 8 2 9 17 10 1 11 15 12 16 14
REMARK SMILES IDX 14 15 12 17 9 19 10 20
REMARK H PARENT 17 13 14 16 12 18 10 21
REMARK Flexibility Score: inf
ROOT
ATOM      1  C   UNL     1      33.482  20.705  31.646  1.00  0.00     0.255 C 
ATOM      2  C   UNL     1      34.375  20.060  32.698  1.00  0.00     0.196 C 
ATOM      3  C   UNL     1      35.327  19.246  31.858  1.00  0.00     0.179 C 
ATOM      4  C   UNL     1      34.499  18.956  30.590  1.00  0.00     0.178 C 
ATOM      5  O   UNL     1      33.369  19.807  30.563  1.00  0.00    -0.347 OA
ENDROOT
BRANCH   1   6
ATOM      6  N   UNL     1      32.153  21.028  32.209  1.00  0.00    -0.271 N 
ATOM      7  C   UNL     1      29.868  20.415  32.612  1.00  0.00     0.090 A 
ATOM      8  C   UNL     1      31.118  20.144  32.063  1.00  0.00     0.099 A 
ATOM      9  C   UNL     1      29.696  21.596  33.325  1.00  0.00     0.253 A 
ATOM     10  N   UNL     1      30.739  22.452  33.477  1.00  0.00    -0.274 N 
ATOM     11  O   UNL     1      28.575  21.868  33.832  1.00  0.00    -0.269 OA
ATOM     12  C   UNL     1      31.960  22.176  32.937  1.00  0.00     0.330 A 
ATOM     13  H   UNL     1      30.605  23.334  34.022  1.00  0.00     0.175 HD
ATOM     14  O   UNL     1      32.908  22.990  33.118  1.00  0.00    -0.248 OA
ENDBRANCH   1   6
BRANCH   2  15
ATOM     15  O   UNL     1      35.035  21.004  33.507  1.00  0.00    -0.386 OA
ATOM     16  H   UNL     1      34.350  21.578  33.940  1.00  0.00     0.211 HD
ENDBRANCH   2  15
BRANCH   3  17
ATOM     17  O   UNL     1      35.733  18.080  32.528  1.00  0.00    -0.387 OA
ATOM     18  H   UNL     1      35.313  18.111  33.427  1.00  0.00     0.211 HD
ENDBRANCH   3  17
BRANCH   4  19
ATOM     19  C   UNL     1      34.033  17.498  30.456  1.00  0.00     0.191 C 
BRANCH  19  20
ATOM     20  O   UNL     1      35.093  16.679  30.041  1.00  0.00    -0.394 OA
ATOM     21  H   UNL     1      34.791  16.242  29.203  1.00  0.00     0.210 HD
ENDBRANCH  19  20
ENDBRANCH   4  19
TORSDOF 5
ENDMDL
