MODEL 1
REMARK VINA RESULT:    -6.571      0.000      0.000
REMARK INTER + INTRA:          -7.220
REMARK INTER:                  -6.955
REMARK INTRA:                  -0.265
REMARK UNBOUND:                -0.265
REMARK SMILES CC1=C[C@@H]2C(=C(C)CC[C@@H]2C(C)C)CC1
REMARK SMILES IDX 1 1 2 2 3 3 4 4 10 5 9 6 8 7 6 8 5 9 14 10 15 11 7 12 11 13
REMARK SMILES IDX 12 14 13 15
REMARK H PARENT
REMARK Flexibility Score: inf
ROOT
ATOM      1  C   UNL     1      10.305  32.409  26.444  1.00  0.00     0.039 C 
ATOM      2  C   UNL     1      10.231  33.088  25.103  1.00  0.00    -0.076 C 
ATOM      3  C   UNL     1      11.164  32.791  24.164  1.00  0.00    -0.020 C 
ATOM      4  C   UNL     1      11.206  33.484  22.810  1.00  0.00     0.041 C 
ATOM      5  C   UNL     1      11.900  32.663  21.679  1.00  0.00     0.003 C 
ATOM      6  C   UNL     1      10.931  31.565  21.206  1.00  0.00     0.009 C 
ATOM      7  C   UNL     1       9.674  32.203  20.610  1.00  0.00     0.031 C 
ATOM      8  C   UNL     1       9.051  33.244  21.516  1.00  0.00    -0.073 C 
ATOM      9  C   UNL     1       9.790  33.901  22.455  1.00  0.00    -0.064 C 
ATOM     10  C   UNL     1       9.170  34.789  23.507  1.00  0.00     0.036 C 
ATOM     11  C   UNL     1       9.032  33.981  24.805  1.00  0.00     0.035 C 
ATOM     12  C   UNL     1       7.598  33.585  21.278  1.00  0.00     0.039 C 
ENDROOT
BRANCH   5  13
ATOM     13  C   UNL     1      13.317  32.101  22.046  1.00  0.00    -0.013 C 
ATOM     14  C   UNL     1      13.616  30.782  21.306  1.00  0.00     0.007 C 
ATOM     15  C   UNL     1      14.437  33.107  21.716  1.00  0.00     0.007 C 
ENDBRANCH   5  13
TORSDOF 1
ENDMDL
MODEL 2
REMARK VINA RESULT:    -6.315      1.429      1.617
REMARK INTER + INTRA:          -6.949
REMARK INTER:                  -6.706
REMARK INTRA:                  -0.243
REMARK UNBOUND:                -0.265
REMARK SMILES CC1=C[C@@H]2C(=C(C)CC[C@@H]2C(C)C)CC1
REMARK SMILES IDX 1 1 2 2 3 3 4 4 10 5 9 6 8 7 6 8 5 9 14 10 15 11 7 12 11 13
REMARK SMILES IDX 12 14 13 15
REMARK H PARENT
REMARK Flexibility Score: inf
ROOT
ATOM      1  C   UNL     1      10.313  32.739  26.513  1.00  0.00     0.039 C 
ATOM      2  C   UNL     1       9.681  32.893  25.157  1.00  0.00    -0.076 C 
ATOM      3  C   UNL     1      10.482  32.968  24.064  1.00  0.00    -0.020 C 
ATOM      4  C   UNL     1       9.930  33.197  22.664  1.00  0.00     0.041 C 
ATOM      5  C   UNL     1      10.843  32.677  21.511  1.00  0.00     0.003 C 
ATOM      6  C   UNL     1      10.705  31.146  21.429  1.00  0.00     0.009 C 
ATOM      7  C   UNL     1       9.263  30.772  21.082  1.00  0.00     0.031 C 
ATOM      8  C   UNL     1       8.243  31.448  21.974  1.00  0.00    -0.073 C 
ATOM      9  C   UNL     1       8.527  32.617  22.615  1.00  0.00    -0.064 C 
ATOM     10  C   UNL     1       7.621  33.212  23.666  1.00  0.00     0.036 C 
ATOM     11  C   UNL     1       8.162  32.824  25.049  1.00  0.00     0.035 C 
ATOM     12  C   UNL     1       6.873  30.818  22.056  1.00  0.00     0.039 C 
ENDROOT
BRANCH   5  13
ATOM     13  C   UNL     1      12.337  33.147  21.589  1.00  0.00    -0.013 C 
ATOM     14  C   UNL     1      13.275  31.995  22.002  1.00  0.00     0.007 C 
ATOM     15  C   UNL     1      12.832  33.716  20.245  1.00  0.00     0.007 C 
ENDBRANCH   5  13
TORSDOF 1
ENDMDL
MODEL 3
REMARK VINA RESULT:    -6.274      1.375      4.265
REMARK INTER + INTRA:          -6.905
REMARK INTER:                  -6.731
REMARK INTRA:                  -0.175
REMARK UNBOUND:                -0.265
REMARK SMILES CC1=C[C@@H]2C(=C(C)CC[C@@H]2C(C)C)CC1
REMARK SMILES IDX 1 1 2 2 3 3 4 4 10 5 9 6 8 7 6 8 5 9 14 10 15 11 7 12 11 13
REMARK SMILES IDX 12 14 13 15
REMARK H PARENT
REMARK Flexibility Score: inf
ROOT
ATOM      1  C   UNL     1      14.413  33.452  21.731  1.00  0.00     0.039 C 
ATOM      2  C   UNL     1      13.002  33.053  21.393  1.00  0.00    -0.076 C 
ATOM      3  C   UNL     1      12.096  32.931  22.395  1.00  0.00    -0.020 C 
ATOM      4  C   UNL     1      10.669  32.461  22.151  1.00  0.00     0.041 C 
ATOM      5  C   UNL     1       9.636  32.930  23.222  1.00  0.00     0.003 C 
ATOM      6  C   UNL     1       9.305  34.411  22.968  1.00  0.00     0.009 C 
ATOM      7  C   UNL     1       8.650  34.569  21.594  1.00  0.00     0.031 C 
ATOM      8  C   UNL     1       9.433  33.900  20.483  1.00  0.00    -0.073 C 
ATOM      9  C   UNL     1      10.281  32.863  20.739  1.00  0.00    -0.064 C 
ATOM     10  C   UNL     1      11.227  32.308  19.701  1.00  0.00     0.036 C 
ATOM     11  C   UNL     1      12.612  32.931  19.924  1.00  0.00     0.035 C 
ATOM     12  C   UNL     1       9.170  34.373  19.073  1.00  0.00     0.039 C 
ENDROOT
BRANCH   5  13
ATOM     13  C   UNL     1      10.053  32.650  24.708  1.00  0.00    -0.013 C 
ATOM     14  C   UNL     1      10.646  33.905  25.379  1.00  0.00     0.007 C 
ATOM     15  C   UNL     1       8.863  32.163  25.557  1.00  0.00     0.007 C 
ENDBRANCH   5  13
TORSDOF 1
ENDMDL
MODEL 4
REMARK VINA RESULT:    -6.232      1.260      3.608
REMARK INTER + INTRA:          -6.861
REMARK INTER:                  -6.586
REMARK INTRA:                  -0.275
REMARK UNBOUND:                -0.265
REMARK SMILES CC1=C[C@@H]2C(=C(C)CC[C@@H]2C(C)C)CC1
REMARK SMILES IDX 1 1 2 2 3 3 4 4 10 5 9 6 8 7 6 8 5 9 14 10 15 11 7 12 11 13
REMARK SMILES IDX 12 14 13 15
REMARK H PARENT
REMARK Flexibility Score: inf
ROOT
ATOM      1  C   UNL     1       8.507  34.829  19.348  1.00  0.00     0.039 C 
ATOM      2  C   UNL     1       8.566  33.824  20.467  1.00  0.00    -0.076 C 
ATOM      3  C   UNL     1       9.769  33.308  20.823  1.00  0.00    -0.020 C 
ATOM      4  C   UNL     1       9.910  32.234  21.893  1.00  0.00     0.041 C 
ATOM      5  C   UNL     1      11.307  32.185  22.585  1.00  0.00     0.003 C 
ATOM      6  C   UNL     1      11.397  33.347  23.590  1.00  0.00     0.009 C 
ATOM      7  C   UNL     1      10.335  33.177  24.678  1.00  0.00     0.031 C 
ATOM      8  C   UNL     1       8.948  32.935  24.120  1.00  0.00    -0.073 C 
ATOM      9  C   UNL     1       8.767  32.404  22.877  1.00  0.00    -0.064 C 
ATOM     10  C   UNL     1       7.415  32.337  22.208  1.00  0.00     0.036 C 
ATOM     11  C   UNL     1       7.290  33.527  21.247  1.00  0.00     0.035 C 
ATOM     12  C   UNL     1       7.778  33.224  25.031  1.00  0.00     0.039 C 
ENDROOT
BRANCH   5  13
ATOM     13  C   UNL     1      12.529  32.138  21.604  1.00  0.00    -0.013 C 
ATOM     14  C   UNL     1      13.423  33.386  21.747  1.00  0.00     0.007 C 
ATOM     15  C   UNL     1      13.402  30.888  21.832  1.00  0.00     0.007 C 
ENDBRANCH   5  13
TORSDOF 1
ENDMDL
MODEL 5
REMARK VINA RESULT:    -6.135      1.757      4.163
REMARK INTER + INTRA:          -6.758
REMARK INTER:                  -6.525
REMARK INTRA:                  -0.233
REMARK UNBOUND:                -0.265
REMARK SMILES CC1=C[C@@H]2C(=C(C)CC[C@@H]2C(C)C)CC1
REMARK SMILES IDX 1 1 2 2 3 3 4 4 10 5 9 6 8 7 6 8 5 9 14 10 15 11 7 12 11 13
REMARK SMILES IDX 12 14 13 15
REMARK H PARENT
REMARK Flexibility Score: inf
ROOT
ATOM      1  C   UNL     1      12.697  33.122  22.006  1.00  0.00     0.039 C 
ATOM      2  C   UNL     1      11.284  33.437  22.416  1.00  0.00    -0.076 C 
ATOM      3  C   UNL     1      10.331  33.546  21.457  1.00  0.00    -0.020 C 
ATOM      4  C   UNL     1       8.894  33.933  21.776  1.00  0.00     0.041 C 
ATOM      5  C   UNL     1       7.841  33.449  20.732  1.00  0.00     0.003 C 
ATOM      6  C   UNL     1       7.595  31.945  20.945  1.00  0.00     0.009 C 
ATOM      7  C   UNL     1       7.008  31.707  22.338  1.00  0.00     0.031 C 
ATOM      8  C   UNL     1       7.803  32.376  23.439  1.00  0.00    -0.073 C 
ATOM      9  C   UNL     1       8.587  33.463  23.187  1.00  0.00    -0.064 C 
ATOM     10  C   UNL     1       9.547  34.031  24.205  1.00  0.00     0.036 C 
ATOM     11  C   UNL     1      10.951  33.488  23.903  1.00  0.00     0.035 C 
ATOM     12  C   UNL     1       7.625  31.843  24.841  1.00  0.00     0.039 C 
ENDROOT
BRANCH   5  13
ATOM     13  C   UNL     1       8.180  33.800  19.241  1.00  0.00    -0.013 C 
ATOM     14  C   UNL     1       8.648  32.559  18.456  1.00  0.00     0.007 C 
ATOM     15  C   UNL     1       6.972  34.411  18.506  1.00  0.00     0.007 C 
ENDBRANCH   5  13
TORSDOF 1
ENDMDL
MODEL 6
REMARK VINA RESULT:    -6.117      1.308      4.797
REMARK INTER + INTRA:          -6.739
REMARK INTER:                  -6.475
REMARK INTRA:                  -0.264
REMARK UNBOUND:                -0.265
REMARK SMILES CC1=C[C@@H]2C(=C(C)CC[C@@H]2C(C)C)CC1
REMARK SMILES IDX 1 1 2 2 3 3 4 4 10 5 9 6 8 7 6 8 5 9 14 10 15 11 7 12 11 13
REMARK SMILES IDX 12 14 13 15
REMARK H PARENT
REMARK Flexibility Score: inf
ROOT
ATOM      1  C   UNL     1      11.449  29.806  20.773  1.00  0.00     0.039 C 
ATOM      2  C   UNL     1      11.206  31.174  21.348  1.00  0.00    -0.076 C 
ATOM      3  C   UNL     1      10.045  31.813  21.057  1.00  0.00    -0.020 C 
ATOM      4  C   UNL     1       9.750  33.227  21.537  1.00  0.00     0.041 C 
ATOM      5  C   UNL     1       8.233  33.575  21.645  1.00  0.00     0.003 C 
ATOM      6  C   UNL     1       7.667  32.913  22.913  1.00  0.00     0.009 C 
ATOM      7  C   UNL     1       8.362  33.484  24.151  1.00  0.00     0.031 C 
ATOM      8  C   UNL     1       9.872  33.457  24.049  1.00  0.00    -0.073 C 
ATOM      9  C   UNL     1      10.501  33.443  22.839  1.00  0.00    -0.064 C 
ATOM     10  C   UNL     1      11.986  33.212  22.694  1.00  0.00     0.036 C 
ATOM     11  C   UNL     1      12.215  31.734  22.345  1.00  0.00     0.035 C 
ATOM     12  C   UNL     1      10.653  33.534  25.340  1.00  0.00     0.039 C 
ENDROOT
BRANCH   5  13
ATOM     13  C   UNL     1       7.389  33.249  20.364  1.00  0.00    -0.013 C 
ATOM     14  C   UNL     1       5.875  33.328  20.645  1.00  0.00     0.007 C 
ATOM     15  C   UNL     1       7.716  34.205  19.200  1.00  0.00     0.007 C 
ENDBRANCH   5  13
TORSDOF 1
ENDMDL
MODEL 7
REMARK VINA RESULT:    -5.995      1.480      5.375
REMARK INTER + INTRA:          -6.611
REMARK INTER:                  -6.342
REMARK INTRA:                  -0.269
REMARK UNBOUND:                -0.265
REMARK SMILES CC1=C[C@@H]2C(=C(C)CC[C@@H]2C(C)C)CC1
REMARK SMILES IDX 1 1 2 2 3 3 4 4 10 5 9 6 8 7 6 8 5 9 14 10 15 11 7 12 11 13
REMARK SMILES IDX 12 14 13 15
REMARK H PARENT
REMARK Flexibility Score: inf
ROOT
ATOM      1  C   UNL     1      15.005  34.563  19.365  1.00  0.00     0.039 C 
ATOM      2  C   UNL     1      14.618  33.528  20.386  1.00  0.00    -0.076 C 
ATOM      3  C   UNL     1      13.361  33.547  20.896  1.00  0.00    -0.020 C 
ATOM      4  C   UNL     1      12.908  32.584  21.984  1.00  0.00     0.041 C 
ATOM      5  C   UNL     1      11.370  32.329  22.031  1.00  0.00     0.003 C 
ATOM      6  C   UNL     1      10.996  31.375  20.883  1.00  0.00     0.009 C 
ATOM      7  C   UNL     1      11.694  30.028  21.079  1.00  0.00     0.031 C 
ATOM      8  C   UNL     1      13.182  30.161  21.327  1.00  0.00    -0.073 C 
ATOM      9  C   UNL     1      13.716  31.306  21.840  1.00  0.00    -0.064 C 
ATOM     10  C   UNL     1      15.204  31.553  21.910  1.00  0.00     0.036 C 
ATOM     11  C   UNL     1      15.609  32.415  20.707  1.00  0.00     0.035 C 
ATOM     12  C   UNL     1      14.037  28.944  21.062  1.00  0.00     0.039 C 
ENDROOT
BRANCH   5  13
ATOM     13  C   UNL     1      10.487  33.625  22.051  1.00  0.00    -0.013 C 
ATOM     14  C   UNL     1       9.290  33.514  21.087  1.00  0.00     0.007 C 
ATOM     15  C   UNL     1       9.947  33.930  23.462  1.00  0.00     0.007 C 
ENDBRANCH   5  13
TORSDOF 1
ENDMDL
MODEL 8
REMARK VINA RESULT:    -5.806      1.500      4.438
REMARK INTER + INTRA:          -6.410
REMARK INTER:                  -6.223
REMARK INTRA:                  -0.187
REMARK UNBOUND:                -0.265
REMARK SMILES CC1=C[C@@H]2C(=C(C)CC[C@@H]2C(C)C)CC1
REMARK SMILES IDX 1 1 2 2 3 3 4 4 10 5 9 6 8 7 6 8 5 9 14 10 15 11 7 12 11 13
REMARK SMILES IDX 12 14 13 15
REMARK H PARENT
REMARK Flexibility Score: inf
ROOT
ATOM      1  C   UNL     1       7.376  30.640  20.312  1.00  0.00     0.039 C 
ATOM      2  C   UNL     1       8.226  31.854  20.571  1.00  0.00    -0.076 C 
ATOM      3  C   UNL     1       8.664  32.092  21.833  1.00  0.00    -0.020 C 
ATOM      4  C   UNL     1       9.467  33.333  22.197  1.00  0.00     0.041 C 
ATOM      5  C   UNL     1      10.370  33.178  23.459  1.00  0.00     0.003 C 
ATOM      6  C   UNL     1      11.613  32.357  23.075  1.00  0.00     0.009 C 
ATOM      7  C   UNL     1      12.424  33.107  22.016  1.00  0.00     0.031 C 
ATOM      8  C   UNL     1      11.585  33.565  20.841  1.00  0.00    -0.073 C 
ATOM      9  C   UNL     1      10.242  33.765  20.964  1.00  0.00    -0.064 C 
ATOM     10  C   UNL     1       9.343  34.021  19.778  1.00  0.00     0.036 C 
ATOM     11  C   UNL     1       8.674  32.697  19.382  1.00  0.00     0.035 C 
ATOM     12  C   UNL     1      12.312  33.874  19.553  1.00  0.00     0.039 C 
ENDROOT
BRANCH   5  13
ATOM     13  C   UNL     1       9.640  32.612  24.727  1.00  0.00    -0.013 C 
ATOM     14  C   UNL     1      10.567  32.599  25.959  1.00  0.00     0.007 C 
ATOM     15  C   UNL     1       8.380  33.428  25.077  1.00  0.00     0.007 C 
ENDBRANCH   5  13
TORSDOF 1
ENDMDL
MODEL 9
REMARK VINA RESULT:    -5.804      1.762      4.545
REMARK INTER + INTRA:          -6.408
REMARK INTER:                  -6.155
REMARK INTRA:                  -0.253
REMARK UNBOUND:                -0.265
REMARK SMILES CC1=C[C@@H]2C(=C(C)CC[C@@H]2C(C)C)CC1
REMARK SMILES IDX 1 1 2 2 3 3 4 4 10 5 9 6 8 7 6 8 5 9 14 10 15 11 7 12 11 13
REMARK SMILES IDX 12 14 13 15
REMARK H PARENT
REMARK Flexibility Score: inf
ROOT
ATOM      1  C   UNL     1       9.320  34.711  24.608  1.00  0.00     0.039 C 
ATOM      2  C   UNL     1       9.800  33.891  23.442  1.00  0.00    -0.076 C 
ATOM      3  C   UNL     1       9.026  33.814  22.330  1.00  0.00    -0.020 C 
ATOM      4  C   UNL     1       9.400  32.949  21.135  1.00  0.00     0.041 C 
ATOM      5  C   UNL     1       8.778  33.407  19.779  1.00  0.00     0.003 C 
ATOM      6  C   UNL     1       9.558  34.633  19.272  1.00  0.00     0.009 C 
ATOM      7  C   UNL     1      11.014  34.248  19.006  1.00  0.00     0.031 C 
ATOM      8  C   UNL     1      11.661  33.530  20.171  1.00  0.00    -0.073 C 
ATOM      9  C   UNL     1      10.914  32.849  21.087  1.00  0.00    -0.064 C 
ATOM     10  C   UNL     1      11.496  32.298  22.367  1.00  0.00     0.036 C 
ATOM     11  C   UNL     1      11.199  33.289  23.501  1.00  0.00     0.035 C 
ATOM     12  C   UNL     1      13.171  33.528  20.229  1.00  0.00     0.039 C 
ENDROOT
BRANCH   5  13
ATOM     13  C   UNL     1       7.228  33.648  19.812  1.00  0.00    -0.013 C 
ATOM     14  C   UNL     1       6.714  34.229  18.480  1.00  0.00     0.007 C 
ATOM     15  C   UNL     1       6.451  32.350  20.107  1.00  0.00     0.007 C 
ENDBRANCH   5  13
TORSDOF 1
ENDMDL
