MODEL 1
REMARK VINA RESULT:    -3.753      0.000      0.000
REMARK INTER + INTRA:          -4.321
REMARK INTER:                  -4.082
REMARK INTRA:                  -0.239
REMARK UNBOUND:                -0.239
REMARK SMILES O=C([O-])c1ccccc1O
REMARK SMILES IDX 4 1 9 2 5 3 8 4 6 5 7 6 2 7 1 8 3 9 10 10
REMARK H PARENT 10 11
REMARK Flexibility Score: inf
ROOT
ATOM      1  C   UNL     1     110.259 105.057  94.153  1.00  0.00     0.039 A 
ATOM      2  C   UNL     1     110.541 106.272  94.831  1.00  0.00     0.124 A 
ATOM      3  C   UNL     1     110.886 103.875  94.589  1.00  0.00     0.014 A 
ATOM      4  C   UNL     1     111.381 106.261  95.953  1.00  0.00     0.047 A 
ATOM      5  C   UNL     1     111.738 103.884  95.696  1.00  0.00     0.001 A 
ATOM      6  C   UNL     1     111.977 105.074  96.383  1.00  0.00     0.004 A 
ENDROOT
BRANCH   1   7
ATOM      7  C   UNL     1     109.308 104.971  93.023  1.00  0.00     0.075 C 
ATOM      8  O   UNL     1     108.396 104.104  93.009  1.00  0.00    -0.545 OA
ATOM      9  O   UNL     1     109.458 105.809  91.924  1.00  0.00    -0.545 OA
ENDBRANCH   1   7
BRANCH   2  10
ATOM     10  O   UNL     1     110.040 107.505  94.410  1.00  0.00    -0.507 OA
ATOM     11  H   UNL     1     110.620 108.249  94.044  1.00  0.00     0.293 HD
ENDBRANCH   2  10
TORSDOF 2
ENDMDL
MODEL 2
REMARK VINA RESULT:    -3.593      1.733      1.907
REMARK INTER + INTRA:          -4.148
REMARK INTER:                  -3.900
REMARK INTRA:                  -0.248
REMARK UNBOUND:                -0.239
REMARK SMILES O=C([O-])c1ccccc1O
REMARK SMILES IDX 4 1 9 2 5 3 8 4 6 5 7 6 2 7 1 8 3 9 10 10
REMARK H PARENT 10 11
REMARK Flexibility Score: inf
ROOT
ATOM      1  C   UNL     1     110.994 104.531  93.529  1.00  0.00     0.039 A 
ATOM      2  C   UNL     1     112.248 105.146  93.270  1.00  0.00     0.124 A 
ATOM      3  C   UNL     1     110.798 103.881  94.761  1.00  0.00     0.014 A 
ATOM      4  C   UNL     1     113.236 105.148  94.263  1.00  0.00     0.047 A 
ATOM      5  C   UNL     1     111.801 103.875  95.733  1.00  0.00     0.001 A 
ATOM      6  C   UNL     1     113.015 104.516  95.488  1.00  0.00     0.004 A 
ENDROOT
BRANCH   1   7
ATOM      7  C   UNL     1     109.869 104.571  92.568  1.00  0.00     0.075 C 
ATOM      8  O   UNL     1     108.676 104.593  92.971  1.00  0.00    -0.545 OA
ATOM      9  O   UNL     1     110.118 104.512  91.202  1.00  0.00    -0.545 OA
ENDBRANCH   1   7
BRANCH   2  10
ATOM     10  O   UNL     1     112.563 105.729  92.041  1.00  0.00    -0.507 OA
ATOM     11  H   UNL     1     113.479 106.092  91.813  1.00  0.00     0.293 HD
ENDBRANCH   2  10
TORSDOF 2
ENDMDL
MODEL 3
REMARK VINA RESULT:    -3.589      1.933      3.351
REMARK INTER + INTRA:          -4.143
REMARK INTER:                  -3.900
REMARK INTRA:                  -0.243
REMARK UNBOUND:                -0.239
REMARK SMILES O=C([O-])c1ccccc1O
REMARK SMILES IDX 4 1 9 2 5 3 8 4 6 5 7 6 2 7 1 8 3 9 10 10
REMARK H PARENT 10 11
REMARK Flexibility Score: inf
ROOT
ATOM      1  C   UNL     1     110.647 105.860  96.462  1.00  0.00     0.039 A 
ATOM      2  C   UNL     1     110.694 106.221  95.090  1.00  0.00     0.124 A 
ATOM      3  C   UNL     1     111.323 104.700  96.882  1.00  0.00     0.014 A 
ATOM      4  C   UNL     1     111.459 105.458  94.198  1.00  0.00     0.047 A 
ATOM      5  C   UNL     1     112.064 103.937  95.976  1.00  0.00     0.001 A 
ATOM      6  C   UNL     1     112.140 104.321  94.638  1.00  0.00     0.004 A 
ENDROOT
BRANCH   1   7
ATOM      7  C   UNL     1     109.942 106.670  97.481  1.00  0.00     0.075 C 
ATOM      8  O   UNL     1     109.441 106.130  98.501  1.00  0.00    -0.545 OA
ATOM      9  O   UNL     1     109.765 108.034  97.284  1.00  0.00    -0.545 OA
ENDBRANCH   1   7
BRANCH   2  10
ATOM     10  O   UNL     1     109.976 107.299  94.568  1.00  0.00    -0.507 OA
ATOM     11  H   UNL     1     110.019 108.236  94.947  1.00  0.00     0.293 HD
ENDBRANCH   2  10
TORSDOF 2
ENDMDL
MODEL 4
REMARK VINA RESULT:    -3.582      9.460     10.681
REMARK INTER + INTRA:          -4.135
REMARK INTER:                  -3.886
REMARK INTRA:                  -0.249
REMARK UNBOUND:                -0.239
REMARK SMILES O=C([O-])c1ccccc1O
REMARK SMILES IDX 4 1 9 2 5 3 8 4 6 5 7 6 2 7 1 8 3 9 10 10
REMARK H PARENT 10 11
REMARK Flexibility Score: inf
ROOT
ATOM      1  C   UNL     1     108.894 106.583 104.337  1.00  0.00     0.039 A 
ATOM      2  C   UNL     1     107.867 106.816 105.290  1.00  0.00     0.124 A 
ATOM      3  C   UNL     1     109.283 105.258 104.069  1.00  0.00     0.014 A 
ATOM      4  C   UNL     1     107.221 105.729 105.893  1.00  0.00     0.047 A 
ATOM      5  C   UNL     1     108.643 104.185 104.694  1.00  0.00     0.001 A 
ATOM      6  C   UNL     1     107.607 104.420 105.597  1.00  0.00     0.004 A 
ENDROOT
BRANCH   1   7
ATOM      7  C   UNL     1     109.555 107.675 103.588  1.00  0.00     0.075 C 
ATOM      8  O   UNL     1     109.929 108.725 104.172  1.00  0.00    -0.545 OA
ATOM      9  O   UNL     1     109.708 107.578 102.210  1.00  0.00    -0.545 OA
ENDBRANCH   1   7
BRANCH   2  10
ATOM     10  O   UNL     1     107.484 108.098 105.688  1.00  0.00    -0.507 OA
ATOM     11  H   UNL     1     106.718 108.609 105.270  1.00  0.00     0.293 HD
ENDBRANCH   2  10
TORSDOF 2
ENDMDL
MODEL 5
REMARK VINA RESULT:    -3.485      9.313     10.405
REMARK INTER + INTRA:          -4.029
REMARK INTER:                  -3.781
REMARK INTRA:                  -0.248
REMARK UNBOUND:                -0.239
REMARK SMILES O=C([O-])c1ccccc1O
REMARK SMILES IDX 4 1 9 2 5 3 8 4 6 5 7 6 2 7 1 8 3 9 10 10
REMARK H PARENT 10 11
REMARK Flexibility Score: inf
ROOT
ATOM      1  C   UNL     1     109.055 107.187 104.008  1.00  0.00     0.039 A 
ATOM      2  C   UNL     1     108.190 106.790 105.062  1.00  0.00     0.124 A 
ATOM      3  C   UNL     1     109.770 106.199 103.307  1.00  0.00     0.014 A 
ATOM      4  C   UNL     1     108.017 105.428 105.339  1.00  0.00     0.047 A 
ATOM      5  C   UNL     1     109.602 104.846 103.610  1.00  0.00     0.001 A 
ATOM      6  C   UNL     1     108.719 104.460 104.618  1.00  0.00     0.004 A 
ENDROOT
BRANCH   1   7
ATOM      7  C   UNL     1     109.216 108.599 103.592  1.00  0.00     0.075 C 
ATOM      8  O   UNL     1     108.254 109.407 103.661  1.00  0.00    -0.545 OA
ATOM      9  O   UNL     1     110.421 109.030 103.051  1.00  0.00    -0.545 OA
ENDBRANCH   1   7
BRANCH   2  10
ATOM     10  O   UNL     1     107.517 107.707 105.872  1.00  0.00    -0.507 OA
ATOM     11  H   UNL     1     107.984 108.414 106.423  1.00  0.00     0.293 HD
ENDBRANCH   2  10
TORSDOF 2
ENDMDL
MODEL 6
REMARK VINA RESULT:    -3.426      1.592      2.840
REMARK INTER + INTRA:          -3.966
REMARK INTER:                  -3.721
REMARK INTRA:                  -0.245
REMARK UNBOUND:                -0.239
REMARK SMILES O=C([O-])c1ccccc1O
REMARK SMILES IDX 4 1 9 2 5 3 8 4 6 5 7 6 2 7 1 8 3 9 10 10
REMARK H PARENT 10 11
REMARK Flexibility Score: inf
ROOT
ATOM      1  C   UNL     1     110.586 106.273  93.222  1.00  0.00     0.039 A 
ATOM      2  C   UNL     1     109.610 105.241  93.237  1.00  0.00     0.124 A 
ATOM      3  C   UNL     1     111.778 106.092  93.948  1.00  0.00     0.014 A 
ATOM      4  C   UNL     1     109.878 104.045  93.916  1.00  0.00     0.047 A 
ATOM      5  C   UNL     1     112.020 104.901  94.637  1.00  0.00     0.001 A 
ATOM      6  C   UNL     1     111.076 103.875  94.613  1.00  0.00     0.004 A 
ENDROOT
BRANCH   1   7
ATOM      7  C   UNL     1     110.418 107.524  92.449  1.00  0.00     0.075 C 
ATOM      8  O   UNL     1     110.932 108.602  92.845  1.00  0.00    -0.545 OA
ATOM      9  O   UNL     1     109.626 107.534  91.307  1.00  0.00    -0.545 OA
ENDBRANCH   1   7
BRANCH   2  10
ATOM     10  O   UNL     1     108.362 105.374  92.627  1.00  0.00    -0.507 OA
ATOM     11  H   UNL     1     108.239 105.572  91.643  1.00  0.00     0.293 HD
ENDBRANCH   2  10
TORSDOF 2
ENDMDL
MODEL 7
REMARK VINA RESULT:    -3.388      9.199     10.487
REMARK INTER + INTRA:          -3.924
REMARK INTER:                  -3.671
REMARK INTRA:                  -0.253
REMARK UNBOUND:                -0.239
REMARK SMILES O=C([O-])c1ccccc1O
REMARK SMILES IDX 4 1 9 2 5 3 8 4 6 5 7 6 2 7 1 8 3 9 10 10
REMARK H PARENT 10 11
REMARK Flexibility Score: inf
ROOT
ATOM      1  C   UNL     1     109.352 106.166 104.147  1.00  0.00     0.039 A 
ATOM      2  C   UNL     1     109.177 104.758 104.186  1.00  0.00     0.124 A 
ATOM      3  C   UNL     1     108.451 106.983 104.855  1.00  0.00     0.014 A 
ATOM      4  C   UNL     1     108.157 104.209 104.975  1.00  0.00     0.047 A 
ATOM      5  C   UNL     1     107.427 106.420 105.620  1.00  0.00     0.001 A 
ATOM      6  C   UNL     1     107.286 105.035 105.688  1.00  0.00     0.004 A 
ENDROOT
BRANCH   1   7
ATOM      7  C   UNL     1     110.463 106.816 103.416  1.00  0.00     0.075 C 
ATOM      8  O   UNL     1     110.267 107.855 102.733  1.00  0.00    -0.545 OA
ATOM      9  O   UNL     1     111.728 106.240 103.420  1.00  0.00    -0.545 OA
ENDBRANCH   1   7
BRANCH   2  10
ATOM     10  O   UNL     1     109.962 103.878 103.439  1.00  0.00    -0.507 OA
ATOM     11  H   UNL     1     110.318 103.003 103.799  1.00  0.00     0.293 HD
ENDBRANCH   2  10
TORSDOF 2
ENDMDL
MODEL 8
REMARK VINA RESULT:    -3.334     18.389     19.676
REMARK INTER + INTRA:          -3.865
REMARK INTER:                  -3.656
REMARK INTRA:                  -0.209
REMARK UNBOUND:                -0.239
REMARK SMILES O=C([O-])c1ccccc1O
REMARK SMILES IDX 4 1 9 2 5 3 8 4 6 5 7 6 2 7 1 8 3 9 10 10
REMARK H PARENT 10 11
REMARK Flexibility Score: inf
ROOT
ATOM      1  C   UNL     1     118.124 121.085 102.367  1.00  0.00     0.039 A 
ATOM      2  C   UNL     1     117.687 122.098 103.261  1.00  0.00     0.124 A 
ATOM      3  C   UNL     1     117.220 120.076 101.988  1.00  0.00     0.014 A 
ATOM      4  C   UNL     1     116.355 122.110 103.695  1.00  0.00     0.047 A 
ATOM      5  C   UNL     1     115.900 120.092 102.447  1.00  0.00     0.001 A 
ATOM      6  C   UNL     1     115.465 121.113 103.291  1.00  0.00     0.004 A 
ENDROOT
BRANCH   1   7
ATOM      7  C   UNL     1     119.486 121.059 101.789  1.00  0.00     0.075 C 
ATOM      8  O   UNL     1     120.498 120.922 102.525  1.00  0.00    -0.545 OA
ATOM      9  O   UNL     1     119.667 121.258 100.426  1.00  0.00    -0.545 OA
ENDBRANCH   1   7
BRANCH   2  10
ATOM     10  O   UNL     1     118.541 123.081 103.764  1.00  0.00    -0.507 OA
ATOM     11  H   UNL     1     119.516 122.919 103.977  1.00  0.00     0.293 HD
ENDBRANCH   2  10
TORSDOF 2
ENDMDL
MODEL 9
REMARK VINA RESULT:    -3.286     19.338     20.808
REMARK INTER + INTRA:          -3.814
REMARK INTER:                  -3.563
REMARK INTRA:                  -0.250
REMARK UNBOUND:                -0.239
REMARK SMILES O=C([O-])c1ccccc1O
REMARK SMILES IDX 4 1 9 2 5 3 8 4 6 5 7 6 2 7 1 8 3 9 10 10
REMARK H PARENT 10 11
REMARK Flexibility Score: inf
ROOT
ATOM      1  C   UNL     1     118.564 121.896 103.102  1.00  0.00     0.039 A 
ATOM      2  C   UNL     1     119.385 122.898 102.522  1.00  0.00     0.124 A 
ATOM      3  C   UNL     1     118.291 120.730 102.364  1.00  0.00     0.014 A 
ATOM      4  C   UNL     1     119.956 122.681 101.261  1.00  0.00     0.047 A 
ATOM      5  C   UNL     1     118.851 120.538 101.099  1.00  0.00     0.001 A 
ATOM      6  C   UNL     1     119.690 121.508 100.552  1.00  0.00     0.004 A 
ENDROOT
BRANCH   1   7
ATOM      7  C   UNL     1     118.005 122.009 104.468  1.00  0.00     0.075 C 
ATOM      8  O   UNL     1     116.858 121.565 104.736  1.00  0.00    -0.545 OA
ATOM      9  O   UNL     1     118.718 122.674 105.458  1.00  0.00    -0.545 OA
ENDBRANCH   1   7
BRANCH   2  10
ATOM     10  O   UNL     1     119.630 124.125 103.141  1.00  0.00    -0.507 OA
ATOM     11  H   UNL     1     118.911 124.810 103.329  1.00  0.00     0.293 HD
ENDBRANCH   2  10
TORSDOF 2
ENDMDL
