MODEL 1
REMARK VINA RESULT:    -3.252      0.000      0.000
REMARK INTER + INTRA:          -6.087
REMARK INTER:                  -4.962
REMARK INTRA:                  -1.125
REMARK UNBOUND:                -1.125
REMARK SMILES CCCCCCCCCC=CC(=O)[O-]
REMARK SMILES IDX 7 1 8 2 9 3 10 4 11 5 12 6 13 7 14 8 6 9 5 10 4 11 3 12 2 13
REMARK SMILES IDX 1 14
REMARK H PARENT
REMARK Flexibility Score: inf
ROOT
ATOM      1  C   UNL     1      17.380  24.622   6.439  1.00  0.00     0.000 C 
ENDROOT
BRANCH   1   2
ATOM      2  C   UNL     1      16.949  24.547   4.959  1.00  0.00     0.004 C 
BRANCH   2   3
ATOM      3  C   UNL     1      17.795  23.598   4.098  1.00  0.00     0.027 C 
BRANCH   3   4
ATOM      4  C   UNL     1      17.318  22.176   4.208  1.00  0.00    -0.025 C 
ATOM      5  C   UNL     1      16.742  21.546   3.179  1.00  0.00     0.020 C 
BRANCH   5   6
ATOM      6  C   UNL     1      16.249  20.163   3.278  1.00  0.00     0.064 C 
ATOM      7  O   UNL     1      16.424  19.483   4.324  1.00  0.00    -0.545 OA
ATOM      8  O   UNL     1      15.579  19.599   2.201  1.00  0.00    -0.545 OA
ENDBRANCH   5   6
ENDBRANCH   3   4
ENDBRANCH   2   3
ENDBRANCH   1   2
BRANCH   1   9
ATOM      9  C   UNL     1      16.222  24.644   7.451  1.00  0.00     0.000 C 
BRANCH   9  10
ATOM     10  C   UNL     1      15.045  23.746   7.032  1.00  0.00     0.000 C 
BRANCH  10  11
ATOM     11  C   UNL     1      14.940  22.470   7.883  1.00  0.00    -0.000 C 
BRANCH  11  12
ATOM     12  C   UNL     1      15.816  21.327   7.341  1.00  0.00    -0.000 C 
BRANCH  12  13
ATOM     13  C   UNL     1      16.681  20.680   8.436  1.00  0.00    -0.003 C 
ATOM     14  C   UNL     1      17.561  21.690   9.170  1.00  0.00     0.004 C 
ENDBRANCH  12  13
ENDBRANCH  11  12
ENDBRANCH  10  11
ENDBRANCH   9  10
ENDBRANCH   1   9
TORSDOF 9
ENDMDL
MODEL 2
REMARK VINA RESULT:    -3.119      1.356      1.953
REMARK INTER + INTRA:          -5.885
REMARK INTER:                  -5.079
REMARK INTRA:                  -0.806
REMARK UNBOUND:                -1.125
REMARK SMILES CCCCCCCCCC=CC(=O)[O-]
REMARK SMILES IDX 7 1 8 2 9 3 10 4 11 5 12 6 13 7 14 8 6 9 5 10 4 11 3 12 2 13
REMARK SMILES IDX 1 14
REMARK H PARENT
REMARK Flexibility Score: inf
ROOT
ATOM      1  C   UNL     1      16.016  23.781   6.268  1.00  0.00     0.000 C 
ENDROOT
BRANCH   1   2
ATOM      2  C   UNL     1      17.096  24.716   5.688  1.00  0.00     0.004 C 
BRANCH   2   3
ATOM      3  C   UNL     1      17.789  24.181   4.426  1.00  0.00     0.027 C 
BRANCH   3   4
ATOM      4  C   UNL     1      16.924  23.193   3.695  1.00  0.00    -0.025 C 
ATOM      5  C   UNL     1      17.184  21.882   3.713  1.00  0.00     0.020 C 
BRANCH   5   6
ATOM      6  C   UNL     1      16.360  20.905   2.983  1.00  0.00     0.064 C 
ATOM      7  O   UNL     1      16.279  19.707   3.365  1.00  0.00    -0.545 OA
ATOM      8  O   UNL     1      15.659  21.311   1.855  1.00  0.00    -0.545 OA
ENDBRANCH   5   6
ENDBRANCH   3   4
ENDBRANCH   2   3
ENDBRANCH   1   2
BRANCH   1   9
ATOM      9  C   UNL     1      16.268  23.316   7.713  1.00  0.00     0.000 C 
BRANCH   9  10
ATOM     10  C   UNL     1      17.375  22.251   7.812  1.00  0.00     0.000 C 
BRANCH  10  11
ATOM     11  C   UNL     1      17.034  21.134   8.811  1.00  0.00    -0.000 C 
BRANCH  11  12
ATOM     12  C   UNL     1      15.879  20.241   8.325  1.00  0.00    -0.000 C 
BRANCH  12  13
ATOM     13  C   UNL     1      16.036  19.824   6.853  1.00  0.00    -0.003 C 
ATOM     14  C   UNL     1      16.024  18.308   6.661  1.00  0.00     0.004 C 
ENDBRANCH  12  13
ENDBRANCH  11  12
ENDBRANCH  10  11
ENDBRANCH   9  10
ENDBRANCH   1   9
TORSDOF 9
ENDMDL
MODEL 3
REMARK VINA RESULT:    -3.080      3.689      6.718
REMARK INTER + INTRA:          -5.826
REMARK INTER:                  -5.474
REMARK INTRA:                  -0.351
REMARK UNBOUND:                -1.125
REMARK SMILES CCCCCCCCCC=CC(=O)[O-]
REMARK SMILES IDX 7 1 8 2 9 3 10 4 11 5 12 6 13 7 14 8 6 9 5 10 4 11 3 12 2 13
REMARK SMILES IDX 1 14
REMARK H PARENT
REMARK Flexibility Score: inf
ROOT
ATOM      1  C   UNL     1      16.773  22.091   3.030  1.00  0.00     0.000 C 
ENDROOT
BRANCH   1   2
ATOM      2  C   UNL     1      17.523  22.394   4.344  1.00  0.00     0.004 C 
BRANCH   2   3
ATOM      3  C   UNL     1      16.750  23.289   5.325  1.00  0.00     0.027 C 
BRANCH   3   4
ATOM      4  C   UNL     1      16.590  22.631   6.667  1.00  0.00    -0.025 C 
ATOM      5  C   UNL     1      16.413  21.311   6.786  1.00  0.00     0.020 C 
BRANCH   5   6
ATOM      6  C   UNL     1      16.231  20.655   8.090  1.00  0.00     0.064 C 
ATOM      7  O   UNL     1      17.155  20.640   8.947  1.00  0.00    -0.545 OA
ATOM      8  O   UNL     1      15.019  20.042   8.383  1.00  0.00    -0.545 OA
ENDBRANCH   5   6
ENDBRANCH   3   4
ENDBRANCH   2   3
ENDBRANCH   1   2
BRANCH   1   9
ATOM      9  C   UNL     1      16.413  23.328   2.189  1.00  0.00     0.000 C 
BRANCH   9  10
ATOM     10  C   UNL     1      15.699  22.969   0.874  1.00  0.00     0.000 C 
BRANCH  10  11
ATOM     11  C   UNL     1      15.735  24.112  -0.152  1.00  0.00    -0.000 C 
BRANCH  11  12
ATOM     12  C   UNL     1      16.233  23.650  -1.532  1.00  0.00    -0.000 C 
BRANCH  12  13
ATOM     13  C   UNL     1      17.676  24.098  -1.818  1.00  0.00    -0.003 C 
ATOM     14  C   UNL     1      17.815  24.832  -3.151  1.00  0.00     0.004 C 
ENDBRANCH  12  13
ENDBRANCH  11  12
ENDBRANCH  10  11
ENDBRANCH   9  10
ENDBRANCH   1   9
TORSDOF 9
ENDMDL
MODEL 4
REMARK VINA RESULT:    -3.064      3.291      4.048
REMARK INTER + INTRA:          -5.801
REMARK INTER:                  -5.285
REMARK INTRA:                  -0.516
REMARK UNBOUND:                -1.125
REMARK SMILES CCCCCCCCCC=CC(=O)[O-]
REMARK SMILES IDX 7 1 8 2 9 3 10 4 11 5 12 6 13 7 14 8 6 9 5 10 4 11 3 12 2 13
REMARK SMILES IDX 1 14
REMARK H PARENT
REMARK Flexibility Score: inf
ROOT
ATOM      1  C   UNL     1      17.504  22.292   3.735  1.00  0.00     0.000 C 
ENDROOT
BRANCH   1   2
ATOM      2  C   UNL     1      16.952  23.639   3.224  1.00  0.00     0.004 C 
BRANCH   2   3
ATOM      3  C   UNL     1      15.862  23.512   2.150  1.00  0.00     0.027 C 
BRANCH   3   4
ATOM      4  C   UNL     1      16.392  23.839   0.781  1.00  0.00    -0.025 C 
ATOM      5  C   UNL     1      15.819  23.357  -0.327  1.00  0.00     0.020 C 
BRANCH   5   6
ATOM      6  C   UNL     1      16.340  23.649  -1.672  1.00  0.00     0.064 C 
ATOM      7  O   UNL     1      15.589  23.610  -2.684  1.00  0.00    -0.545 OA
ATOM      8  O   UNL     1      17.681  23.973  -1.830  1.00  0.00    -0.545 OA
ENDBRANCH   5   6
ENDBRANCH   3   4
ENDBRANCH   2   3
ENDBRANCH   1   2
BRANCH   1   9
ATOM      9  C   UNL     1      17.120  21.941   5.184  1.00  0.00     0.000 C 
BRANCH   9  10
ATOM     10  C   UNL     1      16.591  23.153   5.971  1.00  0.00     0.000 C 
BRANCH  10  11
ATOM     11  C   UNL     1      16.058  22.770   7.360  1.00  0.00    -0.000 C 
BRANCH  11  12
ATOM     12  C   UNL     1      17.120  22.070   8.226  1.00  0.00    -0.000 C 
BRANCH  12  13
ATOM     13  C   UNL     1      16.707  20.643   8.624  1.00  0.00    -0.003 C 
ATOM     14  C   UNL     1      15.403  20.197   7.964  1.00  0.00     0.004 C 
ENDBRANCH  12  13
ENDBRANCH  11  12
ENDBRANCH  10  11
ENDBRANCH   9  10
ENDBRANCH   1   9
TORSDOF 9
ENDMDL
MODEL 5
REMARK VINA RESULT:    -3.064      1.449      3.981
REMARK INTER + INTRA:          -5.801
REMARK INTER:                  -4.891
REMARK INTRA:                  -0.910
REMARK UNBOUND:                -1.125
REMARK SMILES CCCCCCCCCC=CC(=O)[O-]
REMARK SMILES IDX 7 1 8 2 9 3 10 4 11 5 12 6 13 7 14 8 6 9 5 10 4 11 3 12 2 13
REMARK SMILES IDX 1 14
REMARK H PARENT
REMARK Flexibility Score: inf
ROOT
ATOM      1  C   UNL     1      17.870  23.556   8.890  1.00  0.00     0.000 C 
ENDROOT
BRANCH   1   2
ATOM      2  C   UNL     1      17.335  22.119   9.061  1.00  0.00     0.004 C 
BRANCH   2   3
ATOM      3  C   UNL     1      15.931  21.891   8.482  1.00  0.00     0.027 C 
BRANCH   3   4
ATOM      4  C   UNL     1      15.961  20.952   7.308  1.00  0.00    -0.025 C 
ATOM      5  C   UNL     1      15.917  19.625   7.467  1.00  0.00     0.020 C 
BRANCH   5   6
ATOM      6  C   UNL     1      15.969  18.693   6.330  1.00  0.00     0.064 C 
ATOM      7  O   UNL     1      15.797  17.455   6.493  1.00  0.00    -0.545 OA
ATOM      8  O   UNL     1      16.212  19.185   5.054  1.00  0.00    -0.545 OA
ENDBRANCH   5   6
ENDBRANCH   3   4
ENDBRANCH   2   3
ENDBRANCH   1   2
BRANCH   1   9
ATOM      9  C   UNL     1      16.861  24.559   8.304  1.00  0.00     0.000 C 
BRANCH   9  10
ATOM     10  C   UNL     1      17.271  25.074   6.913  1.00  0.00     0.000 C 
BRANCH  10  11
ATOM     11  C   UNL     1      16.583  24.309   5.772  1.00  0.00    -0.000 C 
BRANCH  11  12
ATOM     12  C   UNL     1      17.023  24.803   4.383  1.00  0.00    -0.000 C 
BRANCH  12  13
ATOM     13  C   UNL     1      17.820  23.741   3.606  1.00  0.00    -0.003 C 
ATOM     14  C   UNL     1      17.548  22.320   4.096  1.00  0.00     0.004 C 
ENDBRANCH  12  13
ENDBRANCH  11  12
ENDBRANCH  10  11
ENDBRANCH   9  10
ENDBRANCH   1   9
TORSDOF 9
ENDMDL
MODEL 6
REMARK VINA RESULT:    -3.064      1.610      2.277
REMARK INTER + INTRA:          -5.800
REMARK INTER:                  -4.966
REMARK INTRA:                  -0.834
REMARK UNBOUND:                -1.125
REMARK SMILES CCCCCCCCCC=CC(=O)[O-]
REMARK SMILES IDX 7 1 8 2 9 3 10 4 11 5 12 6 13 7 14 8 6 9 5 10 4 11 3 12 2 13
REMARK SMILES IDX 1 14
REMARK H PARENT
REMARK Flexibility Score: inf
ROOT
ATOM      1  C   UNL     1      17.403  24.904   6.082  1.00  0.00     0.000 C 
ENDROOT
BRANCH   1   2
ATOM      2  C   UNL     1      17.248  24.297   4.673  1.00  0.00     0.004 C 
BRANCH   2   3
ATOM      3  C   UNL     1      17.537  22.790   4.594  1.00  0.00     0.027 C 
BRANCH   3   4
ATOM      4  C   UNL     1      16.935  22.173   3.362  1.00  0.00    -0.025 C 
ATOM      5  C   UNL     1      16.285  22.909   2.454  1.00  0.00     0.020 C 
BRANCH   5   6
ATOM      6  C   UNL     1      15.670  22.317   1.256  1.00  0.00     0.064 C 
ATOM      7  O   UNL     1      15.182  21.155   1.279  1.00  0.00    -0.545 OA
ATOM      8  O   UNL     1      15.626  23.051   0.078  1.00  0.00    -0.545 OA
ENDBRANCH   5   6
ENDBRANCH   3   4
ENDBRANCH   2   3
ENDBRANCH   1   2
BRANCH   1   9
ATOM      9  C   UNL     1      16.566  24.222   7.178  1.00  0.00     0.000 C 
BRANCH   9  10
ATOM     10  C   UNL     1      17.209  24.328   8.573  1.00  0.00     0.000 C 
BRANCH  10  11
ATOM     11  C   UNL     1      17.318  22.968   9.279  1.00  0.00    -0.000 C 
BRANCH  11  12
ATOM     12  C   UNL     1      17.459  21.799   8.289  1.00  0.00    -0.000 C 
BRANCH  12  13
ATOM     13  C   UNL     1      16.420  20.692   8.533  1.00  0.00    -0.003 C 
ATOM     14  C   UNL     1      15.923  20.051   7.237  1.00  0.00     0.004 C 
ENDBRANCH  12  13
ENDBRANCH  11  12
ENDBRANCH  10  11
ENDBRANCH   9  10
ENDBRANCH   1   9
TORSDOF 9
ENDMDL
MODEL 7
REMARK VINA RESULT:    -3.052      2.394      5.044
REMARK INTER + INTRA:          -5.783
REMARK INTER:                  -4.995
REMARK INTRA:                  -0.788
REMARK UNBOUND:                -1.125
REMARK SMILES CCCCCCCCCC=CC(=O)[O-]
REMARK SMILES IDX 7 1 8 2 9 3 10 4 11 5 12 6 13 7 14 8 6 9 5 10 4 11 3 12 2 13
REMARK SMILES IDX 1 14
REMARK H PARENT
REMARK Flexibility Score: inf
ROOT
ATOM      1  C   UNL     1      17.740  23.825   3.739  1.00  0.00     0.000 C 
ENDROOT
BRANCH   1   2
ATOM      2  C   UNL     1      16.812  23.232   4.820  1.00  0.00     0.004 C 
BRANCH   2   3
ATOM      3  C   UNL     1      16.721  24.066   6.107  1.00  0.00     0.027 C 
BRANCH   3   4
ATOM      4  C   UNL     1      16.695  23.194   7.331  1.00  0.00    -0.025 C 
ATOM      5  C   UNL     1      16.719  21.860   7.244  1.00  0.00     0.020 C 
BRANCH   5   6
ATOM      6  C   UNL     1      16.671  20.992   8.432  1.00  0.00     0.064 C 
ATOM      7  O   UNL     1      15.713  20.195   8.618  1.00  0.00    -0.545 OA
ATOM      8  O   UNL     1      17.699  21.053   9.364  1.00  0.00    -0.545 OA
ENDBRANCH   5   6
ENDBRANCH   3   4
ENDBRANCH   2   3
ENDBRANCH   1   2
BRANCH   1   9
ATOM      9  C   UNL     1      17.017  24.427   2.522  1.00  0.00     0.000 C 
BRANCH   9  10
ATOM     10  C   UNL     1      15.706  23.695   2.185  1.00  0.00     0.000 C 
BRANCH  10  11
ATOM     11  C   UNL     1      15.934  22.426   1.349  1.00  0.00    -0.000 C 
BRANCH  11  12
ATOM     12  C   UNL     1      14.875  21.344   1.620  1.00  0.00    -0.000 C 
BRANCH  12  13
ATOM     13  C   UNL     1      15.500  19.991   2.000  1.00  0.00    -0.003 C 
ATOM     14  C   UNL     1      16.320  20.057   3.287  1.00  0.00     0.004 C 
ENDBRANCH  12  13
ENDBRANCH  11  12
ENDBRANCH  10  11
ENDBRANCH   9  10
ENDBRANCH   1   9
TORSDOF 9
ENDMDL
MODEL 8
REMARK VINA RESULT:    -2.922      1.382      2.134
REMARK INTER + INTRA:          -5.585
REMARK INTER:                  -4.782
REMARK INTRA:                  -0.803
REMARK UNBOUND:                -1.125
REMARK SMILES CCCCCCCCCC=CC(=O)[O-]
REMARK SMILES IDX 7 1 8 2 9 3 10 4 11 5 12 6 13 7 14 8 6 9 5 10 4 11 3 12 2 13
REMARK SMILES IDX 1 14
REMARK H PARENT
REMARK Flexibility Score: inf
ROOT
ATOM      1  C   UNL     1      17.884  24.134   3.711  1.00  0.00     0.000 C 
ENDROOT
BRANCH   1   2
ATOM      2  C   UNL     1      17.128  24.838   2.566  1.00  0.00     0.004 C 
BRANCH   2   3
ATOM      3  C   UNL     1      16.183  23.925   1.771  1.00  0.00     0.027 C 
BRANCH   3   4
ATOM      4  C   UNL     1      16.340  22.484   2.170  1.00  0.00    -0.025 C 
ATOM      5  C   UNL     1      15.406  21.570   1.885  1.00  0.00     0.020 C 
BRANCH   5   6
ATOM      6  C   UNL     1      15.534  20.161   2.289  1.00  0.00     0.064 C 
ATOM      7  O   UNL     1      14.968  19.242   1.637  1.00  0.00    -0.545 OA
ATOM      8  O   UNL     1      16.291  19.837   3.408  1.00  0.00    -0.545 OA
ENDBRANCH   5   6
ENDBRANCH   3   4
ENDBRANCH   2   3
ENDBRANCH   1   2
BRANCH   1   9
ATOM      9  C   UNL     1      17.531  24.630   5.124  1.00  0.00     0.000 C 
BRANCH   9  10
ATOM     10  C   UNL     1      16.089  24.282   5.536  1.00  0.00     0.000 C 
BRANCH  10  11
ATOM     11  C   UNL     1      16.031  23.309   6.723  1.00  0.00    -0.000 C 
BRANCH  11  12
ATOM     12  C   UNL     1      16.701  21.959   6.412  1.00  0.00    -0.000 C 
BRANCH  12  13
ATOM     13  C   UNL     1      16.070  20.795   7.194  1.00  0.00    -0.003 C 
ATOM     14  C   UNL     1      16.721  20.576   8.559  1.00  0.00     0.004 C 
ENDBRANCH  12  13
ENDBRANCH  11  12
ENDBRANCH  10  11
ENDBRANCH   9  10
ENDBRANCH   1   9
TORSDOF 9
ENDMDL
MODEL 9
REMARK VINA RESULT:    -2.899      2.470      3.293
REMARK INTER + INTRA:          -5.549
REMARK INTER:                  -4.943
REMARK INTRA:                  -0.606
REMARK UNBOUND:                -1.125
REMARK SMILES CCCCCCCCCC=CC(=O)[O-]
REMARK SMILES IDX 7 1 8 2 9 3 10 4 11 5 12 6 13 7 14 8 6 9 5 10 4 11 3 12 2 13
REMARK SMILES IDX 1 14
REMARK H PARENT
REMARK Flexibility Score: inf
ROOT
ATOM      1  C   UNL     1      16.669  22.248   6.016  1.00  0.00     0.000 C 
ENDROOT
BRANCH   1   2
ATOM      2  C   UNL     1      17.392  22.044   4.669  1.00  0.00     0.004 C 
BRANCH   2   3
ATOM      3  C   UNL     1      17.285  23.232   3.703  1.00  0.00     0.027 C 
BRANCH   3   4
ATOM      4  C   UNL     1      16.367  22.929   2.551  1.00  0.00    -0.025 C 
ATOM      5  C   UNL     1      16.385  23.656   1.428  1.00  0.00     0.020 C 
BRANCH   5   6
ATOM      6  C   UNL     1      15.478  23.387   0.301  1.00  0.00     0.064 C 
ATOM      7  O   UNL     1      15.092  22.216   0.041  1.00  0.00    -0.545 OA
ATOM      8  O   UNL     1      15.039  24.441  -0.489  1.00  0.00    -0.545 OA
ENDBRANCH   5   6
ENDBRANCH   3   4
ENDBRANCH   2   3
ENDBRANCH   1   2
BRANCH   1   9
ATOM      9  C   UNL     1      16.286  20.952   6.751  1.00  0.00     0.000 C 
BRANCH   9  10
ATOM     10  C   UNL     1      16.092  21.158   8.264  1.00  0.00     0.000 C 
BRANCH  10  11
ATOM     11  C   UNL     1      15.197  22.364   8.587  1.00  0.00    -0.000 C 
BRANCH  11  12
ATOM     12  C   UNL     1      15.846  23.325   9.598  1.00  0.00    -0.000 C 
BRANCH  12  13
ATOM     13  C   UNL     1      17.366  23.125   9.709  1.00  0.00    -0.003 C 
ATOM     14  C   UNL     1      18.162  24.246   9.041  1.00  0.00     0.004 C 
ENDBRANCH  12  13
ENDBRANCH  11  12
ENDBRANCH  10  11
ENDBRANCH   9  10
ENDBRANCH   1   9
TORSDOF 9
ENDMDL
