MODEL 1
REMARK VINA RESULT:    -5.410      0.000      0.000
REMARK INTER + INTRA:          -5.410
REMARK INTER:                  -5.410
REMARK INTRA:                   0.000
REMARK UNBOUND:                 0.000
REMARK SMILES O=c1ccc2ccccc2o1
REMARK SMILES IDX 7 1 8 2 9 3 10 4 5 5 6 6 4 7 3 8 2 9 1 10 11 11
REMARK H PARENT
REMARK Flexibility Score: inf
ROOT
ATOM      1  C   UNL     1      -8.773  -3.136  -5.721  1.00  0.00     0.001 A 
ATOM      2  C   UNL     1      -9.033  -3.495  -4.394  1.00  0.00     0.004 A 
ATOM      3  C   UNL     1      -8.729  -2.610  -3.353  1.00  0.00     0.048 A 
ATOM      4  C   UNL     1      -8.163  -1.363  -3.637  1.00  0.00     0.138 A 
ATOM      5  C   UNL     1      -7.901  -0.999  -4.977  1.00  0.00     0.018 A 
ATOM      6  C   UNL     1      -8.208  -1.890  -6.015  1.00  0.00     0.012 A 
ATOM      7  C   UNL     1      -7.336   0.254  -5.230  1.00  0.00     0.019 A 
ATOM      8  C   UNL     1      -7.049   1.103  -4.162  1.00  0.00     0.094 A 
ATOM      9  C   UNL     1      -7.336   0.677  -2.860  1.00  0.00     0.336 A 
ATOM     10  O   UNL     1      -7.085   1.430  -1.882  1.00  0.00    -0.246 OA
ATOM     11  O   UNL     1      -7.874  -0.521  -2.647  1.00  0.00    -0.423 OA
ENDROOT
TORSDOF 0
ENDMDL
MODEL 2
REMARK VINA RESULT:    -4.991      1.355      3.826
REMARK INTER + INTRA:          -4.991
REMARK INTER:                  -4.991
REMARK INTRA:                   0.000
REMARK UNBOUND:                 0.000
REMARK SMILES O=c1ccc2ccccc2o1
REMARK SMILES IDX 7 1 8 2 9 3 10 4 5 5 6 6 4 7 3 8 2 9 1 10 11 11
REMARK H PARENT
REMARK Flexibility Score: inf
ROOT
ATOM      1  C   UNL     1      -7.151   2.405  -4.002  1.00  0.00     0.001 A 
ATOM      2  C   UNL     1      -7.218   2.044  -2.652  1.00  0.00     0.004 A 
ATOM      3  C   UNL     1      -7.591   0.745  -2.289  1.00  0.00     0.048 A 
ATOM      4  C   UNL     1      -7.898  -0.197  -3.275  1.00  0.00     0.138 A 
ATOM      5  C   UNL     1      -7.831   0.167  -4.639  1.00  0.00     0.018 A 
ATOM      6  C   UNL     1      -7.457   1.470  -4.996  1.00  0.00     0.012 A 
ATOM      7  C   UNL     1      -8.144  -0.796  -5.603  1.00  0.00     0.019 A 
ATOM      8  C   UNL     1      -8.511  -2.078  -5.195  1.00  0.00     0.094 A 
ATOM      9  C   UNL     1      -8.556  -2.368  -3.826  1.00  0.00     0.336 A 
ATOM     10  O   UNL     1      -8.884  -3.520  -3.438  1.00  0.00    -0.246 OA
ATOM     11  O   UNL     1      -8.253  -1.433  -2.929  1.00  0.00    -0.423 OA
ENDROOT
TORSDOF 0
ENDMDL
MODEL 3
REMARK VINA RESULT:    -4.919      1.413      2.283
REMARK INTER + INTRA:          -4.919
REMARK INTER:                  -4.919
REMARK INTRA:                   0.000
REMARK UNBOUND:                 0.000
REMARK SMILES O=c1ccc2ccccc2o1
REMARK SMILES IDX 7 1 8 2 9 3 10 4 5 5 6 6 4 7 3 8 2 9 1 10 11 11
REMARK H PARENT
REMARK Flexibility Score: inf
ROOT
ATOM      1  C   UNL     1      -8.633  -2.838  -4.457  1.00  0.00     0.001 A 
ATOM      2  C   UNL     1      -8.300  -2.389  -5.740  1.00  0.00     0.004 A 
ATOM      3  C   UNL     1      -7.839  -1.081  -5.929  1.00  0.00     0.048 A 
ATOM      4  C   UNL     1      -7.709  -0.219  -4.836  1.00  0.00     0.138 A 
ATOM      5  C   UNL     1      -8.046  -0.672  -3.540  1.00  0.00     0.018 A 
ATOM      6  C   UNL     1      -8.507  -1.983  -3.357  1.00  0.00     0.012 A 
ATOM      7  C   UNL     1      -7.906   0.212  -2.467  1.00  0.00     0.019 A 
ATOM      8  C   UNL     1      -7.443   1.507  -2.703  1.00  0.00     0.094 A 
ATOM      9  C   UNL     1      -7.128   1.887  -4.013  1.00  0.00     0.336 A 
ATOM     10  O   UNL     1      -6.708   3.051  -4.245  1.00  0.00    -0.246 OA
ATOM     11  O   UNL     1      -7.270   1.025  -5.016  1.00  0.00    -0.423 OA
ENDROOT
TORSDOF 0
ENDMDL
MODEL 4
REMARK VINA RESULT:    -4.760      2.202      4.565
REMARK INTER + INTRA:          -4.760
REMARK INTER:                  -4.760
REMARK INTRA:                   0.000
REMARK UNBOUND:                 0.000
REMARK SMILES O=c1ccc2ccccc2o1
REMARK SMILES IDX 7 1 8 2 9 3 10 4 5 5 6 6 4 7 3 8 2 9 1 10 11 11
REMARK H PARENT
REMARK Flexibility Score: inf
ROOT
ATOM      1  C   UNL     1      -8.897   3.283  -2.984  1.00  0.00     0.001 A 
ATOM      2  C   UNL     1      -7.702   3.501  -3.679  1.00  0.00     0.004 A 
ATOM      3  C   UNL     1      -7.121   2.466  -4.420  1.00  0.00     0.048 A 
ATOM      4  C   UNL     1      -7.733   1.209  -4.469  1.00  0.00     0.138 A 
ATOM      5  C   UNL     1      -8.940   0.989  -3.768  1.00  0.00     0.018 A 
ATOM      6  C   UNL     1      -9.518   2.030  -3.027  1.00  0.00     0.012 A 
ATOM      7  C   UNL     1      -9.529  -0.277  -3.835  1.00  0.00     0.019 A 
ATOM      8  C   UNL     1      -8.914  -1.279  -4.586  1.00  0.00     0.094 A 
ATOM      9  C   UNL     1      -7.719  -0.989  -5.254  1.00  0.00     0.336 A 
ATOM     10  O   UNL     1      -7.150  -1.880  -5.937  1.00  0.00    -0.246 OA
ATOM     11  O   UNL     1      -7.180   0.225  -5.174  1.00  0.00    -0.423 OA
ENDROOT
TORSDOF 0
ENDMDL
MODEL 5
REMARK VINA RESULT:    -4.744      2.365      4.549
REMARK INTER + INTRA:          -4.744
REMARK INTER:                  -4.744
REMARK INTRA:                   0.000
REMARK UNBOUND:                 0.000
REMARK SMILES O=c1ccc2ccccc2o1
REMARK SMILES IDX 7 1 8 2 9 3 10 4 5 5 6 6 4 7 3 8 2 9 1 10 11 11
REMARK H PARENT
REMARK Flexibility Score: inf
ROOT
ATOM      1  C   UNL     1      -8.362   4.184  -3.526  1.00  0.00     0.001 A 
ATOM      2  C   UNL     1      -9.670   3.896  -3.120  1.00  0.00     0.004 A 
ATOM      3  C   UNL     1     -10.122   2.572  -3.092  1.00  0.00     0.048 A 
ATOM      4  C   UNL     1      -9.267   1.531  -3.470  1.00  0.00     0.138 A 
ATOM      5  C   UNL     1      -7.946   1.822  -3.879  1.00  0.00     0.018 A 
ATOM      6  C   UNL     1      -7.499   3.151  -3.905  1.00  0.00     0.012 A 
ATOM      7  C   UNL     1      -7.114   0.761  -4.251  1.00  0.00     0.019 A 
ATOM      8  C   UNL     1      -7.608  -0.542  -4.207  1.00  0.00     0.094 A 
ATOM      9  C   UNL     1      -8.927  -0.756  -3.791  1.00  0.00     0.336 A 
ATOM     10  O   UNL     1      -9.390  -1.925  -3.745  1.00  0.00    -0.246 OA
ATOM     11  O   UNL     1      -9.697   0.272  -3.443  1.00  0.00    -0.423 OA
ENDROOT
TORSDOF 0
ENDMDL
MODEL 6
REMARK VINA RESULT:    -4.702      2.555      4.605
REMARK INTER + INTRA:          -4.702
REMARK INTER:                  -4.702
REMARK INTRA:                   0.000
REMARK UNBOUND:                 0.000
REMARK SMILES O=c1ccc2ccccc2o1
REMARK SMILES IDX 7 1 8 2 9 3 10 4 5 5 6 6 4 7 3 8 2 9 1 10 11 11
REMARK H PARENT
REMARK Flexibility Score: inf
ROOT
ATOM      1  C   UNL     1      -8.975   3.691  -4.126  1.00  0.00     0.001 A 
ATOM      2  C   UNL     1      -7.781   3.349  -3.482  1.00  0.00     0.004 A 
ATOM      3  C   UNL     1      -7.104   2.174  -3.831  1.00  0.00     0.048 A 
ATOM      4  C   UNL     1      -7.621   1.338  -4.827  1.00  0.00     0.138 A 
ATOM      5  C   UNL     1      -8.827   1.683  -5.477  1.00  0.00     0.018 A 
ATOM      6  C   UNL     1      -9.500   2.861  -5.122  1.00  0.00     0.012 A 
ATOM      7  C   UNL     1      -9.319   0.828  -6.467  1.00  0.00     0.019 A 
ATOM      8  C   UNL     1      -8.612  -0.332  -6.783  1.00  0.00     0.094 A 
ATOM      9  C   UNL     1      -7.424  -0.610  -6.097  1.00  0.00     0.336 A 
ATOM     10  O   UNL     1      -6.771  -1.652  -6.368  1.00  0.00    -0.246 OA
ATOM     11  O   UNL     1      -6.978   0.221  -5.159  1.00  0.00    -0.423 OA
ENDROOT
TORSDOF 0
ENDMDL
MODEL 7
REMARK VINA RESULT:    -4.639     12.000     13.188
REMARK INTER + INTRA:          -4.639
REMARK INTER:                  -4.639
REMARK INTRA:                   0.000
REMARK UNBOUND:                 0.000
REMARK SMILES O=c1ccc2ccccc2o1
REMARK SMILES IDX 7 1 8 2 9 3 10 4 5 5 6 6 4 7 3 8 2 9 1 10 11 11
REMARK H PARENT
REMARK Flexibility Score: inf
ROOT
ATOM      1  C   UNL     1      -3.429  -7.396   7.970  1.00  0.00     0.001 A 
ATOM      2  C   UNL     1      -3.412  -6.041   7.621  1.00  0.00     0.004 A 
ATOM      3  C   UNL     1      -2.884  -5.638   6.389  1.00  0.00     0.048 A 
ATOM      4  C   UNL     1      -2.372  -6.590   5.501  1.00  0.00     0.138 A 
ATOM      5  C   UNL     1      -2.390  -7.958   5.853  1.00  0.00     0.018 A 
ATOM      6  C   UNL     1      -2.920  -8.355   7.089  1.00  0.00     0.012 A 
ATOM      7  C   UNL     1      -1.872  -8.887   4.945  1.00  0.00     0.019 A 
ATOM      8  C   UNL     1      -1.356  -8.440   3.729  1.00  0.00     0.094 A 
ATOM      9  C   UNL     1      -1.371  -7.069   3.448  1.00  0.00     0.336 A 
ATOM     10  O   UNL     1      -0.910  -6.646   2.355  1.00  0.00    -0.246 OA
ATOM     11  O   UNL     1      -1.871  -6.206   4.329  1.00  0.00    -0.423 OA
ENDROOT
TORSDOF 0
ENDMDL
MODEL 8
REMARK VINA RESULT:    -4.629      2.043      2.743
REMARK INTER + INTRA:          -4.629
REMARK INTER:                  -4.629
REMARK INTRA:                   0.000
REMARK UNBOUND:                 0.000
REMARK SMILES O=c1ccc2ccccc2o1
REMARK SMILES IDX 7 1 8 2 9 3 10 4 5 5 6 6 4 7 3 8 2 9 1 10 11 11
REMARK H PARENT
REMARK Flexibility Score: inf
ROOT
ATOM      1  C   UNL     1      -9.087   0.378  -7.407  1.00  0.00     0.001 A 
ATOM      2  C   UNL     1      -8.047  -0.529  -7.177  1.00  0.00     0.004 A 
ATOM      3  C   UNL     1      -7.429  -0.587  -5.923  1.00  0.00     0.048 A 
ATOM      4  C   UNL     1      -7.849   0.263  -4.895  1.00  0.00     0.138 A 
ATOM      5  C   UNL     1      -8.899   1.180  -5.127  1.00  0.00     0.018 A 
ATOM      6  C   UNL     1      -9.515   1.232  -6.386  1.00  0.00     0.012 A 
ATOM      7  C   UNL     1      -9.298   2.016  -4.080  1.00  0.00     0.019 A 
ATOM      8  C   UNL     1      -8.653   1.924  -2.847  1.00  0.00     0.094 A 
ATOM      9  C   UNL     1      -7.620   0.993  -2.689  1.00  0.00     0.336 A 
ATOM     10  O   UNL     1      -7.026   0.894  -1.584  1.00  0.00    -0.246 OA
ATOM     11  O   UNL     1      -7.260   0.208  -3.702  1.00  0.00    -0.423 OA
ENDROOT
TORSDOF 0
ENDMDL
MODEL 9
REMARK VINA RESULT:    -4.586     10.968     11.980
REMARK INTER + INTRA:          -4.586
REMARK INTER:                  -4.586
REMARK INTRA:                   0.000
REMARK UNBOUND:                 0.000
REMARK SMILES O=c1ccc2ccccc2o1
REMARK SMILES IDX 7 1 8 2 9 3 10 4 5 5 6 6 4 7 3 8 2 9 1 10 11 11
REMARK H PARENT
REMARK Flexibility Score: inf
ROOT
ATOM      1  C   UNL     1      -5.629  -7.877   6.112  1.00  0.00     0.001 A 
ATOM      2  C   UNL     1      -6.016  -8.017   4.775  1.00  0.00     0.004 A 
ATOM      3  C   UNL     1      -5.096  -7.779   3.748  1.00  0.00     0.048 A 
ATOM      4  C   UNL     1      -3.785  -7.401   4.055  1.00  0.00     0.138 A 
ATOM      5  C   UNL     1      -3.393  -7.260   5.406  1.00  0.00     0.018 A 
ATOM      6  C   UNL     1      -4.320  -7.500   6.430  1.00  0.00     0.012 A 
ATOM      7  C   UNL     1      -2.076  -6.882   5.682  1.00  0.00     0.019 A 
ATOM      8  C   UNL     1      -1.194  -6.655   4.626  1.00  0.00     0.094 A 
ATOM      9  C   UNL     1      -1.651  -6.814   3.313  1.00  0.00     0.336 A 
ATOM     10  O   UNL     1      -0.869  -6.614   2.347  1.00  0.00    -0.246 OA
ATOM     11  O   UNL     1      -2.910  -7.175   3.078  1.00  0.00    -0.423 OA
ENDROOT
TORSDOF 0
ENDMDL
