MODEL 1
REMARK VINA RESULT:    24.310      0.000      0.000
REMARK INTER + INTRA:          27.152
REMARK INTER:                  27.152
REMARK INTRA:                   0.000
REMARK UNBOUND:                 0.000
REMARK SMILES Oc1cc(O)c2c(c1)CCc1cc(O)c(O)cc1-2
REMARK SMILES IDX 10 1 9 2 7 3 6 4 18 5 17 6 15 7 13 8 12 9 11 10 4 11 3 12
REMARK SMILES IDX 2 13 8 14 14 15 5 17 1 19 16 21
REMARK H PARENT 14 16 5 18 1 20 16 22
REMARK Flexibility Score: inf
ROOT
ATOM      1  C   UNL     1      37.125  12.462  41.516  1.00  0.00     0.041 C 
ATOM      2  C   UNL     1      36.314  12.049  40.283  1.00  0.00     0.041 C 
ATOM      3  C   UNL     1      34.920  11.633  40.681  1.00  0.00    -0.032 A 
ATOM      4  C   UNL     1      34.258  12.295  41.744  1.00  0.00     0.027 A 
ATOM      5  C   UNL     1      34.970  13.424  42.423  1.00  0.00    -0.007 A 
ATOM      6  C   UNL     1      34.287  14.465  43.082  1.00  0.00     0.059 A 
ATOM      7  C   UNL     1      34.992  15.501  43.710  1.00  0.00     0.158 A 
ATOM      8  C   UNL     1      36.394  15.522  43.661  1.00  0.00     0.157 A 
ATOM      9  C   UNL     1      37.079  14.528  42.959  1.00  0.00     0.054 A 
ATOM     10  C   UNL     1      36.377  13.501  42.313  1.00  0.00    -0.036 A 
ATOM     11  C   UNL     1      32.992  11.813  42.159  1.00  0.00     0.127 A 
ATOM     12  C   UNL     1      32.362  10.787  41.441  1.00  0.00     0.093 A 
ATOM     13  C   UNL     1      32.993  10.196  40.342  1.00  0.00     0.119 A 
ATOM     14  C   UNL     1      34.270  10.613  39.970  1.00  0.00     0.050 A 
ENDROOT
BRANCH   8  15
ATOM     15  O   UNL     1      37.123  16.531  44.291  1.00  0.00    -0.504 OA
ATOM     16  H   UNL     1      38.058  16.786  43.995  1.00  0.00     0.293 HD
ENDBRANCH   8  15
BRANCH  11  17
ATOM     17  O   UNL     1      32.371  12.314  43.304  1.00  0.00    -0.507 OA
ATOM     18  H   UNL     1      32.520  13.264  43.620  1.00  0.00     0.293 HD
ENDBRANCH  11  17
BRANCH  13  19
ATOM     19  O   UNL     1      32.365   9.181  39.624  1.00  0.00    -0.508 OA
ATOM     20  H   UNL     1      31.758   8.508  40.077  1.00  0.00     0.293 HD
ENDBRANCH  13  19
BRANCH   7  21
ATOM     21  O   UNL     1      34.303  16.514  44.376  1.00  0.00    -0.504 OA
ATOM     22  H   UNL     1      34.471  17.492  44.175  1.00  0.00     0.293 HD
ENDBRANCH   7  21
TORSDOF 4
ENDMDL
