MODEL 1
REMARK VINA RESULT:    -1.994      0.000      0.000
REMARK INTER + INTRA:          -1.994
REMARK INTER:                  -1.994
REMARK INTRA:                   0.000
REMARK UNBOUND:                 0.000
REMARK SMILES c1cc[nH]c1
REMARK SMILES IDX 1 1 5 2 4 3 3 4 2 5
REMARK H PARENT 4 6
REMARK Flexibility Score: inf
ROOT
ATOM      1  C   UNL     1     163.183 157.303 139.791  1.00  0.00     0.019 A 
ATOM      2  C   UNL     1     163.276 156.006 139.327  1.00  0.00     0.082 A 
ATOM      3  N   UNL     1     163.699 156.005 138.051  1.00  0.00    -0.368 N 
ATOM      4  C   UNL     1     163.878 157.288 137.692  1.00  0.00     0.082 A 
ATOM      5  C   UNL     1     163.568 158.121 138.747  1.00  0.00     0.019 A 
ATOM      6  H   UNL     1     163.857 155.165 137.452  1.00  0.00     0.165 HD
ENDROOT
TORSDOF 0
ENDMDL
MODEL 2
REMARK VINA RESULT:    -1.987      1.364      1.961
REMARK INTER + INTRA:          -1.987
REMARK INTER:                  -1.987
REMARK INTRA:                   0.000
REMARK UNBOUND:                 0.000
REMARK SMILES c1cc[nH]c1
REMARK SMILES IDX 1 1 5 2 4 3 3 4 2 5
REMARK H PARENT 4 6
REMARK Flexibility Score: inf
ROOT
ATOM      1  C   UNL     1     164.814 158.071 138.344  1.00  0.00     0.019 A 
ATOM      2  C   UNL     1     163.711 157.481 137.761  1.00  0.00     0.082 A 
ATOM      3  N   UNL     1     163.764 156.147 137.923  1.00  0.00    -0.368 N 
ATOM      4  C   UNL     1     164.891 155.876 138.606  1.00  0.00     0.082 A 
ATOM      5  C   UNL     1     165.567 157.046 138.884  1.00  0.00     0.019 A 
ATOM      6  H   UNL     1     163.063 155.453 137.583  1.00  0.00     0.165 HD
ENDROOT
TORSDOF 0
ENDMDL
MODEL 3
REMARK VINA RESULT:    -1.978      1.332      1.417
REMARK INTER + INTRA:          -1.978
REMARK INTER:                  -1.978
REMARK INTRA:                   0.000
REMARK UNBOUND:                 0.000
REMARK SMILES c1cc[nH]c1
REMARK SMILES IDX 1 1 5 2 4 3 3 4 2 5
REMARK H PARENT 4 6
REMARK Flexibility Score: inf
ROOT
ATOM      1  C   UNL     1     163.987 157.093 140.007  1.00  0.00     0.019 A 
ATOM      2  C   UNL     1     163.026 156.584 139.157  1.00  0.00     0.082 A 
ATOM      3  N   UNL     1     163.610 155.875 138.175  1.00  0.00    -0.368 N 
ATOM      4  C   UNL     1     164.937 155.925 138.386  1.00  0.00     0.082 A 
ATOM      5  C   UNL     1     165.207 156.672 139.514  1.00  0.00     0.019 A 
ATOM      6  H   UNL     1     163.124 155.380 137.395  1.00  0.00     0.165 HD
ENDROOT
TORSDOF 0
ENDMDL
MODEL 4
REMARK VINA RESULT:    -1.953      1.353      1.473
REMARK INTER + INTRA:          -1.953
REMARK INTER:                  -1.953
REMARK INTRA:                   0.000
REMARK UNBOUND:                 0.000
REMARK SMILES c1cc[nH]c1
REMARK SMILES IDX 1 1 5 2 4 3 3 4 2 5
REMARK H PARENT 4 6
REMARK Flexibility Score: inf
ROOT
ATOM      1  C   UNL     1     165.534 157.035 139.005  1.00  0.00     0.019 A 
ATOM      2  C   UNL     1     164.830 155.875 138.752  1.00  0.00     0.082 A 
ATOM      3  N   UNL     1     163.749 156.149 138.000  1.00  0.00    -0.368 N 
ATOM      4  C   UNL     1     163.754 157.474 137.768  1.00  0.00     0.082 A 
ATOM      5  C   UNL     1     164.848 158.055 138.377  1.00  0.00     0.019 A 
ATOM      6  H   UNL     1     163.040 155.463 137.661  1.00  0.00     0.165 HD
ENDROOT
TORSDOF 0
ENDMDL
MODEL 5
REMARK VINA RESULT:    -1.951     17.902     18.657
REMARK INTER + INTRA:          -1.951
REMARK INTER:                  -1.951
REMARK INTRA:                   0.000
REMARK UNBOUND:                 0.000
REMARK SMILES c1cc[nH]c1
REMARK SMILES IDX 1 1 5 2 4 3 3 4 2 5
REMARK H PARENT 4 6
REMARK Flexibility Score: inf
ROOT
ATOM      1  C   UNL     1     166.473 174.934 139.024  1.00  0.00     0.019 A 
ATOM      2  C   UNL     1     167.122 176.125 138.768  1.00  0.00     0.082 A 
ATOM      3  N   UNL     1     168.201 175.903 137.996  1.00  0.00    -0.368 N 
ATOM      4  C   UNL     1     168.250 174.581 137.754  1.00  0.00     0.082 A 
ATOM      5  C   UNL     1     167.193 173.949 138.377  1.00  0.00     0.019 A 
ATOM      6  H   UNL     1     168.874 176.623 137.650  1.00  0.00     0.165 HD
ENDROOT
TORSDOF 0
ENDMDL
MODEL 6
REMARK VINA RESULT:    -1.941     18.137     18.894
REMARK INTER + INTRA:          -1.941
REMARK INTER:                  -1.941
REMARK INTRA:                   0.000
REMARK UNBOUND:                 0.000
REMARK SMILES c1cc[nH]c1
REMARK SMILES IDX 1 1 5 2 4 3 3 4 2 5
REMARK H PARENT 4 6
REMARK Flexibility Score: inf
ROOT
ATOM      1  C   UNL     1     167.795 174.058 138.900  1.00  0.00     0.019 A 
ATOM      2  C   UNL     1     167.990 174.820 137.766  1.00  0.00     0.082 A 
ATOM      3  N   UNL     1     168.471 176.030 138.102  1.00  0.00    -0.368 N 
ATOM      4  C   UNL     1     168.588 176.051 139.442  1.00  0.00     0.082 A 
ATOM      5  C   UNL     1     168.178 174.844 139.969  1.00  0.00     0.019 A 
ATOM      6  H   UNL     1     168.709 176.806 137.446  1.00  0.00     0.165 HD
ENDROOT
TORSDOF 0
ENDMDL
MODEL 7
REMARK VINA RESULT:    -1.911     18.662     19.091
REMARK INTER + INTRA:          -1.911
REMARK INTER:                  -1.911
REMARK INTRA:                   0.000
REMARK UNBOUND:                 0.000
REMARK SMILES c1cc[nH]c1
REMARK SMILES IDX 1 1 5 2 4 3 3 4 2 5
REMARK H PARENT 4 6
REMARK Flexibility Score: inf
ROOT
ATOM      1  C   UNL     1     167.987 174.645 140.055  1.00  0.00     0.019 A 
ATOM      2  C   UNL     1     169.058 175.280 139.459  1.00  0.00     0.082 A 
ATOM      3  N   UNL     1     168.621 176.125 138.508  1.00  0.00    -0.368 N 
ATOM      4  C   UNL     1     167.279 176.038 138.489  1.00  0.00     0.082 A 
ATOM      5  C   UNL     1     166.852 175.130 139.436  1.00  0.00     0.019 A 
ATOM      6  H   UNL     1     169.212 176.733 137.900  1.00  0.00     0.165 HD
ENDROOT
TORSDOF 0
ENDMDL
MODEL 8
REMARK VINA RESULT:    -1.863     17.932     18.658
REMARK INTER + INTRA:          -1.863
REMARK INTER:                  -1.863
REMARK INTRA:                   0.000
REMARK UNBOUND:                 0.000
REMARK SMILES c1cc[nH]c1
REMARK SMILES IDX 1 1 5 2 4 3 3 4 2 5
REMARK H PARENT 4 6
REMARK Flexibility Score: inf
ROOT
ATOM      1  C   UNL     1     169.066 174.508 139.688  1.00  0.00     0.019 A 
ATOM      2  C   UNL     1     168.777 175.779 139.233  1.00  0.00     0.082 A 
ATOM      3  N   UNL     1     168.262 175.716 137.992  1.00  0.00    -0.368 N 
ATOM      4  C   UNL     1     168.217 174.417 137.647  1.00  0.00     0.082 A 
ATOM      5  C   UNL     1     168.707 173.639 138.676  1.00  0.00     0.019 A 
ATOM      6  H   UNL     1     167.956 176.524 137.407  1.00  0.00     0.165 HD
ENDROOT
TORSDOF 0
ENDMDL
MODEL 9
REMARK VINA RESULT:    -1.555     20.445     21.179
REMARK INTER + INTRA:          -1.555
REMARK INTER:                  -1.555
REMARK INTRA:                   0.000
REMARK UNBOUND:                 0.000
REMARK SMILES c1cc[nH]c1
REMARK SMILES IDX 1 1 5 2 4 3 3 4 2 5
REMARK H PARENT 4 6
REMARK Flexibility Score: inf
ROOT
ATOM      1  C   UNL     1     174.478 174.407 136.985  1.00  0.00     0.019 A 
ATOM      2  C   UNL     1     174.620 175.770 137.148  1.00  0.00     0.082 A 
ATOM      3  N   UNL     1     174.254 176.125 138.392  1.00  0.00    -0.368 N 
ATOM      4  C   UNL     1     173.878 175.002 139.030  1.00  0.00     0.082 A 
ATOM      5  C   UNL     1     174.005 173.917 138.187  1.00  0.00     0.019 A 
ATOM      6  H   UNL     1     174.259 177.091 138.788  1.00  0.00     0.165 HD
ENDROOT
TORSDOF 0
ENDMDL
