MODEL 1
REMARK VINA RESULT:     8.556      0.000      0.000
REMARK INTER + INTRA:          13.120
REMARK INTER:                  12.557
REMARK INTRA:                   0.562
REMARK UNBOUND:                 0.562
REMARK SMILES O=c1c(O[C@@H]2O[C@@H](CO)[C@H](O)[C@@H](O)[C@H]2O)c(-c2ccc(O)c(O)c2)oc2cc(O)cc(O)c12
REMARK SMILES IDX 4 1 3 2 16 3 25 4 2 5 26 6 1 7 33 8 27 9 31 10 28 11 30 12
REMARK SMILES IDX 17 13 18 14 19 15 20 16 24 17 22 18 21 19 23 21 32 23 29 25
REMARK SMILES IDX 5 27 14 28 6 29 12 30 7 31 10 32 15 33 13 35 8 37 9 38 11 40
REMARK H PARENT 21 20 23 22 32 24 29 26 15 34 13 36 9 39 11 41
REMARK Flexibility Score: inf
ROOT
ATOM      1  O   UNL     1     -11.757 -10.808   6.313  1.00  0.00    -0.454 OA
ENDROOT
BRANCH   1   2
ATOM      2  C   UNL     1     -11.521 -10.707   4.870  1.00  0.00     0.214 A 
ATOM      3  C   UNL     1     -10.942 -11.785   4.152  1.00  0.00     0.180 A 
ATOM      4  O   UNL     1     -11.429 -11.994   2.937  1.00  0.00    -0.452 OA
ATOM      5  C   UNL     1     -11.646  -9.501   4.070  1.00  0.00     0.239 A 
ATOM      6  C   UNL     1     -11.692 -10.969   2.134  1.00  0.00     0.146 A 
ATOM      7  O   UNL     1     -11.749  -8.357   4.611  1.00  0.00    -0.285 OA
ATOM      8  C   UNL     1     -11.667  -9.633   2.645  1.00  0.00     0.111 A 
ATOM      9  C   UNL     1     -11.967 -11.215   0.788  1.00  0.00     0.094 A 
ATOM     10  C   UNL     1     -11.668  -8.538   1.729  1.00  0.00     0.134 A 
ATOM     11  C   UNL     1     -11.994 -10.114  -0.101  1.00  0.00     0.123 A 
ATOM     12  C   UNL     1     -11.884  -8.788   0.352  1.00  0.00     0.093 A 
BRANCH   3  13
ATOM     13  C   UNL     1      -9.489 -12.110   4.252  1.00  0.00     0.025 A 
ATOM     14  C   UNL     1      -8.842 -11.794   5.457  1.00  0.00     0.016 A 
ATOM     15  C   UNL     1      -7.512 -11.320   5.433  1.00  0.00     0.051 A 
ATOM     16  C   UNL     1      -6.767 -11.192   4.240  1.00  0.00     0.157 A 
ATOM     17  C   UNL     1      -8.732 -12.106   3.057  1.00  0.00     0.062 A 
ATOM     18  C   UNL     1      -7.386 -11.666   3.052  1.00  0.00     0.158 A 
BRANCH  16  19
ATOM     19  O   UNL     1      -5.512 -10.536   4.189  1.00  0.00    -0.504 OA
ATOM     20  H   UNL     1      -4.991 -10.277   3.327  1.00  0.00     0.293 HD
ENDBRANCH  16  19
BRANCH  18  21
ATOM     21  O   UNL     1      -6.719 -11.538   1.841  1.00  0.00    -0.504 OA
ATOM     22  H   UNL     1      -7.124 -11.807   0.932  1.00  0.00     0.293 HD
ENDBRANCH  18  21
ENDBRANCH   3  13
BRANCH  10  23
ATOM     23  O   UNL     1     -11.392  -7.208   2.141  1.00  0.00    -0.507 OA
ATOM     24  H   UNL     1     -11.500  -6.357   1.569  1.00  0.00     0.293 HD
ENDBRANCH  10  23
BRANCH  11  25
ATOM     25  O   UNL     1     -12.123 -10.372  -1.465  1.00  0.00    -0.508 OA
ATOM     26  H   UNL     1     -11.969 -11.300  -1.898  1.00  0.00     0.293 HD
ENDBRANCH  11  25
ENDBRANCH   1   2
BRANCH   1  27
ATOM     27  C   UNL     1     -11.059 -10.108   7.367  1.00  0.00     0.339 C 
ATOM     28  C   UNL     1     -11.836  -8.832   7.783  1.00  0.00     0.214 C 
ATOM     29  O   UNL     1     -11.025 -10.954   8.496  1.00  0.00    -0.332 OA
ATOM     30  C   UNL     1     -11.060  -8.060   8.873  1.00  0.00     0.180 C 
ATOM     31  C   UNL     1     -10.449 -10.418   9.715  1.00  0.00     0.179 C 
ATOM     32  C   UNL     1     -10.905  -8.975  10.162  1.00  0.00     0.177 C 
BRANCH  28  33
ATOM     33  O   UNL     1     -12.110  -8.015   6.680  1.00  0.00    -0.384 OA
ATOM     34  H   UNL     1     -11.448  -7.241   6.610  1.00  0.00     0.211 HD
ENDBRANCH  28  33
BRANCH  30  35
ATOM     35  O   UNL     1      -9.800  -7.702   8.351  1.00  0.00    -0.387 OA
ATOM     36  H   UNL     1      -9.962  -7.193   7.501  1.00  0.00     0.211 HD
ENDBRANCH  30  35
BRANCH  31  37
ATOM     37  C   UNL     1      -8.886 -10.642   9.778  1.00  0.00     0.191 C 
BRANCH  37  38
ATOM     38  O   UNL     1      -8.371 -11.312   8.616  1.00  0.00    -0.394 OA
ATOM     39  H   UNL     1      -7.594 -11.829   8.954  1.00  0.00     0.210 HD
ENDBRANCH  37  38
ENDBRANCH  31  37
BRANCH  32  40
ATOM     40  O   UNL     1     -12.081  -9.055  10.999  1.00  0.00    -0.387 OA
ATOM     41  H   UNL     1     -12.689  -9.752  10.580  1.00  0.00     0.211 HD
ENDBRANCH  32  40
ENDBRANCH   1  27
TORSDOF 12
ENDMDL
MODEL 2
REMARK VINA RESULT:     8.720      1.906      2.994
REMARK INTER + INTRA:          13.361
REMARK INTER:                  14.845
REMARK INTRA:                  -1.484
REMARK UNBOUND:                 0.562
REMARK SMILES O=c1c(O[C@@H]2O[C@@H](CO)[C@H](O)[C@@H](O)[C@H]2O)c(-c2ccc(O)c(O)c2)oc2cc(O)cc(O)c12
REMARK SMILES IDX 4 1 3 2 16 3 25 4 2 5 26 6 1 7 33 8 27 9 31 10 28 11 30 12
REMARK SMILES IDX 17 13 18 14 19 15 20 16 24 17 22 18 21 19 23 21 32 23 29 25
REMARK SMILES IDX 5 27 14 28 6 29 12 30 7 31 10 32 15 33 13 35 8 37 9 38 11 40
REMARK H PARENT 21 20 23 22 32 24 29 26 15 34 13 36 9 39 11 41
REMARK Flexibility Score: inf
ROOT
ATOM      1  O   UNL     1      -9.372 -12.038   5.092  1.00  0.00    -0.454 OA
ENDROOT
BRANCH   1   2
ATOM      2  C   UNL     1      -9.285 -11.625   3.689  1.00  0.00     0.214 A 
ATOM      3  C   UNL     1      -8.071 -11.758   2.968  1.00  0.00     0.180 A 
ATOM      4  O   UNL     1      -8.192 -12.125   1.699  1.00  0.00    -0.452 OA
ATOM      5  C   UNL     1     -10.298 -10.885   2.956  1.00  0.00     0.239 A 
ATOM      6  C   UNL     1      -9.148 -11.603   0.939  1.00  0.00     0.146 A 
ATOM      7  O   UNL     1     -11.265 -10.321   3.553  1.00  0.00    -0.285 OA
ATOM      8  C   UNL     1     -10.188 -10.817   1.531  1.00  0.00     0.111 A 
ATOM      9  C   UNL     1      -9.108 -11.813  -0.440  1.00  0.00     0.094 A 
ATOM     10  C   UNL     1     -11.034 -10.036   0.687  1.00  0.00     0.134 A 
ATOM     11  C   UNL     1      -9.975 -11.051  -1.258  1.00  0.00     0.123 A 
ATOM     12  C   UNL     1     -10.953 -10.199  -0.716  1.00  0.00     0.093 A 
BRANCH   3  13
ATOM     13  C   UNL     1      -6.915 -10.839   3.192  1.00  0.00     0.025 A 
ATOM     14  C   UNL     1      -6.137 -10.503   2.073  1.00  0.00     0.016 A 
ATOM     15  C   UNL     1      -4.739 -10.362   2.212  1.00  0.00     0.051 A 
ATOM     16  C   UNL     1      -4.075 -10.496   3.452  1.00  0.00     0.157 A 
ATOM     17  C   UNL     1      -6.297 -10.863   4.464  1.00  0.00     0.062 A 
ATOM     18  C   UNL     1      -4.899 -10.680   4.595  1.00  0.00     0.158 A 
BRANCH  16  19
ATOM     19  O   UNL     1      -2.664 -10.550   3.561  1.00  0.00    -0.504 OA
ATOM     20  H   UNL     1      -2.123 -10.688   4.439  1.00  0.00     0.293 HD
ENDBRANCH  16  19
BRANCH  18  21
ATOM     21  O   UNL     1      -4.307 -10.850   5.839  1.00  0.00    -0.504 OA
ATOM     22  H   UNL     1      -4.423 -10.193   6.625  1.00  0.00     0.293 HD
ENDBRANCH  18  21
ENDBRANCH   3  13
BRANCH  10  23
ATOM     23  O   UNL     1     -11.911  -9.047   1.206  1.00  0.00    -0.507 OA
ATOM     24  H   UNL     1     -12.753  -9.218   1.777  1.00  0.00     0.293 HD
ENDBRANCH  10  23
BRANCH  11  25
ATOM     25  O   UNL     1      -9.834 -11.153  -2.642  1.00  0.00    -0.508 OA
ATOM     26  H   UNL     1      -9.452 -11.983  -3.127  1.00  0.00     0.293 HD
ENDBRANCH  11  25
ENDBRANCH   1   2
BRANCH   1  27
ATOM     27  C   UNL     1      -9.836 -11.251   6.212  1.00  0.00     0.339 C 
ATOM     28  C   UNL     1     -11.153 -11.839   6.785  1.00  0.00     0.214 C 
ATOM     29  O   UNL     1      -8.868 -11.342   7.234  1.00  0.00    -0.332 OA
ATOM     30  C   UNL     1     -11.672 -10.964   7.947  1.00  0.00     0.180 C 
ATOM     31  C   UNL     1      -9.169 -10.698   8.499  1.00  0.00     0.179 C 
ATOM     32  C   UNL     1     -10.599 -10.946   9.118  1.00  0.00     0.177 C 
BRANCH  28  33
ATOM     33  O   UNL     1     -12.124 -11.991   5.789  1.00  0.00    -0.384 OA
ATOM     34  H   UNL     1     -13.059 -12.091   6.186  1.00  0.00     0.211 HD
ENDBRANCH  28  33
BRANCH  30  35
ATOM     35  O   UNL     1     -11.907  -9.664   7.453  1.00  0.00    -0.387 OA
ATOM     36  H   UNL     1     -11.012  -9.221   7.340  1.00  0.00     0.211 HD
ENDBRANCH  30  35
BRANCH  31  37
ATOM     37  C   UNL     1      -8.719  -9.184   8.513  1.00  0.00     0.191 C 
BRANCH  37  38
ATOM     38  O   UNL     1      -9.717  -8.310   9.064  1.00  0.00    -0.394 OA
ATOM     39  H   UNL     1      -9.289  -7.414   9.060  1.00  0.00     0.210 HD
ENDBRANCH  37  38
ENDBRANCH  31  37
BRANCH  32  40
ATOM     40  O   UNL     1     -10.589 -12.124   9.955  1.00  0.00    -0.387 OA
ATOM     41  H   UNL     1     -10.858 -11.822  10.886  1.00  0.00     0.211 HD
ENDBRANCH  32  40
ENDBRANCH   1  27
TORSDOF 12
ENDMDL
