MODEL 1
REMARK VINA RESULT:    -5.125      0.000      0.000
REMARK INTER + INTRA:          -5.275
REMARK INTER:                  -5.275
REMARK INTRA:                   0.000
REMARK UNBOUND:                 0.000
REMARK SMILES O=c1ccc2ccc(O)cc2o1
REMARK SMILES IDX 6 1 7 2 8 3 10 4 11 5 5 6 4 7 3 8 2 9 1 10 12 11 9 12
REMARK H PARENT 9 13
REMARK Flexibility Score: inf
ROOT
ATOM      1  C   UNL     1      20.616  22.745  40.050  1.00  0.00     0.016 A 
ATOM      2  C   UNL     1      20.749  21.512  39.401  1.00  0.00     0.047 A 
ATOM      3  C   UNL     1      20.360  21.370  38.065  1.00  0.00     0.119 A 
ATOM      4  C   UNL     1      19.835  22.468  37.367  1.00  0.00     0.094 A 
ATOM      5  C   UNL     1      19.698  23.705  38.007  1.00  0.00     0.142 A 
ATOM      6  C   UNL     1      20.092  23.845  39.356  1.00  0.00     0.018 A 
ATOM      7  C   UNL     1      19.944  25.094  39.969  1.00  0.00     0.019 A 
ATOM      8  C   UNL     1      19.416  26.156  39.236  1.00  0.00     0.094 A 
ATOM      9  C   UNL     1      19.048  25.944  37.902  1.00  0.00     0.336 A 
ATOM     10  O   UNL     1      18.570  26.891  37.225  1.00  0.00    -0.246 OA
ATOM     11  O   UNL     1      19.199  24.746  37.344  1.00  0.00    -0.423 OA
ENDROOT
BRANCH   3  12
ATOM     12  O   UNL     1      20.500  20.133  37.437  1.00  0.00    -0.508 OA
ATOM     13  H   UNL     1      20.266  19.269  37.912  1.00  0.00     0.293 HD
ENDBRANCH   3  12
TORSDOF 1
ENDMDL
MODEL 2
REMARK VINA RESULT:    -5.068      1.915      4.882
REMARK INTER + INTRA:          -5.216
REMARK INTER:                  -5.216
REMARK INTRA:                   0.000
REMARK UNBOUND:                 0.000
REMARK SMILES O=c1ccc2ccc(O)cc2o1
REMARK SMILES IDX 6 1 7 2 8 3 10 4 11 5 5 6 4 7 3 8 2 9 1 10 12 11 9 12
REMARK H PARENT 9 13
REMARK Flexibility Score: inf
ROOT
ATOM      1  C   UNL     1      19.223  25.267  37.970  1.00  0.00     0.016 A 
ATOM      2  C   UNL     1      19.218  26.488  38.653  1.00  0.00     0.047 A 
ATOM      3  C   UNL     1      19.742  26.576  39.948  1.00  0.00     0.119 A 
ATOM      4  C   UNL     1      20.276  25.435  40.567  1.00  0.00     0.094 A 
ATOM      5  C   UNL     1      20.286  24.210  39.891  1.00  0.00     0.142 A 
ATOM      6  C   UNL     1      19.756  24.125  38.584  1.00  0.00     0.018 A 
ATOM      7  C   UNL     1      19.780  22.887  37.934  1.00  0.00     0.019 A 
ATOM      8  C   UNL     1      20.321  21.781  38.589  1.00  0.00     0.094 A 
ATOM      9  C   UNL     1      20.828  21.940  39.884  1.00  0.00     0.336 A 
ATOM     10  O   UNL     1      21.320  20.953  40.491  1.00  0.00    -0.246 OA
ATOM     11  O   UNL     1      20.793  23.129  40.480  1.00  0.00    -0.423 OA
ENDROOT
BRANCH   3  12
ATOM     12  O   UNL     1      19.728  27.801  40.612  1.00  0.00    -0.508 OA
ATOM     13  H   UNL     1      20.359  27.993  41.382  1.00  0.00     0.293 HD
ENDBRANCH   3  12
TORSDOF 1
ENDMDL
MODEL 3
REMARK VINA RESULT:    -4.890      5.127      7.145
REMARK INTER + INTRA:          -5.033
REMARK INTER:                  -5.033
REMARK INTRA:                   0.000
REMARK UNBOUND:                 0.000
REMARK SMILES O=c1ccc2ccc(O)cc2o1
REMARK SMILES IDX 6 1 7 2 8 3 10 4 11 5 5 6 4 7 3 8 2 9 1 10 12 11 9 12
REMARK H PARENT 9 13
REMARK Flexibility Score: inf
ROOT
ATOM      1  C   UNL     1      17.377  27.395  44.697  1.00  0.00     0.016 A 
ATOM      2  C   UNL     1      18.244  28.258  45.377  1.00  0.00     0.047 A 
ATOM      3  C   UNL     1      19.585  28.361  44.993  1.00  0.00     0.119 A 
ATOM      4  C   UNL     1      20.068  27.596  43.920  1.00  0.00     0.094 A 
ATOM      5  C   UNL     1      19.209  26.730  43.234  1.00  0.00     0.142 A 
ATOM      6  C   UNL     1      17.855  26.629  43.625  1.00  0.00     0.018 A 
ATOM      7  C   UNL     1      17.021  25.755  42.920  1.00  0.00     0.019 A 
ATOM      8  C   UNL     1      17.545  25.015  41.861  1.00  0.00     0.094 A 
ATOM      9  C   UNL     1      18.896  25.167  41.529  1.00  0.00     0.336 A 
ATOM     10  O   UNL     1      19.387  24.507  40.577  1.00  0.00    -0.246 OA
ATOM     11  O   UNL     1      19.668  26.005  42.216  1.00  0.00    -0.423 OA
ENDROOT
BRANCH   3  12
ATOM     12  O   UNL     1      20.432  29.227  45.682  1.00  0.00    -0.508 OA
ATOM     13  H   UNL     1      21.355  28.935  45.985  1.00  0.00     0.293 HD
ENDBRANCH   3  12
TORSDOF 1
ENDMDL
MODEL 4
REMARK VINA RESULT:    -4.843      7.300      8.680
REMARK INTER + INTRA:          -4.984
REMARK INTER:                  -4.984
REMARK INTRA:                   0.000
REMARK UNBOUND:                 0.000
REMARK SMILES O=c1ccc2ccc(O)cc2o1
REMARK SMILES IDX 6 1 7 2 8 3 10 4 11 5 5 6 4 7 3 8 2 9 1 10 12 11 9 12
REMARK H PARENT 9 13
REMARK Flexibility Score: inf
ROOT
ATOM      1  C   UNL     1      19.660  26.711  44.214  1.00  0.00     0.016 A 
ATOM      2  C   UNL     1      20.044  28.014  44.552  1.00  0.00     0.047 A 
ATOM      3  C   UNL     1      19.198  28.826  45.314  1.00  0.00     0.119 A 
ATOM      4  C   UNL     1      17.956  28.335  45.745  1.00  0.00     0.094 A 
ATOM      5  C   UNL     1      17.563  27.034  45.413  1.00  0.00     0.142 A 
ATOM      6  C   UNL     1      18.420  26.217  44.643  1.00  0.00     0.018 A 
ATOM      7  C   UNL     1      18.000  24.921  44.326  1.00  0.00     0.019 A 
ATOM      8  C   UNL     1      16.757  24.476  44.776  1.00  0.00     0.094 A 
ATOM      9  C   UNL     1      15.961  25.342  45.536  1.00  0.00     0.336 A 
ATOM     10  O   UNL     1      14.836  24.958  45.950  1.00  0.00    -0.246 OA
ATOM     11  O   UNL     1      16.384  26.570  45.822  1.00  0.00    -0.423 OA
ENDROOT
BRANCH   3  12
ATOM     12  O   UNL     1      19.599  30.121  45.640  1.00  0.00    -0.508 OA
ATOM     13  H   UNL     1      18.928  30.874  45.738  1.00  0.00     0.293 HD
ENDBRANCH   3  12
TORSDOF 1
ENDMDL
MODEL 5
REMARK VINA RESULT:    -4.712      5.518      7.057
REMARK INTER + INTRA:          -4.850
REMARK INTER:                  -4.850
REMARK INTRA:                   0.000
REMARK UNBOUND:                 0.000
REMARK SMILES O=c1ccc2ccc(O)cc2o1
REMARK SMILES IDX 6 1 7 2 8 3 10 4 11 5 5 6 4 7 3 8 2 9 1 10 12 11 9 12
REMARK H PARENT 9 13
REMARK Flexibility Score: inf
ROOT
ATOM      1  C   UNL     1      18.439  26.113  41.661  1.00  0.00     0.016 A 
ATOM      2  C   UNL     1      19.703  26.623  41.345  1.00  0.00     0.047 A 
ATOM      3  C   UNL     1      20.532  27.131  42.350  1.00  0.00     0.119 A 
ATOM      4  C   UNL     1      20.099  27.130  43.684  1.00  0.00     0.094 A 
ATOM      5  C   UNL     1      18.836  26.622  44.011  1.00  0.00     0.142 A 
ATOM      6  C   UNL     1      18.001  26.109  42.993  1.00  0.00     0.018 A 
ATOM      7  C   UNL     1      16.745  25.608  43.350  1.00  0.00     0.019 A 
ATOM      8  C   UNL     1      16.357  25.628  44.690  1.00  0.00     0.094 A 
ATOM      9  C   UNL     1      17.237  26.150  45.644  1.00  0.00     0.336 A 
ATOM     10  O   UNL     1      16.904  26.177  46.858  1.00  0.00    -0.246 OA
ATOM     11  O   UNL     1      18.427  26.621  45.277  1.00  0.00    -0.423 OA
ENDROOT
BRANCH   3  12
ATOM     12  O   UNL     1      21.788  27.635  42.014  1.00  0.00    -0.508 OA
ATOM     13  H   UNL     1      22.636  27.116  42.210  1.00  0.00     0.293 HD
ENDBRANCH   3  12
TORSDOF 1
ENDMDL
MODEL 6
REMARK VINA RESULT:    -4.650      5.006      6.736
REMARK INTER + INTRA:          -4.786
REMARK INTER:                  -4.786
REMARK INTRA:                   0.000
REMARK UNBOUND:                 0.000
REMARK SMILES O=c1ccc2ccc(O)cc2o1
REMARK SMILES IDX 6 1 7 2 8 3 10 4 11 5 5 6 4 7 3 8 2 9 1 10 12 11 9 12
REMARK H PARENT 9 13
REMARK Flexibility Score: inf
ROOT
ATOM      1  C   UNL     1      17.150  25.632  42.986  1.00  0.00     0.016 A 
ATOM      2  C   UNL     1      16.710  25.973  44.270  1.00  0.00     0.047 A 
ATOM      3  C   UNL     1      17.518  26.745  45.112  1.00  0.00     0.119 A 
ATOM      4  C   UNL     1      18.777  27.181  44.671  1.00  0.00     0.094 A 
ATOM      5  C   UNL     1      19.226  26.844  43.389  1.00  0.00     0.142 A 
ATOM      6  C   UNL     1      18.407  26.065  42.541  1.00  0.00     0.018 A 
ATOM      7  C   UNL     1      18.882  25.745  41.265  1.00  0.00     0.019 A 
ATOM      8  C   UNL     1      20.140  26.201  40.870  1.00  0.00     0.094 A 
ATOM      9  C   UNL     1      20.895  26.969  41.763  1.00  0.00     0.336 A 
ATOM     10  O   UNL     1      22.033  27.388  41.425  1.00  0.00    -0.246 OA
ATOM     11  O   UNL     1      20.420  27.259  42.972  1.00  0.00    -0.423 OA
ENDROOT
BRANCH   3  12
ATOM     12  O   UNL     1      17.062  27.074  46.388  1.00  0.00    -0.508 OA
ATOM     13  H   UNL     1      16.302  26.566  46.825  1.00  0.00     0.293 HD
ENDBRANCH   3  12
TORSDOF 1
ENDMDL
MODEL 7
REMARK VINA RESULT:    -4.646      6.359      7.834
REMARK INTER + INTRA:          -4.781
REMARK INTER:                  -4.781
REMARK INTRA:                   0.000
REMARK UNBOUND:                 0.000
REMARK SMILES O=c1ccc2ccc(O)cc2o1
REMARK SMILES IDX 6 1 7 2 8 3 10 4 11 5 5 6 4 7 3 8 2 9 1 10 12 11 9 12
REMARK H PARENT 9 13
REMARK Flexibility Score: inf
ROOT
ATOM      1  C   UNL     1      17.715  25.781  42.554  1.00  0.00     0.016 A 
ATOM      2  C   UNL     1      18.917  26.404  42.202  1.00  0.00     0.047 A 
ATOM      3  C   UNL     1      19.678  27.071  43.168  1.00  0.00     0.119 A 
ATOM      4  C   UNL     1      19.237  27.117  44.499  1.00  0.00     0.094 A 
ATOM      5  C   UNL     1      18.036  26.497  44.862  1.00  0.00     0.142 A 
ATOM      6  C   UNL     1      17.271  25.824  43.883  1.00  0.00     0.018 A 
ATOM      7  C   UNL     1      16.075  25.213  44.276  1.00  0.00     0.019 A 
ATOM      8  C   UNL     1      15.677  25.285  45.611  1.00  0.00     0.094 A 
ATOM      9  C   UNL     1      16.486  25.969  46.525  1.00  0.00     0.336 A 
ATOM     10  O   UNL     1      16.143  26.045  47.733  1.00  0.00    -0.246 OA
ATOM     11  O   UNL     1      17.619  26.542  46.125  1.00  0.00    -0.423 OA
ENDROOT
BRANCH   3  12
ATOM     12  O   UNL     1      20.873  27.686  42.796  1.00  0.00    -0.508 OA
ATOM     13  H   UNL     1      21.426  28.214  43.462  1.00  0.00     0.293 HD
ENDBRANCH   3  12
TORSDOF 1
ENDMDL
MODEL 8
REMARK VINA RESULT:    -4.632      4.211      5.886
REMARK INTER + INTRA:          -4.768
REMARK INTER:                  -4.768
REMARK INTRA:                   0.000
REMARK UNBOUND:                 0.000
REMARK SMILES O=c1ccc2ccc(O)cc2o1
REMARK SMILES IDX 6 1 7 2 8 3 10 4 11 5 5 6 4 7 3 8 2 9 1 10 12 11 9 12
REMARK H PARENT 9 13
REMARK Flexibility Score: inf
ROOT
ATOM      1  C   UNL     1      19.817  27.020  44.203  1.00  0.00     0.016 A 
ATOM      2  C   UNL     1      18.684  26.693  44.956  1.00  0.00     0.047 A 
ATOM      3  C   UNL     1      17.510  26.275  44.321  1.00  0.00     0.119 A 
ATOM      4  C   UNL     1      17.464  26.181  42.922  1.00  0.00     0.094 A 
ATOM      5  C   UNL     1      18.592  26.505  42.160  1.00  0.00     0.142 A 
ATOM      6  C   UNL     1      19.777  26.927  42.805  1.00  0.00     0.018 A 
ATOM      7  C   UNL     1      20.888  27.244  42.017  1.00  0.00     0.019 A 
ATOM      8  C   UNL     1      20.796  27.136  40.630  1.00  0.00     0.094 A 
ATOM      9  C   UNL     1      19.590  26.710  40.061  1.00  0.00     0.336 A 
ATOM     10  O   UNL     1      19.488  26.607  38.810  1.00  0.00    -0.246 OA
ATOM     11  O   UNL     1      18.548  26.415  40.833  1.00  0.00    -0.423 OA
ENDROOT
BRANCH   3  12
ATOM     12  O   UNL     1      16.392  25.954  45.089  1.00  0.00    -0.508 OA
ATOM     13  H   UNL     1      16.426  25.958  46.102  1.00  0.00     0.293 HD
ENDBRANCH   3  12
TORSDOF 1
ENDMDL
MODEL 9
REMARK VINA RESULT:    -4.576      4.292      5.807
REMARK INTER + INTRA:          -4.710
REMARK INTER:                  -4.710
REMARK INTRA:                   0.000
REMARK UNBOUND:                 0.000
REMARK SMILES O=c1ccc2ccc(O)cc2o1
REMARK SMILES IDX 6 1 7 2 8 3 10 4 11 5 5 6 4 7 3 8 2 9 1 10 12 11 9 12
REMARK H PARENT 9 13
REMARK Flexibility Score: inf
ROOT
ATOM      1  C   UNL     1      20.523  25.610  40.482  1.00  0.00     0.016 A 
ATOM      2  C   UNL     1      21.253  26.741  40.864  1.00  0.00     0.047 A 
ATOM      3  C   UNL     1      20.881  27.474  41.997  1.00  0.00     0.119 A 
ATOM      4  C   UNL     1      19.772  27.074  42.757  1.00  0.00     0.094 A 
ATOM      5  C   UNL     1      19.035  25.944  42.384  1.00  0.00     0.142 A 
ATOM      6  C   UNL     1      19.414  25.208  41.239  1.00  0.00     0.018 A 
ATOM      7  C   UNL     1      18.658  24.083  40.890  1.00  0.00     0.019 A 
ATOM      8  C   UNL     1      17.563  23.724  41.676  1.00  0.00     0.094 A 
ATOM      9  C   UNL     1      17.248  24.502  42.796  1.00  0.00     0.336 A 
ATOM     10  O   UNL     1      16.263  24.194  43.517  1.00  0.00    -0.246 OA
ATOM     11  O   UNL     1      17.983  25.567  43.106  1.00  0.00    -0.423 OA
ENDROOT
BRANCH   3  12
ATOM     12  O   UNL     1      21.622  28.597  42.361  1.00  0.00    -0.508 OA
ATOM     13  H   UNL     1      21.419  29.112  43.210  1.00  0.00     0.293 HD
ENDBRANCH   3  12
TORSDOF 1
ENDMDL
