MODEL 1
REMARK VINA RESULT:    -5.300      0.000      0.000
REMARK INTER + INTRA:          -7.255
REMARK INTER:                  -6.849
REMARK INTRA:                  -0.405
REMARK UNBOUND:                -0.405
REMARK SMILES CCO[C@@H]1O[C@@H](CO)[C@H](O)[C@H](O)[C@@H]1O
REMARK SMILES IDX 4 1 13 2 11 3 9 4 6 5 5 6 3 7 2 8 1 9 14 10 12 12 7 14 8 15
REMARK SMILES IDX 10 17
REMARK H PARENT 14 11 12 13 8 16 10 18
REMARK Flexibility Score: inf
ROOT
ATOM      1  C   UNL     1      40.939  39.258  22.259  1.00  0.00     0.281 C 
ATOM      2  C   UNL     1      41.919  38.074  22.164  1.00  0.00     0.202 C 
ATOM      3  C   UNL     1      41.701  37.083  23.325  1.00  0.00     0.179 C 
ATOM      4  C   UNL     1      40.213  36.714  23.418  1.00  0.00     0.177 C 
ATOM      5  C   UNL     1      39.351  37.998  23.456  1.00  0.00     0.178 C 
ATOM      6  O   UNL     1      39.594  38.796  22.306  1.00  0.00    -0.341 OA
ENDROOT
BRANCH   1   7
ATOM      7  O   UNL     1      41.251  40.071  23.379  1.00  0.00    -0.350 OA
BRANCH   7   8
ATOM      8  C   UNL     1      41.457  41.408  22.971  1.00  0.00     0.160 C 
ATOM      9  C   UNL     1      40.140  42.163  23.065  1.00  0.00     0.035 C 
ENDBRANCH   7   8
ENDBRANCH   1   7
BRANCH   2  10
ATOM     10  O   UNL     1      43.240  38.552  22.157  1.00  0.00    -0.385 OA
ATOM     11  H   UNL     1      43.514  38.621  21.205  1.00  0.00     0.211 HD
ENDBRANCH   2  10
BRANCH   3  12
ATOM     12  O   UNL     1      42.129  37.644  24.543  1.00  0.00    -0.387 OA
ATOM     13  H   UNL     1      41.653  38.510  24.647  1.00  0.00     0.211 HD
ENDBRANCH   3  12
BRANCH   5  14
ATOM     14  C   UNL     1      37.857  37.656  23.493  1.00  0.00     0.191 C 
BRANCH  14  15
ATOM     15  O   UNL     1      37.627  36.473  22.777  1.00  0.00    -0.394 OA
ATOM     16  H   UNL     1      36.644  36.412  22.656  1.00  0.00     0.210 HD
ENDBRANCH  14  15
ENDBRANCH   5  14
BRANCH   4  17
ATOM     17  O   UNL     1      40.003  35.942  24.576  1.00  0.00    -0.387 OA
ATOM     18  H   UNL     1      40.817  36.031  25.138  1.00  0.00     0.211 HD
ENDBRANCH   4  17
TORSDOF 7
ENDMDL
MODEL 2
REMARK VINA RESULT:    -5.295      1.574      2.109
REMARK INTER + INTRA:          -7.248
REMARK INTER:                  -6.814
REMARK INTRA:                  -0.433
REMARK UNBOUND:                -0.405
REMARK SMILES CCO[C@@H]1O[C@@H](CO)[C@H](O)[C@H](O)[C@@H]1O
REMARK SMILES IDX 4 1 13 2 11 3 9 4 6 5 5 6 3 7 2 8 1 9 14 10 12 12 7 14 8 15
REMARK SMILES IDX 10 17
REMARK H PARENT 14 11 12 13 8 16 10 18
REMARK Flexibility Score: inf
ROOT
ATOM      1  C   UNL     1      40.863  40.158  23.399  1.00  0.00     0.281 C 
ATOM      2  C   UNL     1      41.876  40.047  22.244  1.00  0.00     0.202 C 
ATOM      3  C   UNL     1      42.566  38.668  22.249  1.00  0.00     0.179 C 
ATOM      4  C   UNL     1      41.507  37.558  22.318  1.00  0.00     0.177 C 
ATOM      5  C   UNL     1      40.535  37.829  23.491  1.00  0.00     0.178 C 
ATOM      6  O   UNL     1      39.915  39.099  23.341  1.00  0.00    -0.341 OA
ENDROOT
BRANCH   1   7
ATOM      7  O   UNL     1      41.536  40.190  24.648  1.00  0.00    -0.350 OA
BRANCH   7   8
ATOM      8  C   UNL     1      40.904  41.102  25.521  1.00  0.00     0.160 C 
ATOM      9  C   UNL     1      41.327  42.515  25.152  1.00  0.00     0.035 C 
ENDBRANCH   7   8
ENDBRANCH   1   7
BRANCH   2  10
ATOM     10  O   UNL     1      42.823  41.080  22.343  1.00  0.00    -0.385 OA
ATOM     11  H   UNL     1      43.161  41.246  21.424  1.00  0.00     0.211 HD
ENDBRANCH   2  10
BRANCH   3  12
ATOM     12  O   UNL     1      43.445  38.557  23.342  1.00  0.00    -0.387 OA
ATOM     13  H   UNL     1      42.885  38.437  24.153  1.00  0.00     0.211 HD
ENDBRANCH   3  12
BRANCH   5  14
ATOM     14  C   UNL     1      39.434  36.764  23.548  1.00  0.00     0.191 C 
BRANCH  14  15
ATOM     15  O   UNL     1      39.836  35.715  24.385  1.00  0.00    -0.394 OA
ATOM     16  H   UNL     1      40.787  35.890  24.609  1.00  0.00     0.210 HD
ENDBRANCH  14  15
ENDBRANCH   5  14
BRANCH   4  17
ATOM     17  O   UNL     1      42.151  36.319  22.486  1.00  0.00    -0.387 OA
ATOM     18  H   UNL     1      42.850  36.254  21.783  1.00  0.00     0.211 HD
ENDBRANCH   4  17
TORSDOF 7
ENDMDL
MODEL 3
REMARK VINA RESULT:    -4.959      1.919      3.869
REMARK INTER + INTRA:          -6.814
REMARK INTER:                  -6.629
REMARK INTRA:                  -0.185
REMARK UNBOUND:                -0.405
REMARK SMILES CCO[C@@H]1O[C@@H](CO)[C@H](O)[C@H](O)[C@@H]1O
REMARK SMILES IDX 4 1 13 2 11 3 9 4 6 5 5 6 3 7 2 8 1 9 14 10 12 12 7 14 8 15
REMARK SMILES IDX 10 17
REMARK H PARENT 14 11 12 13 8 16 10 18
REMARK Flexibility Score: inf
ROOT
ATOM      1  C   UNL     1      39.131  39.379  22.382  1.00  0.00     0.281 C 
ATOM      2  C   UNL     1      38.224  39.024  23.575  1.00  0.00     0.202 C 
ATOM      3  C   UNL     1      38.277  37.512  23.876  1.00  0.00     0.179 C 
ATOM      4  C   UNL     1      39.740  37.058  23.990  1.00  0.00     0.177 C 
ATOM      5  C   UNL     1      40.537  37.527  22.749  1.00  0.00     0.178 C 
ATOM      6  O   UNL     1      40.464  38.940  22.614  1.00  0.00    -0.341 OA
ENDROOT
BRANCH   1   7
ATOM      7  O   UNL     1      38.605  38.839  21.180  1.00  0.00    -0.350 OA
BRANCH   7   8
ATOM      8  C   UNL     1      38.705  39.783  20.134  1.00  0.00     0.160 C 
ATOM      9  C   UNL     1      37.610  39.512  19.115  1.00  0.00     0.035 C 
ENDBRANCH   7   8
ENDBRANCH   1   7
BRANCH   2  10
ATOM     10  O   UNL     1      36.907  39.433  23.307  1.00  0.00    -0.385 OA
ATOM     11  H   UNL     1      36.413  38.627  23.005  1.00  0.00     0.211 HD
ENDBRANCH   2  10
BRANCH   3  12
ATOM     12  O   UNL     1      37.629  36.781  22.863  1.00  0.00    -0.387 OA
ATOM     13  H   UNL     1      37.842  35.823  23.015  1.00  0.00     0.211 HD
ENDBRANCH   3  12
BRANCH   5  14
ATOM     14  C   UNL     1      42.014  37.133  22.864  1.00  0.00     0.191 C 
BRANCH  14  15
ATOM     15  O   UNL     1      42.759  37.807  21.887  1.00  0.00    -0.394 OA
ATOM     16  H   UNL     1      43.467  37.175  21.597  1.00  0.00     0.210 HD
ENDBRANCH  14  15
ENDBRANCH   5  14
BRANCH   4  17
ATOM     17  O   UNL     1      39.778  35.656  24.101  1.00  0.00    -0.387 OA
ATOM     18  H   UNL     1      38.886  35.364  24.426  1.00  0.00     0.211 HD
ENDBRANCH   4  17
TORSDOF 7
ENDMDL
MODEL 4
REMARK VINA RESULT:    -4.923      1.810      4.380
REMARK INTER + INTRA:          -6.767
REMARK INTER:                  -6.462
REMARK INTRA:                  -0.304
REMARK UNBOUND:                -0.405
REMARK SMILES CCO[C@@H]1O[C@@H](CO)[C@H](O)[C@H](O)[C@@H]1O
REMARK SMILES IDX 4 1 13 2 11 3 9 4 6 5 5 6 3 7 2 8 1 9 14 10 12 12 7 14 8 15
REMARK SMILES IDX 10 17
REMARK H PARENT 14 11 12 13 8 16 10 18
REMARK Flexibility Score: inf
ROOT
ATOM      1  C   UNL     1      39.682  38.125  22.411  1.00  0.00     0.281 C 
ATOM      2  C   UNL     1      39.710  39.153  21.265  1.00  0.00     0.202 C 
ATOM      3  C   UNL     1      40.743  40.263  21.547  1.00  0.00     0.179 C 
ATOM      4  C   UNL     1      42.094  39.632  21.913  1.00  0.00     0.177 C 
ATOM      5  C   UNL     1      41.903  38.588  23.039  1.00  0.00     0.178 C 
ATOM      6  O   UNL     1      40.979  37.586  22.637  1.00  0.00    -0.341 OA
ENDROOT
BRANCH   1   7
ATOM      7  O   UNL     1      39.147  38.708  23.589  1.00  0.00    -0.350 OA
BRANCH   7   8
ATOM      8  C   UNL     1      38.018  37.980  24.026  1.00  0.00     0.160 C 
ATOM      9  C   UNL     1      37.988  36.637  23.313  1.00  0.00     0.035 C 
ENDBRANCH   7   8
ENDBRANCH   1   7
BRANCH   2  10
ATOM     10  O   UNL     1      38.428  39.698  21.086  1.00  0.00    -0.385 OA
ATOM     11  H   UNL     1      37.880  38.999  20.641  1.00  0.00     0.211 HD
ENDBRANCH   2  10
BRANCH   3  12
ATOM     12  O   UNL     1      40.305  41.093  22.596  1.00  0.00    -0.387 OA
ATOM     13  H   UNL     1      40.275  42.020  22.239  1.00  0.00     0.211 HD
ENDBRANCH   3  12
BRANCH   5  14
ATOM     14  C   UNL     1      43.230  37.904  23.384  1.00  0.00     0.191 C 
BRANCH  14  15
ATOM     15  O   UNL     1      44.077  37.926  22.267  1.00  0.00    -0.394 OA
ATOM     16  H   UNL     1      44.090  36.999  21.914  1.00  0.00     0.210 HD
ENDBRANCH  14  15
ENDBRANCH   5  14
BRANCH   4  17
ATOM     17  O   UNL     1      42.978  40.647  22.324  1.00  0.00    -0.387 OA
ATOM     18  H   UNL     1      43.229  40.453  23.265  1.00  0.00     0.211 HD
ENDBRANCH   4  17
TORSDOF 7
ENDMDL
MODEL 5
REMARK VINA RESULT:    -4.791      1.799      3.638
REMARK INTER + INTRA:          -6.596
REMARK INTER:                  -6.163
REMARK INTRA:                  -0.433
REMARK UNBOUND:                -0.405
REMARK SMILES CCO[C@@H]1O[C@@H](CO)[C@H](O)[C@H](O)[C@@H]1O
REMARK SMILES IDX 4 1 13 2 11 3 9 4 6 5 5 6 3 7 2 8 1 9 14 10 12 12 7 14 8 15
REMARK SMILES IDX 10 17
REMARK H PARENT 14 11 12 13 8 16 10 18
REMARK Flexibility Score: inf
ROOT
ATOM      1  C   UNL     1      39.257  39.889  24.533  1.00  0.00     0.281 C 
ATOM      2  C   UNL     1      37.738  39.718  24.725  1.00  0.00     0.202 C 
ATOM      3  C   UNL     1      37.171  38.681  23.734  1.00  0.00     0.179 C 
ATOM      4  C   UNL     1      38.002  37.392  23.802  1.00  0.00     0.177 C 
ATOM      5  C   UNL     1      39.505  37.723  23.644  1.00  0.00     0.178 C 
ATOM      6  O   UNL     1      39.922  38.637  24.649  1.00  0.00    -0.341 OA
ENDROOT
BRANCH   1   7
ATOM      7  O   UNL     1      39.533  40.514  23.289  1.00  0.00    -0.350 OA
BRANCH   7   8
ATOM      8  C   UNL     1      40.765  41.200  23.350  1.00  0.00     0.160 C 
ATOM      9  C   UNL     1      41.731  40.576  22.355  1.00  0.00     0.035 C 
ENDBRANCH   7   8
ENDBRANCH   1   7
BRANCH   2  10
ATOM     10  O   UNL     1      37.099  40.959  24.569  1.00  0.00    -0.385 OA
ATOM     11  H   UNL     1      36.953  41.322  25.481  1.00  0.00     0.211 HD
ENDBRANCH   2  10
BRANCH   3  12
ATOM     12  O   UNL     1      37.185  39.189  22.422  1.00  0.00    -0.387 OA
ATOM     13  H   UNL     1      36.307  38.965  22.015  1.00  0.00     0.211 HD
ENDBRANCH   3  12
BRANCH   5  14
ATOM     14  C   UNL     1      40.361  36.457  23.763  1.00  0.00     0.191 C 
BRANCH  14  15
ATOM     15  O   UNL     1      39.709  35.521  24.576  1.00  0.00    -0.394 OA
ATOM     16  H   UNL     1      40.423  35.026  25.054  1.00  0.00     0.210 HD
ENDBRANCH  14  15
ENDBRANCH   5  14
BRANCH   4  17
ATOM     17  O   UNL     1      37.578  36.518  22.784  1.00  0.00    -0.387 OA
ATOM     18  H   UNL     1      36.711  36.864  22.443  1.00  0.00     0.211 HD
ENDBRANCH   4  17
TORSDOF 7
ENDMDL
MODEL 6
REMARK VINA RESULT:    -4.752      1.871      4.438
REMARK INTER + INTRA:          -6.546
REMARK INTER:                  -6.225
REMARK INTRA:                  -0.321
REMARK UNBOUND:                -0.405
REMARK SMILES CCO[C@@H]1O[C@@H](CO)[C@H](O)[C@H](O)[C@@H]1O
REMARK SMILES IDX 4 1 13 2 11 3 9 4 6 5 5 6 3 7 2 8 1 9 14 10 12 12 7 14 8 15
REMARK SMILES IDX 10 17
REMARK H PARENT 14 11 12 13 8 16 10 18
REMARK Flexibility Score: inf
ROOT
ATOM      1  C   UNL     1      38.981  39.632  23.955  1.00  0.00     0.281 C 
ATOM      2  C   UNL     1      39.508  40.879  24.689  1.00  0.00     0.202 C 
ATOM      3  C   UNL     1      40.991  41.132  24.349  1.00  0.00     0.179 C 
ATOM      4  C   UNL     1      41.182  41.122  22.826  1.00  0.00     0.177 C 
ATOM      5  C   UNL     1      40.562  39.839  22.223  1.00  0.00     0.178 C 
ATOM      6  O   UNL     1      39.182  39.751  22.552  1.00  0.00    -0.341 OA
ENDROOT
BRANCH   1   7
ATOM      7  O   UNL     1      39.588  38.458  24.472  1.00  0.00    -0.350 OA
BRANCH   7   8
ATOM      8  C   UNL     1      38.910  37.311  24.003  1.00  0.00     0.160 C 
ATOM      9  C   UNL     1      39.879  36.139  23.980  1.00  0.00     0.035 C 
ENDBRANCH   7   8
ENDBRANCH   1   7
BRANCH   2  10
ATOM     10  O   UNL     1      39.333  40.723  26.074  1.00  0.00    -0.385 OA
ATOM     11  H   UNL     1      39.725  41.528  26.504  1.00  0.00     0.211 HD
ENDBRANCH   2  10
BRANCH   3  12
ATOM     12  O   UNL     1      41.810  40.150  24.938  1.00  0.00    -0.387 OA
ATOM     13  H   UNL     1      41.900  39.414  24.278  1.00  0.00     0.211 HD
ENDBRANCH   3  12
BRANCH   5  14
ATOM     14  C   UNL     1      40.691  39.832  20.696  1.00  0.00     0.191 C 
BRANCH  14  15
ATOM     15  O   UNL     1      41.990  39.450  20.334  1.00  0.00    -0.394 OA
ATOM     16  H   UNL     1      42.193  38.633  20.859  1.00  0.00     0.210 HD
ENDBRANCH  14  15
ENDBRANCH   5  14
BRANCH   4  17
ATOM     17  O   UNL     1      42.557  41.191  22.535  1.00  0.00    -0.387 OA
ATOM     18  H   UNL     1      43.037  41.254  23.402  1.00  0.00     0.211 HD
ENDBRANCH   4  17
TORSDOF 7
ENDMDL
MODEL 7
REMARK VINA RESULT:    -4.711      1.486      3.834
REMARK INTER + INTRA:          -6.494
REMARK INTER:                  -6.273
REMARK INTRA:                  -0.221
REMARK UNBOUND:                -0.405
REMARK SMILES CCO[C@@H]1O[C@@H](CO)[C@H](O)[C@H](O)[C@@H]1O
REMARK SMILES IDX 4 1 13 2 11 3 9 4 6 5 5 6 3 7 2 8 1 9 14 10 12 12 7 14 8 15
REMARK SMILES IDX 10 17
REMARK H PARENT 14 11 12 13 8 16 10 18
REMARK Flexibility Score: inf
ROOT
ATOM      1  C   UNL     1      39.577  38.177  23.659  1.00  0.00     0.281 C 
ATOM      2  C   UNL     1      40.568  37.109  24.159  1.00  0.00     0.202 C 
ATOM      3  C   UNL     1      41.927  37.241  23.442  1.00  0.00     0.179 C 
ATOM      4  C   UNL     1      42.415  38.695  23.521  1.00  0.00     0.177 C 
ATOM      5  C   UNL     1      41.301  39.653  23.036  1.00  0.00     0.178 C 
ATOM      6  O   UNL     1      40.123  39.481  23.812  1.00  0.00    -0.341 OA
ENDROOT
BRANCH   1   7
ATOM      7  O   UNL     1      39.206  37.919  22.314  1.00  0.00    -0.350 OA
BRANCH   7   8
ATOM      8  C   UNL     1      38.163  38.785  21.920  1.00  0.00     0.160 C 
ATOM      9  C   UNL     1      38.531  39.434  20.595  1.00  0.00     0.035 C 
ENDBRANCH   7   8
ENDBRANCH   1   7
BRANCH   2  10
ATOM     10  O   UNL     1      40.024  35.829  23.964  1.00  0.00    -0.385 OA
ATOM     11  H   UNL     1      39.070  35.879  24.238  1.00  0.00     0.211 HD
ENDBRANCH   2  10
BRANCH   3  12
ATOM     12  O   UNL     1      41.818  36.848  22.095  1.00  0.00    -0.387 OA
ATOM     13  H   UNL     1      41.280  36.012  22.080  1.00  0.00     0.211 HD
ENDBRANCH   3  12
BRANCH   5  14
ATOM     14  C   UNL     1      41.744  41.116  23.156  1.00  0.00     0.191 C 
BRANCH  14  15
ATOM     15  O   UNL     1      42.824  41.354  22.296  1.00  0.00    -0.394 OA
ATOM     16  H   UNL     1      43.563  41.688  22.867  1.00  0.00     0.210 HD
ENDBRANCH  14  15
ENDBRANCH   5  14
BRANCH   4  17
ATOM     17  O   UNL     1      43.568  38.836  22.727  1.00  0.00    -0.387 OA
ATOM     18  H   UNL     1      43.792  37.936  22.373  1.00  0.00     0.211 HD
ENDBRANCH   4  17
TORSDOF 7
ENDMDL
MODEL 8
REMARK VINA RESULT:    -4.656      1.743      4.140
REMARK INTER + INTRA:          -6.423
REMARK INTER:                  -6.012
REMARK INTRA:                  -0.411
REMARK UNBOUND:                -0.405
REMARK SMILES CCO[C@@H]1O[C@@H](CO)[C@H](O)[C@H](O)[C@@H]1O
REMARK SMILES IDX 4 1 13 2 11 3 9 4 6 5 5 6 3 7 2 8 1 9 14 10 12 12 7 14 8 15
REMARK SMILES IDX 10 17
REMARK H PARENT 14 11 12 13 8 16 10 18
REMARK Flexibility Score: inf
ROOT
ATOM      1  C   UNL     1      40.489  38.171  23.337  1.00  0.00     0.281 C 
ATOM      2  C   UNL     1      41.986  37.981  23.029  1.00  0.00     0.202 C 
ATOM      3  C   UNL     1      42.563  39.220  22.314  1.00  0.00     0.179 C 
ATOM      4  C   UNL     1      42.197  40.488  23.100  1.00  0.00     0.177 C 
ATOM      5  C   UNL     1      40.675  40.517  23.378  1.00  0.00     0.178 C 
ATOM      6  O   UNL     1      40.277  39.356  24.094  1.00  0.00    -0.341 OA
ENDROOT
BRANCH   1   7
ATOM      7  O   UNL     1      39.732  38.175  22.136  1.00  0.00    -0.350 OA
BRANCH   7   8
ATOM      8  C   UNL     1      38.414  37.735  22.388  1.00  0.00     0.160 C 
ATOM      9  C   UNL     1      38.458  36.571  23.365  1.00  0.00     0.035 C 
ENDBRANCH   7   8
ENDBRANCH   1   7
BRANCH   2  10
ATOM     10  O   UNL     1      42.167  36.826  22.250  1.00  0.00    -0.385 OA
ATOM     11  H   UNL     1      42.188  36.058  22.879  1.00  0.00     0.211 HD
ENDBRANCH   2  10
BRANCH   3  12
ATOM     12  O   UNL     1      42.064  39.313  21.002  1.00  0.00    -0.387 OA
ATOM     13  H   UNL     1      41.676  40.222  20.902  1.00  0.00     0.211 HD
ENDBRANCH   3  12
BRANCH   5  14
ATOM     14  C   UNL     1      40.292  41.746  24.209  1.00  0.00     0.191 C 
BRANCH  14  15
ATOM     15  O   UNL     1      40.314  42.889  23.398  1.00  0.00    -0.394 OA
ATOM     16  H   UNL     1      41.048  42.750  22.745  1.00  0.00     0.210 HD
ENDBRANCH  14  15
ENDBRANCH   5  14
BRANCH   4  17
ATOM     17  O   UNL     1      42.586  41.617  22.356  1.00  0.00    -0.387 OA
ATOM     18  H   UNL     1      42.963  42.275  22.997  1.00  0.00     0.211 HD
ENDBRANCH   4  17
TORSDOF 7
ENDMDL
MODEL 9
REMARK VINA RESULT:    -4.569      1.696      2.397
REMARK INTER + INTRA:          -6.310
REMARK INTER:                  -6.127
REMARK INTRA:                  -0.183
REMARK UNBOUND:                -0.405
REMARK SMILES CCO[C@@H]1O[C@@H](CO)[C@H](O)[C@H](O)[C@@H]1O
REMARK SMILES IDX 4 1 13 2 11 3 9 4 6 5 5 6 3 7 2 8 1 9 14 10 12 12 7 14 8 15
REMARK SMILES IDX 10 17
REMARK H PARENT 14 11 12 13 8 16 10 18
REMARK Flexibility Score: inf
ROOT
ATOM      1  C   UNL     1      40.101  38.732  21.491  1.00  0.00     0.281 C 
ATOM      2  C   UNL     1      41.581  38.804  21.070  1.00  0.00     0.202 C 
ATOM      3  C   UNL     1      42.499  38.914  22.304  1.00  0.00     0.179 C 
ATOM      4  C   UNL     1      42.144  37.813  23.314  1.00  0.00     0.177 C 
ATOM      5  C   UNL     1      40.624  37.830  23.601  1.00  0.00     0.178 C 
ATOM      6  O   UNL     1      39.887  37.658  22.398  1.00  0.00    -0.341 OA
ENDROOT
BRANCH   1   7
ATOM      7  O   UNL     1      39.681  39.971  22.040  1.00  0.00    -0.350 OA
BRANCH   7   8
ATOM      8  C   UNL     1      38.355  40.257  21.643  1.00  0.00     0.160 C 
ATOM      9  C   UNL     1      38.044  41.710  21.964  1.00  0.00     0.035 C 
ENDBRANCH   7   8
ENDBRANCH   1   7
BRANCH   2  10
ATOM     10  O   UNL     1      41.775  39.893  20.205  1.00  0.00    -0.385 OA
ATOM     11  H   UNL     1      41.986  39.514  19.311  1.00  0.00     0.211 HD
ENDBRANCH   2  10
BRANCH   3  12
ATOM     12  O   UNL     1      42.367  40.177  22.910  1.00  0.00    -0.387 OA
ATOM     13  H   UNL     1      41.416  40.270  23.182  1.00  0.00     0.211 HD
ENDBRANCH   3  12
BRANCH   5  14
ATOM     14  C   UNL     1      40.235  36.704  24.565  1.00  0.00     0.191 C 
BRANCH  14  15
ATOM     15  O   UNL     1      39.051  36.096  24.127  1.00  0.00    -0.394 OA
ATOM     16  H   UNL     1      39.294  35.166  23.879  1.00  0.00     0.210 HD
ENDBRANCH  14  15
ENDBRANCH   5  14
BRANCH   4  17
ATOM     17  O   UNL     1      42.874  38.023  24.498  1.00  0.00    -0.387 OA
ATOM     18  H   UNL     1      42.537  37.374  25.170  1.00  0.00     0.211 HD
ENDBRANCH   4  17
TORSDOF 7
ENDMDL
