MODEL 1
REMARK VINA RESULT:    -4.836      0.000      0.000
REMARK INTER + INTRA:          -7.971
REMARK INTER:                  -6.814
REMARK INTRA:                  -1.157
REMARK UNBOUND:                -1.157
REMARK SMILES OCC1=C[C@@H](O)[C@@H]2C=CO[C@H](O[C@H]3O[C@H](CO)[C@H](O)[C@@H](O)[C@@H]3O)[C@H]12
REMARK SMILES IDX 12 1 11 2 8 3 9 4 7 5 10 6 24 7 5 8 3 9 4 10 6 11 2 13 1 14
REMARK SMILES IDX 13 16 22 17 14 18 20 19 15 20 18 21 23 22 21 24 16 26 17 27
REMARK SMILES IDX 19 29
REMARK H PARENT 6 12 1 15 23 23 21 25 17 28 19 30
REMARK Flexibility Score: inf
ROOT
ATOM      1  O   UNL     1     104.724  82.046  18.864  1.00  0.00    -0.310 OA
ENDROOT
BRANCH   1   2
ATOM      2  C   UNL     1     105.026  81.784  20.221  1.00  0.00     0.316 C 
ATOM      3  C   UNL     1     105.813  80.340  22.524  1.00  0.00     0.018 C 
ATOM      4  C   UNL     1     104.670  80.037  21.904  1.00  0.00     0.186 C 
ATOM      5  C   UNL     1     106.887  81.199  21.880  1.00  0.00     0.061 C 
ATOM      6  O   UNL     1     104.361  80.606  20.668  1.00  0.00    -0.472 OA
ATOM      7  C   UNL     1     106.546  81.637  20.431  1.00  0.00     0.096 C 
ATOM      8  C   UNL     1     108.175  80.365  21.728  1.00  0.00     0.145 C 
ATOM      9  C   UNL     1     107.231  80.590  19.593  1.00  0.00    -0.036 C 
ATOM     10  C   UNL     1     108.142  79.931  20.303  1.00  0.00     0.007 C 
BRANCH   8  11
ATOM     11  O   UNL     1     109.308  81.165  21.936  1.00  0.00    -0.388 OA
ATOM     12  H   UNL     1     109.229  81.529  22.857  1.00  0.00     0.211 HD
ENDBRANCH   8  11
BRANCH   9  13
ATOM     13  C   UNL     1     107.135  80.469  18.096  1.00  0.00     0.187 C 
BRANCH  13  14
ATOM     14  O   UNL     1     107.942  81.442  17.497  1.00  0.00    -0.392 OA
ATOM     15  H   UNL     1     107.557  82.321  17.754  1.00  0.00     0.211 HD
ENDBRANCH  13  14
ENDBRANCH   9  13
ENDBRANCH   1   2
BRANCH   1  16
ATOM     16  C   UNL     1     104.836  83.430  18.554  1.00  0.00     0.286 C 
ATOM     17  C   UNL     1     103.473  84.001  18.102  1.00  0.00     0.202 C 
ATOM     18  O   UNL     1     105.864  83.618  17.589  1.00  0.00    -0.341 OA
ATOM     19  C   UNL     1     102.991  83.389  16.761  1.00  0.00     0.179 C 
ATOM     20  C   UNL     1     105.507  83.365  16.229  1.00  0.00     0.178 C 
ATOM     21  C   UNL     1     104.136  82.655  16.027  1.00  0.00     0.177 C 
BRANCH  17  22
ATOM     22  O   UNL     1     103.590  85.397  17.978  1.00  0.00    -0.385 OA
ATOM     23  H   UNL     1     104.067  85.572  17.124  1.00  0.00     0.211 HD
ENDBRANCH  17  22
BRANCH  19  24
ATOM     24  O   UNL     1     101.943  82.480  16.988  1.00  0.00    -0.387 OA
ATOM     25  H   UNL     1     102.250  81.857  17.698  1.00  0.00     0.211 HD
ENDBRANCH  19  24
BRANCH  20  26
ATOM     26  C   UNL     1     105.639  84.680  15.434  1.00  0.00     0.191 C 
BRANCH  26  27
ATOM     27  O   UNL     1     106.182  84.450  14.162  1.00  0.00    -0.394 OA
ATOM     28  H   UNL     1     106.788  85.212  13.968  1.00  0.00     0.210 HD
ENDBRANCH  26  27
ENDBRANCH  20  26
BRANCH  21  29
ATOM     29  O   UNL     1     103.846  82.451  14.664  1.00  0.00    -0.387 OA
ATOM     30  H   UNL     1     103.844  83.332  14.206  1.00  0.00     0.211 HD
ENDBRANCH  21  29
ENDBRANCH   1  16
TORSDOF 10
ENDMDL
MODEL 2
REMARK VINA RESULT:    -4.829      2.733      5.805
REMARK INTER + INTRA:          -7.962
REMARK INTER:                  -6.708
REMARK INTRA:                  -1.255
REMARK UNBOUND:                -1.157
REMARK SMILES OCC1=C[C@@H](O)[C@@H]2C=CO[C@H](O[C@H]3O[C@H](CO)[C@H](O)[C@@H](O)[C@@H]3O)[C@H]12
REMARK SMILES IDX 12 1 11 2 8 3 9 4 7 5 10 6 24 7 5 8 3 9 4 10 6 11 2 13 1 14
REMARK SMILES IDX 13 16 22 17 14 18 20 19 15 20 18 21 23 22 21 24 16 26 17 27
REMARK SMILES IDX 19 29
REMARK H PARENT 6 12 1 15 23 23 21 25 17 28 19 30
REMARK Flexibility Score: inf
ROOT
ATOM      1  O   UNL     1     103.632  84.075  17.766  1.00  0.00    -0.310 OA
ENDROOT
BRANCH   1   2
ATOM      2  C   UNL     1     103.786  85.460  18.003  1.00  0.00     0.316 C 
ATOM      3  C   UNL     1     103.105  88.113  18.719  1.00  0.00     0.018 C 
ATOM      4  C   UNL     1     102.578  87.560  17.624  1.00  0.00     0.186 C 
ATOM      5  C   UNL     1     103.799  87.292  19.793  1.00  0.00     0.061 C 
ATOM      6  O   UNL     1     102.752  86.201  17.362  1.00  0.00    -0.472 OA
ATOM      7  C   UNL     1     103.785  85.766  19.515  1.00  0.00     0.096 C 
ATOM      8  C   UNL     1     103.026  87.440  21.119  1.00  0.00     0.145 C 
ATOM      9  C   UNL     1     102.580  85.295  20.284  1.00  0.00    -0.036 C 
ATOM     10  C   UNL     1     102.201  86.201  21.180  1.00  0.00     0.007 C 
BRANCH   8  11
ATOM     11  O   UNL     1     103.911  87.454  22.207  1.00  0.00    -0.388 OA
ATOM     12  H   UNL     1     104.631  88.097  21.973  1.00  0.00     0.211 HD
ENDBRANCH   8  11
BRANCH   9  13
ATOM     13  C   UNL     1     102.030  83.894  20.274  1.00  0.00     0.187 C 
BRANCH  13  14
ATOM     14  O   UNL     1     101.076  83.774  19.258  1.00  0.00    -0.392 OA
ATOM     15  H   UNL     1     100.199  83.661  19.711  1.00  0.00     0.211 HD
ENDBRANCH  13  14
ENDBRANCH   9  13
ENDBRANCH   1   2
BRANCH   1  16
ATOM     16  C   UNL     1     104.853  83.367  17.951  1.00  0.00     0.286 C 
ATOM     17  C   UNL     1     105.524  83.071  16.591  1.00  0.00     0.202 C 
ATOM     18  O   UNL     1     104.609  82.193  18.716  1.00  0.00    -0.341 OA
ATOM     19  C   UNL     1     104.691  82.094  15.720  1.00  0.00     0.179 C 
ATOM     20  C   UNL     1     104.090  81.069  18.002  1.00  0.00     0.178 C 
ATOM     21  C   UNL     1     103.607  81.374  16.553  1.00  0.00     0.177 C 
BRANCH  17  22
ATOM     22  O   UNL     1     106.801  82.532  16.829  1.00  0.00    -0.385 OA
ATOM     23  H   UNL     1     106.680  81.764  17.446  1.00  0.00     0.211 HD
ENDBRANCH  17  22
BRANCH  19  24
ATOM     24  O   UNL     1     104.068  82.787  14.668  1.00  0.00    -0.387 OA
ATOM     25  H   UNL     1     104.109  83.753  14.896  1.00  0.00     0.211 HD
ENDBRANCH  19  24
BRANCH  20  26
ATOM     26  C   UNL     1     105.121  79.923  18.075  1.00  0.00     0.191 C 
BRANCH  26  27
ATOM     27  O   UNL     1     106.274  80.323  18.766  1.00  0.00    -0.394 OA
ATOM     28  H   UNL     1     106.019  80.405  19.722  1.00  0.00     0.210 HD
ENDBRANCH  26  27
ENDBRANCH  20  26
BRANCH  21  29
ATOM     29  O   UNL     1     103.123  80.219  15.907  1.00  0.00    -0.387 OA
ATOM     30  H   UNL     1     103.571  80.140  15.025  1.00  0.00     0.211 HD
ENDBRANCH  21  29
ENDBRANCH   1  16
TORSDOF 10
ENDMDL
MODEL 3
REMARK VINA RESULT:    -4.812      2.628      4.422
REMARK INTER + INTRA:          -7.938
REMARK INTER:                  -6.617
REMARK INTRA:                  -1.321
REMARK UNBOUND:                -1.157
REMARK SMILES OCC1=C[C@@H](O)[C@@H]2C=CO[C@H](O[C@H]3O[C@H](CO)[C@H](O)[C@@H](O)[C@@H]3O)[C@H]12
REMARK SMILES IDX 12 1 11 2 8 3 9 4 7 5 10 6 24 7 5 8 3 9 4 10 6 11 2 13 1 14
REMARK SMILES IDX 13 16 22 17 14 18 20 19 15 20 18 21 23 22 21 24 16 26 17 27
REMARK SMILES IDX 19 29
REMARK H PARENT 6 12 1 15 23 23 21 25 17 28 19 30
REMARK Flexibility Score: inf
ROOT
ATOM      1  O   UNL     1     104.095  81.230  21.008  1.00  0.00    -0.310 OA
ENDROOT
BRANCH   1   2
ATOM      2  C   UNL     1     104.351  80.529  22.209  1.00  0.00     0.316 C 
ATOM      3  C   UNL     1     105.484  79.934  24.734  1.00  0.00     0.018 C 
ATOM      4  C   UNL     1     106.246  79.913  23.638  1.00  0.00     0.186 C 
ATOM      5  C   UNL     1     104.109  80.579  24.759  1.00  0.00     0.061 C 
ATOM      6  O   UNL     1     105.752  80.386  22.421  1.00  0.00    -0.472 OA
ATOM      7  C   UNL     1     103.711  81.247  23.415  1.00  0.00     0.096 C 
ATOM      8  C   UNL     1     104.116  81.743  25.770  1.00  0.00     0.145 C 
ATOM      9  C   UNL     1     104.116  82.682  23.621  1.00  0.00    -0.036 C 
ATOM     10  C   UNL     1     104.296  82.947  24.911  1.00  0.00     0.007 C 
BRANCH   8  11
ATOM     11  O   UNL     1     102.882  81.831  26.430  1.00  0.00    -0.388 OA
ATOM     12  H   UNL     1     103.043  81.536  27.365  1.00  0.00     0.211 HD
ENDBRANCH   8  11
BRANCH   9  13
ATOM     13  C   UNL     1     104.054  83.765  22.578  1.00  0.00     0.187 C 
BRANCH  13  14
ATOM     14  O   UNL     1     105.310  83.905  21.977  1.00  0.00    -0.392 OA
ATOM     15  H   UNL     1     105.921  83.287  22.459  1.00  0.00     0.211 HD
ENDBRANCH  13  14
ENDBRANCH   9  13
ENDBRANCH   1   2
BRANCH   1  16
ATOM     16  C   UNL     1     104.996  80.854  19.973  1.00  0.00     0.286 C 
ATOM     17  C   UNL     1     105.477  82.094  19.188  1.00  0.00     0.202 C 
ATOM     18  O   UNL     1     104.382  79.875  19.143  1.00  0.00    -0.341 OA
ATOM     19  C   UNL     1     104.326  82.781  18.406  1.00  0.00     0.179 C 
ATOM     20  C   UNL     1     103.480  80.366  18.149  1.00  0.00     0.178 C 
ATOM     21  C   UNL     1     103.087  81.866  18.298  1.00  0.00     0.177 C 
BRANCH  17  22
ATOM     22  O   UNL     1     106.492  81.698  18.299  1.00  0.00    -0.385 OA
ATOM     23  H   UNL     1     107.311  81.555  18.843  1.00  0.00     0.211 HD
ENDBRANCH  17  22
BRANCH  19  24
ATOM     24  O   UNL     1     103.951  83.978  19.041  1.00  0.00    -0.387 OA
ATOM     25  H   UNL     1     104.127  83.857  20.011  1.00  0.00     0.211 HD
ENDBRANCH  19  24
BRANCH  20  26
ATOM     26  C   UNL     1     104.047  80.017  16.757  1.00  0.00     0.191 C 
BRANCH  26  27
ATOM     27  O   UNL     1     103.090  80.228  15.754  1.00  0.00    -0.394 OA
ATOM     28  H   UNL     1     102.748  81.152  15.876  1.00  0.00     0.210 HD
ENDBRANCH  26  27
ENDBRANCH  20  26
BRANCH  21  29
ATOM     29  O   UNL     1     102.209  82.281  17.277  1.00  0.00    -0.387 OA
ATOM     30  H   UNL     1     102.689  82.235  16.410  1.00  0.00     0.211 HD
ENDBRANCH  21  29
ENDBRANCH   1  16
TORSDOF 10
ENDMDL
MODEL 4
REMARK VINA RESULT:    -4.791      3.240      7.584
REMARK INTER + INTRA:          -7.908
REMARK INTER:                  -6.462
REMARK INTRA:                  -1.447
REMARK UNBOUND:                -1.157
REMARK SMILES OCC1=C[C@@H](O)[C@@H]2C=CO[C@H](O[C@H]3O[C@H](CO)[C@H](O)[C@@H](O)[C@@H]3O)[C@H]12
REMARK SMILES IDX 12 1 11 2 8 3 9 4 7 5 10 6 24 7 5 8 3 9 4 10 6 11 2 13 1 14
REMARK SMILES IDX 13 16 22 17 14 18 20 19 15 20 18 21 23 22 21 24 16 26 17 27
REMARK SMILES IDX 19 29
REMARK H PARENT 6 12 1 15 23 23 21 25 17 28 19 30
REMARK Flexibility Score: inf
ROOT
ATOM      1  O   UNL     1     103.314  84.696  16.256  1.00  0.00    -0.310 OA
ENDROOT
BRANCH   1   2
ATOM      2  C   UNL     1     102.313  85.686  16.396  1.00  0.00     0.316 C 
ATOM      3  C   UNL     1     100.994  88.173  16.102  1.00  0.00     0.018 C 
ATOM      4  C   UNL     1     102.123  88.095  16.810  1.00  0.00     0.186 C 
ATOM      5  C   UNL     1     100.541  87.066  15.165  1.00  0.00     0.061 C 
ATOM      6  O   UNL     1     102.884  86.926  16.807  1.00  0.00    -0.472 OA
ATOM      7  C   UNL     1     101.538  85.880  15.077  1.00  0.00     0.096 C 
ATOM      8  C   UNL     1     100.483  87.617  13.726  1.00  0.00     0.145 C 
ATOM      9  C   UNL     1     102.366  86.226  13.868  1.00  0.00    -0.036 C 
ATOM     10  C   UNL     1     101.762  87.145  13.123  1.00  0.00     0.007 C 
BRANCH   8  11
ATOM     11  O   UNL     1      99.410  87.050  13.024  1.00  0.00    -0.388 OA
ATOM     12  H   UNL     1      98.658  87.696  13.094  1.00  0.00     0.211 HD
ENDBRANCH   8  11
BRANCH   9  13
ATOM     13  C   UNL     1     103.568  85.460  13.385  1.00  0.00     0.187 C 
BRANCH  13  14
ATOM     14  O   UNL     1     103.209  84.127  13.154  1.00  0.00    -0.392 OA
ATOM     15  H   UNL     1     104.057  83.635  12.990  1.00  0.00     0.211 HD
ENDBRANCH  13  14
ENDBRANCH   9  13
ENDBRANCH   1   2
BRANCH   1  16
ATOM     16  C   UNL     1     102.799  83.388  16.479  1.00  0.00     0.286 C 
ATOM     17  C   UNL     1     103.066  82.937  17.933  1.00  0.00     0.202 C 
ATOM     18  O   UNL     1     103.340  82.495  15.513  1.00  0.00    -0.341 OA
ATOM     19  C   UNL     1     104.578  82.765  18.231  1.00  0.00     0.179 C 
ATOM     20  C   UNL     1     104.654  82.000  15.776  1.00  0.00     0.178 C 
ATOM     21  C   UNL     1     105.412  82.720  16.931  1.00  0.00     0.177 C 
BRANCH  17  22
ATOM     22  O   UNL     1     102.391  81.724  18.157  1.00  0.00    -0.385 OA
ATOM     23  H   UNL     1     102.815  81.045  17.569  1.00  0.00     0.211 HD
ENDBRANCH  17  22
BRANCH  19  24
ATOM     24  O   UNL     1     105.042  83.824  19.029  1.00  0.00    -0.387 OA
ATOM     25  H   UNL     1     105.650  83.429  19.708  1.00  0.00     0.211 HD
ENDBRANCH  19  24
BRANCH  20  26
ATOM     26  C   UNL     1     104.575  80.470  15.957  1.00  0.00     0.191 C 
BRANCH  26  27
ATOM     27  O   UNL     1     103.251  80.017  15.863  1.00  0.00    -0.394 OA
ATOM     28  H   UNL     1     103.155  79.279  16.520  1.00  0.00     0.210 HD
ENDBRANCH  26  27
ENDBRANCH  20  26
BRANCH  21  29
ATOM     29  O   UNL     1     106.692  82.170  17.141  1.00  0.00    -0.387 OA
ATOM     30  H   UNL     1     106.844  81.457  16.467  1.00  0.00     0.211 HD
ENDBRANCH  21  29
ENDBRANCH   1  16
TORSDOF 10
ENDMDL
MODEL 5
REMARK VINA RESULT:    -4.787      2.660      5.345
REMARK INTER + INTRA:          -7.902
REMARK INTER:                  -6.383
REMARK INTRA:                  -1.520
REMARK UNBOUND:                -1.157
REMARK SMILES OCC1=C[C@@H](O)[C@@H]2C=CO[C@H](O[C@H]3O[C@H](CO)[C@H](O)[C@@H](O)[C@@H]3O)[C@H]12
REMARK SMILES IDX 12 1 11 2 8 3 9 4 7 5 10 6 24 7 5 8 3 9 4 10 6 11 2 13 1 14
REMARK SMILES IDX 13 16 22 17 14 18 20 19 15 20 18 21 23 22 21 24 16 26 17 27
REMARK SMILES IDX 19 29
REMARK H PARENT 6 12 1 15 23 23 21 25 17 28 19 30
REMARK Flexibility Score: inf
ROOT
ATOM      1  O   UNL     1     104.716  83.269  18.926  1.00  0.00    -0.310 OA
ENDROOT
BRANCH   1   2
ATOM      2  C   UNL     1     103.974  84.472  18.878  1.00  0.00     0.316 C 
ATOM      3  C   UNL     1     101.934  86.346  19.459  1.00  0.00     0.018 C 
ATOM      4  C   UNL     1     101.639  85.218  18.809  1.00  0.00     0.186 C 
ATOM      5  C   UNL     1     103.246  86.541  20.200  1.00  0.00     0.061 C 
ATOM      6  O   UNL     1     102.588  84.203  18.683  1.00  0.00    -0.472 OA
ATOM      7  C   UNL     1     104.169  85.294  20.168  1.00  0.00     0.096 C 
ATOM      8  C   UNL     1     102.952  86.753  21.699  1.00  0.00     0.145 C 
ATOM      9  C   UNL     1     103.832  84.593  21.456  1.00  0.00    -0.036 C 
ATOM     10  C   UNL     1     103.203  85.411  22.295  1.00  0.00     0.007 C 
BRANCH   8  11
ATOM     11  O   UNL     1     103.851  87.675  22.253  1.00  0.00    -0.388 OA
ATOM     12  H   UNL     1     103.684  88.540  21.793  1.00  0.00     0.211 HD
ENDBRANCH   8  11
BRANCH   9  13
ATOM     13  C   UNL     1     104.365  83.254  21.887  1.00  0.00     0.187 C 
BRANCH  13  14
ATOM     14  O   UNL     1     105.751  83.220  21.694  1.00  0.00    -0.392 OA
ATOM     15  H   UNL     1     106.051  82.318  21.985  1.00  0.00     0.211 HD
ENDBRANCH  13  14
ENDBRANCH   9  13
ENDBRANCH   1   2
BRANCH   1  16
ATOM     16  C   UNL     1     103.980  82.172  18.397  1.00  0.00     0.286 C 
ATOM     17  C   UNL     1     104.257  80.886  19.208  1.00  0.00     0.202 C 
ATOM     18  O   UNL     1     104.273  82.028  17.012  1.00  0.00    -0.341 OA
ATOM     19  C   UNL     1     105.726  80.408  19.076  1.00  0.00     0.179 C 
ATOM     20  C   UNL     1     105.485  81.342  16.691  1.00  0.00     0.178 C 
ATOM     21  C   UNL     1     106.444  81.098  17.894  1.00  0.00     0.177 C 
BRANCH  17  22
ATOM     22  O   UNL     1     103.382  79.879  18.765  1.00  0.00    -0.385 OA
ATOM     23  H   UNL     1     102.459  80.197  18.948  1.00  0.00     0.211 HD
ENDBRANCH  17  22
BRANCH  19  24
ATOM     24  O   UNL     1     106.437  80.679  20.258  1.00  0.00    -0.387 OA
ATOM     25  H   UNL     1     105.897  80.317  21.008  1.00  0.00     0.211 HD
ENDBRANCH  19  24
BRANCH  20  26
ATOM     26  C   UNL     1     105.131  80.054  15.920  1.00  0.00     0.191 C 
BRANCH  26  27
ATOM     27  O   UNL     1     103.743  79.922  15.766  1.00  0.00    -0.394 OA
ATOM     28  H   UNL     1     103.424  80.752  15.325  1.00  0.00     0.210 HD
ENDBRANCH  26  27
ENDBRANCH  20  26
BRANCH  21  29
ATOM     29  O   UNL     1     107.608  80.406  17.505  1.00  0.00    -0.387 OA
ATOM     30  H   UNL     1     107.765  79.666  18.148  1.00  0.00     0.211 HD
ENDBRANCH  21  29
ENDBRANCH   1  16
TORSDOF 10
ENDMDL
MODEL 6
REMARK VINA RESULT:    -4.683      4.211      8.721
REMARK INTER + INTRA:          -7.757
REMARK INTER:                  -6.381
REMARK INTRA:                  -1.376
REMARK UNBOUND:                -1.157
REMARK SMILES OCC1=C[C@@H](O)[C@@H]2C=CO[C@H](O[C@H]3O[C@H](CO)[C@H](O)[C@@H](O)[C@@H]3O)[C@H]12
REMARK SMILES IDX 12 1 11 2 8 3 9 4 7 5 10 6 24 7 5 8 3 9 4 10 6 11 2 13 1 14
REMARK SMILES IDX 13 16 22 17 14 18 20 19 15 20 18 21 23 22 21 24 16 26 17 27
REMARK SMILES IDX 19 29
REMARK H PARENT 6 12 1 15 23 23 21 25 17 28 19 30
REMARK Flexibility Score: inf
ROOT
ATOM      1  O   UNL     1     103.902  86.699  14.897  1.00  0.00    -0.310 OA
ENDROOT
BRANCH   1   2
ATOM      2  C   UNL     1     102.625  87.265  14.678  1.00  0.00     0.316 C 
ATOM      3  C   UNL     1     100.641  88.986  13.622  1.00  0.00     0.018 C 
ATOM      4  C   UNL     1     101.585  89.472  14.431  1.00  0.00     0.186 C 
ATOM      5  C   UNL     1     100.754  87.620  12.965  1.00  0.00     0.061 C 
ATOM      6  O   UNL     1     102.673  88.684  14.806  1.00  0.00    -0.472 OA
ATOM      7  C   UNL     1     102.083  86.885  13.285  1.00  0.00     0.096 C 
ATOM      8  C   UNL     1     100.782  87.798  11.434  1.00  0.00     0.145 C 
ATOM      9  C   UNL     1     102.957  87.246  12.114  1.00  0.00    -0.036 C 
ATOM     10  C   UNL     1     102.231  87.706  11.100  1.00  0.00     0.007 C 
BRANCH   8  11
ATOM     11  O   UNL     1     100.100  86.748  10.802  1.00  0.00    -0.388 OA
ATOM     12  H   UNL     1     100.728  85.978  10.783  1.00  0.00     0.211 HD
ENDBRANCH   8  11
BRANCH   9  13
ATOM     13  C   UNL     1     104.410  86.884  11.964  1.00  0.00     0.187 C 
BRANCH  13  14
ATOM     14  O   UNL     1     104.564  85.501  12.114  1.00  0.00    -0.392 OA
ATOM     15  H   UNL     1     103.768  85.185  12.618  1.00  0.00     0.211 HD
ENDBRANCH  13  14
ENDBRANCH   9  13
ENDBRANCH   1   2
BRANCH   1  16
ATOM     16  C   UNL     1     104.046  86.217  16.228  1.00  0.00     0.286 C 
ATOM     17  C   UNL     1     105.368  85.432  16.386  1.00  0.00     0.202 C 
ATOM     18  O   UNL     1     102.901  85.450  16.581  1.00  0.00    -0.341 OA
ATOM     19  C   UNL     1     105.385  84.128  15.546  1.00  0.00     0.179 C 
ATOM     20  C   UNL     1     102.877  84.099  16.117  1.00  0.00     0.178 C 
ATOM     21  C   UNL     1     103.968  83.743  15.064  1.00  0.00     0.177 C 
BRANCH  17  22
ATOM     22  O   UNL     1     105.551  85.129  17.747  1.00  0.00    -0.385 OA
ATOM     23  H   UNL     1     106.436  84.688  17.827  1.00  0.00     0.211 HD
ENDBRANCH  17  22
BRANCH  19  24
ATOM     24  O   UNL     1     106.219  84.280  14.425  1.00  0.00    -0.387 OA
ATOM     25  H   UNL     1     106.481  85.237  14.389  1.00  0.00     0.211 HD
ENDBRANCH  19  24
BRANCH  20  26
ATOM     26  C   UNL     1     102.879  83.160  17.341  1.00  0.00     0.191 C 
BRANCH  26  27
ATOM     27  O   UNL     1     102.201  81.964  17.062  1.00  0.00    -0.394 OA
ATOM     28  H   UNL     1     102.773  81.452  16.432  1.00  0.00     0.210 HD
ENDBRANCH  26  27
ENDBRANCH  20  26
BRANCH  21  29
ATOM     29  O   UNL     1     103.893  82.395  14.664  1.00  0.00    -0.387 OA
ATOM     30  H   UNL     1     104.752  82.144  14.235  1.00  0.00     0.211 HD
ENDBRANCH  21  29
ENDBRANCH   1  16
TORSDOF 10
ENDMDL
MODEL 7
REMARK VINA RESULT:    -4.627      2.537      4.618
REMARK INTER + INTRA:          -7.678
REMARK INTER:                  -6.367
REMARK INTRA:                  -1.311
REMARK UNBOUND:                -1.157
REMARK SMILES OCC1=C[C@@H](O)[C@@H]2C=CO[C@H](O[C@H]3O[C@H](CO)[C@H](O)[C@@H](O)[C@@H]3O)[C@H]12
REMARK SMILES IDX 12 1 11 2 8 3 9 4 7 5 10 6 24 7 5 8 3 9 4 10 6 11 2 13 1 14
REMARK SMILES IDX 13 16 22 17 14 18 20 19 15 20 18 21 23 22 21 24 16 26 17 27
REMARK SMILES IDX 19 29
REMARK H PARENT 6 12 1 15 23 23 21 25 17 28 19 30
REMARK Flexibility Score: inf
ROOT
ATOM      1  O   UNL     1     103.050  82.073  18.960  1.00  0.00    -0.310 OA
ENDROOT
BRANCH   1   2
ATOM      2  C   UNL     1     102.312  83.191  19.415  1.00  0.00     0.316 C 
ATOM      3  C   UNL     1     101.061  84.978  21.218  1.00  0.00     0.018 C 
ATOM      4  C   UNL     1     100.593  83.736  21.075  1.00  0.00     0.186 C 
ATOM      5  C   UNL     1     102.431  85.396  20.712  1.00  0.00     0.061 C 
ATOM      6  O   UNL     1     101.306  82.789  20.340  1.00  0.00    -0.472 OA
ATOM      7  C   UNL     1     103.237  84.235  20.071  1.00  0.00     0.096 C 
ATOM      8  C   UNL     1     103.296  85.840  21.908  1.00  0.00     0.145 C 
ATOM      9  C   UNL     1     104.084  83.742  21.215  1.00  0.00    -0.036 C 
ATOM     10  C   UNL     1     104.137  84.643  22.191  1.00  0.00     0.007 C 
BRANCH   8  11
ATOM     11  O   UNL     1     104.129  86.908  21.546  1.00  0.00    -0.388 OA
ATOM     12  H   UNL     1     104.021  87.599  22.252  1.00  0.00     0.211 HD
ENDBRANCH   8  11
BRANCH   9  13
ATOM     13  C   UNL     1     104.988  82.541  21.177  1.00  0.00     0.187 C 
BRANCH  13  14
ATOM     14  O   UNL     1     104.285  81.414  21.618  1.00  0.00    -0.392 OA
ATOM     15  H   UNL     1     104.341  81.421  22.610  1.00  0.00     0.211 HD
ENDBRANCH  13  14
ENDBRANCH   9  13
ENDBRANCH   1   2
BRANCH   1  16
ATOM     16  C   UNL     1     102.833  81.823  17.576  1.00  0.00     0.286 C 
ATOM     17  C   UNL     1     103.649  80.597  17.108  1.00  0.00     0.202 C 
ATOM     18  O   UNL     1     103.123  82.999  16.831  1.00  0.00    -0.341 OA
ATOM     19  C   UNL     1     105.179  80.845  17.175  1.00  0.00     0.179 C 
ATOM     20  C   UNL     1     104.502  83.245  16.549  1.00  0.00     0.178 C 
ATOM     21  C   UNL     1     105.506  82.347  17.330  1.00  0.00     0.177 C 
BRANCH  17  22
ATOM     22  O   UNL     1     103.271  80.283  15.790  1.00  0.00    -0.385 OA
ATOM     23  H   UNL     1     102.804  81.080  15.427  1.00  0.00     0.211 HD
ENDBRANCH  17  22
BRANCH  19  24
ATOM     24  O   UNL     1     105.740  80.146  18.258  1.00  0.00    -0.387 OA
ATOM     25  H   UNL     1     106.574  80.623  18.508  1.00  0.00     0.211 HD
ENDBRANCH  19  24
BRANCH  20  26
ATOM     26  C   UNL     1     104.704  83.204  15.020  1.00  0.00     0.191 C 
BRANCH  26  27
ATOM     27  O   UNL     1     103.504  82.907  14.358  1.00  0.00    -0.394 OA
ATOM     28  H   UNL     1     102.788  83.412  14.825  1.00  0.00     0.210 HD
ENDBRANCH  26  27
ENDBRANCH  20  26
BRANCH  21  29
ATOM     29  O   UNL     1     106.842  82.636  16.990  1.00  0.00    -0.387 OA
ATOM     30  H   UNL     1     106.884  83.561  16.634  1.00  0.00     0.211 HD
ENDBRANCH  21  29
ENDBRANCH   1  16
TORSDOF 10
ENDMDL
MODEL 8
REMARK VINA RESULT:    -4.604      3.076      7.377
REMARK INTER + INTRA:          -7.645
REMARK INTER:                  -6.427
REMARK INTRA:                  -1.218
REMARK UNBOUND:                -1.157
REMARK SMILES OCC1=C[C@@H](O)[C@@H]2C=CO[C@H](O[C@H]3O[C@H](CO)[C@H](O)[C@@H](O)[C@@H]3O)[C@H]12
REMARK SMILES IDX 12 1 11 2 8 3 9 4 7 5 10 6 24 7 5 8 3 9 4 10 6 11 2 13 1 14
REMARK SMILES IDX 13 16 22 17 14 18 20 19 15 20 18 21 23 22 21 24 16 26 17 27
REMARK SMILES IDX 19 29
REMARK H PARENT 6 12 1 15 23 23 21 25 17 28 19 30
REMARK Flexibility Score: inf
ROOT
ATOM      1  O   UNL     1     103.680  84.575  15.885  1.00  0.00    -0.310 OA
ENDROOT
BRANCH   1   2
ATOM      2  C   UNL     1     102.919  85.468  15.095  1.00  0.00     0.316 C 
ATOM      3  C   UNL     1     102.183  87.859  13.771  1.00  0.00     0.018 C 
ATOM      4  C   UNL     1     102.197  87.811  15.105  1.00  0.00     0.186 C 
ATOM      5  C   UNL     1     102.856  86.803  12.910  1.00  0.00     0.061 C 
ATOM      6  O   UNL     1     102.736  86.709  15.770  1.00  0.00    -0.472 OA
ATOM      7  C   UNL     1     103.594  85.711  13.730  1.00  0.00     0.096 C 
ATOM      8  C   UNL     1     103.971  87.467  12.079  1.00  0.00     0.145 C 
ATOM      9  C   UNL     1     105.009  86.222  13.773  1.00  0.00    -0.036 C 
ATOM     10  C   UNL     1     105.210  87.151  12.844  1.00  0.00     0.007 C 
BRANCH   8  11
ATOM     11  O   UNL     1     104.056  86.880  10.808  1.00  0.00    -0.388 OA
ATOM     12  H   UNL     1     103.534  87.463  10.195  1.00  0.00     0.211 HD
ENDBRANCH   8  11
BRANCH   9  13
ATOM     13  C   UNL     1     106.140  85.597  14.544  1.00  0.00     0.187 C 
BRANCH  13  14
ATOM     14  O   UNL     1     106.176  84.222  14.287  1.00  0.00    -0.392 OA
ATOM     15  H   UNL     1     105.836  84.102  13.361  1.00  0.00     0.211 HD
ENDBRANCH  13  14
ENDBRANCH   9  13
ENDBRANCH   1   2
BRANCH   1  16
ATOM     16  C   UNL     1     103.017  83.329  16.064  1.00  0.00     0.286 C 
ATOM     17  C   UNL     1     102.903  82.981  17.565  1.00  0.00     0.202 C 
ATOM     18  O   UNL     1     103.685  82.324  15.311  1.00  0.00    -0.341 OA
ATOM     19  C   UNL     1     104.286  82.729  18.221  1.00  0.00     0.179 C 
ATOM     20  C   UNL     1     104.856  81.762  15.907  1.00  0.00     0.178 C 
ATOM     21  C   UNL     1     105.389  82.519  17.159  1.00  0.00     0.177 C 
BRANCH  17  22
ATOM     22  O   UNL     1     102.092  81.840  17.701  1.00  0.00    -0.385 OA
ATOM     23  H   UNL     1     102.366  81.390  18.542  1.00  0.00     0.211 HD
ENDBRANCH  17  22
BRANCH  19  24
ATOM     24  O   UNL     1     104.644  83.815  19.037  1.00  0.00    -0.387 OA
ATOM     25  H   UNL     1     103.853  84.027  19.599  1.00  0.00     0.211 HD
ENDBRANCH  19  24
BRANCH  20  26
ATOM     26  C   UNL     1     104.605  80.261  16.160  1.00  0.00     0.191 C 
BRANCH  26  27
ATOM     27  O   UNL     1     103.276  79.915  15.877  1.00  0.00    -0.394 OA
ATOM     28  H   UNL     1     103.299  79.022  15.445  1.00  0.00     0.210 HD
ENDBRANCH  26  27
ENDBRANCH  20  26
BRANCH  21  29
ATOM     29  O   UNL     1     106.533  81.901  17.699  1.00  0.00    -0.387 OA
ATOM     30  H   UNL     1     106.369  80.923  17.751  1.00  0.00     0.211 HD
ENDBRANCH  21  29
ENDBRANCH   1  16
TORSDOF 10
ENDMDL
MODEL 9
REMARK VINA RESULT:    -4.586      2.687      5.895
REMARK INTER + INTRA:          -7.620
REMARK INTER:                  -6.190
REMARK INTRA:                  -1.430
REMARK UNBOUND:                -1.157
REMARK SMILES OCC1=C[C@@H](O)[C@@H]2C=CO[C@H](O[C@H]3O[C@H](CO)[C@H](O)[C@@H](O)[C@@H]3O)[C@H]12
REMARK SMILES IDX 12 1 11 2 8 3 9 4 7 5 10 6 24 7 5 8 3 9 4 10 6 11 2 13 1 14
REMARK SMILES IDX 13 16 22 17 14 18 20 19 15 20 18 21 23 22 21 24 16 26 17 27
REMARK SMILES IDX 19 29
REMARK H PARENT 6 12 1 15 23 23 21 25 17 28 19 30
REMARK Flexibility Score: inf
ROOT
ATOM      1  O   UNL     1     104.016  84.690  17.472  1.00  0.00    -0.310 OA
ENDROOT
BRANCH   1   2
ATOM      2  C   UNL     1     104.663  85.782  18.094  1.00  0.00     0.316 C 
ATOM      3  C   UNL     1     105.059  88.400  19.095  1.00  0.00     0.018 C 
ATOM      4  C   UNL     1     104.958  88.196  17.780  1.00  0.00     0.186 C 
ATOM      5  C   UNL     1     104.647  87.354  20.117  1.00  0.00     0.061 C 
ATOM      6  O   UNL     1     104.576  86.950  17.282  1.00  0.00    -0.472 OA
ATOM      7  C   UNL     1     104.056  86.066  19.483  1.00  0.00     0.096 C 
ATOM      8  C   UNL     1     103.494  87.914  20.974  1.00  0.00     0.145 C 
ATOM      9  C   UNL     1     102.573  86.325  19.516  1.00  0.00    -0.036 C 
ATOM     10  C   UNL     1     102.279  87.308  20.361  1.00  0.00     0.007 C 
BRANCH   8  11
ATOM     11  O   UNL     1     103.606  87.472  22.300  1.00  0.00    -0.388 OA
ATOM     12  H   UNL     1     102.791  87.790  22.771  1.00  0.00     0.211 HD
ENDBRANCH   8  11
BRANCH   9  13
ATOM     13  C   UNL     1     101.518  85.435  18.919  1.00  0.00     0.187 C 
BRANCH  13  14
ATOM     14  O   UNL     1     101.727  84.116  19.339  1.00  0.00    -0.392 OA
ATOM     15  H   UNL     1     101.294  84.034  20.229  1.00  0.00     0.211 HD
ENDBRANCH  13  14
ENDBRANCH   9  13
ENDBRANCH   1   2
BRANCH   1  16
ATOM     16  C   UNL     1     104.942  83.828  16.819  1.00  0.00     0.286 C 
ATOM     17  C   UNL     1     104.216  82.614  16.199  1.00  0.00     0.202 C 
ATOM     18  O   UNL     1     105.967  83.455  17.733  1.00  0.00    -0.341 OA
ATOM     19  C   UNL     1     103.587  81.688  17.274  1.00  0.00     0.179 C 
ATOM     20  C   UNL     1     105.651  82.395  18.638  1.00  0.00     0.178 C 
ATOM     21  C   UNL     1     104.147  81.991  18.682  1.00  0.00     0.177 C 
BRANCH  17  22
ATOM     22  O   UNL     1     105.137  81.889  15.421  1.00  0.00    -0.385 OA
ATOM     23  H   UNL     1     105.730  81.404  16.054  1.00  0.00     0.211 HD
ENDBRANCH  17  22
BRANCH  19  24
ATOM     24  O   UNL     1     102.191  81.847  17.298  1.00  0.00    -0.387 OA
ATOM     25  H   UNL     1     101.801  81.031  16.888  1.00  0.00     0.211 HD
ENDBRANCH  19  24
BRANCH  20  26
ATOM     26  C   UNL     1     106.595  81.209  18.353  1.00  0.00     0.191 C 
BRANCH  26  27
ATOM     27  O   UNL     1     107.463  81.498  17.290  1.00  0.00    -0.394 OA
ATOM     28  H   UNL     1     108.361  81.646  17.688  1.00  0.00     0.210 HD
ENDBRANCH  26  27
ENDBRANCH  20  26
BRANCH  21  29
ATOM     29  O   UNL     1     103.914  80.933  19.583  1.00  0.00    -0.387 OA
ATOM     30  H   UNL     1     103.933  81.296  20.507  1.00  0.00     0.211 HD
ENDBRANCH  21  29
ENDBRANCH   1  16
TORSDOF 10
ENDMDL
