MODEL 1
REMARK VINA RESULT:    -1.270      0.000      0.000
REMARK INTER + INTRA:          -1.474
REMARK INTER:                  -1.938
REMARK INTRA:                   0.464
REMARK UNBOUND:                 0.464
REMARK SMILES CC1=CCC[C@@H](C)C(=O)C[C@H](C(C)C)C(=O)C1
REMARK SMILES IDX 8 1 9 2 6 3 7 4 5 5 4 6 3 7 2 8 1 9 10 11 11 12 15 13 16 14
REMARK SMILES IDX 17 15 12 17 13 18 14 19
REMARK H PARENT
REMARK Flexibility Score: 70.00
ROOT
ATOM      1  C   UNL     1      84.608  29.730  64.945  1.00  0.00     0.136 C 
ATOM      2  O   UNL     1      83.615  29.291  64.379  1.00  0.00    -0.299 OA
ENDROOT
BRANCH   1   3
ATOM      3  C   UNL     1      84.649  31.191  65.352  1.00  0.00     0.053 C 
ATOM      4  C   UNL     1      83.712  31.444  66.540  1.00  0.00     0.016 C 
BRANCH   3   5
ATOM      5  C   UNL     1      84.280  32.097  64.154  1.00  0.00     0.015 C 
BRANCH   5   6
ATOM      6  C   UNL     1      85.492  32.913  63.665  1.00  0.00     0.028 C 
BRANCH   6   7
ATOM      7  C   UNL     1      86.308  33.499  64.791  1.00  0.00    -0.028 C 
ATOM      8  C   UNL     1      87.430  32.947  65.318  1.00  0.00    -0.070 CG0
ATOM      9  C   UNL     1      88.052  33.631  66.509  1.00  0.00     0.039 C 
ATOM     10  G   UNL     1      88.110  31.709  64.746  1.00  0.00     0.000 G0
ENDBRANCH   6   7
ENDBRANCH   5   6
ENDBRANCH   3   5
ENDBRANCH   1   3
BRANCH   1  11
ATOM     11  C   UNL     1      85.759  28.794  65.239  1.00  0.00     0.087 C 
BRANCH  11  12
ATOM     12  C   UNL     1      87.094  29.291  64.621  1.00  0.00     0.066 C 
BRANCH  12  13
ATOM     13  C   UNL     1      87.697  30.420  65.445  1.00  0.00     0.140 C 
ATOM     14  O   UNL     1      87.882  30.278  66.645  1.00  0.00    -0.299 OA
BRANCH  13  15
ATOM     15  C   UNL     1      88.124  31.701  64.771  1.00  0.00     0.106 CG0
ATOM     16  G   UNL     1      87.439  32.947  65.319  1.00  0.00     0.000 G0
ENDBRANCH  13  15
ENDBRANCH  12  13
BRANCH  12  17
ATOM     17  C   UNL     1      88.124  28.144  64.360  1.00  0.00    -0.006 C 
ATOM     18  C   UNL     1      88.099  27.032  65.427  1.00  0.00     0.008 C 
ATOM     19  C   UNL     1      87.941  27.527  62.964  1.00  0.00     0.008 C 
ENDBRANCH  12  17
ENDBRANCH  11  12
ENDBRANCH   1  11
TORSDOF 1
ENDMDL
MODEL 2
REMARK VINA RESULT:    -0.137      1.941      4.404
REMARK INTER + INTRA:           0.256
REMARK INTER:                  -1.194
REMARK INTRA:                   1.450
REMARK UNBOUND:                 0.464
REMARK SMILES CC1=CCC[C@@H](C)C(=O)C[C@H](C(C)C)C(=O)C1
REMARK SMILES IDX 8 1 9 2 6 3 7 4 5 5 4 6 3 7 2 8 1 9 10 11 11 12 15 13 16 14
REMARK SMILES IDX 17 15 12 17 13 18 14 19
REMARK H PARENT
REMARK Flexibility Score: 70.00
ROOT
ATOM      1  C   UNL     1      85.742  33.251  64.386  1.00  0.00     0.136 C 
ATOM      2  O   UNL     1      85.672  33.597  63.215  1.00  0.00    -0.299 OA
ENDROOT
BRANCH   1   3
ATOM      3  C   UNL     1      87.041  33.444  65.145  1.00  0.00     0.053 C 
ATOM      4  C   UNL     1      87.523  34.895  65.022  1.00  0.00     0.016 C 
BRANCH   3   5
ATOM      5  C   UNL     1      88.118  32.459  64.635  1.00  0.00     0.015 C 
BRANCH   5   6
ATOM      6  C   UNL     1      87.500  31.334  63.782  1.00  0.00     0.028 C 
BRANCH   6   7
ATOM      7  C   UNL     1      88.055  29.969  64.106  1.00  0.00    -0.028 C 
ATOM      8  C   UNL     1      87.368  28.961  64.699  1.00  0.00    -0.070 CG0
ATOM      9  C   UNL     1      88.125  27.700  65.033  1.00  0.00     0.039 C 
ATOM     10  G   UNL     1      85.875  29.021  65.000  1.00  0.00     0.000 G0
ENDBRANCH   6   7
ENDBRANCH   5   6
ENDBRANCH   3   5
ENDBRANCH   1   3
BRANCH   1  11
ATOM     11  C   UNL     1      84.519  32.655  65.048  1.00  0.00     0.087 C 
BRANCH  11  12
ATOM     12  C   UNL     1      84.362  31.141  64.740  1.00  0.00     0.066 C 
BRANCH  12  13
ATOM     13  C   UNL     1      85.353  30.308  65.540  1.00  0.00     0.140 C 
ATOM     14  O   UNL     1      85.706  30.668  66.654  1.00  0.00    -0.299 OA
BRANCH  13  15
ATOM     15  C   UNL     1      85.862  29.001  64.983  1.00  0.00     0.106 CG0
ATOM     16  G   UNL     1      87.365  28.976  64.736  1.00  0.00     0.000 G0
ENDBRANCH  13  15
ENDBRANCH  12  13
BRANCH  12  17
ATOM     17  C   UNL     1      82.896  30.621  64.906  1.00  0.00    -0.006 C 
ATOM     18  C   UNL     1      82.669  29.209  64.333  1.00  0.00     0.008 C 
ATOM     19  C   UNL     1      82.445  30.664  66.374  1.00  0.00     0.008 C 
ENDBRANCH  12  17
ENDBRANCH  11  12
ENDBRANCH   1  11
TORSDOF 1
ENDMDL
MODEL 3
REMARK VINA RESULT:    -0.066      2.480      4.836
REMARK INTER + INTRA:           0.363
REMARK INTER:                  -0.745
REMARK INTRA:                   1.108
REMARK UNBOUND:                 0.464
REMARK SMILES CC1=CCC[C@@H](C)C(=O)C[C@H](C(C)C)C(=O)C1
REMARK SMILES IDX 8 1 9 2 6 3 7 4 5 5 4 6 3 7 2 8 1 9 10 11 11 12 15 13 16 14
REMARK SMILES IDX 17 15 12 17 13 18 14 19
REMARK H PARENT
REMARK Flexibility Score: 70.00
ROOT
ATOM      1  C   UNL     1      87.545  31.570  66.170  1.00  0.00     0.136 C 
ATOM      2  O   UNL     1      88.034  30.581  66.700  1.00  0.00    -0.299 OA
ENDROOT
BRANCH   1   3
ATOM      3  C   UNL     1      86.983  32.680  67.037  1.00  0.00     0.053 C 
ATOM      4  C   UNL     1      88.118  33.449  67.727  1.00  0.00     0.016 C 
BRANCH   3   5
ATOM      5  C   UNL     1      85.993  32.106  68.078  1.00  0.00     0.015 C 
BRANCH   5   6
ATOM      6  C   UNL     1      84.581  32.698  67.905  1.00  0.00     0.028 C 
BRANCH   6   7
ATOM      7  C   UNL     1      83.528  31.654  67.628  1.00  0.00    -0.028 C 
ATOM      8  C   UNL     1      83.095  31.282  66.398  1.00  0.00    -0.070 CG0
ATOM      9  C   UNL     1      81.961  30.290  66.326  1.00  0.00     0.039 C 
ATOM     10  G   UNL     1      83.719  31.776  65.098  1.00  0.00     0.000 G0
ENDBRANCH   6   7
ENDBRANCH   5   6
ENDBRANCH   3   5
ENDBRANCH   1   3
BRANCH   1  11
ATOM     11  C   UNL     1      87.532  31.662  64.660  1.00  0.00     0.087 C 
BRANCH  11  12
ATOM     12  C   UNL     1      86.125  32.010  64.104  1.00  0.00     0.066 C 
BRANCH  12  13
ATOM     13  C   UNL     1      85.045  31.161  64.761  1.00  0.00     0.140 C 
ATOM     14  O   UNL     1      85.274  30.000  65.068  1.00  0.00    -0.299 OA
BRANCH  13  15
ATOM     15  C   UNL     1      83.703  31.768  65.089  1.00  0.00     0.106 CG0
ATOM     16  G   UNL     1      83.102  31.271  66.398  1.00  0.00     0.000 G0
ENDBRANCH  13  15
ENDBRANCH  12  13
BRANCH  12  17
ATOM     17  C   UNL     1      85.788  33.535  64.172  1.00  0.00    -0.006 C 
ATOM     18  C   UNL     1      87.018  34.433  64.410  1.00  0.00     0.008 C 
ATOM     19  C   UNL     1      85.039  34.005  62.915  1.00  0.00     0.008 C 
ENDBRANCH  12  17
ENDBRANCH  11  12
ENDBRANCH   1  11
TORSDOF 1
ENDMDL
MODEL 4
REMARK VINA RESULT:     0.109      1.705      2.522
REMARK INTER + INTRA:           0.631
REMARK INTER:                  -0.008
REMARK INTRA:                   0.638
REMARK UNBOUND:                 0.464
REMARK SMILES CC1=CCC[C@@H](C)C(=O)C[C@H](C(C)C)C(=O)C1
REMARK SMILES IDX 8 1 9 2 6 3 7 4 5 5 4 6 3 7 2 8 1 9 10 11 11 12 15 13 16 14
REMARK SMILES IDX 17 15 12 17 13 18 14 19
REMARK H PARENT
REMARK Flexibility Score: 70.00
ROOT
ATOM      1  C   UNL     1      84.265  29.447  64.873  1.00  0.00     0.136 C 
ATOM      2  O   UNL     1      84.270  28.438  64.181  1.00  0.00    -0.299 OA
ENDROOT
BRANCH   1   3
ATOM      3  C   UNL     1      82.981  30.239  65.030  1.00  0.00     0.053 C 
ATOM      4  C   UNL     1      83.083  31.579  64.290  1.00  0.00     0.016 C 
BRANCH   3   5
ATOM      5  C   UNL     1      82.657  30.457  66.526  1.00  0.00     0.015 C 
BRANCH   5   6
ATOM      6  C   UNL     1      82.868  31.924  66.944  1.00  0.00     0.028 C 
BRANCH   6   7
ATOM      7  C   UNL     1      84.144  32.144  67.719  1.00  0.00    -0.028 C 
ATOM      8  C   UNL     1      85.343  32.479  67.180  1.00  0.00    -0.070 CG0
ATOM      9  C   UNL     1      86.529  32.557  68.108  1.00  0.00     0.039 C 
ATOM     10  G   UNL     1      85.541  32.819  65.708  1.00  0.00     0.000 G0
ENDBRANCH   6   7
ENDBRANCH   5   6
ENDBRANCH   3   5
ENDBRANCH   1   3
BRANCH   1  11
ATOM     11  C   UNL     1      85.542  29.865  65.568  1.00  0.00     0.087 C 
BRANCH  11  12
ATOM     12  C   UNL     1      86.507  30.625  64.618  1.00  0.00     0.066 C 
BRANCH  12  13
ATOM     13  C   UNL     1      86.695  32.069  65.061  1.00  0.00     0.140 C 
ATOM     14  O   UNL     1      87.756  32.644  64.865  1.00  0.00    -0.299 OA
BRANCH  13  15
ATOM     15  C   UNL     1      85.548  32.819  65.695  1.00  0.00     0.106 CG0
ATOM     16  G   UNL     1      85.338  32.497  67.170  1.00  0.00     0.000 G0
ENDBRANCH  13  15
ENDBRANCH  12  13
BRANCH  12  17
ATOM     17  C   UNL     1      87.875  29.897  64.409  1.00  0.00    -0.006 C 
ATOM     18  C   UNL     1      88.041  28.626  65.265  1.00  0.00     0.008 C 
ATOM     19  C   UNL     1      88.114  29.559  62.928  1.00  0.00     0.008 C 
ENDBRANCH  12  17
ENDBRANCH  11  12
ENDBRANCH   1  11
TORSDOF 1
ENDMDL
MODEL 5
REMARK VINA RESULT:     0.209      2.441      3.945
REMARK INTER + INTRA:           0.784
REMARK INTER:                  -0.077
REMARK INTRA:                   0.861
REMARK UNBOUND:                 0.464
REMARK SMILES CC1=CCC[C@@H](C)C(=O)C[C@H](C(C)C)C(=O)C1
REMARK SMILES IDX 8 1 9 2 6 3 7 4 5 5 4 6 3 7 2 8 1 9 10 11 11 12 15 13 16 14
REMARK SMILES IDX 17 15 12 17 13 18 14 19
REMARK H PARENT
REMARK Flexibility Score: 70.00
ROOT
ATOM      1  C   UNL     1      84.669  33.207  63.499  1.00  0.00     0.136 C 
ATOM      2  O   UNL     1      84.484  33.921  62.523  1.00  0.00    -0.299 OA
ENDROOT
BRANCH   1   3
ATOM      3  C   UNL     1      86.044  33.161  64.138  1.00  0.00     0.053 C 
ATOM      4  C   UNL     1      86.726  34.532  64.044  1.00  0.00     0.016 C 
BRANCH   3   5
ATOM      5  C   UNL     1      86.913  32.066  63.477  1.00  0.00     0.015 C 
BRANCH   5   6
ATOM      6  C   UNL     1      87.772  31.319  64.515  1.00  0.00     0.028 C 
BRANCH   6   7
ATOM      7  C   UNL     1      87.819  32.009  65.856  1.00  0.00    -0.028 C 
ATOM      8  C   UNL     1      86.886  31.892  66.833  1.00  0.00    -0.070 CG0
ATOM      9  C   UNL     1      87.056  32.741  68.069  1.00  0.00     0.039 C 
ATOM     10  G   UNL     1      85.712  30.923  66.767  1.00  0.00     0.000 G0
ENDBRANCH   6   7
ENDBRANCH   5   6
ENDBRANCH   3   5
ENDBRANCH   1   3
BRANCH   1  11
ATOM     11  C   UNL     1      83.513  32.403  64.049  1.00  0.00     0.087 C 
BRANCH  11  12
ATOM     12  C   UNL     1      83.987  31.133  64.807  1.00  0.00     0.066 C 
BRANCH  12  13
ATOM     13  C   UNL     1      84.423  31.467  66.226  1.00  0.00     0.140 C 
ATOM     14  O   UNL     1      83.713  32.156  66.945  1.00  0.00    -0.299 OA
BRANCH  13  15
ATOM     15  C   UNL     1      85.710  30.899  66.774  1.00  0.00     0.106 CG0
ATOM     16  G   UNL     1      86.853  31.904  66.836  1.00  0.00     0.000 G0
ENDBRANCH  13  15
ENDBRANCH  12  13
BRANCH  12  17
ATOM     17  C   UNL     1      82.947  29.965  64.776  1.00  0.00    -0.006 C 
ATOM     18  C   UNL     1      81.920  30.077  63.632  1.00  0.00     0.008 C 
ATOM     19  C   UNL     1      83.640  28.594  64.717  1.00  0.00     0.008 C 
ENDBRANCH  12  17
ENDBRANCH  11  12
ENDBRANCH   1  11
TORSDOF 1
ENDMDL
