MODEL 1
REMARK VINA RESULT:    -4.605      0.000      0.000
REMARK INTER + INTRA:          -6.981
REMARK INTER:                  -6.489
REMARK INTRA:                  -0.492
REMARK UNBOUND:                -0.492
REMARK SMILES CCCCCCCCC(=O)[O-]
REMARK SMILES IDX 6 1 7 2 8 3 9 4 10 5 11 6 5 7 4 8 3 9 2 10 1 11
REMARK H PARENT
REMARK Flexibility Score: inf
ROOT
ATOM      1  C   UNL     1       5.817   6.555  13.353  1.00  0.00     0.000 C 
ENDROOT
BRANCH   1   2
ATOM      2  C   UNL     1       5.017   7.503  12.445  1.00  0.00     0.006 C 
BRANCH   2   3
ATOM      3  C   UNL     1       4.225   6.745  11.370  1.00  0.00     0.053 C 
BRANCH   3   4
ATOM      4  C   UNL     1       4.196   7.489  10.070  1.00  0.00     0.041 C 
ATOM      5  O   UNL     1       5.195   7.464   9.304  1.00  0.00    -0.550 OA
ATOM      6  O   UNL     1       3.078   8.233   9.717  1.00  0.00    -0.550 OA
ENDBRANCH   3   4
ENDBRANCH   2   3
ENDBRANCH   1   2
BRANCH   1   7
ATOM      7  C   UNL     1       7.340   6.716  13.192  1.00  0.00     0.000 C 
BRANCH   7   8
ATOM      8  C   UNL     1       7.782   7.818  12.207  1.00  0.00    -0.000 C 
BRANCH   8   9
ATOM      9  C   UNL     1       8.344   7.309  10.868  1.00  0.00    -0.000 C 
BRANCH   9  10
ATOM     10  C   UNL     1       9.117   5.990  11.010  1.00  0.00    -0.003 C 
ATOM     11  C   UNL     1       9.747   5.577   9.682  1.00  0.00     0.004 C 
ENDBRANCH   9  10
ENDBRANCH   8   9
ENDBRANCH   7   8
ENDBRANCH   1   7
TORSDOF 7
ENDMDL
MODEL 2
REMARK VINA RESULT:    -4.580      2.607      3.281
REMARK INTER + INTRA:          -6.946
REMARK INTER:                  -6.250
REMARK INTRA:                  -0.695
REMARK UNBOUND:                -0.492
REMARK SMILES CCCCCCCCC(=O)[O-]
REMARK SMILES IDX 6 1 7 2 8 3 9 4 10 5 11 6 5 7 4 8 3 9 2 10 1 11
REMARK H PARENT
REMARK Flexibility Score: inf
ROOT
ATOM      1  C   UNL     1       4.730   6.990  11.346  1.00  0.00     0.000 C 
ENDROOT
BRANCH   1   2
ATOM      2  C   UNL     1       4.912   8.002  12.489  1.00  0.00     0.006 C 
BRANCH   2   3
ATOM      3  C   UNL     1       4.874   7.330  13.869  1.00  0.00     0.053 C 
BRANCH   3   4
ATOM      4  C   UNL     1       6.149   6.601  14.169  1.00  0.00     0.041 C 
ATOM      5  O   UNL     1       7.251   7.207  14.119  1.00  0.00    -0.550 OA
ATOM      6  O   UNL     1       6.122   5.246  14.474  1.00  0.00    -0.550 OA
ENDBRANCH   3   4
ENDBRANCH   2   3
ENDBRANCH   1   2
BRANCH   1   7
ATOM      7  C   UNL     1       5.849   7.073  10.291  1.00  0.00     0.000 C 
BRANCH   7   8
ATOM      8  C   UNL     1       6.823   8.257  10.460  1.00  0.00    -0.000 C 
BRANCH   8   9
ATOM      9  C   UNL     1       8.285   7.864  10.737  1.00  0.00    -0.000 C 
BRANCH   9  10
ATOM     10  C   UNL     1       8.459   6.361  10.998  1.00  0.00    -0.003 C 
ATOM     11  C   UNL     1       9.433   5.740  10.001  1.00  0.00     0.004 C 
ENDBRANCH   9  10
ENDBRANCH   8   9
ENDBRANCH   7   8
ENDBRANCH   1   7
TORSDOF 7
ENDMDL
MODEL 3
REMARK VINA RESULT:    -4.482      1.882      2.536
REMARK INTER + INTRA:          -6.808
REMARK INTER:                  -6.165
REMARK INTRA:                  -0.642
REMARK UNBOUND:                -0.492
REMARK SMILES CCCCCCCCC(=O)[O-]
REMARK SMILES IDX 6 1 7 2 8 3 9 4 10 5 11 6 5 7 4 8 3 9 2 10 1 11
REMARK H PARENT
REMARK Flexibility Score: inf
ROOT
ATOM      1  C   UNL     1       5.911   7.220   9.763  1.00  0.00     0.000 C 
ENDROOT
BRANCH   1   2
ATOM      2  C   UNL     1       4.424   7.467  10.070  1.00  0.00     0.006 C 
BRANCH   2   3
ATOM      3  C   UNL     1       3.973   6.764  11.357  1.00  0.00     0.053 C 
BRANCH   3   4
ATOM      4  C   UNL     1       4.445   7.487  12.583  1.00  0.00     0.041 C 
ATOM      5  O   UNL     1       4.997   6.852  13.519  1.00  0.00    -0.550 OA
ATOM      6  O   UNL     1       4.247   8.857  12.703  1.00  0.00    -0.550 OA
ENDBRANCH   3   4
ENDBRANCH   2   3
ENDBRANCH   1   2
BRANCH   1   7
ATOM      7  C   UNL     1       6.796   8.442  10.069  1.00  0.00     0.000 C 
BRANCH   7   8
ATOM      8  C   UNL     1       8.024   8.157  10.956  1.00  0.00    -0.000 C 
BRANCH   8   9
ATOM      9  C   UNL     1       8.012   6.793  11.669  1.00  0.00    -0.000 C 
BRANCH   9  10
ATOM     10  C   UNL     1       9.256   5.948  11.361  1.00  0.00    -0.003 C 
ATOM     11  C   UNL     1       9.337   5.611   9.875  1.00  0.00     0.004 C 
ENDBRANCH   9  10
ENDBRANCH   8   9
ENDBRANCH   7   8
ENDBRANCH   1   7
TORSDOF 7
ENDMDL
MODEL 4
REMARK VINA RESULT:    -4.458      2.945      3.650
REMARK INTER + INTRA:          -6.774
REMARK INTER:                  -6.222
REMARK INTRA:                  -0.552
REMARK UNBOUND:                -0.492
REMARK SMILES CCCCCCCCC(=O)[O-]
REMARK SMILES IDX 6 1 7 2 8 3 9 4 10 5 11 6 5 7 4 8 3 9 2 10 1 11
REMARK H PARENT
REMARK Flexibility Score: inf
ROOT
ATOM      1  C   UNL     1       7.391   6.322  14.425  1.00  0.00     0.000 C 
ENDROOT
BRANCH   1   2
ATOM      2  C   UNL     1       6.000   5.668  14.468  1.00  0.00     0.006 C 
BRANCH   2   3
ATOM      3  C   UNL     1       5.215   6.059  15.728  1.00  0.00     0.053 C 
BRANCH   3   4
ATOM      4  C   UNL     1       4.517   7.375  15.564  1.00  0.00     0.041 C 
ATOM      5  O   UNL     1       3.942   7.656  14.479  1.00  0.00    -0.550 OA
ATOM      6  O   UNL     1       4.527   8.303  16.597  1.00  0.00    -0.550 OA
ENDBRANCH   3   4
ENDBRANCH   2   3
ENDBRANCH   1   2
BRANCH   1   7
ATOM      7  C   UNL     1       7.549   7.315  13.260  1.00  0.00     0.000 C 
BRANCH   7   8
ATOM      8  C   UNL     1       6.527   7.151  12.116  1.00  0.00    -0.000 C 
BRANCH   8   9
ATOM      9  C   UNL     1       7.137   6.841  10.737  1.00  0.00    -0.000 C 
BRANCH   9  10
ATOM     10  C   UNL     1       8.670   6.932  10.729  1.00  0.00    -0.003 C 
ATOM     11  C   UNL     1       9.295   5.610  10.290  1.00  0.00     0.004 C 
ENDBRANCH   9  10
ENDBRANCH   8   9
ENDBRANCH   7   8
ENDBRANCH   1   7
TORSDOF 7
ENDMDL
MODEL 5
REMARK VINA RESULT:    -4.425      2.227      3.482
REMARK INTER + INTRA:          -6.728
REMARK INTER:                  -6.021
REMARK INTRA:                  -0.707
REMARK UNBOUND:                -0.492
REMARK SMILES CCCCCCCCC(=O)[O-]
REMARK SMILES IDX 6 1 7 2 8 3 9 4 10 5 11 6 5 7 4 8 3 9 2 10 1 11
REMARK H PARENT
REMARK Flexibility Score: inf
ROOT
ATOM      1  C   UNL     1       4.064   6.720  11.166  1.00  0.00     0.000 C 
ENDROOT
BRANCH   1   2
ATOM      2  C   UNL     1       4.712   7.369   9.930  1.00  0.00     0.006 C 
BRANCH   2   3
ATOM      3  C   UNL     1       6.226   7.127   9.876  1.00  0.00     0.053 C 
BRANCH   3   4
ATOM      4  C   UNL     1       6.999   8.315  10.363  1.00  0.00     0.041 C 
ATOM      5  O   UNL     1       8.229   8.212  10.612  1.00  0.00    -0.550 OA
ATOM      6  O   UNL     1       6.355   9.528  10.570  1.00  0.00    -0.550 OA
ENDBRANCH   3   4
ENDBRANCH   2   3
ENDBRANCH   1   2
BRANCH   1   7
ATOM      7  C   UNL     1       3.766   7.734  12.285  1.00  0.00     0.000 C 
BRANCH   7   8
ATOM      8  C   UNL     1       4.713   7.665  13.501  1.00  0.00    -0.000 C 
BRANCH   8   9
ATOM      9  C   UNL     1       5.683   6.471  13.506  1.00  0.00    -0.000 C 
BRANCH   9  10
ATOM     10  C   UNL     1       7.131   6.880  13.814  1.00  0.00    -0.003 C 
ATOM     11  C   UNL     1       7.899   5.733  14.464  1.00  0.00     0.004 C 
ENDBRANCH   9  10
ENDBRANCH   8   9
ENDBRANCH   7   8
ENDBRANCH   1   7
TORSDOF 7
ENDMDL
MODEL 6
REMARK VINA RESULT:    -4.410      3.296      5.068
REMARK INTER + INTRA:          -6.706
REMARK INTER:                  -6.280
REMARK INTRA:                  -0.426
REMARK UNBOUND:                -0.492
REMARK SMILES CCCCCCCCC(=O)[O-]
REMARK SMILES IDX 6 1 7 2 8 3 9 4 10 5 11 6 5 7 4 8 3 9 2 10 1 11
REMARK H PARENT
REMARK Flexibility Score: inf
ROOT
ATOM      1  C   UNL     1       8.152   8.202  11.528  1.00  0.00     0.000 C 
ENDROOT
BRANCH   1   2
ATOM      2  C   UNL     1       7.921   6.844  12.213  1.00  0.00     0.006 C 
BRANCH   2   3
ATOM      3  C   UNL     1       6.980   6.957  13.420  1.00  0.00     0.053 C 
BRANCH   3   4
ATOM      4  C   UNL     1       7.463   6.141  14.582  1.00  0.00     0.041 C 
ATOM      5  O   UNL     1       6.935   6.282  15.716  1.00  0.00    -0.550 OA
ATOM      6  O   UNL     1       8.515   5.250  14.418  1.00  0.00    -0.550 OA
ENDBRANCH   3   4
ENDBRANCH   2   3
ENDBRANCH   1   2
BRANCH   1   7
ATOM      7  C   UNL     1       7.223   8.428  10.322  1.00  0.00     0.000 C 
BRANCH   7   8
ATOM      8  C   UNL     1       6.351   7.218   9.930  1.00  0.00    -0.000 C 
BRANCH   8   9
ATOM      9  C   UNL     1       4.834   7.478   9.937  1.00  0.00    -0.000 C 
BRANCH   9  10
ATOM     10  C   UNL     1       4.100   6.691  11.032  1.00  0.00    -0.003 C 
ATOM     11  C   UNL     1       2.592   6.694  10.794  1.00  0.00     0.004 C 
ENDBRANCH   9  10
ENDBRANCH   8   9
ENDBRANCH   7   8
ENDBRANCH   1   7
TORSDOF 7
ENDMDL
MODEL 7
REMARK VINA RESULT:    -4.407      2.053      3.199
REMARK INTER + INTRA:          -6.703
REMARK INTER:                  -5.837
REMARK INTRA:                  -0.865
REMARK UNBOUND:                -0.492
REMARK SMILES CCCCCCCCC(=O)[O-]
REMARK SMILES IDX 6 1 7 2 8 3 9 4 10 5 11 6 5 7 4 8 3 9 2 10 1 11
REMARK H PARENT
REMARK Flexibility Score: inf
ROOT
ATOM      1  C   UNL     1       6.373   7.014  10.008  1.00  0.00     0.000 C 
ENDROOT
BRANCH   1   2
ATOM      2  C   UNL     1       4.888   7.415  10.004  1.00  0.00     0.006 C 
BRANCH   2   3
ATOM      3  C   UNL     1       4.111   6.771  11.161  1.00  0.00     0.053 C 
BRANCH   3   4
ATOM      4  C   UNL     1       3.665   7.788  12.168  1.00  0.00     0.041 C 
ATOM      5  O   UNL     1       2.500   7.737  12.644  1.00  0.00    -0.550 OA
ATOM      6  O   UNL     1       4.523   8.808  12.557  1.00  0.00    -0.550 OA
ENDBRANCH   3   4
ENDBRANCH   2   3
ENDBRANCH   1   2
BRANCH   1   7
ATOM      7  C   UNL     1       7.305   8.177  10.394  1.00  0.00     0.000 C 
BRANCH   7   8
ATOM      8  C   UNL     1       7.952   8.064  11.789  1.00  0.00    -0.000 C 
BRANCH   8   9
ATOM      9  C   UNL     1       7.714   6.726  12.511  1.00  0.00    -0.000 C 
BRANCH   9  10
ATOM     10  C   UNL     1       7.183   6.906  13.940  1.00  0.00    -0.003 C 
ATOM     11  C   UNL     1       6.121   5.860  14.267  1.00  0.00     0.004 C 
ENDBRANCH   9  10
ENDBRANCH   8   9
ENDBRANCH   7   8
ENDBRANCH   1   7
TORSDOF 7
ENDMDL
MODEL 8
REMARK VINA RESULT:    -4.381      2.973      4.358
REMARK INTER + INTRA:          -6.665
REMARK INTER:                  -6.046
REMARK INTRA:                  -0.619
REMARK UNBOUND:                -0.492
REMARK SMILES CCCCCCCCC(=O)[O-]
REMARK SMILES IDX 6 1 7 2 8 3 9 4 10 5 11 6 5 7 4 8 3 9 2 10 1 11
REMARK H PARENT
REMARK Flexibility Score: inf
ROOT
ATOM      1  C   UNL     1       7.510   7.332  12.898  1.00  0.00     0.000 C 
ENDROOT
BRANCH   1   2
ATOM      2  C   UNL     1       7.499   6.365  14.094  1.00  0.00     0.006 C 
BRANCH   2   3
ATOM      3  C   UNL     1       6.116   5.737  14.318  1.00  0.00     0.053 C 
BRANCH   3   4
ATOM      4  C   UNL     1       5.268   6.567  15.234  1.00  0.00     0.041 C 
ATOM      5  O   UNL     1       4.427   7.374  14.758  1.00  0.00    -0.550 OA
ATOM      6  O   UNL     1       5.429   6.472  16.610  1.00  0.00    -0.550 OA
ENDBRANCH   3   4
ENDBRANCH   2   3
ENDBRANCH   1   2
BRANCH   1   7
ATOM      7  C   UNL     1       8.199   6.739  11.656  1.00  0.00     0.000 C 
BRANCH   7   8
ATOM      8  C   UNL     1       7.349   6.746  10.369  1.00  0.00    -0.000 C 
BRANCH   8   9
ATOM      9  C   UNL     1       6.351   7.911  10.253  1.00  0.00    -0.000 C 
BRANCH   9  10
ATOM     10  C   UNL     1       4.923   7.444   9.939  1.00  0.00    -0.003 C 
ATOM     11  C   UNL     1       4.294   6.752  11.145  1.00  0.00     0.004 C 
ENDBRANCH   9  10
ENDBRANCH   8   9
ENDBRANCH   7   8
ENDBRANCH   1   7
TORSDOF 7
ENDMDL
MODEL 9
REMARK VINA RESULT:    -4.367      1.594      3.406
REMARK INTER + INTRA:          -6.645
REMARK INTER:                  -5.899
REMARK INTRA:                  -0.746
REMARK UNBOUND:                -0.492
REMARK SMILES CCCCCCCCC(=O)[O-]
REMARK SMILES IDX 6 1 7 2 8 3 9 4 10 5 11 6 5 7 4 8 3 9 2 10 1 11
REMARK H PARENT
REMARK Flexibility Score: inf
ROOT
ATOM      1  C   UNL     1       8.277   8.061  11.567  1.00  0.00     0.000 C 
ENDROOT
BRANCH   1   2
ATOM      2  C   UNL     1       7.339   8.580  10.464  1.00  0.00     0.006 C 
BRANCH   2   3
ATOM      3  C   UNL     1       6.349   7.505   9.993  1.00  0.00     0.053 C 
BRANCH   3   4
ATOM      4  C   UNL     1       5.016   8.090   9.639  1.00  0.00     0.041 C 
ATOM      5  O   UNL     1       3.966   7.414   9.801  1.00  0.00    -0.550 OA
ATOM      6  O   UNL     1       4.936   9.369   9.103  1.00  0.00    -0.550 OA
ENDBRANCH   3   4
ENDBRANCH   2   3
ENDBRANCH   1   2
BRANCH   1   7
ATOM      7  C   UNL     1       7.783   6.749  12.203  1.00  0.00     0.000 C 
BRANCH   7   8
ATOM      8  C   UNL     1       7.624   6.782  13.736  1.00  0.00    -0.000 C 
BRANCH   8   9
ATOM      9  C   UNL     1       6.218   6.430  14.254  1.00  0.00    -0.000 C 
BRANCH   9  10
ATOM     10  C   UNL     1       5.119   6.685  13.213  1.00  0.00    -0.003 C 
ATOM     11  C   UNL     1       4.477   8.055  13.417  1.00  0.00     0.004 C 
ENDBRANCH   9  10
ENDBRANCH   8   9
ENDBRANCH   7   8
ENDBRANCH   1   7
TORSDOF 7
ENDMDL
