MODEL 1
REMARK VINA RESULT:    -3.057      0.000      0.000
REMARK INTER + INTRA:          -8.466
REMARK INTER:                  -5.558
REMARK INTRA:                  -2.908
REMARK UNBOUND:                -2.908
REMARK SMILES CCCCCCCCCCCCCC[C@@H](C)C(=O)[O-]
REMARK SMILES IDX 9 1 10 2 11 3 12 4 13 5 14 6 15 7 16 8 17 9 18 10 19 11 8 12
REMARK SMILES IDX 7 13 6 14 5 15 4 16 3 17 2 18 1 19
REMARK H PARENT
REMARK Flexibility Score: inf
ROOT
ATOM      1  C   UNL     1     -20.394  28.683  19.235  1.00  0.00     0.000 C 
ENDROOT
BRANCH   1   2
ATOM      2  C   UNL     1     -19.649  29.750  20.055  1.00  0.00     0.000 C 
BRANCH   2   3
ATOM      3  C   UNL     1     -19.209  29.244  21.442  1.00  0.00     0.000 C 
BRANCH   3   4
ATOM      4  C   UNL     1     -19.394  30.244  22.598  1.00  0.00     0.000 C 
BRANCH   4   5
ATOM      5  C   UNL     1     -20.856  30.684  22.783  1.00  0.00     0.001 C 
BRANCH   5   6
ATOM      6  C   UNL     1     -21.068  32.184  22.498  1.00  0.00     0.009 C 
BRANCH   6   7
ATOM      7  C   UNL     1     -21.935  32.479  21.254  1.00  0.00     0.032 C 
ATOM      8  C   UNL     1     -23.267  31.724  21.338  1.00  0.00     0.014 C 
BRANCH   7   9
ATOM      9  C   UNL     1     -22.192  33.954  21.094  1.00  0.00     0.044 C 
ATOM     10  O   UNL     1     -22.969  34.374  20.195  1.00  0.00    -0.550 OA
ATOM     11  O   UNL     1     -21.576  34.861  21.946  1.00  0.00    -0.550 OA
ENDBRANCH   7   9
ENDBRANCH   6   7
ENDBRANCH   5   6
ENDBRANCH   4   5
ENDBRANCH   3   4
ENDBRANCH   2   3
ENDBRANCH   1   2
BRANCH   1  12
ATOM     12  C   UNL     1     -21.920  28.862  19.284  1.00  0.00     0.000 C 
BRANCH  12  13
ATOM     13  C   UNL     1     -22.634  27.686  19.975  1.00  0.00    -0.000 C 
BRANCH  13  14
ATOM     14  C   UNL     1     -22.954  27.977  21.450  1.00  0.00    -0.000 C 
BRANCH  14  15
ATOM     15  C   UNL     1     -22.132  27.107  22.417  1.00  0.00    -0.000 C 
BRANCH  15  16
ATOM     16  C   UNL     1     -21.441  25.930  21.696  1.00  0.00    -0.000 C 
BRANCH  16  17
ATOM     17  C   UNL     1     -19.934  25.832  21.985  1.00  0.00    -0.000 C 
BRANCH  17  18
ATOM     18  C   UNL     1     -19.105  25.504  20.736  1.00  0.00    -0.003 C 
ATOM     19  C   UNL     1     -19.996  25.025  19.594  1.00  0.00     0.004 C 
ENDBRANCH  17  18
ENDBRANCH  16  17
ENDBRANCH  15  16
ENDBRANCH  14  15
ENDBRANCH  13  14
ENDBRANCH  12  13
ENDBRANCH   1  12
TORSDOF 14
ENDMDL
MODEL 2
REMARK VINA RESULT:    -3.014      1.873      3.623
REMARK INTER + INTRA:          -8.389
REMARK INTER:                  -6.319
REMARK INTRA:                  -2.070
REMARK UNBOUND:                -2.908
REMARK SMILES CCCCCCCCCCCCCC[C@@H](C)C(=O)[O-]
REMARK SMILES IDX 9 1 10 2 11 3 12 4 13 5 14 6 15 7 16 8 17 9 18 10 19 11 8 12
REMARK SMILES IDX 7 13 6 14 5 15 4 16 3 17 2 18 1 19
REMARK H PARENT
REMARK Flexibility Score: inf
ROOT
ATOM      1  C   UNL     1     -17.931  29.717  23.430  1.00  0.00     0.000 C 
ENDROOT
BRANCH   1   2
ATOM      2  C   UNL     1     -19.055  30.661  23.888  1.00  0.00     0.000 C 
BRANCH   2   3
ATOM      3  C   UNL     1     -18.664  32.149  23.798  1.00  0.00     0.000 C 
BRANCH   3   4
ATOM      4  C   UNL     1     -19.797  33.104  23.377  1.00  0.00     0.000 C 
BRANCH   4   5
ATOM      5  C   UNL     1     -21.100  32.368  23.019  1.00  0.00     0.001 C 
BRANCH   5   6
ATOM      6  C   UNL     1     -21.521  32.580  21.552  1.00  0.00     0.009 C 
BRANCH   6   7
ATOM      7  C   UNL     1     -22.883  33.288  21.377  1.00  0.00     0.032 C 
ATOM      8  C   UNL     1     -23.621  33.369  22.718  1.00  0.00     0.014 C 
BRANCH   7   9
ATOM      9  C   UNL     1     -22.722  34.668  20.797  1.00  0.00     0.044 C 
ATOM     10  O   UNL     1     -23.451  35.617  21.192  1.00  0.00    -0.550 OA
ATOM     11  O   UNL     1     -21.759  34.902  19.824  1.00  0.00    -0.550 OA
ENDBRANCH   7   9
ENDBRANCH   6   7
ENDBRANCH   5   6
ENDBRANCH   4   5
ENDBRANCH   3   4
ENDBRANCH   2   3
ENDBRANCH   1   2
BRANCH   1  12
ATOM     12  C   UNL     1     -18.216  29.083  22.059  1.00  0.00     0.000 C 
BRANCH  12  13
ATOM     13  C   UNL     1     -19.654  29.342  21.573  1.00  0.00    -0.000 C 
BRANCH  13  14
ATOM     14  C   UNL     1     -19.708  29.759  20.095  1.00  0.00    -0.000 C 
BRANCH  14  15
ATOM     15  C   UNL     1     -20.347  28.683  19.200  1.00  0.00    -0.000 C 
BRANCH  15  16
ATOM     16  C   UNL     1     -21.411  27.857  19.953  1.00  0.00    -0.000 C 
BRANCH  16  17
ATOM     17  C   UNL     1     -22.851  28.145  19.496  1.00  0.00    -0.000 C 
BRANCH  17  18
ATOM     18  C   UNL     1     -23.334  29.548  19.886  1.00  0.00    -0.003 C 
ATOM     19  C   UNL     1     -23.700  29.612  21.366  1.00  0.00     0.004 C 
ENDBRANCH  17  18
ENDBRANCH  16  17
ENDBRANCH  15  16
ENDBRANCH  14  15
ENDBRANCH  13  14
ENDBRANCH  12  13
ENDBRANCH   1  12
TORSDOF 14
ENDMDL
MODEL 3
REMARK VINA RESULT:    -2.960      3.864      7.093
REMARK INTER + INTRA:          -8.291
REMARK INTER:                  -6.173
REMARK INTRA:                  -2.118
REMARK UNBOUND:                -2.908
REMARK SMILES CCCCCCCCCCCCCC[C@@H](C)C(=O)[O-]
REMARK SMILES IDX 9 1 10 2 11 3 12 4 13 5 14 6 15 7 16 8 17 9 18 10 19 11 8 12
REMARK SMILES IDX 7 13 6 14 5 15 4 16 3 17 2 18 1 19
REMARK H PARENT
REMARK Flexibility Score: inf
ROOT
ATOM      1  C   UNL     1     -20.731  30.537  21.087  1.00  0.00     0.000 C 
ENDROOT
BRANCH   1   2
ATOM      2  C   UNL     1     -19.830  29.642  20.220  1.00  0.00     0.000 C 
BRANCH   2   3
ATOM      3  C   UNL     1     -20.602  28.501  19.530  1.00  0.00     0.000 C 
BRANCH   3   4
ATOM      4  C   UNL     1     -20.119  27.078  19.869  1.00  0.00     0.000 C 
BRANCH   4   5
ATOM      5  C   UNL     1     -20.755  26.518  21.153  1.00  0.00     0.001 C 
BRANCH   5   6
ATOM      6  C   UNL     1     -19.762  26.450  22.329  1.00  0.00     0.009 C 
BRANCH   6   7
ATOM      7  C   UNL     1     -18.311  26.829  21.960  1.00  0.00     0.032 C 
ATOM      8  C   UNL     1     -17.797  27.943  22.880  1.00  0.00     0.014 C 
BRANCH   7   9
ATOM      9  C   UNL     1     -17.390  25.640  22.032  1.00  0.00     0.044 C 
ATOM     10  O   UNL     1     -16.770  25.375  23.096  1.00  0.00    -0.550 OA
ATOM     11  O   UNL     1     -17.225  24.823  20.921  1.00  0.00    -0.550 OA
ENDBRANCH   7   9
ENDBRANCH   6   7
ENDBRANCH   5   6
ENDBRANCH   4   5
ENDBRANCH   3   4
ENDBRANCH   2   3
ENDBRANCH   1   2
BRANCH   1  12
ATOM     12  C   UNL     1     -21.029  29.918  22.462  1.00  0.00     0.000 C 
BRANCH  12  13
ATOM     13  C   UNL     1     -20.401  30.714  23.621  1.00  0.00    -0.000 C 
BRANCH  13  14
ATOM     14  C   UNL     1     -19.336  31.712  23.138  1.00  0.00    -0.000 C 
BRANCH  14  15
ATOM     15  C   UNL     1     -19.636  33.155  23.579  1.00  0.00    -0.000 C 
BRANCH  15  16
ATOM     16  C   UNL     1     -21.151  33.436  23.661  1.00  0.00    -0.000 C 
BRANCH  16  17
ATOM     17  C   UNL     1     -21.629  34.519  22.679  1.00  0.00    -0.000 C 
BRANCH  17  18
ATOM     18  C   UNL     1     -22.052  33.950  21.319  1.00  0.00    -0.003 C 
ATOM     19  C   UNL     1     -21.884  34.987  20.212  1.00  0.00     0.004 C 
ENDBRANCH  17  18
ENDBRANCH  16  17
ENDBRANCH  15  16
ENDBRANCH  14  15
ENDBRANCH  13  14
ENDBRANCH  12  13
ENDBRANCH   1  12
TORSDOF 14
ENDMDL
MODEL 4
REMARK VINA RESULT:    -2.955      3.403      5.517
REMARK INTER + INTRA:          -8.282
REMARK INTER:                  -6.768
REMARK INTRA:                  -1.514
REMARK UNBOUND:                -2.908
REMARK SMILES CCCCCCCCCCCCCC[C@@H](C)C(=O)[O-]
REMARK SMILES IDX 9 1 10 2 11 3 12 4 13 5 14 6 15 7 16 8 17 9 18 10 19 11 8 12
REMARK SMILES IDX 7 13 6 14 5 15 4 16 3 17 2 18 1 19
REMARK H PARENT
REMARK Flexibility Score: inf
ROOT
ATOM      1  C   UNL     1     -23.730  33.733  20.688  1.00  0.00     0.000 C 
ENDROOT
BRANCH   1   2
ATOM      2  C   UNL     1     -22.630  34.583  20.029  1.00  0.00     0.000 C 
BRANCH   2   3
ATOM      3  C   UNL     1     -21.622  35.153  21.045  1.00  0.00     0.000 C 
BRANCH   3   4
ATOM      4  C   UNL     1     -22.176  35.389  22.463  1.00  0.00     0.000 C 
BRANCH   4   5
ATOM      5  C   UNL     1     -22.184  36.874  22.864  1.00  0.00     0.001 C 
BRANCH   5   6
ATOM      6  C   UNL     1     -22.961  37.756  21.867  1.00  0.00     0.009 C 
BRANCH   6   7
ATOM      7  C   UNL     1     -22.849  39.273  22.138  1.00  0.00     0.032 C 
ATOM      8  C   UNL     1     -21.589  39.579  22.957  1.00  0.00     0.014 C 
BRANCH   7   9
ATOM      9  C   UNL     1     -22.833  40.067  20.859  1.00  0.00     0.044 C 
ATOM     10  O   UNL     1     -23.853  40.707  20.490  1.00  0.00    -0.550 OA
ATOM     11  O   UNL     1     -21.683  40.101  20.079  1.00  0.00    -0.550 OA
ENDBRANCH   7   9
ENDBRANCH   6   7
ENDBRANCH   5   6
ENDBRANCH   4   5
ENDBRANCH   3   4
ENDBRANCH   2   3
ENDBRANCH   1   2
BRANCH   1  12
ATOM     12  C   UNL     1     -23.571  32.232  20.392  1.00  0.00     0.000 C 
BRANCH  12  13
ATOM     13  C   UNL     1     -23.694  31.363  21.657  1.00  0.00    -0.000 C 
BRANCH  13  14
ATOM     14  C   UNL     1     -22.393  31.330  22.475  1.00  0.00    -0.000 C 
BRANCH  14  15
ATOM     15  C   UNL     1     -21.137  31.460  21.596  1.00  0.00    -0.000 C 
BRANCH  15  16
ATOM     16  C   UNL     1     -20.339  30.141  21.524  1.00  0.00    -0.000 C 
BRANCH  16  17
ATOM     17  C   UNL     1     -19.912  29.757  20.097  1.00  0.00    -0.000 C 
BRANCH  17  18
ATOM     18  C   UNL     1     -20.516  28.428  19.628  1.00  0.00    -0.003 C 
ATOM     19  C   UNL     1     -22.006  28.572  19.335  1.00  0.00     0.004 C 
ENDBRANCH  17  18
ENDBRANCH  16  17
ENDBRANCH  15  16
ENDBRANCH  14  15
ENDBRANCH  13  14
ENDBRANCH  12  13
ENDBRANCH   1  12
TORSDOF 14
ENDMDL
MODEL 5
REMARK VINA RESULT:    -2.954      1.562      2.579
REMARK INTER + INTRA:          -8.279
REMARK INTER:                  -5.370
REMARK INTRA:                  -2.910
REMARK UNBOUND:                -2.908
REMARK SMILES CCCCCCCCCCCCCC[C@@H](C)C(=O)[O-]
REMARK SMILES IDX 9 1 10 2 11 3 12 4 13 5 14 6 15 7 16 8 17 9 18 10 19 11 8 12
REMARK SMILES IDX 7 13 6 14 5 15 4 16 3 17 2 18 1 19
REMARK H PARENT
REMARK Flexibility Score: inf
ROOT
ATOM      1  C   UNL     1     -19.013  28.872  21.371  1.00  0.00     0.000 C 
ENDROOT
BRANCH   1   2
ATOM      2  C   UNL     1     -18.879  29.581  22.730  1.00  0.00     0.000 C 
BRANCH   2   3
ATOM      3  C   UNL     1     -19.609  30.936  22.776  1.00  0.00     0.000 C 
BRANCH   3   4
ATOM      4  C   UNL     1     -20.810  31.006  23.738  1.00  0.00     0.000 C 
BRANCH   4   5
ATOM      5  C   UNL     1     -21.916  31.957  23.249  1.00  0.00     0.001 C 
BRANCH   5   6
ATOM      6  C   UNL     1     -21.429  32.923  22.152  1.00  0.00     0.009 C 
BRANCH   6   7
ATOM      7  C   UNL     1     -22.481  33.231  21.062  1.00  0.00     0.032 C 
ATOM      8  C   UNL     1     -23.893  32.939  21.583  1.00  0.00     0.014 C 
BRANCH   7   9
ATOM      9  C   UNL     1     -22.393  34.659  20.593  1.00  0.00     0.044 C 
ATOM     10  O   UNL     1     -21.703  34.960  19.584  1.00  0.00    -0.550 OA
ATOM     11  O   UNL     1     -23.084  35.655  21.273  1.00  0.00    -0.550 OA
ENDBRANCH   7   9
ENDBRANCH   6   7
ENDBRANCH   5   6
ENDBRANCH   4   5
ENDBRANCH   3   4
ENDBRANCH   2   3
ENDBRANCH   1   2
BRANCH   1  12
ATOM     12  C   UNL     1     -19.763  29.725  20.334  1.00  0.00     0.000 C 
BRANCH  12  13
ATOM     13  C   UNL     1     -20.367  28.880  19.197  1.00  0.00    -0.000 C 
BRANCH  13  14
ATOM     14  C   UNL     1     -21.854  28.565  19.426  1.00  0.00    -0.000 C 
BRANCH  14  15
ATOM     15  C   UNL     1     -22.567  29.647  20.255  1.00  0.00    -0.000 C 
BRANCH  15  16
ATOM     16  C   UNL     1     -23.268  29.060  21.498  1.00  0.00    -0.000 C 
BRANCH  16  17
ATOM     17  C   UNL     1     -22.801  27.638  21.853  1.00  0.00    -0.000 C 
BRANCH  17  18
ATOM     18  C   UNL     1     -22.045  27.571  23.186  1.00  0.00    -0.003 C 
ATOM     19  C   UNL     1     -21.068  26.400  23.208  1.00  0.00     0.004 C 
ENDBRANCH  17  18
ENDBRANCH  16  17
ENDBRANCH  15  16
ENDBRANCH  14  15
ENDBRANCH  13  14
ENDBRANCH  12  13
ENDBRANCH   1  12
TORSDOF 14
ENDMDL
MODEL 6
REMARK VINA RESULT:    -2.937      1.530      3.160
REMARK INTER + INTRA:          -8.250
REMARK INTER:                  -6.408
REMARK INTRA:                  -1.841
REMARK UNBOUND:                -2.908
REMARK SMILES CCCCCCCCCCCCCC[C@@H](C)C(=O)[O-]
REMARK SMILES IDX 9 1 10 2 11 3 12 4 13 5 14 6 15 7 16 8 17 9 18 10 19 11 8 12
REMARK SMILES IDX 7 13 6 14 5 15 4 16 3 17 2 18 1 19
REMARK H PARENT
REMARK Flexibility Score: inf
ROOT
ATOM      1  C   UNL     1     -21.499  27.922  20.099  1.00  0.00     0.000 C 
ENDROOT
BRANCH   1   2
ATOM      2  C   UNL     1     -22.989  28.026  19.734  1.00  0.00     0.000 C 
BRANCH   2   3
ATOM      3  C   UNL     1     -23.448  29.476  19.488  1.00  0.00     0.000 C 
BRANCH   3   4
ATOM      4  C   UNL     1     -23.822  30.273  20.751  1.00  0.00     0.000 C 
BRANCH   4   5
ATOM      5  C   UNL     1     -23.937  31.786  20.494  1.00  0.00     0.001 C 
BRANCH   5   6
ATOM      6  C   UNL     1     -23.285  32.631  21.606  1.00  0.00     0.009 C 
BRANCH   6   7
ATOM      7  C   UNL     1     -22.137  33.544  21.121  1.00  0.00     0.032 C 
ATOM      8  C   UNL     1     -22.675  34.626  20.177  1.00  0.00     0.014 C 
BRANCH   7   9
ATOM      9  C   UNL     1     -21.412  34.185  22.275  1.00  0.00     0.044 C 
ATOM     10  O   UNL     1     -20.701  33.491  23.049  1.00  0.00    -0.550 OA
ATOM     11  O   UNL     1     -21.521  35.554  22.486  1.00  0.00    -0.550 OA
ENDBRANCH   7   9
ENDBRANCH   6   7
ENDBRANCH   5   6
ENDBRANCH   4   5
ENDBRANCH   3   4
ENDBRANCH   2   3
ENDBRANCH   1   2
BRANCH   1  12
ATOM     12  C   UNL     1     -20.618  28.854  19.251  1.00  0.00     0.000 C 
BRANCH  12  13
ATOM     13  C   UNL     1     -19.656  29.701  20.104  1.00  0.00    -0.000 C 
BRANCH  13  14
ATOM     14  C   UNL     1     -20.232  30.026  21.491  1.00  0.00    -0.000 C 
BRANCH  14  15
ATOM     15  C   UNL     1     -19.146  30.110  22.578  1.00  0.00    -0.000 C 
BRANCH  15  16
ATOM     16  C   UNL     1     -18.099  28.984  22.442  1.00  0.00    -0.000 C 
BRANCH  16  17
ATOM     17  C   UNL     1     -18.684  27.574  22.628  1.00  0.00    -0.000 C 
BRANCH  17  18
ATOM     18  C   UNL     1     -17.885  26.492  21.891  1.00  0.00    -0.003 C 
ATOM     19  C   UNL     1     -18.803  25.595  21.066  1.00  0.00     0.004 C 
ENDBRANCH  17  18
ENDBRANCH  16  17
ENDBRANCH  15  16
ENDBRANCH  14  15
ENDBRANCH  13  14
ENDBRANCH  12  13
ENDBRANCH   1  12
TORSDOF 14
ENDMDL
MODEL 7
REMARK VINA RESULT:    -2.936      2.452      4.708
REMARK INTER + INTRA:          -8.246
REMARK INTER:                  -6.399
REMARK INTRA:                  -1.847
REMARK UNBOUND:                -2.908
REMARK SMILES CCCCCCCCCCCCCC[C@@H](C)C(=O)[O-]
REMARK SMILES IDX 9 1 10 2 11 3 12 4 13 5 14 6 15 7 16 8 17 9 18 10 19 11 8 12
REMARK SMILES IDX 7 13 6 14 5 15 4 16 3 17 2 18 1 19
REMARK H PARENT
REMARK Flexibility Score: inf
ROOT
ATOM      1  C   UNL     1     -21.882  32.357  22.861  1.00  0.00     0.000 C 
ENDROOT
BRANCH   1   2
ATOM      2  C   UNL     1     -22.201  31.797  21.465  1.00  0.00     0.000 C 
BRANCH   2   3
ATOM      3  C   UNL     1     -23.446  32.443  20.828  1.00  0.00     0.000 C 
BRANCH   3   4
ATOM      4  C   UNL     1     -23.677  33.923  21.185  1.00  0.00     0.000 C 
BRANCH   4   5
ATOM      5  C   UNL     1     -22.837  34.885  20.327  1.00  0.00     0.001 C 
BRANCH   5   6
ATOM      6  C   UNL     1     -21.857  35.730  21.164  1.00  0.00     0.009 C 
BRANCH   6   7
ATOM      7  C   UNL     1     -22.512  36.474  22.350  1.00  0.00     0.032 C 
ATOM      8  C   UNL     1     -21.884  36.027  23.675  1.00  0.00     0.014 C 
BRANCH   7   9
ATOM      9  C   UNL     1     -22.390  37.968  22.204  1.00  0.00     0.044 C 
ATOM     10  O   UNL     1     -22.794  38.544  21.159  1.00  0.00    -0.550 OA
ATOM     11  O   UNL     1     -21.833  38.721  23.231  1.00  0.00    -0.550 OA
ENDBRANCH   7   9
ENDBRANCH   6   7
ENDBRANCH   5   6
ENDBRANCH   4   5
ENDBRANCH   3   4
ENDBRANCH   2   3
ENDBRANCH   1   2
BRANCH   1  12
ATOM     12  C   UNL     1     -20.400  32.736  23.020  1.00  0.00     0.000 C 
BRANCH  12  13
ATOM     13  C   UNL     1     -19.638  31.773  23.948  1.00  0.00    -0.000 C 
BRANCH  13  14
ATOM     14  C   UNL     1     -18.747  30.790  23.171  1.00  0.00    -0.000 C 
BRANCH  14  15
ATOM     15  C   UNL     1     -19.487  29.495  22.792  1.00  0.00    -0.000 C 
BRANCH  15  16
ATOM     16  C   UNL     1     -19.056  28.964  21.408  1.00  0.00    -0.000 C 
BRANCH  16  17
ATOM     17  C   UNL     1     -19.740  29.683  20.233  1.00  0.00    -0.000 C 
BRANCH  17  18
ATOM     18  C   UNL     1     -20.374  28.715  19.225  1.00  0.00    -0.003 C 
ATOM     19  C   UNL     1     -21.896  28.758  19.303  1.00  0.00     0.004 C 
ENDBRANCH  17  18
ENDBRANCH  16  17
ENDBRANCH  15  16
ENDBRANCH  14  15
ENDBRANCH  13  14
ENDBRANCH  12  13
ENDBRANCH   1  12
TORSDOF 14
ENDMDL
MODEL 8
REMARK VINA RESULT:    -2.897      0.926      2.478
REMARK INTER + INTRA:          -8.176
REMARK INTER:                  -5.537
REMARK INTRA:                  -2.638
REMARK UNBOUND:                -2.908
REMARK SMILES CCCCCCCCCCCCCC[C@@H](C)C(=O)[O-]
REMARK SMILES IDX 9 1 10 2 11 3 12 4 13 5 14 6 15 7 16 8 17 9 18 10 19 11 8 12
REMARK SMILES IDX 7 13 6 14 5 15 4 16 3 17 2 18 1 19
REMARK H PARENT
REMARK Flexibility Score: inf
ROOT
ATOM      1  C   UNL     1     -20.348  28.798  19.252  1.00  0.00     0.000 C 
ENDROOT
BRANCH   1   2
ATOM      2  C   UNL     1     -21.787  28.291  19.449  1.00  0.00     0.000 C 
BRANCH   2   3
ATOM      3  C   UNL     1     -22.767  29.408  19.855  1.00  0.00     0.000 C 
BRANCH   3   4
ATOM      4  C   UNL     1     -23.370  29.275  21.266  1.00  0.00     0.000 C 
BRANCH   4   5
ATOM      5  C   UNL     1     -23.395  30.607  22.036  1.00  0.00     0.001 C 
BRANCH   5   6
ATOM      6  C   UNL     1     -22.947  31.802  21.173  1.00  0.00     0.009 C 
BRANCH   6   7
ATOM      7  C   UNL     1     -22.371  32.988  21.979  1.00  0.00     0.032 C 
ATOM      8  C   UNL     1     -21.053  32.588  22.653  1.00  0.00     0.014 C 
BRANCH   7   9
ATOM      9  C   UNL     1     -22.154  34.198  21.109  1.00  0.00     0.044 C 
ATOM     10  O   UNL     1     -21.253  35.033  21.388  1.00  0.00    -0.550 OA
ATOM     11  O   UNL     1     -22.948  34.395  19.986  1.00  0.00    -0.550 OA
ENDBRANCH   7   9
ENDBRANCH   6   7
ENDBRANCH   5   6
ENDBRANCH   4   5
ENDBRANCH   3   4
ENDBRANCH   2   3
ENDBRANCH   1   2
BRANCH   1  12
ATOM     12  C   UNL     1     -19.950  29.858  20.291  1.00  0.00     0.000 C 
BRANCH  12  13
ATOM     13  C   UNL     1     -19.114  29.274  21.445  1.00  0.00    -0.000 C 
BRANCH  13  14
ATOM     14  C   UNL     1     -19.918  29.153  22.749  1.00  0.00    -0.000 C 
BRANCH  14  15
ATOM     15  C   UNL     1     -20.482  27.738  22.967  1.00  0.00    -0.000 C 
BRANCH  15  16
ATOM     16  C   UNL     1     -19.503  26.643  22.494  1.00  0.00    -0.000 C 
BRANCH  16  17
ATOM     17  C   UNL     1     -20.159  25.576  21.599  1.00  0.00    -0.000 C 
BRANCH  17  18
ATOM     18  C   UNL     1     -19.254  25.125  20.445  1.00  0.00    -0.003 C 
ATOM     19  C   UNL     1     -20.069  24.831  19.190  1.00  0.00     0.004 C 
ENDBRANCH  17  18
ENDBRANCH  16  17
ENDBRANCH  15  16
ENDBRANCH  14  15
ENDBRANCH  13  14
ENDBRANCH  12  13
ENDBRANCH   1  12
TORSDOF 14
ENDMDL
MODEL 9
REMARK VINA RESULT:    -2.854      1.363      3.772
REMARK INTER + INTRA:          -8.098
REMARK INTER:                  -5.464
REMARK INTRA:                  -2.635
REMARK UNBOUND:                -2.908
REMARK SMILES CCCCCCCCCCCCCC[C@@H](C)C(=O)[O-]
REMARK SMILES IDX 9 1 10 2 11 3 12 4 13 5 14 6 15 7 16 8 17 9 18 10 19 11 8 12
REMARK SMILES IDX 7 13 6 14 5 15 4 16 3 17 2 18 1 19
REMARK H PARENT
REMARK Flexibility Score: inf
ROOT
ATOM      1  C   UNL     1     -22.397  27.342  21.506  1.00  0.00     0.000 C 
ENDROOT
BRANCH   1   2
ATOM      2  C   UNL     1     -23.690  27.942  20.929  1.00  0.00     0.000 C 
BRANCH   2   3
ATOM      3  C   UNL     1     -23.902  29.414  21.331  1.00  0.00     0.000 C 
BRANCH   3   4
ATOM      4  C   UNL     1     -23.703  30.442  20.202  1.00  0.00     0.000 C 
BRANCH   4   5
ATOM      5  C   UNL     1     -23.654  31.893  20.712  1.00  0.00     0.001 C 
BRANCH   5   6
ATOM      6  C   UNL     1     -22.250  32.306  21.197  1.00  0.00     0.009 C 
BRANCH   6   7
ATOM      7  C   UNL     1     -22.214  33.639  21.978  1.00  0.00     0.032 C 
ATOM      8  C   UNL     1     -20.895  33.774  22.747  1.00  0.00     0.014 C 
BRANCH   7   9
ATOM      9  C   UNL     1     -22.399  34.823  21.066  1.00  0.00     0.044 C 
ATOM     10  O   UNL     1     -21.512  35.125  20.224  1.00  0.00    -0.550 OA
ATOM     11  O   UNL     1     -23.557  35.586  21.147  1.00  0.00    -0.550 OA
ENDBRANCH   7   9
ENDBRANCH   6   7
ENDBRANCH   5   6
ENDBRANCH   4   5
ENDBRANCH   3   4
ENDBRANCH   2   3
ENDBRANCH   1   2
BRANCH   1  12
ATOM     12  C   UNL     1     -21.596  26.552  20.459  1.00  0.00     0.000 C 
BRANCH  12  13
ATOM     13  C   UNL     1     -20.246  27.212  20.122  1.00  0.00    -0.000 C 
BRANCH  13  14
ATOM     14  C   UNL     1     -20.412  28.503  19.305  1.00  0.00    -0.000 C 
BRANCH  14  15
ATOM     15  C   UNL     1     -19.940  29.752  20.070  1.00  0.00    -0.000 C 
BRANCH  15  16
ATOM     16  C   UNL     1     -19.164  29.389  21.354  1.00  0.00    -0.000 C 
BRANCH  16  17
ATOM     17  C   UNL     1     -19.545  30.254  22.568  1.00  0.00    -0.000 C 
BRANCH  17  18
ATOM     18  C   UNL     1     -20.284  29.465  23.656  1.00  0.00    -0.003 C 
ATOM     19  C   UNL     1     -21.561  30.181  24.084  1.00  0.00     0.004 C 
ENDBRANCH  17  18
ENDBRANCH  16  17
ENDBRANCH  15  16
ENDBRANCH  14  15
ENDBRANCH  13  14
ENDBRANCH  12  13
ENDBRANCH   1  12
TORSDOF 14
ENDMDL
