MODEL 1
REMARK VINA RESULT:    -3.943      0.000      0.000
REMARK INTER + INTRA:          -4.296
REMARK INTER:                  -4.174
REMARK INTRA:                  -0.122
REMARK UNBOUND:                -0.122
REMARK SMILES C=C(C)[C@H]1CC=C(C)CC1
REMARK SMILES IDX 8 1 7 2 6 3 5 4 4 5 10 6 9 7 2 8 1 9 3 10
REMARK H PARENT
REMARK Flexibility Score: inf
ROOT
ATOM      1  C   UNL     1      54.994   6.405 -50.385  1.00  0.00     0.039 C 
ATOM      2  C   UNL     1      54.897   6.790 -48.934  1.00  0.00    -0.077 C 
ATOM      3  C   UNL     1      55.860   6.378 -48.082  1.00  0.00    -0.027 C 
ATOM      4  C   UNL     1      55.824   6.665 -46.601  1.00  0.00     0.035 C 
ATOM      5  C   UNL     1      54.947   7.885 -46.266  1.00  0.00     0.018 C 
ATOM      6  C   UNL     1      53.593   7.765 -46.980  1.00  0.00     0.013 C 
ATOM      7  C   UNL     1      53.795   7.737 -48.500  1.00  0.00     0.031 C 
ENDROOT
BRANCH   5   8
ATOM      8  C   UNL     1      54.780   8.059 -44.762  1.00  0.00    -0.077 C 
ATOM      9  C   UNL     1      55.728   8.653 -44.017  1.00  0.00     0.008 C 
ATOM     10  C   UNL     1      53.536   7.556 -44.077  1.00  0.00     0.039 C 
ENDBRANCH   5   8
TORSDOF 1
ENDMDL
MODEL 2
REMARK VINA RESULT:    -3.848      1.702      4.815
REMARK INTER + INTRA:          -4.196
REMARK INTER:                  -4.069
REMARK INTRA:                  -0.127
REMARK UNBOUND:                -0.122
REMARK SMILES C=C(C)[C@H]1CC=C(C)CC1
REMARK SMILES IDX 8 1 7 2 6 3 5 4 4 5 10 6 9 7 2 8 1 9 3 10
REMARK H PARENT
REMARK Flexibility Score: inf
ROOT
ATOM      1  C   UNL     1      53.188   7.063 -44.508  1.00  0.00     0.039 C 
ATOM      2  C   UNL     1      53.244   7.340 -45.985  1.00  0.00    -0.077 C 
ATOM      3  C   UNL     1      52.089   7.525 -46.661  1.00  0.00    -0.027 C 
ATOM      4  C   UNL     1      52.037   7.754 -48.151  1.00  0.00     0.035 C 
ATOM      5  C   UNL     1      53.367   8.299 -48.703  1.00  0.00     0.018 C 
ATOM      6  C   UNL     1      54.536   7.454 -48.174  1.00  0.00     0.013 C 
ATOM      7  C   UNL     1      54.596   7.533 -46.643  1.00  0.00     0.031 C 
ENDROOT
BRANCH   5   8
ATOM      8  C   UNL     1      53.358   8.361 -50.224  1.00  0.00    -0.077 C 
ATOM      9  C   UNL     1      54.238   9.121 -50.899  1.00  0.00     0.008 C 
ATOM     10  C   UNL     1      52.345   7.566 -51.008  1.00  0.00     0.039 C 
ENDBRANCH   5   8
TORSDOF 1
ENDMDL
MODEL 3
REMARK VINA RESULT:    -3.829      1.884      3.568
REMARK INTER + INTRA:          -4.175
REMARK INTER:                  -4.053
REMARK INTRA:                  -0.122
REMARK UNBOUND:                -0.122
REMARK SMILES C=C(C)[C@H]1CC=C(C)CC1
REMARK SMILES IDX 8 1 7 2 6 3 5 4 4 5 10 6 9 7 2 8 1 9 3 10
REMARK H PARENT
REMARK Flexibility Score: inf
ROOT
ATOM      1  C   UNL     1      53.871   8.754 -53.037  1.00  0.00     0.039 C 
ATOM      2  C   UNL     1      53.846   8.448 -51.564  1.00  0.00    -0.077 C 
ATOM      3  C   UNL     1      53.189   9.284 -50.732  1.00  0.00    -0.027 C 
ATOM      4  C   UNL     1      53.152   9.094 -49.236  1.00  0.00     0.035 C 
ATOM      5  C   UNL     1      53.425   7.635 -48.828  1.00  0.00     0.018 C 
ATOM      6  C   UNL     1      54.671   7.114 -49.561  1.00  0.00     0.013 C 
ATOM      7  C   UNL     1      54.444   7.142 -51.078  1.00  0.00     0.031 C 
ENDROOT
BRANCH   5   8
ATOM      8  C   UNL     1      53.556   7.491 -47.318  1.00  0.00    -0.077 C 
ATOM      9  C   UNL     1      52.474   7.382 -46.529  1.00  0.00     0.008 C 
ATOM     10  C   UNL     1      54.920   7.473 -46.676  1.00  0.00     0.039 C 
ENDBRANCH   5   8
TORSDOF 1
ENDMDL
MODEL 4
REMARK VINA RESULT:    -3.788     10.448     11.939
REMARK INTER + INTRA:          -4.132
REMARK INTER:                  -4.002
REMARK INTRA:                  -0.130
REMARK UNBOUND:                -0.122
REMARK SMILES C=C(C)[C@H]1CC=C(C)CC1
REMARK SMILES IDX 8 1 7 2 6 3 5 4 4 5 10 6 9 7 2 8 1 9 3 10
REMARK H PARENT
REMARK Flexibility Score: inf
ROOT
ATOM      1  C   UNL     1      41.889   3.147 -46.041  1.00  0.00     0.039 C 
ATOM      2  C   UNL     1      43.018   2.937 -45.069  1.00  0.00    -0.077 C 
ATOM      3  C   UNL     1      42.808   2.170 -43.977  1.00  0.00    -0.027 C 
ATOM      4  C   UNL     1      43.858   1.944 -42.917  1.00  0.00     0.035 C 
ATOM      5  C   UNL     1      45.283   2.179 -43.450  1.00  0.00     0.018 C 
ATOM      6  C   UNL     1      45.342   3.514 -44.208  1.00  0.00     0.013 C 
ATOM      7  C   UNL     1      44.390   3.483 -45.411  1.00  0.00     0.031 C 
ENDROOT
BRANCH   5   8
ATOM      8  C   UNL     1      46.316   2.118 -42.333  1.00  0.00    -0.077 C 
ATOM      9  C   UNL     1      45.951   1.949 -41.051  1.00  0.00     0.008 C 
ATOM     10  C   UNL     1      47.783   2.253 -42.652  1.00  0.00     0.039 C 
ENDBRANCH   5   8
TORSDOF 1
ENDMDL
MODEL 5
REMARK VINA RESULT:    -3.730      1.418      4.701
REMARK INTER + INTRA:          -4.070
REMARK INTER:                  -3.946
REMARK INTRA:                  -0.124
REMARK UNBOUND:                -0.122
REMARK SMILES C=C(C)[C@H]1CC=C(C)CC1
REMARK SMILES IDX 8 1 7 2 6 3 5 4 4 5 10 6 9 7 2 8 1 9 3 10
REMARK H PARENT
REMARK Flexibility Score: inf
ROOT
ATOM      1  C   UNL     1      55.963   7.665 -41.637  1.00  0.00     0.039 C 
ATOM      2  C   UNL     1      55.698   7.558 -43.114  1.00  0.00    -0.077 C 
ATOM      3  C   UNL     1      55.402   6.350 -43.640  1.00  0.00    -0.027 C 
ATOM      4  C   UNL     1      55.174   6.130 -45.116  1.00  0.00     0.035 C 
ATOM      5  C   UNL     1      54.764   7.425 -45.840  1.00  0.00     0.018 C 
ATOM      6  C   UNL     1      55.717   8.565 -45.450  1.00  0.00     0.013 C 
ATOM      7  C   UNL     1      55.639   8.827 -43.941  1.00  0.00     0.031 C 
ENDROOT
BRANCH   5   8
ATOM      8  C   UNL     1      54.706   7.228 -47.349  1.00  0.00    -0.077 C 
ATOM      9  C   UNL     1      53.739   7.793 -48.092  1.00  0.00     0.008 C 
ATOM     10  C   UNL     1      55.743   6.381 -48.041  1.00  0.00     0.039 C 
ENDBRANCH   5   8
TORSDOF 1
ENDMDL
MODEL 6
REMARK VINA RESULT:    -3.727      1.363      4.547
REMARK INTER + INTRA:          -4.067
REMARK INTER:                  -3.940
REMARK INTRA:                  -0.127
REMARK UNBOUND:                -0.122
REMARK SMILES C=C(C)[C@H]1CC=C(C)CC1
REMARK SMILES IDX 8 1 7 2 6 3 5 4 4 5 10 6 9 7 2 8 1 9 3 10
REMARK H PARENT
REMARK Flexibility Score: inf
ROOT
ATOM      1  C   UNL     1      56.132   8.329 -42.019  1.00  0.00     0.039 C 
ATOM      2  C   UNL     1      55.414   8.154 -43.328  1.00  0.00    -0.077 C 
ATOM      3  C   UNL     1      56.009   8.579 -44.464  1.00  0.00    -0.027 C 
ATOM      4  C   UNL     1      55.348   8.498 -45.818  1.00  0.00     0.035 C 
ATOM      5  C   UNL     1      54.243   7.427 -45.863  1.00  0.00     0.018 C 
ATOM      6  C   UNL     1      53.315   7.584 -44.649  1.00  0.00     0.013 C 
ATOM      7  C   UNL     1      54.105   7.388 -43.349  1.00  0.00     0.031 C 
ENDROOT
BRANCH   5   8
ATOM      8  C   UNL     1      53.471   7.474 -47.174  1.00  0.00    -0.077 C 
ATOM      9  C   UNL     1      54.102   7.430 -48.360  1.00  0.00     0.008 C 
ATOM     10  C   UNL     1      51.967   7.578 -47.163  1.00  0.00     0.039 C 
ENDBRANCH   5   8
TORSDOF 1
ENDMDL
MODEL 7
REMARK VINA RESULT:    -3.695      1.937      4.918
REMARK INTER + INTRA:          -4.034
REMARK INTER:                  -3.912
REMARK INTRA:                  -0.121
REMARK UNBOUND:                -0.122
REMARK SMILES C=C(C)[C@H]1CC=C(C)CC1
REMARK SMILES IDX 8 1 7 2 6 3 5 4 4 5 10 6 9 7 2 8 1 9 3 10
REMARK H PARENT
REMARK Flexibility Score: inf
ROOT
ATOM      1  C   UNL     1      55.744   6.347 -46.295  1.00  0.00     0.039 C 
ATOM      2  C   UNL     1      55.105   6.821 -47.572  1.00  0.00    -0.077 C 
ATOM      3  C   UNL     1      54.117   7.740 -47.508  1.00  0.00    -0.027 C 
ATOM      4  C   UNL     1      53.377   8.238 -48.725  1.00  0.00     0.035 C 
ATOM      5  C   UNL     1      54.191   8.047 -50.018  1.00  0.00     0.018 C 
ATOM      6  C   UNL     1      54.741   6.614 -50.081  1.00  0.00     0.013 C 
ATOM      7  C   UNL     1      55.678   6.353 -48.895  1.00  0.00     0.031 C 
ENDROOT
BRANCH   5   8
ATOM      8  C   UNL     1      53.368   8.391 -51.253  1.00  0.00    -0.077 C 
ATOM      9  C   UNL     1      53.706   9.415 -52.055  1.00  0.00     0.008 C 
ATOM     10  C   UNL     1      52.144   7.582 -51.595  1.00  0.00     0.039 C 
ENDBRANCH   5   8
TORSDOF 1
ENDMDL
MODEL 8
REMARK VINA RESULT:    -3.672      0.785      1.771
REMARK INTER + INTRA:          -4.009
REMARK INTER:                  -3.884
REMARK INTRA:                  -0.125
REMARK UNBOUND:                -0.122
REMARK SMILES C=C(C)[C@H]1CC=C(C)CC1
REMARK SMILES IDX 8 1 7 2 6 3 5 4 4 5 10 6 9 7 2 8 1 9 3 10
REMARK H PARENT
REMARK Flexibility Score: inf
ROOT
ATOM      1  C   UNL     1      54.762   5.730 -50.853  1.00  0.00     0.039 C 
ATOM      2  C   UNL     1      54.791   6.309 -49.466  1.00  0.00    -0.077 C 
ATOM      3  C   UNL     1      53.872   7.238 -49.124  1.00  0.00    -0.027 C 
ATOM      4  C   UNL     1      53.852   7.917 -47.777  1.00  0.00     0.035 C 
ATOM      5  C   UNL     1      54.572   7.090 -46.697  1.00  0.00     0.018 C 
ATOM      6  C   UNL     1      55.941   6.630 -47.219  1.00  0.00     0.013 C 
ATOM      7  C   UNL     1      55.766   5.738 -48.454  1.00  0.00     0.031 C 
ENDROOT
BRANCH   5   8
ATOM      8  C   UNL     1      54.695   7.861 -45.390  1.00  0.00    -0.077 C 
ATOM      9  C   UNL     1      55.786   8.593 -45.109  1.00  0.00     0.008 C 
ATOM     10  C   UNL     1      53.582   7.810 -44.375  1.00  0.00     0.039 C 
ENDBRANCH   5   8
TORSDOF 1
ENDMDL
MODEL 9
REMARK VINA RESULT:    -3.670     14.467     16.336
REMARK INTER + INTRA:          -4.007
REMARK INTER:                  -3.883
REMARK INTRA:                  -0.124
REMARK UNBOUND:                -0.122
REMARK SMILES C=C(C)[C@H]1CC=C(C)CC1
REMARK SMILES IDX 8 1 7 2 6 3 5 4 4 5 10 6 9 7 2 8 1 9 3 10
REMARK H PARENT
REMARK Flexibility Score: inf
ROOT
ATOM      1  C   UNL     1      54.061  -5.185 -49.122  1.00  0.00     0.039 C 
ATOM      2  C   UNL     1      53.240  -6.149 -49.934  1.00  0.00    -0.077 C 
ATOM      3  C   UNL     1      52.941  -5.838 -51.213  1.00  0.00    -0.027 C 
ATOM      4  C   UNL     1      52.079  -6.712 -52.091  1.00  0.00     0.035 C 
ATOM      5  C   UNL     1      52.055  -8.174 -51.611  1.00  0.00     0.018 C 
ATOM      6  C   UNL     1      51.776  -8.223 -50.102  1.00  0.00     0.013 C 
ATOM      7  C   UNL     1      52.888  -7.496 -49.334  1.00  0.00     0.031 C 
ENDROOT
BRANCH   5   8
ATOM      8  C   UNL     1      51.050  -9.005 -52.398  1.00  0.00    -0.077 C 
ATOM      9  C   UNL     1      49.765  -9.096 -52.016  1.00  0.00     0.008 C 
ATOM     10  C   UNL     1      51.488  -9.752 -53.632  1.00  0.00     0.039 C 
ENDBRANCH   5   8
TORSDOF 1
ENDMDL
