MODEL 1
REMARK VINA RESULT:    -1.810      0.000      0.000
REMARK INTER + INTRA:          -1.810
REMARK INTER:                  -1.810
REMARK INTRA:                   0.000
REMARK UNBOUND:                 0.000
REMARK SMILES CC(=O)[O-]
REMARK SMILES IDX 1 1 2 2 3 3 4 4
REMARK H PARENT
REMARK Flexibility Score: inf
ROOT
ATOM      1  C   UNL     1      61.195  30.764  61.704  1.00  0.00     0.063 C 
ATOM      2  C   UNL     1      62.389  29.871  61.640  1.00  0.00     0.038 C 
ATOM      3  O   UNL     1      63.546  30.366  61.593  1.00  0.00    -0.550 OA
ATOM      4  O   UNL     1      62.231  28.492  61.690  1.00  0.00    -0.550 OA
ENDROOT
TORSDOF 0
ENDMDL
MODEL 2
REMARK VINA RESULT:    -1.755      1.375      2.050
REMARK INTER + INTRA:          -1.755
REMARK INTER:                  -1.755
REMARK INTRA:                   0.000
REMARK UNBOUND:                 0.000
REMARK SMILES CC(=O)[O-]
REMARK SMILES IDX 1 1 2 2 3 3 4 4
REMARK H PARENT
REMARK Flexibility Score: inf
ROOT
ATOM      1  C   UNL     1      63.676  30.517  61.266  1.00  0.00     0.063 C 
ATOM      2  C   UNL     1      62.380  29.890  61.659  1.00  0.00     0.038 C 
ATOM      3  O   UNL     1      62.277  28.637  61.716  1.00  0.00    -0.550 OA
ATOM      4  O   UNL     1      61.302  30.688  62.018  1.00  0.00    -0.550 OA
ENDROOT
TORSDOF 0
ENDMDL
MODEL 3
REMARK VINA RESULT:    -1.740     12.521     12.607
REMARK INTER + INTRA:          -1.740
REMARK INTER:                  -1.740
REMARK INTRA:                   0.000
REMARK UNBOUND:                 0.000
REMARK SMILES CC(=O)[O-]
REMARK SMILES IDX 1 1 2 2 3 3 4 4
REMARK H PARENT
REMARK Flexibility Score: inf
ROOT
ATOM      1  C   UNL     1      58.991  28.748  49.461  1.00  0.00     0.063 C 
ATOM      2  C   UNL     1      59.889  27.557  49.508  1.00  0.00     0.038 C 
ATOM      3  O   UNL     1      61.138  27.710  49.544  1.00  0.00    -0.550 OA
ATOM      4  O   UNL     1      59.348  26.280  49.569  1.00  0.00    -0.550 OA
ENDROOT
TORSDOF 0
ENDMDL
MODEL 4
REMARK VINA RESULT:    -1.696      4.909      5.545
REMARK INTER + INTRA:          -1.696
REMARK INTER:                  -1.696
REMARK INTRA:                   0.000
REMARK UNBOUND:                 0.000
REMARK SMILES CC(=O)[O-]
REMARK SMILES IDX 1 1 2 2 3 3 4 4
REMARK H PARENT
REMARK Flexibility Score: inf
ROOT
ATOM      1  C   UNL     1      62.995  35.393  60.921  1.00  0.00     0.063 C 
ATOM      2  C   UNL     1      64.307  34.752  61.227  1.00  0.00     0.038 C 
ATOM      3  O   UNL     1      64.529  33.566  60.869  1.00  0.00    -0.550 OA
ATOM      4  O   UNL     1      65.306  35.480  61.860  1.00  0.00    -0.550 OA
ENDROOT
TORSDOF 0
ENDMDL
MODEL 5
REMARK VINA RESULT:    -1.665      1.963      2.710
REMARK INTER + INTRA:          -1.665
REMARK INTER:                  -1.665
REMARK INTRA:                   0.000
REMARK UNBOUND:                 0.000
REMARK SMILES CC(=O)[O-]
REMARK SMILES IDX 1 1 2 2 3 3 4 4
REMARK H PARENT
REMARK Flexibility Score: inf
ROOT
ATOM      1  C   UNL     1      62.597  29.911  61.638  1.00  0.00     0.063 C 
ATOM      2  C   UNL     1      61.605  30.988  61.352  1.00  0.00     0.038 C 
ATOM      3  O   UNL     1      60.387  30.812  61.619  1.00  0.00    -0.550 OA
ATOM      4  O   UNL     1      62.031  32.208  60.843  1.00  0.00    -0.550 OA
ENDROOT
TORSDOF 0
ENDMDL
MODEL 6
REMARK VINA RESULT:    -1.665      9.527     10.157
REMARK INTER + INTRA:          -1.665
REMARK INTER:                  -1.665
REMARK INTRA:                   0.000
REMARK UNBOUND:                 0.000
REMARK SMILES CC(=O)[O-]
REMARK SMILES IDX 1 1 2 2 3 3 4 4
REMARK H PARENT
REMARK Flexibility Score: inf
ROOT
ATOM      1  C   UNL     1      73.050  31.050  61.241  1.00  0.00     0.063 C 
ATOM      2  C   UNL     1      71.949  31.779  60.547  1.00  0.00     0.038 C 
ATOM      3  O   UNL     1      71.081  31.141  59.897  1.00  0.00    -0.550 OA
ATOM      4  O   UNL     1      71.848  33.160  60.664  1.00  0.00    -0.550 OA
ENDROOT
TORSDOF 0
ENDMDL
MODEL 7
REMARK VINA RESULT:    -1.663     13.997     14.320
REMARK INTER + INTRA:          -1.663
REMARK INTER:                  -1.663
REMARK INTRA:                   0.000
REMARK UNBOUND:                 0.000
REMARK SMILES CC(=O)[O-]
REMARK SMILES IDX 1 1 2 2 3 3 4 4
REMARK H PARENT
REMARK Flexibility Score: inf
ROOT
ATOM      1  C   UNL     1      54.639  27.372  50.313  1.00  0.00     0.063 C 
ATOM      2  C   UNL     1      55.090  25.990  49.978  1.00  0.00     0.038 C 
ATOM      3  O   UNL     1      56.210  25.577  50.377  1.00  0.00    -0.550 OA
ATOM      4  O   UNL     1      54.252  25.137  49.271  1.00  0.00    -0.550 OA
ENDROOT
TORSDOF 0
ENDMDL
MODEL 8
REMARK VINA RESULT:    -1.615      9.826     10.081
REMARK INTER + INTRA:          -1.615
REMARK INTER:                  -1.615
REMARK INTRA:                   0.000
REMARK UNBOUND:                 0.000
REMARK SMILES CC(=O)[O-]
REMARK SMILES IDX 1 1 2 2 3 3 4 4
REMARK H PARENT
REMARK Flexibility Score: inf
ROOT
ATOM      1  C   UNL     1      71.289  31.514  59.302  1.00  0.00     0.063 C 
ATOM      2  C   UNL     1      71.980  32.197  60.434  1.00  0.00     0.038 C 
ATOM      3  O   UNL     1      71.691  33.387  60.725  1.00  0.00    -0.550 OA
ATOM      4  O   UNL     1      72.903  31.503  61.206  1.00  0.00    -0.550 OA
ENDROOT
TORSDOF 0
ENDMDL
MODEL 9
REMARK VINA RESULT:    -1.550     10.417     10.548
REMARK INTER + INTRA:          -1.550
REMARK INTER:                  -1.550
REMARK INTRA:                   0.000
REMARK UNBOUND:                 0.000
REMARK SMILES CC(=O)[O-]
REMARK SMILES IDX 1 1 2 2 3 3 4 4
REMARK H PARENT
REMARK Flexibility Score: inf
ROOT
ATOM      1  C   UNL     1      71.974  32.288  60.500  1.00  0.00     0.063 C 
ATOM      2  C   UNL     1      72.712  31.010  60.718  1.00  0.00     0.038 C 
ATOM      3  O   UNL     1      73.006  30.275  59.738  1.00  0.00    -0.550 OA
ATOM      4  O   UNL     1      73.125  30.654  61.995  1.00  0.00    -0.550 OA
ENDROOT
TORSDOF 0
ENDMDL
