MODEL 1
REMARK VINA RESULT:    -4.602      0.000      0.000
REMARK INTER + INTRA:          -4.737
REMARK INTER:                  -4.737
REMARK INTRA:                   0.000
REMARK UNBOUND:                 0.000
REMARK SMILES O=c1ccc2ccc(O)cc2o1
REMARK SMILES IDX 6 1 7 2 8 3 10 4 11 5 5 6 4 7 3 8 2 9 1 10 12 11 9 12
REMARK H PARENT 9 13
REMARK Flexibility Score: inf
ROOT
ATOM      1  C   UNL     1      30.119  51.885  38.607  1.00  0.00     0.016 A 
ATOM      2  C   UNL     1      29.077  52.711  38.172  1.00  0.00     0.047 A 
ATOM      3  C   UNL     1      27.771  52.509  38.643  1.00  0.00     0.119 A 
ATOM      4  C   UNL     1      27.508  51.477  39.551  1.00  0.00     0.094 A 
ATOM      5  C   UNL     1      28.544  50.646  39.991  1.00  0.00     0.142 A 
ATOM      6  C   UNL     1      29.859  50.851  39.516  1.00  0.00     0.018 A 
ATOM      7  C   UNL     1      30.872  50.005  39.974  1.00  0.00     0.019 A 
ATOM      8  C   UNL     1      30.561  48.991  40.879  1.00  0.00     0.094 A 
ATOM      9  C   UNL     1      29.237  48.847  41.307  1.00  0.00     0.336 A 
ATOM     10  O   UNL     1      28.936  47.937  42.124  1.00  0.00    -0.246 OA
ATOM     11  O   UNL     1      28.290  49.665  40.855  1.00  0.00    -0.423 OA
ENDROOT
BRANCH   3  12
ATOM     12  O   UNL     1      26.729  53.328  38.215  1.00  0.00    -0.508 OA
ATOM     13  H   UNL     1      26.857  54.001  37.468  1.00  0.00     0.293 HD
ENDBRANCH   3  12
TORSDOF 1
ENDMDL
MODEL 2
REMARK VINA RESULT:    -4.410     16.422     16.482
REMARK INTER + INTRA:          -4.538
REMARK INTER:                  -4.538
REMARK INTRA:                   0.000
REMARK UNBOUND:                 0.000
REMARK SMILES O=c1ccc2ccc(O)cc2o1
REMARK SMILES IDX 6 1 7 2 8 3 10 4 11 5 5 6 4 7 3 8 2 9 1 10 12 11 9 12
REMARK H PARENT 9 13
REMARK Flexibility Score: inf
ROOT
ATOM      1  C   UNL     1      25.996  41.293  25.112  1.00  0.00     0.016 A 
ATOM      2  C   UNL     1      26.750  42.470  25.149  1.00  0.00     0.047 A 
ATOM      3  C   UNL     1      27.306  42.916  26.357  1.00  0.00     0.119 A 
ATOM      4  C   UNL     1      27.106  42.182  27.531  1.00  0.00     0.094 A 
ATOM      5  C   UNL     1      26.353  41.003  27.503  1.00  0.00     0.142 A 
ATOM      6  C   UNL     1      25.794  40.554  26.286  1.00  0.00     0.018 A 
ATOM      7  C   UNL     1      25.047  39.373  26.290  1.00  0.00     0.019 A 
ATOM      8  C   UNL     1      24.875  38.676  27.485  1.00  0.00     0.094 A 
ATOM      9  C   UNL     1      25.458  39.179  28.653  1.00  0.00     0.336 A 
ATOM     10  O   UNL     1      25.314  38.564  29.743  1.00  0.00    -0.246 OA
ATOM     11  O   UNL     1      26.164  40.307  28.622  1.00  0.00    -0.423 OA
ENDROOT
BRANCH   3  12
ATOM     12  O   UNL     1      28.058  44.088  26.400  1.00  0.00    -0.508 OA
ATOM     13  H   UNL     1      27.721  44.949  25.987  1.00  0.00     0.293 HD
ENDBRANCH   3  12
TORSDOF 1
ENDMDL
MODEL 3
REMARK VINA RESULT:    -4.396      1.478      2.260
REMARK INTER + INTRA:          -4.525
REMARK INTER:                  -4.525
REMARK INTRA:                   0.000
REMARK UNBOUND:                 0.000
REMARK SMILES O=c1ccc2ccc(O)cc2o1
REMARK SMILES IDX 6 1 7 2 8 3 10 4 11 5 5 6 4 7 3 8 2 9 1 10 12 11 9 12
REMARK H PARENT 9 13
REMARK Flexibility Score: inf
ROOT
ATOM      1  C   UNL     1      27.353  52.259  40.198  1.00  0.00     0.016 A 
ATOM      2  C   UNL     1      27.707  53.345  39.391  1.00  0.00     0.047 A 
ATOM      3  C   UNL     1      28.943  53.360  38.727  1.00  0.00     0.119 A 
ATOM      4  C   UNL     1      29.826  52.284  38.872  1.00  0.00     0.094 A 
ATOM      5  C   UNL     1      29.480  51.193  39.677  1.00  0.00     0.142 A 
ATOM      6  C   UNL     1      28.235  51.180  40.345  1.00  0.00     0.018 A 
ATOM      7  C   UNL     1      27.918  50.077  41.142  1.00  0.00     0.019 A 
ATOM      8  C   UNL     1      28.831  49.029  41.255  1.00  0.00     0.094 A 
ATOM      9  C   UNL     1      30.045  49.109  40.564  1.00  0.00     0.336 A 
ATOM     10  O   UNL     1      30.883  48.173  40.654  1.00  0.00    -0.246 OA
ATOM     11  O   UNL     1      30.323  50.172  39.813  1.00  0.00    -0.423 OA
ENDROOT
BRANCH   3  12
ATOM     12  O   UNL     1      29.301  54.439  37.922  1.00  0.00    -0.508 OA
ATOM     13  H   UNL     1      30.158  54.955  38.078  1.00  0.00     0.293 HD
ENDBRANCH   3  12
TORSDOF 1
ENDMDL
MODEL 4
REMARK VINA RESULT:    -4.284      1.891      4.604
REMARK INTER + INTRA:          -4.409
REMARK INTER:                  -4.409
REMARK INTRA:                   0.000
REMARK UNBOUND:                 0.000
REMARK SMILES O=c1ccc2ccc(O)cc2o1
REMARK SMILES IDX 6 1 7 2 8 3 10 4 11 5 5 6 4 7 3 8 2 9 1 10 12 11 9 12
REMARK H PARENT 9 13
REMARK Flexibility Score: inf
ROOT
ATOM      1  C   UNL     1      28.625  49.437  39.593  1.00  0.00     0.016 A 
ATOM      2  C   UNL     1      29.585  48.662  40.252  1.00  0.00     0.047 A 
ATOM      3  C   UNL     1      30.527  49.270  41.095  1.00  0.00     0.119 A 
ATOM      4  C   UNL     1      30.508  50.657  41.279  1.00  0.00     0.094 A 
ATOM      5  C   UNL     1      29.551  51.439  40.624  1.00  0.00     0.142 A 
ATOM      6  C   UNL     1      28.602  50.826  39.776  1.00  0.00     0.018 A 
ATOM      7  C   UNL     1      27.659  51.635  39.136  1.00  0.00     0.019 A 
ATOM      8  C   UNL     1      27.680  53.012  39.350  1.00  0.00     0.094 A 
ATOM      9  C   UNL     1      28.648  53.551  40.205  1.00  0.00     0.336 A 
ATOM     10  O   UNL     1      28.683  54.793  40.412  1.00  0.00    -0.246 OA
ATOM     11  O   UNL     1      29.536  52.759  40.801  1.00  0.00    -0.423 OA
ENDROOT
BRANCH   3  12
ATOM     12  O   UNL     1      31.486  48.503  41.753  1.00  0.00    -0.508 OA
ATOM     13  H   UNL     1      31.494  47.492  41.685  1.00  0.00     0.293 HD
ENDBRANCH   3  12
TORSDOF 1
ENDMDL
MODEL 5
REMARK VINA RESULT:    -4.200      0.836      4.221
REMARK INTER + INTRA:          -4.323
REMARK INTER:                  -4.323
REMARK INTRA:                   0.000
REMARK UNBOUND:                 0.000
REMARK SMILES O=c1ccc2ccc(O)cc2o1
REMARK SMILES IDX 6 1 7 2 8 3 10 4 11 5 5 6 4 7 3 8 2 9 1 10 12 11 9 12
REMARK H PARENT 9 13
REMARK Flexibility Score: inf
ROOT
ATOM      1  C   UNL     1      30.852  50.092  39.815  1.00  0.00     0.016 A 
ATOM      2  C   UNL     1      30.578  48.954  40.581  1.00  0.00     0.047 A 
ATOM      3  C   UNL     1      29.258  48.647  40.944  1.00  0.00     0.119 A 
ATOM      4  C   UNL     1      28.210  49.481  40.538  1.00  0.00     0.094 A 
ATOM      5  C   UNL     1      28.475  50.621  39.772  1.00  0.00     0.142 A 
ATOM      6  C   UNL     1      29.805  50.929  39.407  1.00  0.00     0.018 A 
ATOM      7  C   UNL     1      30.038  52.074  38.641  1.00  0.00     0.019 A 
ATOM      8  C   UNL     1      28.961  52.875  38.261  1.00  0.00     0.094 A 
ATOM      9  C   UNL     1      27.670  52.508  38.658  1.00  0.00     0.336 A 
ATOM     10  O   UNL     1      26.684  53.217  38.325  1.00  0.00    -0.246 OA
ATOM     11  O   UNL     1      27.476  51.412  39.388  1.00  0.00    -0.423 OA
ENDROOT
BRANCH   3  12
ATOM     12  O   UNL     1      28.979  47.515  41.706  1.00  0.00    -0.508 OA
ATOM     13  H   UNL     1      29.680  47.091  42.302  1.00  0.00     0.293 HD
ENDBRANCH   3  12
TORSDOF 1
ENDMDL
MODEL 6
REMARK VINA RESULT:    -4.163     17.253     17.283
REMARK INTER + INTRA:          -4.284
REMARK INTER:                  -4.284
REMARK INTRA:                   0.000
REMARK UNBOUND:                 0.000
REMARK SMILES O=c1ccc2ccc(O)cc2o1
REMARK SMILES IDX 6 1 7 2 8 3 10 4 11 5 5 6 4 7 3 8 2 9 1 10 12 11 9 12
REMARK H PARENT 9 13
REMARK Flexibility Score: inf
ROOT
ATOM      1  C   UNL     1      26.354  42.207  27.034  1.00  0.00     0.016 A 
ATOM      2  C   UNL     1      26.343  42.719  25.733  1.00  0.00     0.047 A 
ATOM      3  C   UNL     1      25.958  41.905  24.656  1.00  0.00     0.119 A 
ATOM      4  C   UNL     1      25.583  40.577  24.884  1.00  0.00     0.094 A 
ATOM      5  C   UNL     1      25.592  40.056  26.183  1.00  0.00     0.142 A 
ATOM      6  C   UNL     1      25.979  40.877  27.266  1.00  0.00     0.018 A 
ATOM      7  C   UNL     1      25.977  40.328  28.551  1.00  0.00     0.019 A 
ATOM      8  C   UNL     1      25.596  38.999  28.728  1.00  0.00     0.094 A 
ATOM      9  C   UNL     1      25.224  38.245  27.609  1.00  0.00     0.336 A 
ATOM     10  O   UNL     1      24.876  37.043  27.748  1.00  0.00    -0.246 OA
ATOM     11  O   UNL     1      25.235  38.792  26.396  1.00  0.00    -0.423 OA
ENDROOT
BRANCH   3  12
ATOM     12  O   UNL     1      25.944  42.410  23.358  1.00  0.00    -0.508 OA
ATOM     13  H   UNL     1      26.600  42.087  22.657  1.00  0.00     0.293 HD
ENDBRANCH   3  12
TORSDOF 1
ENDMDL
MODEL 7
REMARK VINA RESULT:    -3.774      1.651      3.989
REMARK INTER + INTRA:          -3.885
REMARK INTER:                  -3.885
REMARK INTRA:                   0.000
REMARK UNBOUND:                 0.000
REMARK SMILES O=c1ccc2ccc(O)cc2o1
REMARK SMILES IDX 6 1 7 2 8 3 10 4 11 5 5 6 4 7 3 8 2 9 1 10 12 11 9 12
REMARK H PARENT 9 13
REMARK Flexibility Score: inf
ROOT
ATOM      1  C   UNL     1      30.081  51.074  39.118  1.00  0.00     0.016 A 
ATOM      2  C   UNL     1      30.893  50.009  39.521  1.00  0.00     0.047 A 
ATOM      3  C   UNL     1      30.496  49.178  40.580  1.00  0.00     0.119 A 
ATOM      4  C   UNL     1      29.283  49.415  41.236  1.00  0.00     0.094 A 
ATOM      5  C   UNL     1      28.465  50.479  40.840  1.00  0.00     0.142 A 
ATOM      6  C   UNL     1      28.866  51.314  39.773  1.00  0.00     0.018 A 
ATOM      7  C   UNL     1      28.027  52.368  39.401  1.00  0.00     0.019 A 
ATOM      8  C   UNL     1      26.828  52.564  40.085  1.00  0.00     0.094 A 
ATOM      9  C   UNL     1      26.495  51.697  41.131  1.00  0.00     0.336 A 
ATOM     10  O   UNL     1      25.417  51.857  41.762  1.00  0.00    -0.246 OA
ATOM     11  O   UNL     1      27.312  50.701  41.467  1.00  0.00    -0.423 OA
ENDROOT
BRANCH   3  12
ATOM     12  O   UNL     1      31.300  48.116  40.985  1.00  0.00    -0.508 OA
ATOM     13  H   UNL     1      31.086  47.160  40.727  1.00  0.00     0.293 HD
ENDBRANCH   3  12
TORSDOF 1
ENDMDL
MODEL 8
REMARK VINA RESULT:    -3.605     17.827     17.965
REMARK INTER + INTRA:          -3.710
REMARK INTER:                  -3.710
REMARK INTRA:                   0.000
REMARK UNBOUND:                 0.000
REMARK SMILES O=c1ccc2ccc(O)cc2o1
REMARK SMILES IDX 6 1 7 2 8 3 10 4 11 5 5 6 4 7 3 8 2 9 1 10 12 11 9 12
REMARK H PARENT 9 13
REMARK Flexibility Score: inf
ROOT
ATOM      1  C   UNL     1      26.095  40.749  27.703  1.00  0.00     0.016 A 
ATOM      2  C   UNL     1      26.568  42.065  27.661  1.00  0.00     0.047 A 
ATOM      3  C   UNL     1      26.716  42.724  26.432  1.00  0.00     0.119 A 
ATOM      4  C   UNL     1      26.390  42.065  25.241  1.00  0.00     0.094 A 
ATOM      5  C   UNL     1      25.916  40.749  25.274  1.00  0.00     0.142 A 
ATOM      6  C   UNL     1      25.767  40.086  26.512  1.00  0.00     0.018 A 
ATOM      7  C   UNL     1      25.291  38.772  26.512  1.00  0.00     0.019 A 
ATOM      8  C   UNL     1      24.979  38.157  25.300  1.00  0.00     0.094 A 
ATOM      9  C   UNL     1      25.151  38.875  24.111  1.00  0.00     0.336 A 
ATOM     10  O   UNL     1      24.875  38.337  23.007  1.00  0.00    -0.246 OA
ATOM     11  O   UNL     1      25.607  40.125  24.139  1.00  0.00    -0.423 OA
ENDROOT
BRANCH   3  12
ATOM     12  O   UNL     1      27.187  44.035  26.384  1.00  0.00    -0.508 OA
ATOM     13  H   UNL     1      27.253  44.605  27.219  1.00  0.00     0.293 HD
ENDBRANCH   3  12
TORSDOF 1
ENDMDL
MODEL 9
REMARK VINA RESULT:    -3.540     17.044     17.513
REMARK INTER + INTRA:          -3.643
REMARK INTER:                  -3.643
REMARK INTRA:                   0.000
REMARK UNBOUND:                 0.000
REMARK SMILES O=c1ccc2ccc(O)cc2o1
REMARK SMILES IDX 6 1 7 2 8 3 10 4 11 5 5 6 4 7 3 8 2 9 1 10 12 11 9 12
REMARK H PARENT 9 13
REMARK Flexibility Score: inf
ROOT
ATOM      1  C   UNL     1      24.876  38.316  26.952  1.00  0.00     0.016 A 
ATOM      2  C   UNL     1      24.976  38.121  28.334  1.00  0.00     0.047 A 
ATOM      3  C   UNL     1      25.510  39.126  29.153  1.00  0.00     0.119 A 
ATOM      4  C   UNL     1      25.946  40.330  28.588  1.00  0.00     0.094 A 
ATOM      5  C   UNL     1      25.849  40.534  27.207  1.00  0.00     0.142 A 
ATOM      6  C   UNL     1      25.310  39.521  26.383  1.00  0.00     0.018 A 
ATOM      7  C   UNL     1      25.227  39.755  25.008  1.00  0.00     0.019 A 
ATOM      8  C   UNL     1      25.674  40.970  24.491  1.00  0.00     0.094 A 
ATOM      9  C   UNL     1      26.196  41.928  25.367  1.00  0.00     0.336 A 
ATOM     10  O   UNL     1      26.604  43.033  24.920  1.00  0.00    -0.246 OA
ATOM     11  O   UNL     1      26.265  41.680  26.673  1.00  0.00    -0.423 OA
ENDROOT
BRANCH   3  12
ATOM     12  O   UNL     1      25.612  38.937  30.530  1.00  0.00    -0.508 OA
ATOM     13  H   UNL     1      24.898  38.443  31.051  1.00  0.00     0.293 HD
ENDBRANCH   3  12
TORSDOF 1
ENDMDL
