MODEL 1
REMARK VINA RESULT:    -8.919      0.000      0.000
REMARK INTER + INTRA:         -13.527
REMARK INTER:                 -12.048
REMARK INTRA:                  -1.479
REMARK UNBOUND:                -1.479
REMARK SMILES CC[C@@H](CC[C@H](C)[C@@H]1CC[C@@H]2[C@@H]3CC(=O)C4=CC(=O)CC[C@@]4(C)[C@H]3CC[C@]21C)C(C)C
REMARK SMILES IDX 4 1 3 2 2 3 1 4 29 5 30 6 31 7 5 8 6 9 7 10 8 11 9 12 27 13
REMARK SMILES IDX 10 14 11 15 26 16 28 17 12 18 25 19 24 20 13 21 22 22 14 23
REMARK SMILES IDX 16 24 21 25 23 26 15 27 17 28 20 29 18 30 19 31
REMARK H PARENT
REMARK Flexibility Score: inf
ROOT
ATOM      1  C   UNL     1     -18.807 -50.129  30.594  1.00  0.00     0.004 C 
ENDROOT
BRANCH   1   2
ATOM      2  C   UNL     1     -18.082 -50.739  29.351  1.00  0.00    -0.009 C 
BRANCH   2   3
ATOM      3  C   UNL     1     -16.539 -50.644  29.526  1.00  0.00     0.000 C 
ATOM      4  C   UNL     1     -15.819 -51.997  29.491  1.00  0.00     0.004 C 
ENDBRANCH   2   3
BRANCH   2   5
ATOM      5  C   UNL     1     -18.593 -50.132  27.999  1.00  0.00    -0.014 C 
ATOM      6  C   UNL     1     -20.078 -49.734  28.074  1.00  0.00     0.007 C 
ATOM      7  C   UNL     1     -18.405 -51.107  26.819  1.00  0.00     0.007 C 
ENDBRANCH   2   5
ENDBRANCH   1   2
BRANCH   1   8
ATOM      8  C   UNL     1     -18.804 -51.084  31.805  1.00  0.00     0.004 C 
BRANCH   8   9
ATOM      9  C   UNL     1     -20.003 -52.064  31.800  1.00  0.00    -0.011 C 
ATOM     10  C   UNL     1     -19.524 -53.534  31.695  1.00  0.00     0.008 C 
BRANCH   9  11
ATOM     11  C   UNL     1     -21.114 -51.610  30.788  1.00  0.00    -0.002 C 
ATOM     12  C   UNL     1     -22.233 -50.726  31.411  1.00  0.00     0.005 C 
ATOM     13  C   UNL     1     -21.857 -52.648  29.879  1.00  0.00    -0.026 C 
ATOM     14  C   UNL     1     -23.523 -51.024  30.631  1.00  0.00     0.005 C 
ATOM     15  C   UNL     1     -23.033 -51.774  29.403  1.00  0.00    -0.001 C 
ATOM     16  C   UNL     1     -21.047 -53.124  28.621  1.00  0.00     0.007 C 
ATOM     17  C   UNL     1     -22.323 -53.873  30.719  1.00  0.00     0.012 C 
ATOM     18  C   UNL     1     -24.051 -52.444  28.441  1.00  0.00     0.004 C 
ATOM     19  C   UNL     1     -21.877 -53.188  27.303  1.00  0.00     0.005 C 
ATOM     20  C   UNL     1     -23.371 -53.527  27.552  1.00  0.00     0.003 C 
ATOM     21  C   UNL     1     -25.321 -53.034  29.084  1.00  0.00     0.085 C 
ATOM     22  C   UNL     1     -24.236 -53.837  26.271  1.00  0.00    -0.000 C 
ATOM     23  C   UNL     1     -26.178 -53.694  28.033  1.00  0.00     0.159 C 
ATOM     24  C   UNL     1     -25.734 -53.736  26.612  1.00  0.00     0.005 C 
ATOM     25  C   UNL     1     -23.926 -52.850  25.107  1.00  0.00     0.020 C 
ATOM     26  C   UNL     1     -23.945 -55.292  25.817  1.00  0.00     0.017 C 
ATOM     27  O   UNL     1     -27.296 -54.171  28.365  1.00  0.00    -0.295 OA
ATOM     28  C   UNL     1     -26.647 -53.590  25.637  1.00  0.00     0.055 C 
ATOM     29  C   UNL     1     -24.815 -53.085  23.872  1.00  0.00     0.081 C 
ATOM     30  C   UNL     1     -26.249 -53.336  24.242  1.00  0.00     0.156 C 
ATOM     31  O   UNL     1     -27.132 -53.317  23.344  1.00  0.00    -0.295 OA
ENDBRANCH   9  11
ENDBRANCH   8   9
ENDBRANCH   1   8
TORSDOF 6
ENDMDL
MODEL 2
REMARK VINA RESULT:    -8.857      2.053      3.215
REMARK INTER + INTRA:         -13.443
REMARK INTER:                 -11.818
REMARK INTRA:                  -1.626
REMARK UNBOUND:                -1.479
REMARK SMILES CC[C@@H](CC[C@H](C)[C@@H]1CC[C@@H]2[C@@H]3CC(=O)C4=CC(=O)CC[C@@]4(C)[C@H]3CC[C@]21C)C(C)C
REMARK SMILES IDX 4 1 3 2 2 3 1 4 29 5 30 6 31 7 5 8 6 9 7 10 8 11 9 12 27 13
REMARK SMILES IDX 10 14 11 15 26 16 28 17 12 18 25 19 24 20 13 21 22 22 14 23
REMARK SMILES IDX 16 24 21 25 23 26 15 27 17 28 20 29 18 30 19 31
REMARK H PARENT
REMARK Flexibility Score: inf
ROOT
ATOM      1  C   UNL     1     -21.207 -50.845  32.420  1.00  0.00     0.004 C 
ENDROOT
BRANCH   1   2
ATOM      2  C   UNL     1     -19.975 -51.606  31.833  1.00  0.00    -0.009 C 
BRANCH   2   3
ATOM      3  C   UNL     1     -20.266 -52.061  30.375  1.00  0.00     0.000 C 
ATOM      4  C   UNL     1     -20.985 -51.009  29.521  1.00  0.00     0.004 C 
ENDBRANCH   2   3
BRANCH   2   5
ATOM      5  C   UNL     1     -19.489 -52.771  32.763  1.00  0.00    -0.014 C 
ATOM      6  C   UNL     1     -18.041 -52.557  33.240  1.00  0.00     0.007 C 
ATOM      7  C   UNL     1     -19.578 -54.143  32.064  1.00  0.00     0.007 C 
ENDBRANCH   2   5
ENDBRANCH   1   2
BRANCH   1   8
ATOM      8  C   UNL     1     -21.902 -51.632  33.549  1.00  0.00     0.004 C 
BRANCH   8   9
ATOM      9  C   UNL     1     -23.198 -52.340  33.080  1.00  0.00    -0.011 C 
ATOM     10  C   UNL     1     -23.055 -53.881  33.159  1.00  0.00     0.008 C 
BRANCH   9  11
ATOM     11  C   UNL     1     -23.716 -51.748  31.721  1.00  0.00    -0.002 C 
ATOM     12  C   UNL     1     -24.500 -50.411  31.856  1.00  0.00     0.005 C 
ATOM     13  C   UNL     1     -24.548 -52.622  30.721  1.00  0.00    -0.026 C 
ATOM     14  C   UNL     1     -25.542 -50.389  30.728  1.00  0.00     0.005 C 
ATOM     15  C   UNL     1     -25.094 -51.510  29.805  1.00  0.00    -0.001 C 
ATOM     16  C   UNL     1     -23.700 -53.616  29.849  1.00  0.00     0.007 C 
ATOM     17  C   UNL     1     -25.676 -53.387  31.473  1.00  0.00     0.012 C 
ATOM     18  C   UNL     1     -26.003 -51.963  28.629  1.00  0.00     0.004 C 
ATOM     19  C   UNL     1     -24.103 -53.662  28.343  1.00  0.00     0.005 C 
ATOM     20  C   UNL     1     -25.613 -53.382  28.119  1.00  0.00     0.003 C 
ATOM     21  C   UNL     1     -27.523 -51.906  28.872  1.00  0.00     0.085 C 
ATOM     22  C   UNL     1     -26.157 -53.631  26.660  1.00  0.00    -0.000 C 
ATOM     23  C   UNL     1     -28.262 -52.425  27.665  1.00  0.00     0.159 C 
ATOM     24  C   UNL     1     -27.516 -52.930  26.479  1.00  0.00     0.005 C 
ATOM     25  C   UNL     1     -25.176 -53.097  25.575  1.00  0.00     0.020 C 
ATOM     26  C   UNL     1     -26.375 -55.155  26.466  1.00  0.00     0.017 C 
ATOM     27  O   UNL     1     -29.522 -52.387  27.655  1.00  0.00    -0.295 OA
ATOM     28  C   UNL     1     -27.996 -52.681  25.250  1.00  0.00     0.055 C 
ATOM     29  C   UNL     1     -25.722 -53.258  24.145  1.00  0.00     0.081 C 
ATOM     30  C   UNL     1     -27.176 -52.893  24.045  1.00  0.00     0.156 C 
ATOM     31  O   UNL     1     -27.702 -52.755  22.910  1.00  0.00    -0.295 OA
ENDBRANCH   9  11
ENDBRANCH   8   9
ENDBRANCH   1   8
TORSDOF 6
ENDMDL
MODEL 3
REMARK VINA RESULT:    -8.803      2.933      7.558
REMARK INTER + INTRA:         -13.370
REMARK INTER:                 -11.925
REMARK INTRA:                  -1.446
REMARK UNBOUND:                -1.479
REMARK SMILES CC[C@@H](CC[C@H](C)[C@@H]1CC[C@@H]2[C@@H]3CC(=O)C4=CC(=O)CC[C@@]4(C)[C@H]3CC[C@]21C)C(C)C
REMARK SMILES IDX 4 1 3 2 2 3 1 4 29 5 30 6 31 7 5 8 6 9 7 10 8 11 9 12 27 13
REMARK SMILES IDX 10 14 11 15 26 16 28 17 12 18 25 19 24 20 13 21 22 22 14 23
REMARK SMILES IDX 16 24 21 25 23 26 15 27 17 28 20 29 18 30 19 31
REMARK H PARENT
REMARK Flexibility Score: inf
ROOT
ATOM      1  C   UNL     1     -26.372 -54.887  26.512  1.00  0.00     0.004 C 
ENDROOT
BRANCH   1   2
ATOM      2  C   UNL     1     -25.899 -54.164  25.211  1.00  0.00    -0.009 C 
BRANCH   2   3
ATOM      3  C   UNL     1     -27.019 -54.207  24.132  1.00  0.00     0.000 C 
ATOM      4  C   UNL     1     -27.419 -52.831  23.587  1.00  0.00     0.004 C 
ENDBRANCH   2   3
BRANCH   2   5
ATOM      5  C   UNL     1     -24.518 -54.696  24.695  1.00  0.00    -0.014 C 
ATOM      6  C   UNL     1     -23.683 -55.318  25.829  1.00  0.00     0.007 C 
ATOM      7  C   UNL     1     -23.685 -53.586  24.023  1.00  0.00     0.007 C 
ENDBRANCH   2   5
ENDBRANCH   1   2
BRANCH   1   8
ATOM      8  C   UNL     1     -27.453 -54.090  27.271  1.00  0.00     0.004 C 
BRANCH   8   9
ATOM      9  C   UNL     1     -26.877 -53.274  28.454  1.00  0.00    -0.011 C 
ATOM     10  C   UNL     1     -27.191 -51.764  28.298  1.00  0.00     0.008 C 
BRANCH   9  11
ATOM     11  C   UNL     1     -25.383 -53.658  28.746  1.00  0.00    -0.002 C 
ATOM     12  C   UNL     1     -25.176 -54.524  30.022  1.00  0.00     0.005 C 
ATOM     13  C   UNL     1     -24.259 -52.566  28.794  1.00  0.00    -0.026 C 
ATOM     14  C   UNL     1     -23.797 -54.158  30.591  1.00  0.00     0.005 C 
ATOM     15  C   UNL     1     -23.137 -53.385  29.460  1.00  0.00    -0.001 C 
ATOM     16  C   UNL     1     -23.754 -52.076  27.390  1.00  0.00     0.007 C 
ATOM     17  C   UNL     1     -24.712 -51.355  29.660  1.00  0.00     0.012 C 
ATOM     18  C   UNL     1     -21.790 -52.650  29.699  1.00  0.00     0.004 C 
ATOM     19  C   UNL     1     -22.205 -51.942  27.270  1.00  0.00     0.005 C 
ATOM     20  C   UNL     1     -21.532 -51.562  28.616  1.00  0.00     0.003 C 
ATOM     21  C   UNL     1     -21.577 -52.040  31.098  1.00  0.00     0.085 C 
ATOM     22  C   UNL     1     -20.003 -51.181  28.544  1.00  0.00    -0.000 C 
ATOM     23  C   UNL     1     -20.254 -51.319  31.155  1.00  0.00     0.159 C 
ATOM     24  C   UNL     1     -19.380 -51.244  29.951  1.00  0.00     0.005 C 
ATOM     25  C   UNL     1     -19.209 -52.140  27.608  1.00  0.00     0.020 C 
ATOM     26  C   UNL     1     -19.879 -49.723  28.030  1.00  0.00     0.017 C 
ATOM     27  O   UNL     1     -19.877 -50.816  32.247  1.00  0.00    -0.295 OA
ATOM     28  C   UNL     1     -18.049 -51.329  30.104  1.00  0.00     0.055 C 
ATOM     29  C   UNL     1     -17.700 -51.836  27.584  1.00  0.00     0.081 C 
ATOM     30  C   UNL     1     -17.155 -51.550  28.955  1.00  0.00     0.156 C 
ATOM     31  O   UNL     1     -15.908 -51.510  29.128  1.00  0.00    -0.295 OA
ENDBRANCH   9  11
ENDBRANCH   8   9
ENDBRANCH   1   8
TORSDOF 6
ENDMDL
MODEL 4
REMARK VINA RESULT:    -8.760      3.562      7.780
REMARK INTER + INTRA:         -13.312
REMARK INTER:                 -11.682
REMARK INTRA:                  -1.629
REMARK UNBOUND:                -1.479
REMARK SMILES CC[C@@H](CC[C@H](C)[C@@H]1CC[C@@H]2[C@@H]3CC(=O)C4=CC(=O)CC[C@@]4(C)[C@H]3CC[C@]21C)C(C)C
REMARK SMILES IDX 4 1 3 2 2 3 1 4 29 5 30 6 31 7 5 8 6 9 7 10 8 11 9 12 27 13
REMARK SMILES IDX 10 14 11 15 26 16 28 17 12 18 25 19 24 20 13 21 22 22 14 23
REMARK SMILES IDX 16 24 21 25 23 26 15 27 17 28 20 29 18 30 19 31
REMARK H PARENT
REMARK Flexibility Score: inf
ROOT
ATOM      1  C   UNL     1     -26.380 -54.243  29.373  1.00  0.00     0.004 C 
ENDROOT
BRANCH   1   2
ATOM      2  C   UNL     1     -26.698 -53.401  28.095  1.00  0.00    -0.009 C 
BRANCH   2   3
ATOM      3  C   UNL     1     -25.381 -52.910  27.431  1.00  0.00     0.000 C 
ATOM      4  C   UNL     1     -24.244 -53.938  27.454  1.00  0.00     0.004 C 
ENDBRANCH   2   3
BRANCH   2   5
ATOM      5  C   UNL     1     -27.722 -52.247  28.376  1.00  0.00    -0.014 C 
ATOM      6  C   UNL     1     -29.012 -52.412  27.552  1.00  0.00     0.007 C 
ATOM      7  C   UNL     1     -27.122 -50.858  28.078  1.00  0.00     0.007 C 
ENDBRANCH   2   5
ENDBRANCH   1   2
BRANCH   1   8
ATOM      8  C   UNL     1     -26.947 -53.605  30.656  1.00  0.00     0.004 C 
BRANCH   8   9
ATOM      9  C   UNL     1     -25.854 -52.946  31.534  1.00  0.00    -0.011 C 
ATOM     10  C   UNL     1     -26.043 -51.410  31.604  1.00  0.00     0.008 C 
BRANCH   9  11
ATOM     11  C   UNL     1     -24.421 -53.465  31.155  1.00  0.00    -0.002 C 
ATOM     12  C   UNL     1     -24.006 -54.787  31.862  1.00  0.00     0.005 C 
ATOM     13  C   UNL     1     -23.169 -52.528  31.248  1.00  0.00    -0.026 C 
ATOM     14  C   UNL     1     -22.481 -54.734  32.046  1.00  0.00     0.005 C 
ATOM     15  C   UNL     1     -22.053 -53.585  31.148  1.00  0.00    -0.001 C 
ATOM     16  C   UNL     1     -23.009 -51.518  30.056  1.00  0.00     0.007 C 
ATOM     17  C   UNL     1     -23.155 -51.769  32.606  1.00  0.00     0.012 C 
ATOM     18  C   UNL     1     -20.592 -53.059  31.198  1.00  0.00     0.004 C 
ATOM     19  C   UNL     1     -21.557 -51.397  29.501  1.00  0.00     0.005 C 
ATOM     20  C   UNL     1     -20.478 -51.630  30.592  1.00  0.00     0.003 C 
ATOM     21  C   UNL     1     -19.896 -53.089  32.572  1.00  0.00     0.085 C 
ATOM     22  C   UNL     1     -18.991 -51.303  30.179  1.00  0.00    -0.000 C 
ATOM     23  C   UNL     1     -18.512 -52.499  32.467  1.00  0.00     0.159 C 
ATOM     24  C   UNL     1     -18.015 -51.962  31.170  1.00  0.00     0.005 C 
ATOM     25  C   UNL     1     -18.661 -51.814  28.745  1.00  0.00     0.020 C 
ATOM     26  C   UNL     1     -18.783 -49.768  30.250  1.00  0.00     0.017 C 
ATOM     27  O   UNL     1     -17.765 -52.505  33.482  1.00  0.00    -0.295 OA
ATOM     28  C   UNL     1     -16.727 -52.145  30.838  1.00  0.00     0.055 C 
ATOM     29  C   UNL     1     -17.192 -51.577  28.350  1.00  0.00     0.081 C 
ATOM     30  C   UNL     1     -16.242 -51.901  29.469  1.00  0.00     0.156 C 
ATOM     31  O   UNL     1     -15.008 -51.977  29.230  1.00  0.00    -0.295 OA
ENDBRANCH   9  11
ENDBRANCH   8   9
ENDBRANCH   1   8
TORSDOF 6
ENDMDL
MODEL 5
REMARK VINA RESULT:    -8.697      2.746      5.506
REMARK INTER + INTRA:         -13.227
REMARK INTER:                 -10.929
REMARK INTRA:                  -2.298
REMARK UNBOUND:                -1.479
REMARK SMILES CC[C@@H](CC[C@H](C)[C@@H]1CC[C@@H]2[C@@H]3CC(=O)C4=CC(=O)CC[C@@]4(C)[C@H]3CC[C@]21C)C(C)C
REMARK SMILES IDX 4 1 3 2 2 3 1 4 29 5 30 6 31 7 5 8 6 9 7 10 8 11 9 12 27 13
REMARK SMILES IDX 10 14 11 15 26 16 28 17 12 18 25 19 24 20 13 21 22 22 14 23
REMARK SMILES IDX 16 24 21 25 23 26 15 27 17 28 20 29 18 30 19 31
REMARK H PARENT
REMARK Flexibility Score: inf
ROOT
ATOM      1  C   UNL     1     -25.543 -51.456  33.150  1.00  0.00     0.004 C 
ENDROOT
BRANCH   1   2
ATOM      2  C   UNL     1     -25.349 -52.927  32.662  1.00  0.00    -0.009 C 
BRANCH   2   3
ATOM      3  C   UNL     1     -26.698 -53.506  32.146  1.00  0.00     0.000 C 
ATOM      4  C   UNL     1     -26.678 -53.925  30.671  1.00  0.00     0.004 C 
ENDBRANCH   2   3
BRANCH   2   5
ATOM      5  C   UNL     1     -24.656 -53.832  33.738  1.00  0.00    -0.014 C 
ATOM      6  C   UNL     1     -23.963 -52.996  34.829  1.00  0.00     0.007 C 
ATOM      7  C   UNL     1     -23.614 -54.781  33.111  1.00  0.00     0.007 C 
ENDBRANCH   2   5
ENDBRANCH   1   2
BRANCH   1   8
ATOM      8  C   UNL     1     -24.796 -50.438  32.266  1.00  0.00     0.004 C 
BRANCH   8   9
ATOM      9  C   UNL     1     -23.549 -51.043  31.574  1.00  0.00    -0.011 C 
ATOM     10  C   UNL     1     -22.241 -50.490  32.192  1.00  0.00     0.008 C 
BRANCH   9  11
ATOM     11  C   UNL     1     -23.673 -50.980  30.009  1.00  0.00    -0.002 C 
ATOM     12  C   UNL     1     -25.132 -50.877  29.481  1.00  0.00     0.005 C 
ATOM     13  C   UNL     1     -22.970 -52.044  29.097  1.00  0.00    -0.026 C 
ATOM     14  C   UNL     1     -25.165 -51.590  28.120  1.00  0.00     0.005 C 
ATOM     15  C   UNL     1     -23.696 -51.758  27.768  1.00  0.00    -0.001 C 
ATOM     16  C   UNL     1     -21.431 -51.819  28.884  1.00  0.00     0.007 C 
ATOM     17  C   UNL     1     -23.239 -53.481  29.630  1.00  0.00     0.012 C 
ATOM     18  C   UNL     1     -23.280 -52.626  26.550  1.00  0.00     0.004 C 
ATOM     19  C   UNL     1     -20.946 -52.007  27.414  1.00  0.00     0.005 C 
ATOM     20  C   UNL     1     -21.786 -53.056  26.637  1.00  0.00     0.003 C 
ATOM     21  C   UNL     1     -24.151 -53.862  26.254  1.00  0.00     0.085 C 
ATOM     22  C   UNL     1     -21.231 -53.479  25.223  1.00  0.00    -0.000 C 
ATOM     23  C   UNL     1     -23.590 -54.626  25.082  1.00  0.00     0.159 C 
ATOM     24  C   UNL     1     -22.341 -54.171  24.410  1.00  0.00     0.005 C 
ATOM     25  C   UNL     1     -20.713 -52.255  24.412  1.00  0.00     0.020 C 
ATOM     26  C   UNL     1     -20.080 -54.499  25.427  1.00  0.00     0.017 C 
ATOM     27  O   UNL     1     -24.214 -55.631  24.651  1.00  0.00    -0.295 OA
ATOM     28  C   UNL     1     -22.237 -54.286  23.076  1.00  0.00     0.055 C 
ATOM     29  C   UNL     1     -20.239 -52.634  22.997  1.00  0.00     0.081 C 
ATOM     30  C   UNL     1     -21.171 -53.603  22.325  1.00  0.00     0.156 C 
ATOM     31  O   UNL     1     -21.044 -53.828  21.092  1.00  0.00    -0.295 OA
ENDBRANCH   9  11
ENDBRANCH   8   9
ENDBRANCH   1   8
TORSDOF 6
ENDMDL
MODEL 6
REMARK VINA RESULT:    -8.680      1.927      3.855
REMARK INTER + INTRA:         -13.204
REMARK INTER:                 -11.490
REMARK INTRA:                  -1.714
REMARK UNBOUND:                -1.479
REMARK SMILES CC[C@@H](CC[C@H](C)[C@@H]1CC[C@@H]2[C@@H]3CC(=O)C4=CC(=O)CC[C@@]4(C)[C@H]3CC[C@]21C)C(C)C
REMARK SMILES IDX 4 1 3 2 2 3 1 4 29 5 30 6 31 7 5 8 6 9 7 10 8 11 9 12 27 13
REMARK SMILES IDX 10 14 11 15 26 16 28 17 12 18 25 19 24 20 13 21 22 22 14 23
REMARK SMILES IDX 16 24 21 25 23 26 15 27 17 28 20 29 18 30 19 31
REMARK H PARENT
REMARK Flexibility Score: inf
ROOT
ATOM      1  C   UNL     1     -17.489 -51.617  27.410  1.00  0.00     0.004 C 
ENDROOT
BRANCH   1   2
ATOM      2  C   UNL     1     -17.943 -51.313  28.874  1.00  0.00    -0.009 C 
BRANCH   2   3
ATOM      3  C   UNL     1     -19.068 -50.238  28.878  1.00  0.00     0.000 C 
ATOM      4  C   UNL     1     -20.175 -50.493  29.908  1.00  0.00     0.004 C 
ENDBRANCH   2   3
BRANCH   2   5
ATOM      5  C   UNL     1     -16.741 -50.959  29.815  1.00  0.00    -0.014 C 
ATOM      6  C   UNL     1     -16.943 -51.514  31.237  1.00  0.00     0.007 C 
ATOM      7  C   UNL     1     -16.510 -49.437  29.911  1.00  0.00     0.007 C 
ENDBRANCH   2   5
ENDBRANCH   1   2
BRANCH   1   8
ATOM      8  C   UNL     1     -18.020 -50.579  26.401  1.00  0.00     0.004 C 
BRANCH   8   9
ATOM      9  C   UNL     1     -18.775 -51.226  25.214  1.00  0.00    -0.011 C 
ATOM     10  C   UNL     1     -18.029 -50.987  23.877  1.00  0.00     0.008 C 
BRANCH   9  11
ATOM     11  C   UNL     1     -20.305 -50.870  25.241  1.00  0.00    -0.002 C 
ATOM     12  C   UNL     1     -20.656 -49.601  26.071  1.00  0.00     0.005 C 
ATOM     13  C   UNL     1     -21.380 -51.940  25.635  1.00  0.00    -0.026 C 
ATOM     14  C   UNL     1     -22.063 -49.822  26.649  1.00  0.00     0.005 C 
ATOM     15  C   UNL     1     -22.589 -51.012  25.864  1.00  0.00    -0.001 C 
ATOM     16  C   UNL     1     -21.742 -52.962  24.499  1.00  0.00     0.007 C 
ATOM     17  C   UNL     1     -20.950 -52.694  26.927  1.00  0.00     0.012 C 
ATOM     18  C   UNL     1     -23.919 -51.697  26.283  1.00  0.00     0.004 C 
ATOM     19  C   UNL     1     -23.267 -53.244  24.344  1.00  0.00     0.005 C 
ATOM     20  C   UNL     1     -24.036 -53.131  25.688  1.00  0.00     0.003 C 
ATOM     21  C   UNL     1     -24.223 -51.743  27.793  1.00  0.00     0.085 C 
ATOM     22  C   UNL     1     -25.535 -53.620  25.673  1.00  0.00    -0.000 C 
ATOM     23  C   UNL     1     -25.514 -52.483  28.040  1.00  0.00     0.159 C 
ATOM     24  C   UNL     1     -26.278 -53.073  26.906  1.00  0.00     0.005 C 
ATOM     25  C   UNL     1     -26.287 -53.151  24.393  1.00  0.00     0.020 C 
ATOM     26  C   UNL     1     -25.552 -55.170  25.753  1.00  0.00     0.017 C 
ATOM     27  O   UNL     1     -25.961 -52.558  29.216  1.00  0.00    -0.295 OA
ATOM     28  C   UNL     1     -27.620 -53.034  26.931  1.00  0.00     0.055 C 
ATOM     29  C   UNL     1     -27.774 -53.550  24.394  1.00  0.00     0.081 C 
ATOM     30  C   UNL     1     -28.422 -53.331  25.732  1.00  0.00     0.156 C 
ATOM     31  O   UNL     1     -29.676 -53.393  25.830  1.00  0.00    -0.295 OA
ENDBRANCH   9  11
ENDBRANCH   8   9
ENDBRANCH   1   8
TORSDOF 6
ENDMDL
MODEL 7
REMARK VINA RESULT:    -8.656      3.356      6.194
REMARK INTER + INTRA:         -13.171
REMARK INTER:                 -10.943
REMARK INTRA:                  -2.227
REMARK UNBOUND:                -1.479
REMARK SMILES CC[C@@H](CC[C@H](C)[C@@H]1CC[C@@H]2[C@@H]3CC(=O)C4=CC(=O)CC[C@@]4(C)[C@H]3CC[C@]21C)C(C)C
REMARK SMILES IDX 4 1 3 2 2 3 1 4 29 5 30 6 31 7 5 8 6 9 7 10 8 11 9 12 27 13
REMARK SMILES IDX 10 14 11 15 26 16 28 17 12 18 25 19 24 20 13 21 22 22 14 23
REMARK SMILES IDX 16 24 21 25 23 26 15 27 17 28 20 29 18 30 19 31
REMARK H PARENT
REMARK Flexibility Score: inf
ROOT
ATOM      1  C   UNL     1     -24.897 -53.068  33.431  1.00  0.00     0.004 C 
ENDROOT
BRANCH   1   2
ATOM      2  C   UNL     1     -24.413 -51.662  32.950  1.00  0.00    -0.009 C 
BRANCH   2   3
ATOM      3  C   UNL     1     -23.179 -51.204  33.779  1.00  0.00     0.000 C 
ATOM      4  C   UNL     1     -21.962 -50.816  32.930  1.00  0.00     0.004 C 
ENDBRANCH   2   3
BRANCH   2   5
ATOM      5  C   UNL     1     -25.570 -50.605  32.923  1.00  0.00    -0.014 C 
ATOM      6  C   UNL     1     -26.939 -51.260  32.665  1.00  0.00     0.007 C 
ATOM      7  C   UNL     1     -25.336 -49.520  31.852  1.00  0.00     0.007 C 
ENDBRANCH   2   5
ENDBRANCH   1   2
BRANCH   1   8
ATOM      8  C   UNL     1     -24.654 -54.168  32.378  1.00  0.00     0.004 C 
BRANCH   8   9
ATOM      9  C   UNL     1     -24.832 -53.660  30.926  1.00  0.00    -0.011 C 
ATOM     10  C   UNL     1     -26.100 -54.265  30.273  1.00  0.00     0.008 C 
BRANCH   9  11
ATOM     11  C   UNL     1     -23.496 -53.771  30.109  1.00  0.00    -0.002 C 
ATOM     12  C   UNL     1     -22.217 -53.930  30.981  1.00  0.00     0.005 C 
ATOM     13  C   UNL     1     -23.126 -52.714  29.012  1.00  0.00    -0.026 C 
ATOM     14  C   UNL     1     -21.068 -53.257  30.215  1.00  0.00     0.005 C 
ATOM     15  C   UNL     1     -21.636 -53.059  28.820  1.00  0.00    -0.001 C 
ATOM     16  C   UNL     1     -23.863 -52.902  27.638  1.00  0.00     0.007 C 
ATOM     17  C   UNL     1     -23.342 -51.270  29.551  1.00  0.00     0.012 C 
ATOM     18  C   UNL     1     -20.859 -52.214  27.774  1.00  0.00     0.004 C 
ATOM     19  C   UNL     1     -22.949 -52.742  26.386  1.00  0.00     0.005 C 
ATOM     20  C   UNL     1     -21.787 -51.740  26.617  1.00  0.00     0.003 C 
ATOM     21  C   UNL     1     -20.060 -51.012  28.315  1.00  0.00     0.085 C 
ATOM     22  C   UNL     1     -20.949 -51.342  25.341  1.00  0.00    -0.000 C 
ATOM     23  C   UNL     1     -19.409 -50.266  27.177  1.00  0.00     0.159 C 
ATOM     24  C   UNL     1     -19.614 -50.705  25.768  1.00  0.00     0.005 C 
ATOM     25  C   UNL     1     -20.644 -52.574  24.439  1.00  0.00     0.020 C 
ATOM     26  C   UNL     1     -21.748 -50.284  24.535  1.00  0.00     0.017 C 
ATOM     27  O   UNL     1     -18.654 -49.292  27.437  1.00  0.00    -0.295 OA
ATOM     28  C   UNL     1     -18.589 -50.626  24.904  1.00  0.00     0.055 C 
ATOM     29  C   UNL     1     -19.760 -52.222  23.228  1.00  0.00     0.081 C 
ATOM     30  C   UNL     1     -18.632 -51.299  23.595  1.00  0.00     0.156 C 
ATOM     31  O   UNL     1     -17.699 -51.106  22.772  1.00  0.00    -0.295 OA
ENDBRANCH   9  11
ENDBRANCH   8   9
ENDBRANCH   1   8
TORSDOF 6
ENDMDL
MODEL 8
REMARK VINA RESULT:    -8.621      3.459      5.533
REMARK INTER + INTRA:         -13.124
REMARK INTER:                 -11.870
REMARK INTRA:                  -1.254
REMARK UNBOUND:                -1.479
REMARK SMILES CC[C@@H](CC[C@H](C)[C@@H]1CC[C@@H]2[C@@H]3CC(=O)C4=CC(=O)CC[C@@]4(C)[C@H]3CC[C@]21C)C(C)C
REMARK SMILES IDX 4 1 3 2 2 3 1 4 29 5 30 6 31 7 5 8 6 9 7 10 8 11 9 12 27 13
REMARK SMILES IDX 10 14 11 15 26 16 28 17 12 18 25 19 24 20 13 21 22 22 14 23
REMARK SMILES IDX 16 24 21 25 23 26 15 27 17 28 20 29 18 30 19 31
REMARK H PARENT
REMARK Flexibility Score: inf
ROOT
ATOM      1  C   UNL     1     -17.736 -50.978  27.726  1.00  0.00     0.004 C 
ENDROOT
BRANCH   1   2
ATOM      2  C   UNL     1     -18.773 -50.491  26.664  1.00  0.00    -0.009 C 
BRANCH   2   3
ATOM      3  C   UNL     1     -19.603 -49.301  27.225  1.00  0.00     0.000 C 
ATOM      4  C   UNL     1     -19.477 -48.008  26.410  1.00  0.00     0.004 C 
ENDBRANCH   2   3
BRANCH   2   5
ATOM      5  C   UNL     1     -19.658 -51.659  26.108  1.00  0.00    -0.014 C 
ATOM      6  C   UNL     1     -19.913 -51.517  24.597  1.00  0.00     0.007 C 
ATOM      7  C   UNL     1     -21.018 -51.747  26.830  1.00  0.00     0.007 C 
ENDBRANCH   2   5
ENDBRANCH   1   2
BRANCH   1   8
ATOM      8  C   UNL     1     -17.660 -50.041  28.949  1.00  0.00     0.004 C 
BRANCH   8   9
ATOM      9  C   UNL     1     -17.040 -50.725  30.193  1.00  0.00    -0.011 C 
ATOM     10  C   UNL     1     -16.195 -51.960  29.790  1.00  0.00     0.008 C 
BRANCH   9  11
ATOM     11  C   UNL     1     -18.108 -50.938  31.324  1.00  0.00    -0.002 C 
ATOM     12  C   UNL     1     -17.609 -51.782  32.532  1.00  0.00     0.005 C 
ATOM     13  C   UNL     1     -19.540 -51.483  30.994  1.00  0.00    -0.026 C 
ATOM     14  C   UNL     1     -18.829 -52.537  33.083  1.00  0.00     0.005 C 
ATOM     15  C   UNL     1     -20.008 -51.846  32.418  1.00  0.00    -0.001 C 
ATOM     16  C   UNL     1     -20.531 -50.421  30.399  1.00  0.00     0.007 C 
ATOM     17  C   UNL     1     -19.450 -52.724  30.059  1.00  0.00     0.012 C 
ATOM     18  C   UNL     1     -21.436 -52.441  32.548  1.00  0.00     0.004 C 
ATOM     19  C   UNL     1     -21.967 -50.464  31.004  1.00  0.00     0.005 C 
ATOM     20  C   UNL     1     -22.388 -51.891  31.445  1.00  0.00     0.003 C 
ATOM     21  C   UNL     1     -21.541 -53.978  32.594  1.00  0.00     0.085 C 
ATOM     22  C   UNL     1     -23.900 -52.074  31.855  1.00  0.00    -0.000 C 
ATOM     23  C   UNL     1     -22.987 -54.399  32.667  1.00  0.00     0.159 C 
ATOM     24  C   UNL     1     -24.074 -53.380  32.652  1.00  0.00     0.005 C 
ATOM     25  C   UNL     1     -24.413 -50.890  32.728  1.00  0.00     0.020 C 
ATOM     26  C   UNL     1     -24.754 -52.183  30.564  1.00  0.00     0.017 C 
ATOM     27  O   UNL     1     -23.263 -55.622  32.784  1.00  0.00    -0.295 OA
ATOM     28  C   UNL     1     -25.161 -53.573  33.415  1.00  0.00     0.055 C 
ATOM     29  C   UNL     1     -25.863 -51.085  33.206  1.00  0.00     0.081 C 
ATOM     30  C   UNL     1     -26.126 -52.490  33.669  1.00  0.00     0.156 C 
ATOM     31  O   UNL     1     -27.187 -52.745  34.296  1.00  0.00    -0.295 OA
ENDBRANCH   9  11
ENDBRANCH   8   9
ENDBRANCH   1   8
TORSDOF 6
ENDMDL
MODEL 9
REMARK VINA RESULT:    -8.366      3.151      7.362
REMARK INTER + INTRA:         -12.779
REMARK INTER:                 -12.023
REMARK INTRA:                  -0.756
REMARK UNBOUND:                -1.479
REMARK SMILES CC[C@@H](CC[C@H](C)[C@@H]1CC[C@@H]2[C@@H]3CC(=O)C4=CC(=O)CC[C@@]4(C)[C@H]3CC[C@]21C)C(C)C
REMARK SMILES IDX 4 1 3 2 2 3 1 4 29 5 30 6 31 7 5 8 6 9 7 10 8 11 9 12 27 13
REMARK SMILES IDX 10 14 11 15 26 16 28 17 12 18 25 19 24 20 13 21 22 22 14 23
REMARK SMILES IDX 16 24 21 25 23 26 15 27 17 28 20 29 18 30 19 31
REMARK H PARENT
REMARK Flexibility Score: inf
ROOT
ATOM      1  C   UNL     1     -21.769 -53.938  23.114  1.00  0.00     0.004 C 
ENDROOT
BRANCH   1   2
ATOM      2  C   UNL     1     -23.109 -54.373  23.791  1.00  0.00    -0.009 C 
BRANCH   2   3
ATOM      3  C   UNL     1     -23.967 -53.124  24.142  1.00  0.00     0.000 C 
ATOM      4  C   UNL     1     -25.392 -53.163  23.578  1.00  0.00     0.004 C 
ENDBRANCH   2   3
BRANCH   2   5
ATOM      5  C   UNL     1     -22.883 -55.334  25.008  1.00  0.00    -0.014 C 
ATOM      6  C   UNL     1     -22.828 -56.810  24.572  1.00  0.00     0.007 C 
ATOM      7  C   UNL     1     -23.982 -55.180  26.079  1.00  0.00     0.007 C 
ENDBRANCH   2   5
ENDBRANCH   1   2
BRANCH   1   8
ATOM      8  C   UNL     1     -20.711 -53.483  24.140  1.00  0.00     0.004 C 
BRANCH   8   9
ATOM      9  C   UNL     1     -20.383 -51.973  24.035  1.00  0.00    -0.011 C 
ATOM     10  C   UNL     1     -19.150 -51.729  23.129  1.00  0.00     0.008 C 
BRANCH   9  11
ATOM     11  C   UNL     1     -20.367 -51.288  25.448  1.00  0.00    -0.002 C 
ATOM     12  C   UNL     1     -19.009 -50.634  25.833  1.00  0.00     0.005 C 
ATOM     13  C   UNL     1     -20.839 -52.059  26.728  1.00  0.00    -0.026 C 
ATOM     14  C   UNL     1     -18.880 -50.741  27.361  1.00  0.00     0.005 C 
ATOM     15  C   UNL     1     -20.281 -51.117  27.812  1.00  0.00    -0.001 C 
ATOM     16  C   UNL     1     -22.397 -52.156  26.904  1.00  0.00     0.007 C 
ATOM     17  C   UNL     1     -20.198 -53.476  26.778  1.00  0.00     0.012 C 
ATOM     18  C   UNL     1     -20.542 -51.526  29.288  1.00  0.00     0.004 C 
ATOM     19  C   UNL     1     -22.903 -51.881  28.353  1.00  0.00     0.005 C 
ATOM     20  C   UNL     1     -21.878 -52.311  29.437  1.00  0.00     0.003 C 
ATOM     21  C   UNL     1     -19.413 -52.299  29.998  1.00  0.00     0.085 C 
ATOM     22  C   UNL     1     -22.392 -52.283  30.927  1.00  0.00    -0.000 C 
ATOM     23  C   UNL     1     -19.837 -52.670  31.397  1.00  0.00     0.159 C 
ATOM     24  C   UNL     1     -21.195 -52.315  31.895  1.00  0.00     0.005 C 
ATOM     25  C   UNL     1     -23.238 -51.010  31.227  1.00  0.00     0.020 C 
ATOM     26  C   UNL     1     -23.247 -53.553  31.180  1.00  0.00     0.017 C 
ATOM     27  O   UNL     1     -19.012 -53.246  32.154  1.00  0.00    -0.295 OA
ATOM     28  C   UNL     1     -21.342 -51.932  33.174  1.00  0.00     0.055 C 
ATOM     29  C   UNL     1     -23.684 -50.923  32.698  1.00  0.00     0.081 C 
ATOM     30  C   UNL     1     -22.584 -51.300  33.650  1.00  0.00     0.156 C 
ATOM     31  O   UNL     1     -22.721 -51.060  34.879  1.00  0.00    -0.295 OA
ENDBRANCH   9  11
ENDBRANCH   8   9
ENDBRANCH   1   8
TORSDOF 6
ENDMDL
