MODEL 1
REMARK VINA RESULT:    -2.001      0.000      0.000
REMARK INTER + INTRA:          -5.927
REMARK INTER:                  -3.288
REMARK INTRA:                  -2.640
REMARK UNBOUND:                -2.640
REMARK SMILES COc1ccc([C@@H]2CC(=O)c3c(O)cc(O[C@@H]4O[C@H](CO[C@H]5O[C@@H](C)[C@@H](O)[C@@H](O)[C@H]5O)[C@@H](O)[C@@H](O)[C@@H]4O)cc3O2)cc1O
REMARK SMILES IDX 19 1 32 2 34 3 36 4 17 5 18 6 20 7 21 8 22 9 25 10 24 11
REMARK SMILES IDX 26 12 23 13 28 14 30 15 27 16 29 18 31 20 33 22 35 24 16 26
REMARK SMILES IDX 15 27 14 28 38 29 12 30 39 31 11 32 40 33 9 34 7 35 10 36
REMARK SMILES IDX 8 37 13 38 6 40 41 41 5 42 42 43 4 44 3 45 43 46 2 48 1 49
REMARK SMILES IDX 37 50
REMARK H PARENT 27 17 29 19 31 21 33 23 35 25 13 39 43 47 37 51
REMARK Flexibility Score: inf
ROOT
ATOM      1  C   UNL     1      27.834  -5.196  14.978  1.00  0.00     0.180 C 
ATOM      2  C   UNL     1      28.424  -3.784  15.224  1.00  0.00     0.177 C 
ATOM      3  C   UNL     1      27.241  -2.768  15.355  1.00  0.00     0.180 C 
ATOM      4  C   UNL     1      26.224  -3.264  16.396  1.00  0.00     0.214 C 
ATOM      5  C   UNL     1      25.863  -4.763  16.115  1.00  0.00     0.339 C 
ATOM      6  O   UNL     1      27.040  -5.541  16.111  1.00  0.00    -0.332 OA
ENDROOT
BRANCH   1   7
ATOM      7  C   UNL     1      28.922  -6.256  14.767  1.00  0.00     0.198 C 
BRANCH   7   8
ATOM      8  O   UNL     1      28.595  -7.425  15.507  1.00  0.00    -0.347 OA
BRANCH   8   9
ATOM      9  C   UNL     1      29.635  -8.387  15.457  1.00  0.00     0.281 C 
ATOM     10  C   UNL     1      29.548  -7.629  18.335  1.00  0.00     0.041 C 
ATOM     11  C   UNL     1      30.716  -8.311  17.564  1.00  0.00     0.150 C 
ATOM     12  C   UNL     1      30.756  -9.835  17.689  1.00  0.00     0.174 C 
ATOM     13  O   UNL     1      30.771  -7.939  16.200  1.00  0.00    -0.344 OA
ATOM     14  C   UNL     1      29.459 -10.445  17.158  1.00  0.00     0.179 C 
ATOM     15  C   UNL     1      29.127  -9.872  15.752  1.00  0.00     0.202 C 
BRANCH  12  16
ATOM     16  O   UNL     1      30.998 -10.220  19.023  1.00  0.00    -0.388 OA
ATOM     17  H   UNL     1      30.387  -9.678  19.591  1.00  0.00     0.211 HD
ENDBRANCH  12  16
BRANCH  14  18
ATOM     18  O   UNL     1      28.415 -10.200  18.091  1.00  0.00    -0.387 OA
ATOM     19  H   UNL     1      28.206 -11.045  18.549  1.00  0.00     0.211 HD
ENDBRANCH  14  18
BRANCH  15  20
ATOM     20  O   UNL     1      27.746 -10.037  15.501  1.00  0.00    -0.385 OA
ATOM     21  H   UNL     1      27.485  -9.305  14.888  1.00  0.00     0.211 HD
ENDBRANCH  15  20
ENDBRANCH   8   9
ENDBRANCH   7   8
ENDBRANCH   1   7
BRANCH   2  22
ATOM     22  O   UNL     1      29.322  -3.416  14.203  1.00  0.00    -0.387 OA
ATOM     23  H   UNL     1      29.184  -4.053  13.439  1.00  0.00     0.211 HD
ENDBRANCH   2  22
BRANCH   3  24
ATOM     24  O   UNL     1      26.585  -2.647  14.115  1.00  0.00    -0.387 OA
ATOM     25  H   UNL     1      26.043  -3.474  14.002  1.00  0.00     0.211 HD
ENDBRANCH   3  24
BRANCH   5  26
ATOM     26  O   UNL     1      24.980  -5.263  17.147  1.00  0.00    -0.462 OA
BRANCH  26  27
ATOM     27  C   UNL     1      24.947  -6.586  17.630  1.00  0.00     0.130 A 
ATOM     28  C   UNL     1      24.034  -7.478  17.043  1.00  0.00     0.093 A 
ATOM     29  C   UNL     1      25.726  -7.021  18.720  1.00  0.00     0.094 A 
ATOM     30  C   UNL     1      23.835  -8.763  17.587  1.00  0.00     0.133 A 
ATOM     31  C   UNL     1      25.520  -8.277  19.282  1.00  0.00     0.138 A 
ATOM     32  C   UNL     1      24.552  -9.143  18.731  1.00  0.00     0.102 A 
ATOM     33  O   UNL     1      26.277  -8.680  20.394  1.00  0.00    -0.484 OA
ATOM     34  C   UNL     1      24.314 -10.414  19.423  1.00  0.00     0.174 C 
ATOM     35  C   UNL     1      25.968  -9.858  21.174  1.00  0.00     0.211 C 
ATOM     36  O   UNL     1      23.174 -10.975  19.400  1.00  0.00    -0.294 OA
ATOM     37  C   UNL     1      25.418 -10.975  20.274  1.00  0.00     0.131 C 
BRANCH  30  38
ATOM     38  O   UNL     1      22.920  -9.628  16.986  1.00  0.00    -0.507 OA
ATOM     39  H   UNL     1      23.183 -10.194  16.198  1.00  0.00     0.293 HD
ENDBRANCH  30  38
BRANCH  35  40
ATOM     40  C   UNL     1      27.181 -10.216  21.999  1.00  0.00    -0.003 A 
ATOM     41  C   UNL     1      28.502 -10.278  21.487  1.00  0.00     0.057 A 
ATOM     42  C   UNL     1      26.978 -10.547  23.339  1.00  0.00     0.011 A 
ATOM     43  C   UNL     1      29.582 -10.571  22.325  1.00  0.00     0.158 A 
ATOM     44  C   UNL     1      28.047 -10.843  24.183  1.00  0.00     0.051 A 
ATOM     45  C   UNL     1      29.363 -10.839  23.692  1.00  0.00     0.160 A 
BRANCH  43  46
ATOM     46  O   UNL     1      30.874 -10.595  21.797  1.00  0.00    -0.504 OA
ATOM     47  H   UNL     1      31.671 -10.917  22.325  1.00  0.00     0.293 HD
ENDBRANCH  43  46
BRANCH  45  48
ATOM     48  O   UNL     1      30.460 -11.124  24.522  1.00  0.00    -0.493 OA
ATOM     49  C   UNL     1      31.117 -10.136  25.336  1.00  0.00     0.278 C 
ENDBRANCH  45  48
ENDBRANCH  35  40
ENDBRANCH  26  27
ENDBRANCH   5  26
BRANCH   4  50
ATOM     50  O   UNL     1      26.722  -3.094  17.704  1.00  0.00    -0.384 OA
ATOM     51  H   UNL     1      25.927  -3.287  18.283  1.00  0.00     0.211 HD
ENDBRANCH   4  50
TORSDOF 15
ENDMDL
MODEL 2
REMARK VINA RESULT:    -1.916      3.167      9.580
REMARK INTER + INTRA:          -5.788
REMARK INTER:                  -3.161
REMARK INTRA:                  -2.627
REMARK UNBOUND:                -2.640
REMARK SMILES COc1ccc([C@@H]2CC(=O)c3c(O)cc(O[C@@H]4O[C@H](CO[C@H]5O[C@@H](C)[C@@H](O)[C@@H](O)[C@H]5O)[C@@H](O)[C@@H](O)[C@@H]4O)cc3O2)cc1O
REMARK SMILES IDX 19 1 32 2 34 3 36 4 17 5 18 6 20 7 21 8 22 9 25 10 24 11
REMARK SMILES IDX 26 12 23 13 28 14 30 15 27 16 29 18 31 20 33 22 35 24 16 26
REMARK SMILES IDX 15 27 14 28 38 29 12 30 39 31 11 32 40 33 9 34 7 35 10 36
REMARK SMILES IDX 8 37 13 38 6 40 41 41 5 42 42 43 4 44 3 45 43 46 2 48 1 49
REMARK SMILES IDX 37 50
REMARK H PARENT 27 17 29 19 31 21 33 23 35 25 13 39 43 47 37 51
REMARK Flexibility Score: inf
ROOT
ATOM      1  C   UNL     1      27.828 -10.388  17.818  1.00  0.00     0.180 C 
ATOM      2  C   UNL     1      28.015  -9.518  19.089  1.00  0.00     0.177 C 
ATOM      3  C   UNL     1      29.436  -9.804  19.680  1.00  0.00     0.180 C 
ATOM      4  C   UNL     1      30.510  -9.646  18.590  1.00  0.00     0.214 C 
ATOM      5  C   UNL     1      30.086 -10.439  17.306  1.00  0.00     0.339 C 
ATOM      6  O   UNL     1      28.819  -9.996  16.871  1.00  0.00    -0.332 OA
ENDROOT
BRANCH   1   7
ATOM      7  C   UNL     1      26.433 -10.229  17.202  1.00  0.00     0.198 C 
BRANCH   7   8
ATOM      8  O   UNL     1      26.143  -8.846  17.035  1.00  0.00    -0.347 OA
BRANCH   8   9
ATOM      9  C   UNL     1      26.366  -8.419  15.702  1.00  0.00     0.281 C 
ATOM     10  C   UNL     1      24.083  -6.724  16.586  1.00  0.00     0.041 C 
ATOM     11  C   UNL     1      24.528  -7.038  15.127  1.00  0.00     0.150 C 
ATOM     12  C   UNL     1      25.423  -5.973  14.492  1.00  0.00     0.174 C 
ATOM     13  O   UNL     1      25.128  -8.313  14.994  1.00  0.00    -0.344 OA
ATOM     14  C   UNL     1      26.699  -5.793  15.314  1.00  0.00     0.179 C 
ATOM     15  C   UNL     1      27.356  -7.171  15.603  1.00  0.00     0.202 C 
BRANCH  12  16
ATOM     16  O   UNL     1      24.727  -4.757  14.349  1.00  0.00    -0.388 OA
ATOM     17  H   UNL     1      25.235  -4.213  13.688  1.00  0.00     0.211 HD
ENDBRANCH  12  16
BRANCH  14  18
ATOM     18  O   UNL     1      26.384  -5.094  16.512  1.00  0.00    -0.387 OA
ATOM     19  H   UNL     1      26.538  -5.699  17.271  1.00  0.00     0.211 HD
ENDBRANCH  14  18
BRANCH  15  20
ATOM     20  O   UNL     1      28.201  -7.053  16.730  1.00  0.00    -0.385 OA
ATOM     21  H   UNL     1      28.850  -7.798  16.672  1.00  0.00     0.211 HD
ENDBRANCH  15  20
ENDBRANCH   8   9
ENDBRANCH   7   8
ENDBRANCH   1   7
BRANCH   2  22
ATOM     22  O   UNL     1      26.996  -9.758  20.031  1.00  0.00    -0.387 OA
ATOM     23  H   UNL     1      27.268  -9.309  20.887  1.00  0.00     0.211 HD
ENDBRANCH   2  22
BRANCH   3  24
ATOM     24  O   UNL     1      29.487 -11.125  20.164  1.00  0.00    -0.387 OA
ATOM     25  H   UNL     1      30.441 -11.307  20.385  1.00  0.00     0.211 HD
ENDBRANCH   3  24
BRANCH   5  26
ATOM     26  O   UNL     1      31.045 -10.215  16.246  1.00  0.00    -0.462 OA
BRANCH  26  27
ATOM     27  C   UNL     1      30.756  -9.680  14.976  1.00  0.00     0.130 A 
ATOM     28  C   UNL     1      30.378 -10.570  13.956  1.00  0.00     0.093 A 
ATOM     29  C   UNL     1      30.907  -8.314  14.669  1.00  0.00     0.094 A 
ATOM     30  C   UNL     1      30.235 -10.123  12.628  1.00  0.00     0.133 A 
ATOM     31  C   UNL     1      30.795  -7.864  13.357  1.00  0.00     0.138 A 
ATOM     32  C   UNL     1      30.484  -8.775  12.327  1.00  0.00     0.102 A 
ATOM     33  O   UNL     1      30.989  -6.505  13.063  1.00  0.00    -0.484 OA
ATOM     34  C   UNL     1      30.472  -8.261  10.953  1.00  0.00     0.174 C 
ATOM     35  C   UNL     1      31.122  -6.001  11.715  1.00  0.00     0.211 C 
ATOM     36  O   UNL     1      30.770  -9.004   9.967  1.00  0.00    -0.294 OA
ATOM     37  C   UNL     1      30.227  -6.793  10.749  1.00  0.00     0.131 C 
BRANCH  30  38
ATOM     38  O   UNL     1      29.861 -11.029  11.635  1.00  0.00    -0.507 OA
ATOM     39  H   UNL     1      29.128 -10.810  10.982  1.00  0.00     0.293 HD
ENDBRANCH  30  38
BRANCH  35  40
ATOM     40  C   UNL     1      30.902  -4.506  11.739  1.00  0.00    -0.003 A 
ATOM     41  C   UNL     1      30.526  -3.777  12.895  1.00  0.00     0.057 A 
ATOM     42  C   UNL     1      31.037  -3.812  10.537  1.00  0.00     0.011 A 
ATOM     43  C   UNL     1      30.386  -2.386  12.851  1.00  0.00     0.158 A 
ATOM     44  C   UNL     1      30.897  -2.427  10.480  1.00  0.00     0.051 A 
ATOM     45  C   UNL     1      30.591  -1.695  11.639  1.00  0.00     0.160 A 
BRANCH  43  46
ATOM     46  O   UNL     1      30.045  -1.693  14.013  1.00  0.00    -0.504 OA
ATOM     47  H   UNL     1      29.972  -0.688  14.044  1.00  0.00     0.293 HD
ENDBRANCH  43  46
BRANCH  45  48
ATOM     48  O   UNL     1      30.455  -0.296  11.613  1.00  0.00    -0.493 OA
ATOM     49  C   UNL     1      29.828   0.421  10.535  1.00  0.00     0.278 C 
ENDBRANCH  45  48
ENDBRANCH  35  40
ENDBRANCH  26  27
ENDBRANCH   5  26
BRANCH   4  50
ATOM     50  O   UNL     1      30.731  -8.284  18.300  1.00  0.00    -0.384 OA
ATOM     51  H   UNL     1      31.346  -8.312  17.508  1.00  0.00     0.211 HD
ENDBRANCH   4  50
TORSDOF 15
ENDMDL
MODEL 3
REMARK VINA RESULT:    -1.880      2.459      8.057
REMARK INTER + INTRA:          -5.728
REMARK INTER:                  -3.546
REMARK INTRA:                  -2.183
REMARK UNBOUND:                -2.640
REMARK SMILES COc1ccc([C@@H]2CC(=O)c3c(O)cc(O[C@@H]4O[C@H](CO[C@H]5O[C@@H](C)[C@@H](O)[C@@H](O)[C@H]5O)[C@@H](O)[C@@H](O)[C@@H]4O)cc3O2)cc1O
REMARK SMILES IDX 19 1 32 2 34 3 36 4 17 5 18 6 20 7 21 8 22 9 25 10 24 11
REMARK SMILES IDX 26 12 23 13 28 14 30 15 27 16 29 18 31 20 33 22 35 24 16 26
REMARK SMILES IDX 15 27 14 28 38 29 12 30 39 31 11 32 40 33 9 34 7 35 10 36
REMARK SMILES IDX 8 37 13 38 6 40 41 41 5 42 42 43 4 44 3 45 43 46 2 48 1 49
REMARK SMILES IDX 37 50
REMARK H PARENT 27 17 29 19 31 21 33 23 35 25 13 39 43 47 37 51
REMARK Flexibility Score: inf
ROOT
ATOM      1  C   UNL     1      22.808  -8.287  18.603  1.00  0.00     0.180 C 
ATOM      2  C   UNL     1      21.435  -8.567  19.268  1.00  0.00     0.177 C 
ATOM      3  C   UNL     1      21.210 -10.116  19.307  1.00  0.00     0.180 C 
ATOM      4  C   UNL     1      22.422 -10.816  19.943  1.00  0.00     0.214 C 
ATOM      5  C   UNL     1      23.745 -10.293  19.284  1.00  0.00     0.339 C 
ATOM      6  O   UNL     1      23.816  -8.889  19.412  1.00  0.00    -0.332 OA
ENDROOT
BRANCH   1   7
ATOM      7  C   UNL     1      23.091  -6.788  18.456  1.00  0.00     0.198 C 
BRANCH   7   8
ATOM      8  O   UNL     1      24.493  -6.559  18.537  1.00  0.00    -0.347 OA
BRANCH   8   9
ATOM      9  C   UNL     1      25.146  -6.864  17.316  1.00  0.00     0.281 C 
ATOM     10  C   UNL     1      25.080  -3.887  17.327  1.00  0.00     0.041 C 
ATOM     11  C   UNL     1      25.281  -4.832  16.105  1.00  0.00     0.150 C 
ATOM     12  C   UNL     1      26.742  -5.065  15.717  1.00  0.00     0.174 C 
ATOM     13  O   UNL     1      24.616  -6.072  16.250  1.00  0.00    -0.344 OA
ATOM     14  C   UNL     1      27.508  -5.684  16.885  1.00  0.00     0.179 C 
ATOM     15  C   UNL     1      26.737  -6.906  17.453  1.00  0.00     0.202 C 
BRANCH  12  16
ATOM     16  O   UNL     1      27.340  -3.866  15.283  1.00  0.00    -0.388 OA
ATOM     17  H   UNL     1      26.657  -3.386  14.742  1.00  0.00     0.211 HD
ENDBRANCH  12  16
BRANCH  14  18
ATOM     18  O   UNL     1      27.728  -4.687  17.875  1.00  0.00    -0.387 OA
ATOM     19  H   UNL     1      27.120  -3.936  17.695  1.00  0.00     0.211 HD
ENDBRANCH  14  18
BRANCH  15  20
ATOM     20  O   UNL     1      27.164  -7.147  18.779  1.00  0.00    -0.385 OA
ATOM     21  H   UNL     1      27.943  -7.756  18.715  1.00  0.00     0.211 HD
ENDBRANCH  15  20
ENDBRANCH   8   9
ENDBRANCH   7   8
ENDBRANCH   1   7
BRANCH   2  22
ATOM     22  O   UNL     1      20.392  -7.901  18.596  1.00  0.00    -0.387 OA
ATOM     23  H   UNL     1      19.569  -8.468  18.684  1.00  0.00     0.211 HD
ENDBRANCH   2  22
BRANCH   3  24
ATOM     24  O   UNL     1      21.054 -10.602  17.995  1.00  0.00    -0.387 OA
ATOM     25  H   UNL     1      20.097 -10.859  17.903  1.00  0.00     0.211 HD
ENDBRANCH   3  24
BRANCH   5  26
ATOM     26  O   UNL     1      24.893 -10.878  19.944  1.00  0.00    -0.462 OA
BRANCH  26  27
ATOM     27  C   UNL     1      26.217 -10.853  19.464  1.00  0.00     0.130 A 
ATOM     28  C   UNL     1      27.260 -10.943  20.401  1.00  0.00     0.093 A 
ATOM     29  C   UNL     1      26.533 -10.662  18.104  1.00  0.00     0.094 A 
ATOM     30  C   UNL     1      28.599 -10.760  20.005  1.00  0.00     0.133 A 
ATOM     31  C   UNL     1      27.849 -10.454  17.704  1.00  0.00     0.138 A 
ATOM     32  C   UNL     1      28.885 -10.475  18.661  1.00  0.00     0.102 A 
ATOM     33  O   UNL     1      28.143 -10.224  16.351  1.00  0.00    -0.484 OA
ATOM     34  C   UNL     1      30.239 -10.156  18.196  1.00  0.00     0.174 C 
ATOM     35  C   UNL     1      29.436  -9.771  15.890  1.00  0.00     0.211 C 
ATOM     36  O   UNL     1      31.088  -9.604  18.963  1.00  0.00    -0.294 OA
ATOM     37  C   UNL     1      30.560 -10.377  16.745  1.00  0.00     0.131 C 
BRANCH  30  38
ATOM     38  O   UNL     1      29.615 -10.853  20.957  1.00  0.00    -0.507 OA
ATOM     39  H   UNL     1      30.214 -10.069  21.154  1.00  0.00     0.293 HD
ENDBRANCH  30  38
BRANCH  35  40
ATOM     40  C   UNL     1      29.530 -10.026  14.404  1.00  0.00    -0.003 A 
ATOM     41  C   UNL     1      28.460 -10.509  13.610  1.00  0.00     0.057 A 
ATOM     42  C   UNL     1      30.762  -9.810  13.787  1.00  0.00     0.011 A 
ATOM     43  C   UNL     1      28.609 -10.676  12.230  1.00  0.00     0.158 A 
ATOM     44  C   UNL     1      30.923  -9.975  12.412  1.00  0.00     0.051 A 
ATOM     45  C   UNL     1      29.845 -10.390  11.615  1.00  0.00     0.160 A 
BRANCH  43  46
ATOM     46  O   UNL     1      27.527 -11.125  11.471  1.00  0.00    -0.504 OA
ATOM     47  H   UNL     1      27.334 -10.781  10.543  1.00  0.00     0.293 HD
ENDBRANCH  43  46
BRANCH  45  48
ATOM     48  O   UNL     1      29.976 -10.554  10.225  1.00  0.00    -0.493 OA
ATOM     49  C   UNL     1      30.934  -9.837   9.427  1.00  0.00     0.278 C 
ENDBRANCH  45  48
ENDBRANCH  35  40
ENDBRANCH  26  27
ENDBRANCH   5  26
BRANCH   4  50
ATOM     50  O   UNL     1      22.436 -10.623  21.340  1.00  0.00    -0.384 OA
ATOM     51  H   UNL     1      22.356  -9.629  21.438  1.00  0.00     0.211 HD
ENDBRANCH   4  50
TORSDOF 15
ENDMDL
MODEL 4
REMARK VINA RESULT:    -1.856      3.532      7.074
REMARK INTER + INTRA:          -5.690
REMARK INTER:                  -3.186
REMARK INTRA:                  -2.505
REMARK UNBOUND:                -2.640
REMARK SMILES COc1ccc([C@@H]2CC(=O)c3c(O)cc(O[C@@H]4O[C@H](CO[C@H]5O[C@@H](C)[C@@H](O)[C@@H](O)[C@H]5O)[C@@H](O)[C@@H](O)[C@@H]4O)cc3O2)cc1O
REMARK SMILES IDX 19 1 32 2 34 3 36 4 17 5 18 6 20 7 21 8 22 9 25 10 24 11
REMARK SMILES IDX 26 12 23 13 28 14 30 15 27 16 29 18 31 20 33 22 35 24 16 26
REMARK SMILES IDX 15 27 14 28 38 29 12 30 39 31 11 32 40 33 9 34 7 35 10 36
REMARK SMILES IDX 8 37 13 38 6 40 41 41 5 42 42 43 4 44 3 45 43 46 2 48 1 49
REMARK SMILES IDX 37 50
REMARK H PARENT 27 17 29 19 31 21 33 23 35 25 13 39 43 47 37 51
REMARK Flexibility Score: inf
ROOT
ATOM      1  C   UNL     1      26.743 -10.256  12.462  1.00  0.00     0.180 C 
ATOM      2  C   UNL     1      27.471 -10.131  11.098  1.00  0.00     0.177 C 
ATOM      3  C   UNL     1      28.696  -9.173  11.276  1.00  0.00     0.180 C 
ATOM      4  C   UNL     1      29.561  -9.627  12.463  1.00  0.00     0.214 C 
ATOM      5  C   UNL     1      28.654  -9.884  13.716  1.00  0.00     0.339 C 
ATOM      6  O   UNL     1      27.657 -10.829  13.393  1.00  0.00    -0.332 OA
ENDROOT
BRANCH   1   7
ATOM      7  C   UNL     1      25.483 -11.125  12.373  1.00  0.00     0.198 C 
BRANCH   7   8
ATOM      8  O   UNL     1      24.596 -10.783  13.431  1.00  0.00    -0.347 OA
BRANCH   8   9
ATOM      9  C   UNL     1      24.448  -9.379  13.560  1.00  0.00     0.281 C 
ATOM     10  C   UNL     1      21.645 -10.331  13.243  1.00  0.00     0.041 C 
ATOM     11  C   UNL     1      22.194  -8.892  13.015  1.00  0.00     0.150 C 
ATOM     12  C   UNL     1      22.024  -7.951  14.208  1.00  0.00     0.174 C 
ATOM     13  O   UNL     1      23.539  -8.876  12.577  1.00  0.00    -0.344 OA
ATOM     14  C   UNL     1      22.746  -8.511  15.433  1.00  0.00     0.179 C 
ATOM     15  C   UNL     1      24.201  -8.912  15.067  1.00  0.00     0.202 C 
BRANCH  12  16
ATOM     16  O   UNL     1      20.659  -7.723  14.473  1.00  0.00    -0.388 OA
ATOM     17  H   UNL     1      20.161  -8.495  14.089  1.00  0.00     0.211 HD
ENDBRANCH  12  16
BRANCH  14  18
ATOM     18  O   UNL     1      22.005  -9.611  15.946  1.00  0.00    -0.387 OA
ATOM     19  H   UNL     1      22.632 -10.222  16.393  1.00  0.00     0.211 HD
ENDBRANCH  14  18
BRANCH  15  20
ATOM     20  O   UNL     1      24.674  -9.850  16.013  1.00  0.00    -0.385 OA
ATOM     21  H   UNL     1      25.627  -9.632  16.171  1.00  0.00     0.211 HD
ENDBRANCH  15  20
ENDBRANCH   8   9
ENDBRANCH   7   8
ENDBRANCH   1   7
BRANCH   2  22
ATOM     22  O   UNL     1      26.598  -9.686  10.087  1.00  0.00    -0.387 OA
ATOM     23  H   UNL     1      26.296 -10.495   9.575  1.00  0.00     0.211 HD
ENDBRANCH   2  22
BRANCH   3  24
ATOM     24  O   UNL     1      28.238  -7.867  11.534  1.00  0.00    -0.387 OA
ATOM     25  H   UNL     1      27.340  -7.795  11.109  1.00  0.00     0.211 HD
ENDBRANCH   3  24
BRANCH   5  26
ATOM     26  O   UNL     1      29.451 -10.402  14.807  1.00  0.00    -0.462 OA
BRANCH  26  27
ATOM     27  C   UNL     1      29.159 -10.258  16.177  1.00  0.00     0.130 A 
ATOM     28  C   UNL     1      30.235 -10.124  17.070  1.00  0.00     0.093 A 
ATOM     29  C   UNL     1      27.848 -10.325  16.690  1.00  0.00     0.094 A 
ATOM     30  C   UNL     1      30.020 -10.142  18.463  1.00  0.00     0.133 A 
ATOM     31  C   UNL     1      27.624 -10.370  18.063  1.00  0.00     0.138 A 
ATOM     32  C   UNL     1      28.716 -10.306  18.954  1.00  0.00     0.102 A 
ATOM     33  O   UNL     1      26.315 -10.478  18.557  1.00  0.00    -0.484 OA
ATOM     34  C   UNL     1      28.427 -10.453  20.385  1.00  0.00     0.174 C 
ATOM     35  C   UNL     1      26.015 -10.765  19.942  1.00  0.00     0.211 C 
ATOM     36  O   UNL     1      29.275 -10.965  21.180  1.00  0.00    -0.294 OA
ATOM     37  C   UNL     1      27.048 -10.104  20.868  1.00  0.00     0.131 C 
BRANCH  30  38
ATOM     38  O   UNL     1      31.108 -10.009  19.327  1.00  0.00    -0.507 OA
ATOM     39  H   UNL     1      31.857 -10.680  19.323  1.00  0.00     0.293 HD
ENDBRANCH  30  38
BRANCH  35  40
ATOM     40  C   UNL     1      24.572 -10.403  20.203  1.00  0.00    -0.003 A 
ATOM     41  C   UNL     1      23.782  -9.606  19.337  1.00  0.00     0.057 A 
ATOM     42  C   UNL     1      23.998 -10.850  21.393  1.00  0.00     0.011 A 
ATOM     43  C   UNL     1      22.437  -9.353  19.623  1.00  0.00     0.158 A 
ATOM     44  C   UNL     1      22.659 -10.602  21.691  1.00  0.00     0.051 A 
ATOM     45  C   UNL     1      21.857  -9.869  20.801  1.00  0.00     0.160 A 
BRANCH  43  46
ATOM     46  O   UNL     1      21.677  -8.589  18.735  1.00  0.00    -0.504 OA
ATOM     47  H   UNL     1      22.094  -7.996  18.035  1.00  0.00     0.293 HD
ENDBRANCH  43  46
BRANCH  45  48
ATOM     48  O   UNL     1      20.502  -9.612  21.070  1.00  0.00    -0.493 OA
ATOM     49  C   UNL     1      19.544 -10.642  21.371  1.00  0.00     0.278 C 
ENDBRANCH  45  48
ENDBRANCH  35  40
ENDBRANCH  26  27
ENDBRANCH   5  26
BRANCH   4  50
ATOM     50  O   UNL     1      30.308 -10.776  12.129  1.00  0.00    -0.384 OA
ATOM     51  H   UNL     1      29.622 -11.392  11.735  1.00  0.00     0.211 HD
ENDBRANCH   4  50
TORSDOF 15
ENDMDL
MODEL 5
REMARK VINA RESULT:    -1.786      3.577      6.926
REMARK INTER + INTRA:          -5.574
REMARK INTER:                  -2.977
REMARK INTRA:                  -2.597
REMARK UNBOUND:                -2.640
REMARK SMILES COc1ccc([C@@H]2CC(=O)c3c(O)cc(O[C@@H]4O[C@H](CO[C@H]5O[C@@H](C)[C@@H](O)[C@@H](O)[C@H]5O)[C@@H](O)[C@@H](O)[C@@H]4O)cc3O2)cc1O
REMARK SMILES IDX 19 1 32 2 34 3 36 4 17 5 18 6 20 7 21 8 22 9 25 10 24 11
REMARK SMILES IDX 26 12 23 13 28 14 30 15 27 16 29 18 31 20 33 22 35 24 16 26
REMARK SMILES IDX 15 27 14 28 38 29 12 30 39 31 11 32 40 33 9 34 7 35 10 36
REMARK SMILES IDX 8 37 13 38 6 40 41 41 5 42 42 43 4 44 3 45 43 46 2 48 1 49
REMARK SMILES IDX 37 50
REMARK H PARENT 27 17 29 19 31 21 33 23 35 25 13 39 43 47 37 51
REMARK Flexibility Score: inf
ROOT
ATOM      1  C   UNL     1      21.434 -10.133  19.353  1.00  0.00     0.180 C 
ATOM      2  C   UNL     1      20.022  -9.940  18.739  1.00  0.00     0.177 C 
ATOM      3  C   UNL     1      20.142  -8.972  17.515  1.00  0.00     0.180 C 
ATOM      4  C   UNL     1      21.235  -9.462  16.551  1.00  0.00     0.214 C 
ATOM      5  C   UNL     1      22.544  -9.786  17.350  1.00  0.00     0.339 C 
ATOM      6  O   UNL     1      22.263 -10.731  18.359  1.00  0.00    -0.332 OA
ENDROOT
BRANCH   1   7
ATOM      7  C   UNL     1      21.410 -11.016  20.606  1.00  0.00     0.198 C 
BRANCH   7   8
ATOM      8  O   UNL     1      22.722 -11.108  21.146  1.00  0.00    -0.347 OA
BRANCH   8   9
ATOM      9  C   UNL     1      23.236  -9.835  21.499  1.00  0.00     0.281 C 
ATOM     10  C   UNL     1      22.743 -11.124  24.138  1.00  0.00     0.041 C 
ATOM     11  C   UNL     1      22.905  -9.606  23.834  1.00  0.00     0.150 C 
ATOM     12  C   UNL     1      24.316  -9.060  24.062  1.00  0.00     0.174 C 
ATOM     13  O   UNL     1      22.454  -9.248  22.542  1.00  0.00    -0.344 OA
ATOM     14  C   UNL     1      25.320  -9.797  23.177  1.00  0.00     0.179 C 
ATOM     15  C   UNL     1      24.820  -9.836  21.707  1.00  0.00     0.202 C 
BRANCH  12  16
ATOM     16  O   UNL     1      24.669  -9.143  25.423  1.00  0.00    -0.388 OA
ATOM     17  H   UNL     1      23.942  -8.696  25.935  1.00  0.00     0.211 HD
ENDBRANCH  12  16
BRANCH  14  18
ATOM     18  O   UNL     1      25.530 -11.102  23.701  1.00  0.00    -0.387 OA
ATOM     19  H   UNL     1      26.267 -11.519  23.202  1.00  0.00     0.211 HD
ENDBRANCH  14  18
BRANCH  15  20
ATOM     20  O   UNL     1      25.458 -10.899  21.029  1.00  0.00    -0.385 OA
ATOM     21  H   UNL     1      25.611 -11.608  21.704  1.00  0.00     0.211 HD
ENDBRANCH  15  20
ENDBRANCH   8   9
ENDBRANCH   7   8
ENDBRANCH   1   7
BRANCH   2  22
ATOM     22  O   UNL     1      19.105  -9.465  19.697  1.00  0.00    -0.387 OA
ATOM     23  H   UNL     1      18.786  -8.566  19.385  1.00  0.00     0.211 HD
ENDBRANCH   2  22
BRANCH   3  24
ATOM     24  O   UNL     1      20.493  -7.685  17.966  1.00  0.00    -0.387 OA
ATOM     25  H   UNL     1      20.410  -7.080  17.180  1.00  0.00     0.211 HD
ENDBRANCH   3  24
BRANCH   5  26
ATOM     26  O   UNL     1      23.544 -10.338  16.462  1.00  0.00    -0.462 OA
BRANCH  26  27
ATOM     27  C   UNL     1      24.937 -10.178  16.593  1.00  0.00     0.130 A 
ATOM     28  C   UNL     1      25.694  -9.997  15.423  1.00  0.00     0.093 A 
ATOM     29  C   UNL     1      25.604 -10.274  17.831  1.00  0.00     0.094 A 
ATOM     30  C   UNL     1      27.102  -9.997  15.470  1.00  0.00     0.133 A 
ATOM     31  C   UNL     1      26.994 -10.302  17.888  1.00  0.00     0.138 A 
ATOM     32  C   UNL     1      27.747 -10.190  16.701  1.00  0.00     0.102 A 
ATOM     33  O   UNL     1      27.642 -10.438  19.126  1.00  0.00    -0.484 OA
ATOM     34  C   UNL     1      29.204 -10.319  16.813  1.00  0.00     0.174 C 
ATOM     35  C   UNL     1      29.057 -10.709  19.250  1.00  0.00     0.211 C 
ATOM     36  O   UNL     1      29.900 -10.793  15.861  1.00  0.00    -0.294 OA
ATOM     37  C   UNL     1      29.844 -10.003  18.135  1.00  0.00     0.131 C 
BRANCH  30  38
ATOM     38  O   UNL     1      27.828  -9.817  14.292  1.00  0.00    -0.507 OA
ATOM     39  H   UNL     1      27.367  -9.785  13.399  1.00  0.00     0.293 HD
ENDBRANCH  30  38
BRANCH  35  40
ATOM     40  C   UNL     1      29.483 -10.385  20.662  1.00  0.00    -0.003 A 
ATOM     41  C   UNL     1      28.764 -10.776  21.820  1.00  0.00     0.057 A 
ATOM     42  C   UNL     1      30.636  -9.617  20.831  1.00  0.00     0.011 A 
ATOM     43  C   UNL     1      29.248 -10.479  23.098  1.00  0.00     0.158 A 
ATOM     44  C   UNL     1      31.125  -9.313  22.099  1.00  0.00     0.051 A 
ATOM     45  C   UNL     1      30.449  -9.757  23.247  1.00  0.00     0.160 A 
BRANCH  43  46
ATOM     46  O   UNL     1      28.532 -10.904  24.219  1.00  0.00    -0.504 OA
ATOM     47  H   UNL     1      27.561 -11.171  24.174  1.00  0.00     0.293 HD
ENDBRANCH  43  46
BRANCH  45  48
ATOM     48  O   UNL     1      30.926  -9.474  24.539  1.00  0.00    -0.493 OA
ATOM     49  C   UNL     1      30.820  -8.180  25.159  1.00  0.00     0.278 C 
ENDBRANCH  45  48
ENDBRANCH  35  40
ENDBRANCH  26  27
ENDBRANCH   5  26
BRANCH   4  50
ATOM     50  O   UNL     1      20.792 -10.585  15.821  1.00  0.00    -0.384 OA
ATOM     51  H   UNL     1      20.475 -10.190  14.956  1.00  0.00     0.211 HD
ENDBRANCH   4  50
TORSDOF 15
ENDMDL
MODEL 6
REMARK VINA RESULT:    -1.786      2.306      5.228
REMARK INTER + INTRA:          -5.573
REMARK INTER:                  -2.872
REMARK INTRA:                  -2.702
REMARK UNBOUND:                -2.640
REMARK SMILES COc1ccc([C@@H]2CC(=O)c3c(O)cc(O[C@@H]4O[C@H](CO[C@H]5O[C@@H](C)[C@@H](O)[C@@H](O)[C@H]5O)[C@@H](O)[C@@H](O)[C@@H]4O)cc3O2)cc1O
REMARK SMILES IDX 19 1 32 2 34 3 36 4 17 5 18 6 20 7 21 8 22 9 25 10 24 11
REMARK SMILES IDX 26 12 23 13 28 14 30 15 27 16 29 18 31 20 33 22 35 24 16 26
REMARK SMILES IDX 15 27 14 28 38 29 12 30 39 31 11 32 40 33 9 34 7 35 10 36
REMARK SMILES IDX 8 37 13 38 6 40 41 41 5 42 42 43 4 44 3 45 43 46 2 48 1 49
REMARK SMILES IDX 37 50
REMARK H PARENT 27 17 29 19 31 21 33 23 35 25 13 39 43 47 37 51
REMARK Flexibility Score: inf
ROOT
ATOM      1  C   UNL     1      23.428  -6.915  16.066  1.00  0.00     0.180 C 
ATOM      2  C   UNL     1      22.133  -7.177  16.878  1.00  0.00     0.177 C 
ATOM      3  C   UNL     1      21.451  -8.471  16.320  1.00  0.00     0.180 C 
ATOM      4  C   UNL     1      22.461  -9.628  16.270  1.00  0.00     0.214 C 
ATOM      5  C   UNL     1      23.784  -9.151  15.578  1.00  0.00     0.339 C 
ATOM      6  O   UNL     1      24.297  -8.028  16.261  1.00  0.00    -0.332 OA
ENDROOT
BRANCH   1   7
ATOM      7  C   UNL     1      24.136  -5.625  16.495  1.00  0.00     0.198 C 
BRANCH   7   8
ATOM      8  O   UNL     1      25.028  -5.907  17.566  1.00  0.00    -0.347 OA
BRANCH   8   9
ATOM      9  C   UNL     1      26.096  -4.976  17.620  1.00  0.00     0.281 C 
ATOM     10  C   UNL     1      26.038  -6.103  20.375  1.00  0.00     0.041 C 
ATOM     11  C   UNL     1      26.686  -4.768  19.905  1.00  0.00     0.150 C 
ATOM     12  C   UNL     1      28.185  -4.859  19.610  1.00  0.00     0.174 C 
ATOM     13  O   UNL     1      26.014  -4.183  18.806  1.00  0.00    -0.344 OA
ATOM     14  C   UNL     1      28.447  -5.889  18.512  1.00  0.00     0.179 C 
ATOM     15  C   UNL     1      27.515  -5.635  17.296  1.00  0.00     0.202 C 
BRANCH  12  16
ATOM     16  O   UNL     1      28.907  -5.158  20.782  1.00  0.00    -0.388 OA
ATOM     17  H   UNL     1      29.022  -6.146  20.801  1.00  0.00     0.211 HD
ENDBRANCH  12  16
BRANCH  14  18
ATOM     18  O   UNL     1      28.276  -7.194  19.050  1.00  0.00    -0.387 OA
ATOM     19  H   UNL     1      27.889  -7.108  19.950  1.00  0.00     0.211 HD
ENDBRANCH  14  18
BRANCH  15  20
ATOM     20  O   UNL     1      27.404  -6.825  16.542  1.00  0.00    -0.385 OA
ATOM     21  H   UNL     1      28.196  -6.854  15.947  1.00  0.00     0.211 HD
ENDBRANCH  15  20
ENDBRANCH   8   9
ENDBRANCH   7   8
ENDBRANCH   1   7
BRANCH   2  22
ATOM     22  O   UNL     1      21.267  -6.067  16.838  1.00  0.00    -0.387 OA
ATOM     23  H   UNL     1      20.392  -6.384  16.462  1.00  0.00     0.211 HD
ENDBRANCH   2  22
BRANCH   3  24
ATOM     24  O   UNL     1      20.986  -8.230  15.012  1.00  0.00    -0.387 OA
ATOM     25  H   UNL     1      20.759  -7.262  14.968  1.00  0.00     0.211 HD
ENDBRANCH   3  24
BRANCH   5  26
ATOM     26  O   UNL     1      24.772 -10.208  15.615  1.00  0.00    -0.462 OA
BRANCH  26  27
ATOM     27  C   UNL     1      26.108 -10.069  16.037  1.00  0.00     0.130 A 
ATOM     28  C   UNL     1      27.107  -9.996  15.051  1.00  0.00     0.093 A 
ATOM     29  C   UNL     1      26.487 -10.082  17.394  1.00  0.00     0.094 A 
ATOM     30  C   UNL     1      28.470 -10.022  15.406  1.00  0.00     0.133 A 
ATOM     31  C   UNL     1      27.829 -10.134  17.756  1.00  0.00     0.138 A 
ATOM     32  C   UNL     1      28.826 -10.132  16.758  1.00  0.00     0.102 A 
ATOM     33  O   UNL     1      28.188 -10.188  19.112  1.00  0.00    -0.484 OA
ATOM     34  C   UNL     1      30.218 -10.284  17.196  1.00  0.00     0.174 C 
ATOM     35  C   UNL     1      29.531 -10.478  19.562  1.00  0.00     0.211 C 
ATOM     36  O   UNL     1      31.084 -10.845  16.456  1.00  0.00    -0.294 OA
ATOM     37  C   UNL     1      30.567  -9.878  18.599  1.00  0.00     0.131 C 
BRANCH  30  38
ATOM     38  O   UNL     1      29.441  -9.951  14.405  1.00  0.00    -0.507 OA
ATOM     39  H   UNL     1      30.247 -10.552  14.421  1.00  0.00     0.293 HD
ENDBRANCH  30  38
BRANCH  35  40
ATOM     40  C   UNL     1      29.652 -10.054  21.007  1.00  0.00    -0.003 A 
ATOM     41  C   UNL     1      28.560  -9.972  21.907  1.00  0.00     0.057 A 
ATOM     42  C   UNL     1      30.915  -9.679  21.467  1.00  0.00     0.011 A 
ATOM     43  C   UNL     1      28.759  -9.616  23.245  1.00  0.00     0.158 A 
ATOM     44  C   UNL     1      31.124  -9.320  22.797  1.00  0.00     0.051 A 
ATOM     45  C   UNL     1      30.054  -9.304  23.707  1.00  0.00     0.160 A 
BRANCH  43  46
ATOM     46  O   UNL     1      27.668  -9.575  24.114  1.00  0.00    -0.504 OA
ATOM     47  H   UNL     1      27.053  -8.778  24.176  1.00  0.00     0.293 HD
ENDBRANCH  43  46
BRANCH  45  48
ATOM     48  O   UNL     1      30.238  -8.956  25.056  1.00  0.00    -0.493 OA
ATOM     49  C   UNL     1      31.055  -7.853  25.487  1.00  0.00     0.278 C 
ENDBRANCH  45  48
ENDBRANCH  35  40
ENDBRANCH  26  27
ENDBRANCH   5  26
BRANCH   4  50
ATOM     50  O   UNL     1      22.712 -10.129  17.564  1.00  0.00    -0.384 OA
ATOM     51  H   UNL     1      21.803 -10.156  17.984  1.00  0.00     0.211 HD
ENDBRANCH   4  50
TORSDOF 15
ENDMDL
MODEL 7
REMARK VINA RESULT:    -1.699      3.237      7.058
REMARK INTER + INTRA:          -5.431
REMARK INTER:                  -2.394
REMARK INTRA:                  -3.036
REMARK UNBOUND:                -2.640
REMARK SMILES COc1ccc([C@@H]2CC(=O)c3c(O)cc(O[C@@H]4O[C@H](CO[C@H]5O[C@@H](C)[C@@H](O)[C@@H](O)[C@H]5O)[C@@H](O)[C@@H](O)[C@@H]4O)cc3O2)cc1O
REMARK SMILES IDX 19 1 32 2 34 3 36 4 17 5 18 6 20 7 21 8 22 9 25 10 24 11
REMARK SMILES IDX 26 12 23 13 28 14 30 15 27 16 29 18 31 20 33 22 35 24 16 26
REMARK SMILES IDX 15 27 14 28 38 29 12 30 39 31 11 32 40 33 9 34 7 35 10 36
REMARK SMILES IDX 8 37 13 38 6 40 41 41 5 42 42 43 4 44 3 45 43 46 2 48 1 49
REMARK SMILES IDX 37 50
REMARK H PARENT 27 17 29 19 31 21 33 23 35 25 13 39 43 47 37 51
REMARK Flexibility Score: inf
ROOT
ATOM      1  C   UNL     1      21.587  -7.438  20.862  1.00  0.00     0.180 C 
ATOM      2  C   UNL     1      21.359  -6.228  19.919  1.00  0.00     0.177 C 
ATOM      3  C   UNL     1      21.677  -4.916  20.711  1.00  0.00     0.180 C 
ATOM      4  C   UNL     1      23.065  -5.009  21.365  1.00  0.00     0.214 C 
ATOM      5  C   UNL     1      23.203  -6.370  22.132  1.00  0.00     0.339 C 
ATOM      6  O   UNL     1      22.960  -7.440  21.245  1.00  0.00    -0.332 OA
ENDROOT
BRANCH   1   7
ATOM      7  C   UNL     1      21.234  -8.773  20.195  1.00  0.00     0.198 C 
BRANCH   7   8
ATOM      8  O   UNL     1      21.761  -8.796  18.874  1.00  0.00    -0.347 OA
BRANCH   8   9
ATOM      9  C   UNL     1      22.925  -9.602  18.786  1.00  0.00     0.281 C 
ATOM     10  C   UNL     1      21.754  -9.801  16.056  1.00  0.00     0.041 C 
ATOM     11  C   UNL     1      22.781 -10.760  16.725  1.00  0.00     0.150 C 
ATOM     12  C   UNL     1      24.242 -10.475  16.370  1.00  0.00     0.174 C 
ATOM     13  O   UNL     1      22.634 -10.837  18.129  1.00  0.00    -0.344 OA
ATOM     14  C   UNL     1      24.623  -9.057  16.792  1.00  0.00     0.179 C 
ATOM     15  C   UNL     1      24.203  -8.798  18.265  1.00  0.00     0.202 C 
BRANCH  12  16
ATOM     16  O   UNL     1      24.471 -10.684  14.996  1.00  0.00    -0.388 OA
ATOM     17  H   UNL     1      24.511 -11.669  14.860  1.00  0.00     0.211 HD
ENDBRANCH  12  16
BRANCH  14  18
ATOM     18  O   UNL     1      24.020  -8.129  15.897  1.00  0.00    -0.387 OA
ATOM     19  H   UNL     1      24.044  -8.514  14.993  1.00  0.00     0.211 HD
ENDBRANCH  14  18
BRANCH  15  20
ATOM     20  O   UNL     1      24.095  -7.405  18.477  1.00  0.00    -0.385 OA
ATOM     21  H   UNL     1      25.005  -7.086  18.706  1.00  0.00     0.211 HD
ENDBRANCH  15  20
ENDBRANCH   8   9
ENDBRANCH   7   8
ENDBRANCH   1   7
BRANCH   2  22
ATOM     22  O   UNL     1      20.051  -6.222  19.396  1.00  0.00    -0.387 OA
ATOM     23  H   UNL     1      20.122  -6.415  18.413  1.00  0.00     0.211 HD
ENDBRANCH   2  22
BRANCH   3  24
ATOM     24  O   UNL     1      20.719  -4.736  21.728  1.00  0.00    -0.387 OA
ATOM     25  H   UNL     1      21.224  -4.688  22.585  1.00  0.00     0.211 HD
ENDBRANCH   3  24
BRANCH   5  26
ATOM     26  O   UNL     1      24.540  -6.504  22.668  1.00  0.00    -0.462 OA
BRANCH  26  27
ATOM     27  C   UNL     1      25.408  -7.591  22.446  1.00  0.00     0.130 A 
ATOM     28  C   UNL     1      25.660  -8.463  23.518  1.00  0.00     0.093 A 
ATOM     29  C   UNL     1      26.089  -7.789  21.228  1.00  0.00     0.094 A 
ATOM     30  C   UNL     1      26.642  -9.469  23.411  1.00  0.00     0.133 A 
ATOM     31  C   UNL     1      27.079  -8.761  21.118  1.00  0.00     0.138 A 
ATOM     32  C   UNL     1      27.376  -9.587  22.222  1.00  0.00     0.102 A 
ATOM     33  O   UNL     1      27.776  -8.917  19.910  1.00  0.00    -0.484 OA
ATOM     34  C   UNL     1      28.492 -10.529  22.077  1.00  0.00     0.174 C 
ATOM     35  C   UNL     1      28.964  -9.732  19.785  1.00  0.00     0.211 C 
ATOM     36  O   UNL     1      29.194 -10.879  23.076  1.00  0.00    -0.294 OA
ATOM     37  C   UNL     1      28.871 -10.969  20.692  1.00  0.00     0.131 C 
BRANCH  30  38
ATOM     38  O   UNL     1      26.873 -10.319  24.493  1.00  0.00    -0.507 OA
ATOM     39  H   UNL     1      26.481 -11.244  24.518  1.00  0.00     0.293 HD
ENDBRANCH  30  38
BRANCH  35  40
ATOM     40  C   UNL     1      29.202 -10.008  18.319  1.00  0.00    -0.003 A 
ATOM     41  C   UNL     1      28.194  -9.944  17.324  1.00  0.00     0.057 A 
ATOM     42  C   UNL     1      30.486 -10.391  17.932  1.00  0.00     0.011 A 
ATOM     43  C   UNL     1      28.501 -10.166  15.978  1.00  0.00     0.158 A 
ATOM     44  C   UNL     1      30.803 -10.618  16.594  1.00  0.00     0.051 A 
ATOM     45  C   UNL     1      29.821 -10.489  15.599  1.00  0.00     0.160 A 
BRANCH  43  46
ATOM     46  O   UNL     1      27.493 -10.065  15.017  1.00  0.00    -0.504 OA
ATOM     47  H   UNL     1      26.606 -10.536  15.109  1.00  0.00     0.293 HD
ENDBRANCH  43  46
BRANCH  45  48
ATOM     48  O   UNL     1      30.114 -10.701  14.241  1.00  0.00    -0.493 OA
ATOM     49  C   UNL     1      30.614  -9.674  13.366  1.00  0.00     0.278 C 
ENDBRANCH  45  48
ENDBRANCH  35  40
ENDBRANCH  26  27
ENDBRANCH   5  26
BRANCH   4  50
ATOM     50  O   UNL     1      24.084  -4.861  20.401  1.00  0.00    -0.384 OA
ATOM     51  H   UNL     1      24.473  -3.962  20.609  1.00  0.00     0.211 HD
ENDBRANCH   4  50
TORSDOF 15
ENDMDL
MODEL 8
REMARK VINA RESULT:    -1.691      3.653      8.541
REMARK INTER + INTRA:          -5.418
REMARK INTER:                  -2.699
REMARK INTRA:                  -2.719
REMARK UNBOUND:                -2.640
REMARK SMILES COc1ccc([C@@H]2CC(=O)c3c(O)cc(O[C@@H]4O[C@H](CO[C@H]5O[C@@H](C)[C@@H](O)[C@@H](O)[C@H]5O)[C@@H](O)[C@@H](O)[C@@H]4O)cc3O2)cc1O
REMARK SMILES IDX 19 1 32 2 34 3 36 4 17 5 18 6 20 7 21 8 22 9 25 10 24 11
REMARK SMILES IDX 26 12 23 13 28 14 30 15 27 16 29 18 31 20 33 22 35 24 16 26
REMARK SMILES IDX 15 27 14 28 38 29 12 30 39 31 11 32 40 33 9 34 7 35 10 36
REMARK SMILES IDX 8 37 13 38 6 40 41 41 5 42 42 43 4 44 3 45 43 46 2 48 1 49
REMARK SMILES IDX 37 50
REMARK H PARENT 27 17 29 19 31 21 33 23 35 25 13 39 43 47 37 51
REMARK Flexibility Score: inf
ROOT
ATOM      1  C   UNL     1      29.269  -9.615  18.785  1.00  0.00     0.180 C 
ATOM      2  C   UNL     1      29.148 -10.037  20.273  1.00  0.00     0.177 C 
ATOM      3  C   UNL     1      28.548  -8.837  21.080  1.00  0.00     0.180 C 
ATOM      4  C   UNL     1      27.256  -8.338  20.414  1.00  0.00     0.214 C 
ATOM      5  C   UNL     1      27.494  -8.130  18.878  1.00  0.00     0.339 C 
ATOM      6  O   UNL     1      27.957  -9.333  18.303  1.00  0.00    -0.332 OA
ENDROOT
BRANCH   1   7
ATOM      7  C   UNL     1      29.913 -10.705  17.920  1.00  0.00     0.198 C 
BRANCH   7   8
ATOM      8  O   UNL     1      29.619 -10.459  16.550  1.00  0.00    -0.347 OA
BRANCH   8   9
ATOM      9  C   UNL     1      30.768 -10.040  15.833  1.00  0.00     0.281 C 
ATOM     10  C   UNL     1      28.932 -10.980  13.686  1.00  0.00     0.041 C 
ATOM     11  C   UNL     1      30.475 -10.791  13.605  1.00  0.00     0.150 C 
ATOM     12  C   UNL     1      30.922  -9.454  13.010  1.00  0.00     0.174 C 
ATOM     13  O   UNL     1      31.124 -11.007  14.843  1.00  0.00    -0.344 OA
ATOM     14  C   UNL     1      30.378  -8.295  13.843  1.00  0.00     0.179 C 
ATOM     15  C   UNL     1      30.682  -8.520  15.349  1.00  0.00     0.202 C 
BRANCH  12  16
ATOM     16  O   UNL     1      30.526  -9.352  11.662  1.00  0.00    -0.388 OA
ATOM     17  H   UNL     1      30.517 -10.277  11.296  1.00  0.00     0.211 HD
ENDBRANCH  12  16
BRANCH  14  18
ATOM     18  O   UNL     1      28.983  -8.161  13.597  1.00  0.00    -0.387 OA
ATOM     19  H   UNL     1      28.858  -7.941  12.647  1.00  0.00     0.211 HD
ENDBRANCH  14  18
BRANCH  15  20
ATOM     20  O   UNL     1      29.782  -7.751  16.122  1.00  0.00    -0.385 OA
ATOM     21  H   UNL     1      30.337  -7.187  16.719  1.00  0.00     0.211 HD
ENDBRANCH  15  20
ENDBRANCH   8   9
ENDBRANCH   7   8
ENDBRANCH   1   7
BRANCH   2  22
ATOM     22  O   UNL     1      30.389 -10.452  20.793  1.00  0.00    -0.387 OA
ATOM     23  H   UNL     1      30.201 -11.001  21.612  1.00  0.00     0.211 HD
ENDBRANCH   2  22
BRANCH   3  24
ATOM     24  O   UNL     1      29.473  -7.777  21.104  1.00  0.00    -0.387 OA
ATOM     25  H   UNL     1      29.342  -7.309  21.973  1.00  0.00     0.211 HD
ENDBRANCH   3  24
BRANCH   5  26
ATOM     26  O   UNL     1      26.256  -7.752  18.230  1.00  0.00    -0.462 OA
BRANCH  26  27
ATOM     27  C   UNL     1      26.147  -7.008  17.040  1.00  0.00     0.130 A 
ATOM     28  C   UNL     1      25.866  -5.635  17.144  1.00  0.00     0.093 A 
ATOM     29  C   UNL     1      26.226  -7.594  15.762  1.00  0.00     0.094 A 
ATOM     30  C   UNL     1      25.582  -4.870  15.996  1.00  0.00     0.133 A 
ATOM     31  C   UNL     1      25.922  -6.857  14.622  1.00  0.00     0.138 A 
ATOM     32  C   UNL     1      25.572  -5.495  14.740  1.00  0.00     0.102 A 
ATOM     33  O   UNL     1      25.967  -7.467  13.359  1.00  0.00    -0.484 OA
ATOM     34  C   UNL     1      25.171  -4.794  13.515  1.00  0.00     0.174 C 
ATOM     35  C   UNL     1      25.444  -6.845  12.163  1.00  0.00     0.211 C 
ATOM     36  O   UNL     1      24.339  -3.835  13.546  1.00  0.00    -0.294 OA
ATOM     37  C   UNL     1      25.667  -5.326  12.201  1.00  0.00     0.131 C 
BRANCH  30  38
ATOM     38  O   UNL     1      25.303  -3.509  16.129  1.00  0.00    -0.507 OA
ATOM     39  H   UNL     1      25.324  -3.062  17.029  1.00  0.00     0.293 HD
ENDBRANCH  30  38
BRANCH  35  40
ATOM     40  C   UNL     1      26.015  -7.564  10.962  1.00  0.00    -0.003 A 
ATOM     41  C   UNL     1      27.390  -7.572  10.619  1.00  0.00     0.057 A 
ATOM     42  C   UNL     1      25.121  -8.224  10.119  1.00  0.00     0.011 A 
ATOM     43  C   UNL     1      27.850  -8.300   9.518  1.00  0.00     0.158 A 
ATOM     44  C   UNL     1      25.568  -8.951   9.016  1.00  0.00     0.051 A 
ATOM     45  C   UNL     1      26.938  -9.015   8.714  1.00  0.00     0.160 A 
BRANCH  43  46
ATOM     46  O   UNL     1      29.214  -8.313   9.224  1.00  0.00    -0.504 OA
ATOM     47  H   UNL     1      29.574  -8.106   8.305  1.00  0.00     0.293 HD
ENDBRANCH  43  46
BRANCH  45  48
ATOM     48  O   UNL     1      27.417  -9.748   7.615  1.00  0.00    -0.493 OA
ATOM     49  C   UNL     1      27.856 -11.116   7.704  1.00  0.00     0.278 C 
ENDBRANCH  45  48
ENDBRANCH  35  40
ENDBRANCH  26  27
ENDBRANCH   5  26
BRANCH   4  50
ATOM     50  O   UNL     1      26.192  -9.234  20.649  1.00  0.00    -0.384 OA
ATOM     51  H   UNL     1      25.885  -8.993  21.572  1.00  0.00     0.211 HD
ENDBRANCH   4  50
TORSDOF 15
ENDMDL
MODEL 9
REMARK VINA RESULT:    -0.964      2.970      4.200
REMARK INTER + INTRA:          -4.224
REMARK INTER:                  -1.170
REMARK INTRA:                  -3.054
REMARK UNBOUND:                -2.640
REMARK SMILES COc1ccc([C@@H]2CC(=O)c3c(O)cc(O[C@@H]4O[C@H](CO[C@H]5O[C@@H](C)[C@@H](O)[C@@H](O)[C@H]5O)[C@@H](O)[C@@H](O)[C@@H]4O)cc3O2)cc1O
REMARK SMILES IDX 19 1 32 2 34 3 36 4 17 5 18 6 20 7 21 8 22 9 25 10 24 11
REMARK SMILES IDX 26 12 23 13 28 14 30 15 27 16 29 18 31 20 33 22 35 24 16 26
REMARK SMILES IDX 15 27 14 28 38 29 12 30 39 31 11 32 40 33 9 34 7 35 10 36
REMARK SMILES IDX 8 37 13 38 6 40 41 41 5 42 42 43 4 44 3 45 43 46 2 48 1 49
REMARK SMILES IDX 37 50
REMARK H PARENT 27 17 29 19 31 21 33 23 35 25 13 39 43 47 37 51
REMARK Flexibility Score: inf
ROOT
ATOM      1  C   UNL     1      25.802  -7.845  11.890  1.00  0.00     0.180 C 
ATOM      2  C   UNL     1      24.985  -7.035  10.850  1.00  0.00     0.177 C 
ATOM      3  C   UNL     1      23.557  -7.668  10.740  1.00  0.00     0.180 C 
ATOM      4  C   UNL     1      22.925  -7.807  12.134  1.00  0.00     0.214 C 
ATOM      5  C   UNL     1      23.943  -8.482  13.116  1.00  0.00     0.339 C 
ATOM      6  O   UNL     1      25.140  -7.734  13.147  1.00  0.00    -0.332 OA
ENDROOT
BRANCH   1   7
ATOM      7  C   UNL     1      27.244  -7.341  12.019  1.00  0.00     0.198 C 
BRANCH   7   8
ATOM      8  O   UNL     1      27.758  -7.697  13.297  1.00  0.00    -0.347 OA
BRANCH   8   9
ATOM      9  C   UNL     1      28.719  -8.736  13.207  1.00  0.00     0.281 C 
ATOM     10  C   UNL     1      29.447  -7.354  15.742  1.00  0.00     0.041 C 
ATOM     11  C   UNL     1      30.339  -8.292  14.878  1.00  0.00     0.150 C 
ATOM     12  C   UNL     1      30.371  -9.748  15.348  1.00  0.00     0.174 C 
ATOM     13  O   UNL     1      30.027  -8.238  13.499  1.00  0.00    -0.344 OA
ATOM     14  C   UNL     1      28.963 -10.341  15.334  1.00  0.00     0.179 C 
ATOM     15  C   UNL     1      28.272 -10.066  13.970  1.00  0.00     0.202 C 
BRANCH  12  16
ATOM     16  O   UNL     1      30.961  -9.848  16.623  1.00  0.00    -0.388 OA
ATOM     17  H   UNL     1      31.861 -10.251  16.490  1.00  0.00     0.211 HD
ENDBRANCH  12  16
BRANCH  14  18
ATOM     18  O   UNL     1      28.222  -9.802  16.422  1.00  0.00    -0.387 OA
ATOM     19  H   UNL     1      27.646  -9.084  16.076  1.00  0.00     0.211 HD
ENDBRANCH  14  18
BRANCH  15  20
ATOM     20  O   UNL     1      26.872 -10.158  14.134  1.00  0.00    -0.385 OA
ATOM     21  H   UNL     1      26.720 -10.713  14.940  1.00  0.00     0.211 HD
ENDBRANCH  15  20
ENDBRANCH   8   9
ENDBRANCH   7   8
ENDBRANCH   1   7
BRANCH   2  22
ATOM     22  O   UNL     1      25.638  -6.991   9.603  1.00  0.00    -0.387 OA
ATOM     23  H   UNL     1      26.189  -7.827   9.524  1.00  0.00     0.211 HD
ENDBRANCH   2  22
BRANCH   3  24
ATOM     24  O   UNL     1      23.655  -8.951  10.167  1.00  0.00    -0.387 OA
ATOM     25  H   UNL     1      23.164  -9.569  10.775  1.00  0.00     0.211 HD
ENDBRANCH   3  24
BRANCH   5  26
ATOM     26  O   UNL     1      23.389  -8.528  14.452  1.00  0.00    -0.462 OA
BRANCH  26  27
ATOM     27  C   UNL     1      23.856  -7.795  15.560  1.00  0.00     0.130 A 
ATOM     28  C   UNL     1      23.214  -6.583  15.867  1.00  0.00     0.093 A 
ATOM     29  C   UNL     1      24.980  -8.184  16.315  1.00  0.00     0.094 A 
ATOM     30  C   UNL     1      23.734  -5.725  16.856  1.00  0.00     0.133 A 
ATOM     31  C   UNL     1      25.518  -7.334  17.276  1.00  0.00     0.138 A 
ATOM     32  C   UNL     1      24.910  -6.087  17.530  1.00  0.00     0.102 A 
ATOM     33  O   UNL     1      26.663  -7.720  17.991  1.00  0.00    -0.484 OA
ATOM     34  C   UNL     1      25.575  -5.195  18.486  1.00  0.00     0.174 C 
ATOM     35  C   UNL     1      27.414  -6.811  18.828  1.00  0.00     0.211 C 
ATOM     36  O   UNL     1      25.488  -3.932  18.381  1.00  0.00    -0.294 OA
ATOM     37  C   UNL     1      26.476  -5.810  19.519  1.00  0.00     0.131 C 
BRANCH  30  38
ATOM     38  O   UNL     1      23.078  -4.526  17.138  1.00  0.00    -0.507 OA
ATOM     39  H   UNL     1      22.936  -4.224  18.086  1.00  0.00     0.293 HD
ENDBRANCH  30  38
BRANCH  35  40
ATOM     40  C   UNL     1      28.297  -7.625  19.745  1.00  0.00    -0.003 A 
ATOM     41  C   UNL     1      29.308  -8.511  19.295  1.00  0.00     0.057 A 
ATOM     42  C   UNL     1      28.071  -7.525  21.117  1.00  0.00     0.011 A 
ATOM     43  C   UNL     1      30.118  -9.196  20.206  1.00  0.00     0.158 A 
ATOM     44  C   UNL     1      28.870  -8.205  22.035  1.00  0.00     0.051 A 
ATOM     45  C   UNL     1      29.916  -9.032  21.592  1.00  0.00     0.160 A 
BRANCH  43  46
ATOM     46  O   UNL     1      31.125 -10.039  19.733  1.00  0.00    -0.504 OA
ATOM     47  H   UNL     1      32.052  -9.708  19.516  1.00  0.00     0.293 HD
ENDBRANCH  43  46
BRANCH  45  48
ATOM     48  O   UNL     1      30.744  -9.720  22.495  1.00  0.00    -0.493 OA
ATOM     49  C   UNL     1      30.278 -10.778  23.352  1.00  0.00     0.278 C 
ENDBRANCH  45  48
ENDBRANCH  35  40
ENDBRANCH  26  27
ENDBRANCH   5  26
BRANCH   4  50
ATOM     50  O   UNL     1      22.504  -6.552  12.619  1.00  0.00    -0.384 OA
ATOM     51  H   UNL     1      21.506  -6.589  12.525  1.00  0.00     0.211 HD
ENDBRANCH   4  50
TORSDOF 15
ENDMDL
