MODEL 1
REMARK VINA RESULT:    -4.211      0.000      0.000
REMARK INTER + INTRA:          -6.791
REMARK INTER:                  -6.427
REMARK INTRA:                  -0.364
REMARK UNBOUND:                -0.364
REMARK SMILES CC1=CCC[C@@H](C)C(=O)C[C@H](C(C)C)C(=O)C1
REMARK SMILES IDX 8 1 9 2 6 3 7 4 5 5 4 6 3 7 2 8 1 9 10 11 11 12 15 13 16 14
REMARK SMILES IDX 17 15 12 17 13 18 14 19
REMARK H PARENT
REMARK Flexibility Score: 70.00
ROOT
ATOM      1  C   UNL     1     213.164 151.494 183.121  1.00  0.00     0.136 C 
ATOM      2  O   UNL     1     213.251 150.328 183.487  1.00  0.00    -0.299 OA
ENDROOT
BRANCH   1   3
ATOM      3  C   UNL     1     212.010 152.359 183.597  1.00  0.00     0.053 C 
ATOM      4  C   UNL     1     210.830 152.357 182.611  1.00  0.00     0.016 C 
BRANCH   3   5
ATOM      5  C   UNL     1     212.477 153.793 183.919  1.00  0.00     0.015 C 
BRANCH   5   6
ATOM      6  C   UNL     1     211.838 154.872 183.022  1.00  0.00     0.028 C 
BRANCH   6   7
ATOM      7  C   UNL     1     212.885 155.811 182.483  1.00  0.00    -0.028 C 
ATOM      8  C   UNL     1     213.466 155.698 181.264  1.00  0.00    -0.070 CG0
ATOM      9  C   UNL     1     214.543 156.689 180.900  1.00  0.00     0.039 C 
ATOM     10  G   UNL     1     213.068 154.635 180.251  1.00  0.00     0.000 G0
ENDBRANCH   6   7
ENDBRANCH   5   6
ENDBRANCH   3   5
ENDBRANCH   1   3
BRANCH   1  11
ATOM     11  C   UNL     1     214.216 152.047 182.192  1.00  0.00     0.087 C 
BRANCH  11  12
ATOM     12  C   UNL     1     213.712 152.142 180.727  1.00  0.00     0.066 C 
BRANCH  12  13
ATOM     13  C   UNL     1     214.039 153.498 180.119  1.00  0.00     0.140 C 
ATOM     14  O   UNL     1     215.074 153.647 179.486  1.00  0.00    -0.299 OA
BRANCH  13  15
ATOM     15  C   UNL     1     213.059 154.643 180.211  1.00  0.00     0.106 CG0
ATOM     16  G   UNL     1     213.462 155.669 181.260  1.00  0.00     0.000 G0
ENDBRANCH  13  15
ENDBRANCH  12  13
BRANCH  12  17
ATOM     17  C   UNL     1     214.232 150.984 179.815  1.00  0.00    -0.006 C 
ATOM     18  C   UNL     1     213.132 149.948 179.535  1.00  0.00     0.008 C 
ATOM     19  C   UNL     1     215.489 150.277 180.354  1.00  0.00     0.008 C 
ENDBRANCH  12  17
ENDBRANCH  11  12
ENDBRANCH   1  11
TORSDOF 1
ENDMDL
MODEL 2
REMARK VINA RESULT:    -4.183      1.964      4.231
REMARK INTER + INTRA:          -6.748
REMARK INTER:                  -6.712
REMARK INTRA:                  -0.036
REMARK UNBOUND:                -0.364
REMARK SMILES CC1=CCC[C@@H](C)C(=O)C[C@H](C(C)C)C(=O)C1
REMARK SMILES IDX 8 1 9 2 6 3 7 4 5 5 4 6 3 7 2 8 1 9 10 11 11 12 15 13 16 14
REMARK SMILES IDX 17 15 12 17 13 18 14 19
REMARK H PARENT
REMARK Flexibility Score: 70.00
ROOT
ATOM      1  C   UNL     1     212.674 154.015 182.922  1.00  0.00     0.136 C 
ATOM      2  O   UNL     1     213.150 154.974 183.515  1.00  0.00    -0.299 OA
ENDROOT
BRANCH   1   3
ATOM      3  C   UNL     1     212.053 152.868 183.700  1.00  0.00     0.053 C 
ATOM      4  C   UNL     1     212.988 152.325 184.793  1.00  0.00     0.016 C 
BRANCH   3   5
ATOM      5  C   UNL     1     211.568 151.746 182.760  1.00  0.00     0.015 C 
BRANCH   5   6
ATOM      6  C   UNL     1     212.564 150.578 182.621  1.00  0.00     0.028 C 
BRANCH   6   7
ATOM      7  C   UNL     1     212.739 150.191 181.174  1.00  0.00    -0.028 C 
ATOM      8  C   UNL     1     213.693 150.693 180.354  1.00  0.00    -0.070 CG0
ATOM      9  C   UNL     1     213.693 150.244 178.915  1.00  0.00     0.039 C 
ATOM     10  G   UNL     1     214.763 151.668 180.823  1.00  0.00     0.000 G0
ENDBRANCH   6   7
ENDBRANCH   5   6
ENDBRANCH   3   5
ENDBRANCH   1   3
BRANCH   1  11
ATOM     11  C   UNL     1     212.721 153.991 181.415  1.00  0.00     0.087 C 
BRANCH  11  12
ATOM     12  C   UNL     1     214.153 154.240 180.869  1.00  0.00     0.066 C 
BRANCH  12  13
ATOM     13  C   UNL     1     214.682 153.017 180.134  1.00  0.00     0.140 C 
ATOM     14  O   UNL     1     215.109 153.130 178.995  1.00  0.00    -0.299 OA
BRANCH  13  15
ATOM     15  C   UNL     1     214.769 151.676 180.825  1.00  0.00     0.106 CG0
ATOM     16  G   UNL     1     213.697 150.708 180.349  1.00  0.00     0.000 G0
ENDBRANCH  13  15
ENDBRANCH  12  13
BRANCH  12  17
ATOM     17  C   UNL     1     214.266 155.516 179.975  1.00  0.00    -0.006 C 
ATOM     18  C   UNL     1     214.677 156.748 180.799  1.00  0.00     0.008 C 
ATOM     19  C   UNL     1     212.994 155.830 179.167  1.00  0.00     0.008 C 
ENDBRANCH  12  17
ENDBRANCH  11  12
ENDBRANCH   1  11
TORSDOF 1
ENDMDL
MODEL 3
REMARK VINA RESULT:    -4.020      1.836      2.460
REMARK INTER + INTRA:          -6.499
REMARK INTER:                  -6.346
REMARK INTRA:                  -0.153
REMARK UNBOUND:                -0.364
REMARK SMILES CC1=CCC[C@@H](C)C(=O)C[C@H](C(C)C)C(=O)C1
REMARK SMILES IDX 8 1 9 2 6 3 7 4 5 5 4 6 3 7 2 8 1 9 10 11 11 12 15 13 16 14
REMARK SMILES IDX 17 15 12 17 13 18 14 19
REMARK H PARENT
REMARK Flexibility Score: 70.00
ROOT
ATOM      1  C   UNL     1     215.498 151.001 182.674  1.00  0.00     0.136 C 
ATOM      2  O   UNL     1     216.455 150.270 182.453  1.00  0.00    -0.299 OA
ENDROOT
BRANCH   1   3
ATOM      3  C   UNL     1     214.643 150.786 183.910  1.00  0.00     0.053 C 
ATOM      4  C   UNL     1     213.300 150.111 183.586  1.00  0.00     0.016 C 
BRANCH   3   5
ATOM      5  C   UNL     1     214.443 152.100 184.692  1.00  0.00     0.015 C 
BRANCH   5   6
ATOM      6  C   UNL     1     212.964 152.502 184.865  1.00  0.00     0.028 C 
BRANCH   6   7
ATOM      7  C   UNL     1     212.734 153.916 184.397  1.00  0.00    -0.028 C 
ATOM      8  C   UNL     1     212.301 154.256 183.160  1.00  0.00    -0.070 CG0
ATOM      9  C   UNL     1     212.179 155.723 182.833  1.00  0.00     0.039 C 
ATOM     10  G   UNL     1     211.918 153.230 182.103  1.00  0.00     0.000 G0
ENDBRANCH   6   7
ENDBRANCH   5   6
ENDBRANCH   3   5
ENDBRANCH   1   3
BRANCH   1  11
ATOM     11  C   UNL     1     215.184 152.107 181.698  1.00  0.00     0.087 C 
BRANCH  11  12
ATOM     12  C   UNL     1     213.858 151.855 180.932  1.00  0.00     0.066 C 
BRANCH  12  13
ATOM     13  C   UNL     1     212.944 153.069 180.999  1.00  0.00     0.140 C 
ATOM     14  O   UNL     1     212.987 153.912 180.115  1.00  0.00    -0.299 OA
BRANCH  13  15
ATOM     15  C   UNL     1     211.918 153.205 182.099  1.00  0.00     0.106 CG0
ATOM     16  G   UNL     1     212.312 154.249 183.133  1.00  0.00     0.000 G0
ENDBRANCH  13  15
ENDBRANCH  12  13
BRANCH  12  17
ATOM     17  C   UNL     1     214.072 151.401 179.451  1.00  0.00    -0.006 C 
ATOM     18  C   UNL     1     213.789 149.901 179.274  1.00  0.00     0.008 C 
ATOM     19  C   UNL     1     215.464 151.740 178.886  1.00  0.00     0.008 C 
ENDBRANCH  12  17
ENDBRANCH  11  12
ENDBRANCH   1  11
TORSDOF 1
ENDMDL
MODEL 4
REMARK VINA RESULT:    -3.947      1.918      4.443
REMARK INTER + INTRA:          -6.388
REMARK INTER:                  -6.294
REMARK INTRA:                  -0.094
REMARK UNBOUND:                -0.364
REMARK SMILES CC1=CCC[C@@H](C)C(=O)C[C@H](C(C)C)C(=O)C1
REMARK SMILES IDX 8 1 9 2 6 3 7 4 5 5 4 6 3 7 2 8 1 9 10 11 11 12 15 13 16 14
REMARK SMILES IDX 17 15 12 17 13 18 14 19
REMARK H PARENT
REMARK Flexibility Score: 70.00
ROOT
ATOM      1  C   UNL     1     213.358 151.849 184.739  1.00  0.00     0.136 C 
ATOM      2  O   UNL     1     213.620 152.270 185.859  1.00  0.00    -0.299 OA
ENDROOT
BRANCH   1   3
ATOM      3  C   UNL     1     213.893 150.502 184.285  1.00  0.00     0.053 C 
ATOM      4  C   UNL     1     215.428 150.437 184.320  1.00  0.00     0.016 C 
BRANCH   3   5
ATOM      5  C   UNL     1     213.340 150.115 182.899  1.00  0.00     0.015 C 
BRANCH   5   6
ATOM      6  C   UNL     1     214.333 150.355 181.745  1.00  0.00     0.028 C 
BRANCH   6   7
ATOM      7  C   UNL     1     213.667 151.087 180.607  1.00  0.00    -0.028 C 
ATOM      8  C   UNL     1     213.651 152.434 180.464  1.00  0.00    -0.070 CG0
ATOM      9  C   UNL     1     212.888 153.010 179.298  1.00  0.00     0.039 C 
ATOM     10  G   UNL     1     214.379 153.378 181.409  1.00  0.00     0.000 G0
ENDBRANCH   6   7
ENDBRANCH   5   6
ENDBRANCH   3   5
ENDBRANCH   1   3
BRANCH   1  11
ATOM     11  C   UNL     1     212.505 152.692 183.824  1.00  0.00     0.087 C 
BRANCH  11  12
ATOM     12  C   UNL     1     213.107 154.104 183.598  1.00  0.00     0.066 C 
BRANCH  12  13
ATOM     13  C   UNL     1     213.447 154.328 182.131  1.00  0.00     0.140 C 
ATOM     14  O   UNL     1     213.019 155.316 181.552  1.00  0.00    -0.299 OA
BRANCH  13  15
ATOM     15  C   UNL     1     214.381 153.392 181.402  1.00  0.00     0.106 CG0
ATOM     16  G   UNL     1     213.644 152.461 180.452  1.00  0.00     0.000 G0
ENDBRANCH  13  15
ENDBRANCH  12  13
BRANCH  12  17
ATOM     17  C   UNL     1     212.205 155.259 184.141  1.00  0.00    -0.006 C 
ATOM     18  C   UNL     1     213.017 156.266 184.972  1.00  0.00     0.008 C 
ATOM     19  C   UNL     1     210.988 154.777 184.951  1.00  0.00     0.008 C 
ENDBRANCH  12  17
ENDBRANCH  11  12
ENDBRANCH   1  11
TORSDOF 1
ENDMDL
MODEL 5
REMARK VINA RESULT:    -3.944      1.973      4.816
REMARK INTER + INTRA:          -6.382
REMARK INTER:                  -6.280
REMARK INTRA:                  -0.102
REMARK UNBOUND:                -0.364
REMARK SMILES CC1=CCC[C@@H](C)C(=O)C[C@H](C(C)C)C(=O)C1
REMARK SMILES IDX 8 1 9 2 6 3 7 4 5 5 4 6 3 7 2 8 1 9 10 11 11 12 15 13 16 14
REMARK SMILES IDX 17 15 12 17 13 18 14 19
REMARK H PARENT
REMARK Flexibility Score: 70.00
ROOT
ATOM      1  C   UNL     1     213.426 155.364 181.755  1.00  0.00     0.136 C 
ATOM      2  O   UNL     1     212.748 156.034 182.522  1.00  0.00    -0.299 OA
ENDROOT
BRANCH   1   3
ATOM      3  C   UNL     1     213.602 155.800 180.311  1.00  0.00     0.053 C 
ATOM      4  C   UNL     1     213.051 157.211 180.052  1.00  0.00     0.016 C 
BRANCH   3   5
ATOM      5  C   UNL     1     213.002 154.769 179.333  1.00  0.00     0.015 C 
BRANCH   5   6
ATOM      6  C   UNL     1     214.023 153.740 178.810  1.00  0.00     0.028 C 
BRANCH   6   7
ATOM      7  C   UNL     1     213.399 152.374 178.696  1.00  0.00    -0.028 C 
ATOM      8  C   UNL     1     213.565 151.374 179.595  1.00  0.00    -0.070 CG0
ATOM      9  C   UNL     1     212.917 150.045 179.301  1.00  0.00     0.039 C 
ATOM     10  G   UNL     1     214.354 151.542 180.885  1.00  0.00     0.000 G0
ENDBRANCH   6   7
ENDBRANCH   5   6
ENDBRANCH   3   5
ENDBRANCH   1   3
BRANCH   1  11
ATOM     11  C   UNL     1     214.075 154.102 182.267  1.00  0.00     0.087 C 
BRANCH  11  12
ATOM     12  C   UNL     1     213.032 153.012 182.630  1.00  0.00     0.066 C 
BRANCH  12  13
ATOM     13  C   UNL     1     213.462 151.645 182.117  1.00  0.00     0.140 C 
ATOM     14  O   UNL     1     213.024 150.633 182.642  1.00  0.00    -0.299 OA
BRANCH  13  15
ATOM     15  C   UNL     1     214.358 151.520 180.908  1.00  0.00     0.106 CG0
ATOM     16  G   UNL     1     213.571 151.370 179.614  1.00  0.00     0.000 G0
ENDBRANCH  13  15
ENDBRANCH  12  13
BRANCH  12  17
ATOM     17  C   UNL     1     212.700 152.952 184.156  1.00  0.00    -0.006 C 
ATOM     18  C   UNL     1     211.394 153.697 184.478  1.00  0.00     0.008 C 
ATOM     19  C   UNL     1     213.831 153.466 185.065  1.00  0.00     0.008 C 
ENDBRANCH  12  17
ENDBRANCH  11  12
ENDBRANCH   1  11
TORSDOF 1
ENDMDL
MODEL 6
REMARK VINA RESULT:    -3.885      2.536      5.322
REMARK INTER + INTRA:          -6.293
REMARK INTER:                  -6.018
REMARK INTRA:                  -0.275
REMARK UNBOUND:                -0.364
REMARK SMILES CC1=CCC[C@@H](C)C(=O)C[C@H](C(C)C)C(=O)C1
REMARK SMILES IDX 8 1 9 2 6 3 7 4 5 5 4 6 3 7 2 8 1 9 10 11 11 12 15 13 16 14
REMARK SMILES IDX 17 15 12 17 13 18 14 19
REMARK H PARENT
REMARK Flexibility Score: 70.00
ROOT
ATOM      1  C   UNL     1     213.623 153.565 180.908  1.00  0.00     0.136 C 
ATOM      2  O   UNL     1     212.816 154.282 180.332  1.00  0.00    -0.299 OA
ENDROOT
BRANCH   1   3
ATOM      3  C   UNL     1     214.103 152.279 180.258  1.00  0.00     0.053 C 
ATOM      4  C   UNL     1     214.710 152.516 178.866  1.00  0.00     0.016 C 
BRANCH   3   5
ATOM      5  C   UNL     1     212.986 151.217 180.217  1.00  0.00     0.015 C 
BRANCH   5   6
ATOM      6  C   UNL     1     212.973 150.281 181.441  1.00  0.00     0.028 C 
BRANCH   6   7
ATOM      7  C   UNL     1     214.364 150.096 181.991  1.00  0.00    -0.028 C 
ATOM      8  C   UNL     1     214.758 150.474 183.231  1.00  0.00    -0.070 CG0
ATOM      9  C   UNL     1     216.204 150.271 183.604  1.00  0.00     0.039 C 
ATOM     10  G   UNL     1     213.808 151.072 184.257  1.00  0.00     0.000 G0
ENDBRANCH   6   7
ENDBRANCH   5   6
ENDBRANCH   3   5
ENDBRANCH   1   3
BRANCH   1  11
ATOM     11  C   UNL     1     214.125 153.978 182.270  1.00  0.00     0.087 C 
BRANCH  11  12
ATOM     12  C   UNL     1     213.192 153.491 183.410  1.00  0.00     0.066 C 
BRANCH  12  13
ATOM     13  C   UNL     1     213.933 152.576 184.375  1.00  0.00     0.140 C 
ATOM     14  O   UNL     1     214.590 153.059 185.286  1.00  0.00    -0.299 OA
BRANCH  13  15
ATOM     15  C   UNL     1     213.798 151.076 184.277  1.00  0.00     0.106 CG0
ATOM     16  G   UNL     1     214.745 150.474 183.250  1.00  0.00     0.000 G0
ENDBRANCH  13  15
ENDBRANCH  12  13
BRANCH  12  17
ATOM     17  C   UNL     1     212.488 154.655 184.179  1.00  0.00    -0.006 C 
ATOM     18  C   UNL     1     211.105 154.231 184.702  1.00  0.00     0.008 C 
ATOM     19  C   UNL     1     212.361 155.957 183.366  1.00  0.00     0.008 C 
ENDBRANCH  12  17
ENDBRANCH  11  12
ENDBRANCH   1  11
TORSDOF 1
ENDMDL
MODEL 7
REMARK VINA RESULT:    -3.770      2.163      4.547
REMARK INTER + INTRA:          -6.117
REMARK INTER:                  -5.910
REMARK INTRA:                  -0.208
REMARK UNBOUND:                -0.364
REMARK SMILES CC1=CCC[C@@H](C)C(=O)C[C@H](C(C)C)C(=O)C1
REMARK SMILES IDX 8 1 9 2 6 3 7 4 5 5 4 6 3 7 2 8 1 9 10 11 11 12 15 13 16 14
REMARK SMILES IDX 17 15 12 17 13 18 14 19
REMARK H PARENT
REMARK Flexibility Score: 70.00
ROOT
ATOM      1  C   UNL     1     211.707 154.945 184.021  1.00  0.00     0.136 C 
ATOM      2  O   UNL     1     211.492 155.686 184.972  1.00  0.00    -0.299 OA
ENDROOT
BRANCH   1   3
ATOM      3  C   UNL     1     211.755 153.440 184.220  1.00  0.00     0.053 C 
ATOM      4  C   UNL     1     213.148 152.949 184.646  1.00  0.00     0.016 C 
BRANCH   3   5
ATOM      5  C   UNL     1     211.246 152.690 182.973  1.00  0.00     0.015 C 
BRANCH   5   6
ATOM      6  C   UNL     1     212.338 151.881 182.245  1.00  0.00     0.028 C 
BRANCH   6   7
ATOM      7  C   UNL     1     212.480 152.336 180.815  1.00  0.00    -0.028 C 
ATOM      8  C   UNL     1     213.326 153.307 180.397  1.00  0.00    -0.070 CG0
ATOM      9  C   UNL     1     213.302 153.684 178.938  1.00  0.00     0.039 C 
ATOM     10  G   UNL     1     214.302 154.013 181.326  1.00  0.00     0.000 G0
ENDBRANCH   6   7
ENDBRANCH   5   6
ENDBRANCH   3   5
ENDBRANCH   1   3
BRANCH   1  11
ATOM     11  C   UNL     1     211.926 155.553 182.658  1.00  0.00     0.087 C 
BRANCH  11  12
ATOM     12  C   UNL     1     213.345 156.164 182.510  1.00  0.00     0.066 C 
BRANCH  12  13
ATOM     13  C   UNL     1     214.106 155.518 181.361  1.00  0.00     0.140 C 
ATOM     14  O   UNL     1     214.614 156.219 180.499  1.00  0.00    -0.299 OA
BRANCH  13  15
ATOM     15  C   UNL     1     214.319 154.024 181.317  1.00  0.00     0.106 CG0
ATOM     16  G   UNL     1     213.325 153.323 180.403  1.00  0.00     0.000 G0
ENDBRANCH  13  15
ENDBRANCH  12  13
BRANCH  12  17
ATOM     17  C   UNL     1     213.341 157.720 182.368  1.00  0.00    -0.006 C 
ATOM     18  C   UNL     1     213.611 158.411 183.715  1.00  0.00     0.008 C 
ATOM     19  C   UNL     1     212.057 158.289 181.738  1.00  0.00     0.008 C 
ENDBRANCH  12  17
ENDBRANCH  11  12
ENDBRANCH   1  11
TORSDOF 1
ENDMDL
MODEL 8
REMARK VINA RESULT:    -3.737      1.859      3.772
REMARK INTER + INTRA:          -6.067
REMARK INTER:                  -5.771
REMARK INTRA:                  -0.296
REMARK UNBOUND:                -0.364
REMARK SMILES CC1=CCC[C@@H](C)C(=O)C[C@H](C(C)C)C(=O)C1
REMARK SMILES IDX 8 1 9 2 6 3 7 4 5 5 4 6 3 7 2 8 1 9 10 11 11 12 15 13 16 14
REMARK SMILES IDX 17 15 12 17 13 18 14 19
REMARK H PARENT
REMARK Flexibility Score: 70.00
ROOT
ATOM      1  C   UNL     1     212.944 151.504 180.970  1.00  0.00     0.136 C 
ATOM      2  O   UNL     1     213.091 150.518 181.681  1.00  0.00    -0.299 OA
ENDROOT
BRANCH   1   3
ATOM      3  C   UNL     1     213.362 151.461 179.510  1.00  0.00     0.053 C 
ATOM      4  C   UNL     1     214.889 151.416 179.337  1.00  0.00     0.016 C 
BRANCH   3   5
ATOM      5  C   UNL     1     212.735 152.622 178.711  1.00  0.00     0.015 C 
BRANCH   5   6
ATOM      6  C   UNL     1     213.729 153.750 178.370  1.00  0.00     0.028 C 
BRANCH   6   7
ATOM      7  C   UNL     1     213.045 155.093 178.395  1.00  0.00    -0.028 C 
ATOM      8  C   UNL     1     213.124 155.978 179.417  1.00  0.00    -0.070 CG0
ATOM      9  C   UNL     1     212.329 157.254 179.309  1.00  0.00     0.039 C 
ATOM     10  G   UNL     1     213.988 155.748 180.648  1.00  0.00     0.000 G0
ENDBRANCH   6   7
ENDBRANCH   5   6
ENDBRANCH   3   5
ENDBRANCH   1   3
BRANCH   1  11
ATOM     11  C   UNL     1     212.350 152.754 181.569  1.00  0.00     0.087 C 
BRANCH  11  12
ATOM     12  C   UNL     1     213.431 153.678 182.190  1.00  0.00     0.066 C 
BRANCH  12  13
ATOM     13  C   UNL     1     213.207 155.130 181.797  1.00  0.00     0.140 C 
ATOM     14  O   UNL     1     212.446 155.827 182.452  1.00  0.00    -0.299 OA
BRANCH  13  15
ATOM     15  C   UNL     1     213.979 155.751 180.657  1.00  0.00     0.106 CG0
ATOM     16  G   UNL     1     213.113 155.985 179.428  1.00  0.00     0.000 G0
ENDBRANCH  13  15
ENDBRANCH  12  13
BRANCH  12  17
ATOM     17  C   UNL     1     213.554 153.535 183.742  1.00  0.00    -0.006 C 
ATOM     18  C   UNL     1     214.871 152.851 184.144  1.00  0.00     0.008 C 
ATOM     19  C   UNL     1     212.366 152.810 184.401  1.00  0.00     0.008 C 
ENDBRANCH  12  17
ENDBRANCH  11  12
ENDBRANCH   1  11
TORSDOF 1
ENDMDL
MODEL 9
REMARK VINA RESULT:    -3.704      1.826      4.242
REMARK INTER + INTRA:          -6.017
REMARK INTER:                  -5.985
REMARK INTRA:                  -0.031
REMARK UNBOUND:                -0.364
REMARK SMILES CC1=CCC[C@@H](C)C(=O)C[C@H](C(C)C)C(=O)C1
REMARK SMILES IDX 8 1 9 2 6 3 7 4 5 5 4 6 3 7 2 8 1 9 10 11 11 12 15 13 16 14
REMARK SMILES IDX 17 15 12 17 13 18 14 19
REMARK H PARENT
REMARK Flexibility Score: 70.00
ROOT
ATOM      1  C   UNL     1     213.536 153.122 183.318  1.00  0.00     0.136 C 
ATOM      2  O   UNL     1     214.586 153.668 183.630  1.00  0.00    -0.299 OA
ENDROOT
BRANCH   1   3
ATOM      3  C   UNL     1     213.148 151.796 183.947  1.00  0.00     0.053 C 
ATOM      4  C   UNL     1     213.397 151.770 185.464  1.00  0.00     0.016 C 
BRANCH   3   5
ATOM      5  C   UNL     1     213.837 150.612 183.239  1.00  0.00     0.015 C 
BRANCH   5   6
ATOM      6  C   UNL     1     213.053 150.070 182.028  1.00  0.00     0.028 C 
BRANCH   6   7
ATOM      7  C   UNL     1     213.863 150.198 180.763  1.00  0.00    -0.028 C 
ATOM      8  C   UNL     1     213.626 151.107 179.786  1.00  0.00    -0.070 CG0
ATOM      9  C   UNL     1     214.495 151.062 178.555  1.00  0.00     0.039 C 
ATOM     10  G   UNL     1     212.543 152.170 179.887  1.00  0.00     0.000 G0
ENDBRANCH   6   7
ENDBRANCH   5   6
ENDBRANCH   3   5
ENDBRANCH   1   3
BRANCH   1  11
ATOM     11  C   UNL     1     212.643 153.786 182.299  1.00  0.00     0.087 C 
BRANCH  11  12
ATOM     12  C   UNL     1     213.443 154.336 181.088  1.00  0.00     0.066 C 
BRANCH  12  13
ATOM     13  C   UNL     1     213.100 153.580 179.813  1.00  0.00     0.140 C 
ATOM     14  O   UNL     1     213.341 154.082 178.725  1.00  0.00    -0.299 OA
BRANCH  13  15
ATOM     15  C   UNL     1     212.543 152.178 179.870  1.00  0.00     0.106 CG0
ATOM     16  G   UNL     1     213.631 151.117 179.792  1.00  0.00     0.000 G0
ENDBRANCH  13  15
ENDBRANCH  12  13
BRANCH  12  17
ATOM     17  C   UNL     1     213.279 155.876 180.882  1.00  0.00    -0.006 C 
ATOM     18  C   UNL     1     214.632 156.557 180.618  1.00  0.00     0.008 C 
ATOM     19  C   UNL     1     212.553 156.590 182.037  1.00  0.00     0.008 C 
ENDBRANCH  12  17
ENDBRANCH  11  12
ENDBRANCH   1  11
TORSDOF 1
ENDMDL
