MODEL 1
REMARK VINA RESULT:    -5.502      0.000      0.000
REMARK INTER + INTRA:          -6.256
REMARK INTER:                  -6.628
REMARK INTRA:                   0.373
REMARK UNBOUND:                 0.373
REMARK SMILES O=c1c(O)c(-c2ccc(O)c(O)c2)oc2cc(O)cc(O)c12
REMARK SMILES IDX 5 1 3 2 2 3 1 4 22 5 20 6 19 7 17 8 16 9 15 10 14 11 6 12
REMARK SMILES IDX 7 13 8 14 9 15 13 16 11 17 10 18 12 20 4 22 21 24 18 26
REMARK H PARENT 10 19 12 21 4 23 21 25 18 27
REMARK Flexibility Score: inf
ROOT
ATOM      1  C   UNL     1       3.990 -16.859   7.966  1.00  0.00     0.180 A 
ATOM      2  C   UNL     1       3.549 -17.787   7.007  1.00  0.00     0.208 A 
ATOM      3  C   UNL     1       3.323 -17.353   5.691  1.00  0.00     0.238 A 
ATOM      4  O   UNL     1       2.875 -18.176   4.851  1.00  0.00    -0.285 OA
ATOM      5  C   UNL     1       3.559 -16.000   5.346  1.00  0.00     0.111 A 
ATOM      6  C   UNL     1       3.402 -15.460   4.034  1.00  0.00     0.134 A 
ATOM      7  C   UNL     1       3.537 -14.081   3.835  1.00  0.00     0.093 A 
ATOM      8  C   UNL     1       3.886 -13.232   4.884  1.00  0.00     0.123 A 
ATOM      9  C   UNL     1       4.099 -13.758   6.159  1.00  0.00     0.094 A 
ATOM     10  C   UNL     1       3.937 -15.125   6.397  1.00  0.00     0.146 A 
ATOM     11  O   UNL     1       4.140 -15.584   7.626  1.00  0.00    -0.452 OA
ENDROOT
BRANCH   1  12
ATOM     12  C   UNL     1       4.274 -17.247   9.366  1.00  0.00     0.025 A 
ATOM     13  C   UNL     1       4.493 -18.589   9.724  1.00  0.00     0.016 A 
ATOM     14  C   UNL     1       4.783 -18.927  11.049  1.00  0.00     0.051 A 
ATOM     15  C   UNL     1       4.871 -17.931  12.030  1.00  0.00     0.157 A 
ATOM     16  C   UNL     1       4.384 -16.251  10.350  1.00  0.00     0.062 A 
ATOM     17  C   UNL     1       4.673 -16.590  11.680  1.00  0.00     0.158 A 
BRANCH  15  18
ATOM     18  O   UNL     1       5.157 -18.267  13.352  1.00  0.00    -0.504 OA
ATOM     19  H   UNL     1       5.237 -17.560  14.073  1.00  0.00     0.293 HD
ENDBRANCH  15  18
BRANCH  17  20
ATOM     20  O   UNL     1       4.768 -15.601  12.657  1.00  0.00    -0.504 OA
ATOM     21  H   UNL     1       5.640 -15.118  12.840  1.00  0.00     0.293 HD
ENDBRANCH  17  20
ENDBRANCH   1  12
BRANCH   2  22
ATOM     22  O   UNL     1       3.302 -19.113   7.375  1.00  0.00    -0.502 OA
ATOM     23  H   UNL     1       3.630 -19.899   6.827  1.00  0.00     0.293 HD
ENDBRANCH   2  22
BRANCH   6  24
ATOM     24  O   UNL     1       3.144 -16.233   2.898  1.00  0.00    -0.507 OA
ATOM     25  H   UNL     1       2.405 -16.054   2.235  1.00  0.00     0.293 HD
ENDBRANCH   6  24
BRANCH   8  26
ATOM     26  O   UNL     1       4.026 -11.866   4.647  1.00  0.00    -0.508 OA
ATOM     27  H   UNL     1       3.570 -11.415   3.862  1.00  0.00     0.293 HD
ENDBRANCH   8  26
TORSDOF 6
ENDMDL
MODEL 2
REMARK VINA RESULT:    -5.477      1.257      6.528
REMARK INTER + INTRA:          -6.225
REMARK INTER:                  -6.257
REMARK INTRA:                   0.032
REMARK UNBOUND:                 0.373
REMARK SMILES O=c1c(O)c(-c2ccc(O)c(O)c2)oc2cc(O)cc(O)c12
REMARK SMILES IDX 5 1 3 2 2 3 1 4 22 5 20 6 19 7 17 8 16 9 15 10 14 11 6 12
REMARK SMILES IDX 7 13 8 14 9 15 13 16 11 17 10 18 12 20 4 22 21 24 18 26
REMARK H PARENT 10 19 12 21 4 23 21 25 18 27
REMARK Flexibility Score: inf
ROOT
ATOM      1  C   UNL     1       4.186 -15.454   7.042  1.00  0.00     0.180 A 
ATOM      2  C   UNL     1       4.263 -16.747   6.495  1.00  0.00     0.208 A 
ATOM      3  C   UNL     1       4.406 -17.845   7.358  1.00  0.00     0.238 A 
ATOM      4  O   UNL     1       4.529 -18.994   6.860  1.00  0.00    -0.285 OA
ATOM      5  C   UNL     1       4.452 -17.638   8.758  1.00  0.00     0.111 A 
ATOM      6  C   UNL     1       4.553 -18.681   9.728  1.00  0.00     0.134 A 
ATOM      7  C   UNL     1       4.722 -18.353  11.078  1.00  0.00     0.093 A 
ATOM      8  C   UNL     1       4.728 -17.025  11.503  1.00  0.00     0.123 A 
ATOM      9  C   UNL     1       4.570 -16.000  10.570  1.00  0.00     0.094 A 
ATOM     10  C   UNL     1       4.435 -16.293   9.211  1.00  0.00     0.146 A 
ATOM     11  O   UNL     1       4.298 -15.288   8.354  1.00  0.00    -0.452 OA
ENDROOT
BRANCH   1  12
ATOM     12  C   UNL     1       4.011 -14.251   6.197  1.00  0.00     0.025 A 
ATOM     13  C   UNL     1       3.063 -14.217   5.159  1.00  0.00     0.016 A 
ATOM     14  C   UNL     1       2.898 -13.060   4.391  1.00  0.00     0.051 A 
ATOM     15  C   UNL     1       3.668 -11.920   4.658  1.00  0.00     0.157 A 
ATOM     16  C   UNL     1       4.764 -13.098   6.472  1.00  0.00     0.062 A 
ATOM     17  C   UNL     1       4.601 -11.938   5.701  1.00  0.00     0.158 A 
BRANCH  15  18
ATOM     18  O   UNL     1       3.507 -10.767   3.892  1.00  0.00    -0.504 OA
ATOM     19  H   UNL     1       3.098 -10.798   2.965  1.00  0.00     0.293 HD
ENDBRANCH  15  18
BRANCH  17  20
ATOM     20  O   UNL     1       5.360 -10.800   5.968  1.00  0.00    -0.504 OA
ATOM     21  H   UNL     1       6.222 -10.609   5.470  1.00  0.00     0.293 HD
ENDBRANCH  17  20
ENDBRANCH   1  12
BRANCH   2  22
ATOM     22  O   UNL     1       4.238 -16.926   5.109  1.00  0.00    -0.502 OA
ATOM     23  H   UNL     1       3.621 -17.592   4.658  1.00  0.00     0.293 HD
ENDBRANCH   2  22
BRANCH   6  24
ATOM     24  O   UNL     1       4.466 -20.043   9.422  1.00  0.00    -0.507 OA
ATOM     25  H   UNL     1       3.954 -20.723   9.963  1.00  0.00     0.293 HD
ENDBRANCH   6  24
BRANCH   8  26
ATOM     26  O   UNL     1       4.883 -16.736  12.856  1.00  0.00    -0.508 OA
ATOM     27  H   UNL     1       4.092 -16.724  13.490  1.00  0.00     0.293 HD
ENDBRANCH   8  26
TORSDOF 6
ENDMDL
MODEL 3
REMARK VINA RESULT:    -5.373      7.786     11.407
REMARK INTER + INTRA:          -6.099
REMARK INTER:                  -6.043
REMARK INTRA:                  -0.056
REMARK UNBOUND:                 0.373
REMARK SMILES O=c1c(O)c(-c2ccc(O)c(O)c2)oc2cc(O)cc(O)c12
REMARK SMILES IDX 5 1 3 2 2 3 1 4 22 5 20 6 19 7 17 8 16 9 15 10 14 11 6 12
REMARK SMILES IDX 7 13 8 14 9 15 13 16 11 17 10 18 12 20 4 22 21 24 18 26
REMARK H PARENT 10 19 12 21 4 23 21 25 18 27
REMARK Flexibility Score: inf
ROOT
ATOM      1  C   UNL     1       5.765  -6.612   5.926  1.00  0.00     0.180 A 
ATOM      2  C   UNL     1       5.156  -5.368   6.165  1.00  0.00     0.208 A 
ATOM      3  C   UNL     1       5.953  -4.212   6.181  1.00  0.00     0.238 A 
ATOM      4  O   UNL     1       5.411  -3.108   6.451  1.00  0.00    -0.285 OA
ATOM      5  C   UNL     1       7.344  -4.312   5.941  1.00  0.00     0.111 A 
ATOM      6  C   UNL     1       8.241  -3.202   5.893  1.00  0.00     0.134 A 
ATOM      7  C   UNL     1       9.617  -3.431   5.777  1.00  0.00     0.093 A 
ATOM      8  C   UNL     1      10.124  -4.722   5.642  1.00  0.00     0.123 A 
ATOM      9  C   UNL     1       9.252  -5.811   5.628  1.00  0.00     0.094 A 
ATOM     10  C   UNL     1       7.876  -5.618   5.777  1.00  0.00     0.146 A 
ATOM     11  O   UNL     1       7.081  -6.681   5.769  1.00  0.00    -0.452 OA
ENDROOT
BRANCH   1  12
ATOM     12  C   UNL     1       4.987  -7.871   5.870  1.00  0.00     0.025 A 
ATOM     13  C   UNL     1       3.862  -8.000   5.036  1.00  0.00     0.016 A 
ATOM     14  C   UNL     1       3.159  -9.207   4.981  1.00  0.00     0.051 A 
ATOM     15  C   UNL     1       3.576 -10.303   5.747  1.00  0.00     0.157 A 
ATOM     16  C   UNL     1       5.413  -8.980   6.619  1.00  0.00     0.062 A 
ATOM     17  C   UNL     1       4.706 -10.191   6.566  1.00  0.00     0.158 A 
BRANCH  15  18
ATOM     18  O   UNL     1       2.875 -11.506   5.696  1.00  0.00    -0.504 OA
ATOM     19  H   UNL     1       2.001 -11.633   6.193  1.00  0.00     0.293 HD
ENDBRANCH  15  18
BRANCH  17  20
ATOM     20  O   UNL     1       5.123 -11.285   7.321  1.00  0.00    -0.504 OA
ATOM     21  H   UNL     1       5.922 -11.846   7.047  1.00  0.00     0.293 HD
ENDBRANCH  17  20
ENDBRANCH   1  12
BRANCH   2  22
ATOM     22  O   UNL     1       3.785  -5.294   6.422  1.00  0.00    -0.502 OA
ATOM     23  H   UNL     1       3.113  -5.901   5.967  1.00  0.00     0.293 HD
ENDBRANCH   2  22
BRANCH   6  24
ATOM     24  O   UNL     1       7.830  -1.866   5.927  1.00  0.00    -0.507 OA
ATOM     25  H   UNL     1       7.943  -1.210   5.169  1.00  0.00     0.293 HD
ENDBRANCH   6  24
BRANCH   8  26
ATOM     26  O   UNL     1      11.498  -4.912   5.514  1.00  0.00    -0.508 OA
ATOM     27  H   UNL     1      12.081  -5.123   6.316  1.00  0.00     0.293 HD
ENDBRANCH   8  26
TORSDOF 6
ENDMDL
MODEL 4
REMARK VINA RESULT:    -5.310      1.129      1.366
REMARK INTER + INTRA:          -6.024
REMARK INTER:                  -6.379
REMARK INTRA:                   0.355
REMARK UNBOUND:                 0.373
REMARK SMILES O=c1c(O)c(-c2ccc(O)c(O)c2)oc2cc(O)cc(O)c12
REMARK SMILES IDX 5 1 3 2 2 3 1 4 22 5 20 6 19 7 17 8 16 9 15 10 14 11 6 12
REMARK SMILES IDX 7 13 8 14 9 15 13 16 11 17 10 18 12 20 4 22 21 24 18 26
REMARK H PARENT 10 19 12 21 4 23 21 25 18 27
REMARK Flexibility Score: inf
ROOT
ATOM      1  C   UNL     1       4.168 -15.915   7.743  1.00  0.00     0.180 A 
ATOM      2  C   UNL     1       3.712 -16.560   6.580  1.00  0.00     0.208 A 
ATOM      3  C   UNL     1       3.599 -15.823   5.391  1.00  0.00     0.238 A 
ATOM      4  O   UNL     1       3.138 -16.393   4.368  1.00  0.00    -0.285 OA
ATOM      5  C   UNL     1       3.961 -14.454   5.374  1.00  0.00     0.111 A 
ATOM      6  C   UNL     1       3.926 -13.621   4.215  1.00  0.00     0.134 A 
ATOM      7  C   UNL     1       4.180 -12.251   4.343  1.00  0.00     0.093 A 
ATOM      8  C   UNL     1       4.532 -11.694   5.572  1.00  0.00     0.123 A 
ATOM      9  C   UNL     1       4.627 -12.510   6.699  1.00  0.00     0.094 A 
ATOM     10  C   UNL     1       4.344 -13.875   6.612  1.00  0.00     0.146 A 
ATOM     11  O   UNL     1       4.437 -14.615   7.710  1.00  0.00    -0.452 OA
ENDROOT
BRANCH   1  12
ATOM     12  C   UNL     1       4.336 -16.631   9.027  1.00  0.00     0.025 A 
ATOM     13  C   UNL     1       4.451 -18.032   9.075  1.00  0.00     0.016 A 
ATOM     14  C   UNL     1       4.634 -18.684  10.298  1.00  0.00     0.051 A 
ATOM     15  C   UNL     1       4.717 -17.946  11.486  1.00  0.00     0.157 A 
ATOM     16  C   UNL     1       4.442 -15.896  10.220  1.00  0.00     0.062 A 
ATOM     17  C   UNL     1       4.623 -16.550  11.447  1.00  0.00     0.158 A 
BRANCH  15  18
ATOM     18  O   UNL     1       4.897 -18.594  12.707  1.00  0.00    -0.504 OA
ATOM     19  H   UNL     1       5.792 -18.988  12.972  1.00  0.00     0.293 HD
ENDBRANCH  15  18
BRANCH  17  20
ATOM     20  O   UNL     1       4.714 -15.819  12.630  1.00  0.00    -0.504 OA
ATOM     21  H   UNL     1       4.382 -14.863  12.689  1.00  0.00     0.293 HD
ENDBRANCH  17  20
ENDBRANCH   1  12
BRANCH   2  22
ATOM     22  O   UNL     1       3.340 -17.907   6.625  1.00  0.00    -0.502 OA
ATOM     23  H   UNL     1       3.904 -18.612   7.085  1.00  0.00     0.293 HD
ENDBRANCH   2  22
BRANCH   6  24
ATOM     24  O   UNL     1       3.675 -14.093   2.923  1.00  0.00    -0.507 OA
ATOM     25  H   UNL     1       3.829 -15.041   2.617  1.00  0.00     0.293 HD
ENDBRANCH   6  24
BRANCH   8  26
ATOM     26  O   UNL     1       4.793 -10.329   5.659  1.00  0.00    -0.508 OA
ATOM     27  H   UNL     1       4.299  -9.656   5.084  1.00  0.00     0.293 HD
ENDBRANCH   8  26
TORSDOF 6
ENDMDL
MODEL 5
REMARK VINA RESULT:    -5.292      2.544      6.660
REMARK INTER + INTRA:          -6.002
REMARK INTER:                  -5.736
REMARK INTRA:                  -0.266
REMARK UNBOUND:                 0.373
REMARK SMILES O=c1c(O)c(-c2ccc(O)c(O)c2)oc2cc(O)cc(O)c12
REMARK SMILES IDX 5 1 3 2 2 3 1 4 22 5 20 6 19 7 17 8 16 9 15 10 14 11 6 12
REMARK SMILES IDX 7 13 8 14 9 15 13 16 11 17 10 18 12 20 4 22 21 24 18 26
REMARK H PARENT 10 19 12 21 4 23 21 25 18 27
REMARK Flexibility Score: inf
ROOT
ATOM      1  C   UNL     1       4.026 -13.037   5.862  1.00  0.00     0.180 A 
ATOM      2  C   UNL     1       3.714 -13.648   4.635  1.00  0.00     0.208 A 
ATOM      3  C   UNL     1       3.678 -15.049   4.562  1.00  0.00     0.238 A 
ATOM      4  O   UNL     1       3.452 -15.591   3.449  1.00  0.00    -0.285 OA
ATOM      5  C   UNL     1       3.937 -15.822   5.720  1.00  0.00     0.111 A 
ATOM      6  C   UNL     1       3.888 -17.248   5.770  1.00  0.00     0.134 A 
ATOM      7  C   UNL     1       4.290 -17.911   6.935  1.00  0.00     0.093 A 
ATOM      8  C   UNL     1       4.676 -17.202   8.072  1.00  0.00     0.123 A 
ATOM      9  C   UNL     1       4.671 -15.807   8.053  1.00  0.00     0.094 A 
ATOM     10  C   UNL     1       4.309 -15.116   6.894  1.00  0.00     0.146 A 
ATOM     11  O   UNL     1       4.327 -13.789   6.914  1.00  0.00    -0.452 OA
ENDROOT
BRANCH   1  12
ATOM     12  C   UNL     1       4.058 -11.565   6.023  1.00  0.00     0.025 A 
ATOM     13  C   UNL     1       2.875 -10.805   6.056  1.00  0.00     0.016 A 
ATOM     14  C   UNL     1       2.931  -9.420   6.234  1.00  0.00     0.051 A 
ATOM     15  C   UNL     1       4.165  -8.777   6.394  1.00  0.00     0.157 A 
ATOM     16  C   UNL     1       5.291 -10.917   6.206  1.00  0.00     0.062 A 
ATOM     17  C   UNL     1       5.347  -9.527   6.383  1.00  0.00     0.158 A 
BRANCH  15  18
ATOM     18  O   UNL     1       4.223  -7.396   6.569  1.00  0.00    -0.504 OA
ATOM     19  H   UNL     1       3.532  -6.902   7.121  1.00  0.00     0.293 HD
ENDBRANCH  15  18
BRANCH  17  20
ATOM     20  O   UNL     1       6.573  -8.885   6.549  1.00  0.00    -0.504 OA
ATOM     21  H   UNL     1       7.445  -9.402   6.558  1.00  0.00     0.293 HD
ENDBRANCH  17  20
ENDBRANCH   1  12
BRANCH   2  22
ATOM     22  O   UNL     1       3.483 -12.866   3.500  1.00  0.00    -0.502 OA
ATOM     23  H   UNL     1       3.439 -11.855   3.536  1.00  0.00     0.293 HD
ENDBRANCH   2  22
BRANCH   6  24
ATOM     24  O   UNL     1       3.429 -18.050   4.721  1.00  0.00    -0.507 OA
ATOM     25  H   UNL     1       3.731 -17.971   3.762  1.00  0.00     0.293 HD
ENDBRANCH   6  24
BRANCH   8  26
ATOM     26  O   UNL     1       5.055 -17.895   9.219  1.00  0.00    -0.508 OA
ATOM     27  H   UNL     1       5.363 -17.410  10.054  1.00  0.00     0.293 HD
ENDBRANCH   8  26
TORSDOF 6
ENDMDL
MODEL 6
REMARK VINA RESULT:    -4.710      6.060      9.484
REMARK INTER + INTRA:          -5.301
REMARK INTER:                  -5.038
REMARK INTRA:                  -0.262
REMARK UNBOUND:                 0.373
REMARK SMILES O=c1c(O)c(-c2ccc(O)c(O)c2)oc2cc(O)cc(O)c12
REMARK SMILES IDX 5 1 3 2 2 3 1 4 22 5 20 6 19 7 17 8 16 9 15 10 14 11 6 12
REMARK SMILES IDX 7 13 8 14 9 15 13 16 11 17 10 18 12 20 4 22 21 24 18 26
REMARK H PARENT 10 19 12 21 4 23 21 25 18 27
REMARK Flexibility Score: inf
ROOT
ATOM      1  C   UNL     1       5.383  -8.798   6.234  1.00  0.00     0.180 A 
ATOM      2  C   UNL     1       4.412  -7.782   6.234  1.00  0.00     0.208 A 
ATOM      3  C   UNL     1       4.827  -6.442   6.194  1.00  0.00     0.238 A 
ATOM      4  O   UNL     1       3.955  -5.536   6.250  1.00  0.00    -0.285 OA
ATOM      5  C   UNL     1       6.208  -6.134   6.135  1.00  0.00     0.111 A 
ATOM      6  C   UNL     1       6.741  -4.812   6.050  1.00  0.00     0.134 A 
ATOM      7  C   UNL     1       8.125  -4.620   6.130  1.00  0.00     0.093 A 
ATOM      8  C   UNL     1       8.999  -5.701   6.225  1.00  0.00     0.123 A 
ATOM      9  C   UNL     1       8.492  -7.001   6.250  1.00  0.00     0.094 A 
ATOM     10  C   UNL     1       7.113  -7.224   6.208  1.00  0.00     0.146 A 
ATOM     11  O   UNL     1       6.671  -8.476   6.244  1.00  0.00    -0.452 OA
ENDROOT
BRANCH   1  12
ATOM     12  C   UNL     1       5.022 -10.233   6.250  1.00  0.00     0.025 A 
ATOM     13  C   UNL     1       5.120 -11.000   7.425  1.00  0.00     0.016 A 
ATOM     14  C   UNL     1       4.750 -12.348   7.421  1.00  0.00     0.051 A 
ATOM     15  C   UNL     1       4.265 -12.944   6.250  1.00  0.00     0.157 A 
ATOM     16  C   UNL     1       4.515 -10.832   5.085  1.00  0.00     0.062 A 
ATOM     17  C   UNL     1       4.145 -12.184   5.080  1.00  0.00     0.158 A 
BRANCH  15  18
ATOM     18  O   UNL     1       3.897 -14.288   6.243  1.00  0.00    -0.504 OA
ATOM     19  H   UNL     1       4.536 -15.015   6.542  1.00  0.00     0.293 HD
ENDBRANCH  15  18
BRANCH  17  20
ATOM     20  O   UNL     1       3.656 -12.779   3.918  1.00  0.00    -0.504 OA
ATOM     21  H   UNL     1       2.871 -12.385   3.411  1.00  0.00     0.293 HD
ENDBRANCH  17  20
ENDBRANCH   1  12
BRANCH   2  22
ATOM     22  O   UNL     1       3.055  -8.107   6.314  1.00  0.00    -0.502 OA
ATOM     23  H   UNL     1       2.536  -8.063   7.183  1.00  0.00     0.293 HD
ENDBRANCH   2  22
BRANCH   6  24
ATOM     24  O   UNL     1       5.960  -3.667   5.860  1.00  0.00    -0.507 OA
ATOM     25  H   UNL     1       5.820  -3.207   4.973  1.00  0.00     0.293 HD
ENDBRANCH   6  24
BRANCH   8  26
ATOM     26  O   UNL     1      10.372  -5.474   6.287  1.00  0.00    -0.508 OA
ATOM     27  H   UNL     1      10.885  -5.558   7.158  1.00  0.00     0.293 HD
ENDBRANCH   8  26
TORSDOF 6
ENDMDL
MODEL 7
REMARK VINA RESULT:    -4.617      5.878     10.078
REMARK INTER + INTRA:          -5.190
REMARK INTER:                  -5.024
REMARK INTRA:                  -0.165
REMARK UNBOUND:                 0.373
REMARK SMILES O=c1c(O)c(-c2ccc(O)c(O)c2)oc2cc(O)cc(O)c12
REMARK SMILES IDX 5 1 3 2 2 3 1 4 22 5 20 6 19 7 17 8 16 9 15 10 14 11 6 12
REMARK SMILES IDX 7 13 8 14 9 15 13 16 11 17 10 18 12 20 4 22 21 24 18 26
REMARK H PARENT 10 19 12 21 4 23 21 25 18 27
REMARK Flexibility Score: inf
ROOT
ATOM      1  C   UNL     1       4.210  -7.793   5.399  1.00  0.00     0.180 A 
ATOM      2  C   UNL     1       3.650  -8.231   4.186  1.00  0.00     0.208 A 
ATOM      3  C   UNL     1       3.454  -9.607   3.984  1.00  0.00     0.238 A 
ATOM      4  O   UNL     1       3.004  -9.997   2.875  1.00  0.00    -0.285 OA
ATOM      5  C   UNL     1       3.805 -10.525   5.003  1.00  0.00     0.111 A 
ATOM      6  C   UNL     1       3.612 -11.938   4.921  1.00  0.00     0.134 A 
ATOM      7  C   UNL     1       4.116 -12.762   5.934  1.00  0.00     0.093 A 
ATOM      8  C   UNL     1       4.745 -12.224   7.056  1.00  0.00     0.123 A 
ATOM      9  C   UNL     1       4.886 -10.840   7.174  1.00  0.00     0.094 A 
ATOM     10  C   UNL     1       4.426  -9.993   6.162  1.00  0.00     0.146 A 
ATOM     11  O   UNL     1       4.588  -8.684   6.308  1.00  0.00    -0.452 OA
ENDROOT
BRANCH   1  12
ATOM     12  C   UNL     1       4.423  -6.359   5.695  1.00  0.00     0.025 A 
ATOM     13  C   UNL     1       3.346  -5.457   5.765  1.00  0.00     0.016 A 
ATOM     14  C   UNL     1       3.571  -4.112   6.071  1.00  0.00     0.051 A 
ATOM     15  C   UNL     1       4.870  -3.651   6.322  1.00  0.00     0.157 A 
ATOM     16  C   UNL     1       5.721  -5.895   5.969  1.00  0.00     0.062 A 
ATOM     17  C   UNL     1       5.947  -4.545   6.273  1.00  0.00     0.158 A 
BRANCH  15  18
ATOM     18  O   UNL     1       5.096  -2.310   6.624  1.00  0.00    -0.504 OA
ATOM     19  H   UNL     1       5.222  -1.995   7.579  1.00  0.00     0.293 HD
ENDBRANCH  15  18
BRANCH  17  20
ATOM     20  O   UNL     1       7.237  -4.085   6.531  1.00  0.00    -0.504 OA
ATOM     21  H   UNL     1       7.401  -3.223   7.039  1.00  0.00     0.293 HD
ENDBRANCH  17  20
ENDBRANCH   1  12
BRANCH   2  22
ATOM     22  O   UNL     1       3.332  -7.309   3.186  1.00  0.00    -0.502 OA
ATOM     23  H   UNL     1       3.594  -6.332   3.243  1.00  0.00     0.293 HD
ENDBRANCH   2  22
BRANCH   6  24
ATOM     24  O   UNL     1       2.915 -12.572   3.889  1.00  0.00    -0.507 OA
ATOM     25  H   UNL     1       2.007 -13.001   3.986  1.00  0.00     0.293 HD
ENDBRANCH   6  24
BRANCH   8  26
ATOM     26  O   UNL     1       5.220 -13.073   8.052  1.00  0.00    -0.508 OA
ATOM     27  H   UNL     1       6.028 -13.667   7.902  1.00  0.00     0.293 HD
ENDBRANCH   8  26
TORSDOF 6
ENDMDL
MODEL 8
REMARK VINA RESULT:    -4.418      1.926      6.179
REMARK INTER + INTRA:          -4.949
REMARK INTER:                  -5.217
REMARK INTRA:                   0.268
REMARK UNBOUND:                 0.373
REMARK SMILES O=c1c(O)c(-c2ccc(O)c(O)c2)oc2cc(O)cc(O)c12
REMARK SMILES IDX 5 1 3 2 2 3 1 4 22 5 20 6 19 7 17 8 16 9 15 10 14 11 6 12
REMARK SMILES IDX 7 13 8 14 9 15 13 16 11 17 10 18 12 20 4 22 21 24 18 26
REMARK H PARENT 10 19 12 21 4 23 21 25 18 27
REMARK Flexibility Score: inf
ROOT
ATOM      1  C   UNL     1       3.901 -15.644   5.933  1.00  0.00     0.180 A 
ATOM      2  C   UNL     1       3.727 -16.547   4.870  1.00  0.00     0.208 A 
ATOM      3  C   UNL     1       3.821 -17.925   5.124  1.00  0.00     0.238 A 
ATOM      4  O   UNL     1       3.719 -18.726   4.159  1.00  0.00    -0.285 OA
ATOM      5  C   UNL     1       4.072 -18.382   6.440  1.00  0.00     0.111 A 
ATOM      6  C   UNL     1       4.148 -19.757   6.820  1.00  0.00     0.134 A 
ATOM      7  C   UNL     1       4.530 -20.093   8.123  1.00  0.00     0.093 A 
ATOM      8  C   UNL     1       4.775 -19.108   9.079  1.00  0.00     0.123 A 
ATOM      9  C   UNL     1       4.647 -17.762   8.735  1.00  0.00     0.094 A 
ATOM     10  C   UNL     1       4.302 -17.394   7.432  1.00  0.00     0.146 A 
ATOM     11  O   UNL     1       4.200 -16.102   7.143  1.00  0.00    -0.452 OA
ENDROOT
BRANCH   1  12
ATOM     12  C   UNL     1       3.791 -14.179   5.748  1.00  0.00     0.025 A 
ATOM     13  C   UNL     1       2.982 -13.627   4.740  1.00  0.00     0.016 A 
ATOM     14  C   UNL     1       2.875 -12.240   4.600  1.00  0.00     0.051 A 
ATOM     15  C   UNL     1       3.563 -11.388   5.473  1.00  0.00     0.157 A 
ATOM     16  C   UNL     1       4.462 -13.319   6.633  1.00  0.00     0.062 A 
ATOM     17  C   UNL     1       4.356 -11.927   6.493  1.00  0.00     0.158 A 
BRANCH  15  18
ATOM     18  O   UNL     1       3.460 -10.005   5.335  1.00  0.00    -0.504 OA
ATOM     19  H   UNL     1       3.830  -9.523   4.524  1.00  0.00     0.293 HD
ENDBRANCH  15  18
BRANCH  17  20
ATOM     20  O   UNL     1       5.034 -11.076   7.364  1.00  0.00    -0.504 OA
ATOM     21  H   UNL     1       4.562 -10.629   8.142  1.00  0.00     0.293 HD
ENDBRANCH  17  20
ENDBRANCH   1  12
BRANCH   2  22
ATOM     22  O   UNL     1       3.502 -16.073   3.575  1.00  0.00    -0.502 OA
ATOM     23  H   UNL     1       2.682 -16.329   3.037  1.00  0.00     0.293 HD
ENDBRANCH   2  22
BRANCH   6  24
ATOM     24  O   UNL     1       3.832 -20.820   5.967  1.00  0.00    -0.507 OA
ATOM     25  H   UNL     1       4.481 -21.262   5.334  1.00  0.00     0.293 HD
ENDBRANCH   6  24
BRANCH   8  26
ATOM     26  O   UNL     1       5.139 -19.479  10.372  1.00  0.00    -0.508 OA
ATOM     27  H   UNL     1       4.832 -18.952  11.181  1.00  0.00     0.293 HD
ENDBRANCH   8  26
TORSDOF 6
ENDMDL
MODEL 9
REMARK VINA RESULT:    -4.245      1.329      3.151
REMARK INTER + INTRA:          -4.741
REMARK INTER:                  -5.237
REMARK INTRA:                   0.495
REMARK UNBOUND:                 0.373
REMARK SMILES O=c1c(O)c(-c2ccc(O)c(O)c2)oc2cc(O)cc(O)c12
REMARK SMILES IDX 5 1 3 2 2 3 1 4 22 5 20 6 19 7 17 8 16 9 15 10 14 11 6 12
REMARK SMILES IDX 7 13 8 14 9 15 13 16 11 17 10 18 12 20 4 22 21 24 18 26
REMARK H PARENT 10 19 12 21 4 23 21 25 18 27
REMARK Flexibility Score: inf
ROOT
ATOM      1  C   UNL     1       4.177 -17.112   7.866  1.00  0.00     0.180 A 
ATOM      2  C   UNL     1       4.284 -15.814   7.338  1.00  0.00     0.208 A 
ATOM      3  C   UNL     1       4.031 -15.611   5.972  1.00  0.00     0.238 A 
ATOM      4  O   UNL     1       4.183 -14.456   5.495  1.00  0.00    -0.285 OA
ATOM      5  C   UNL     1       3.657 -16.705   5.155  1.00  0.00     0.111 A 
ATOM      6  C   UNL     1       3.338 -16.608   3.767  1.00  0.00     0.134 A 
ATOM      7  C   UNL     1       3.109 -17.774   3.028  1.00  0.00     0.093 A 
ATOM      8  C   UNL     1       3.122 -19.028   3.638  1.00  0.00     0.123 A 
ATOM      9  C   UNL     1       3.375 -19.130   5.006  1.00  0.00     0.094 A 
ATOM     10  C   UNL     1       3.643 -17.987   5.764  1.00  0.00     0.146 A 
ATOM     11  O   UNL     1       3.888 -18.128   7.061  1.00  0.00    -0.452 OA
ENDROOT
BRANCH   1  12
ATOM     12  C   UNL     1       4.403 -17.401   9.301  1.00  0.00     0.025 A 
ATOM     13  C   UNL     1       4.613 -18.713   9.760  1.00  0.00     0.016 A 
ATOM     14  C   UNL     1       4.850 -18.957  11.116  1.00  0.00     0.051 A 
ATOM     15  C   UNL     1       4.893 -17.895  12.028  1.00  0.00     0.157 A 
ATOM     16  C   UNL     1       4.469 -16.338  10.217  1.00  0.00     0.062 A 
ATOM     17  C   UNL     1       4.704 -16.583  11.578  1.00  0.00     0.158 A 
BRANCH  15  18
ATOM     18  O   UNL     1       5.126 -18.137  13.380  1.00  0.00    -0.504 OA
ATOM     19  H   UNL     1       5.634 -17.477  13.957  1.00  0.00     0.293 HD
ENDBRANCH  15  18
BRANCH  17  20
ATOM     20  O   UNL     1       4.754 -15.528  12.487  1.00  0.00    -0.504 OA
ATOM     21  H   UNL     1       5.074 -14.606  12.212  1.00  0.00     0.293 HD
ENDBRANCH  17  20
ENDBRANCH   1  12
BRANCH   2  22
ATOM     22  O   UNL     1       4.676 -14.752   8.158  1.00  0.00    -0.502 OA
ATOM     23  H   UNL     1       5.613 -14.368   8.139  1.00  0.00     0.293 HD
ENDBRANCH   2  22
BRANCH   6  24
ATOM     24  O   UNL     1       3.208 -15.397   3.080  1.00  0.00    -0.507 OA
ATOM     25  H   UNL     1       3.827 -15.080   2.349  1.00  0.00     0.293 HD
ENDBRANCH   6  24
BRANCH   8  26
ATOM     26  O   UNL     1       2.875 -20.167   2.875  1.00  0.00    -0.508 OA
ATOM     27  H   UNL     1       2.890 -20.140   1.862  1.00  0.00     0.293 HD
ENDBRANCH   8  26
TORSDOF 6
ENDMDL
