MODEL 1
REMARK VINA RESULT:    -4.452      0.000      0.000
REMARK INTER + INTRA:          -7.822
REMARK INTER:                  -6.794
REMARK INTRA:                  -1.028
REMARK UNBOUND:                -1.028
REMARK SMILES CCCCCCCCCCC(=O)[O-]
REMARK SMILES IDX 7 1 8 2 9 3 10 4 11 5 12 6 13 7 6 8 5 9 4 10 3 11 2 12 1 13
REMARK H PARENT
REMARK Flexibility Score: inf
ROOT
ATOM      1  C   UNL     1      15.848 -14.141  39.493  1.00  0.00     0.000 C 
ENDROOT
BRANCH   1   2
ATOM      2  C   UNL     1      14.816 -15.188  39.940  1.00  0.00     0.000 C 
BRANCH   2   3
ATOM      3  C   UNL     1      15.026 -16.554  39.265  1.00  0.00     0.006 C 
BRANCH   3   4
ATOM      4  C   UNL     1      14.293 -16.654  37.921  1.00  0.00     0.053 C 
BRANCH   4   5
ATOM      5  C   UNL     1      15.223 -17.014  36.803  1.00  0.00     0.041 C 
ATOM      6  O   UNL     1      14.795 -17.097  35.622  1.00  0.00    -0.550 OA
ATOM      7  O   UNL     1      16.558 -17.288  37.073  1.00  0.00    -0.550 OA
ENDBRANCH   4   5
ENDBRANCH   3   4
ENDBRANCH   2   3
ENDBRANCH   1   2
BRANCH   1   8
ATOM      8  C   UNL     1      15.203 -12.919  38.822  1.00  0.00     0.000 C 
BRANCH   8   9
ATOM      9  C   UNL     1      14.855 -13.217  37.359  1.00  0.00    -0.000 C 
BRANCH   9  10
ATOM     10  C   UNL     1      15.948 -12.701  36.416  1.00  0.00    -0.000 C 
BRANCH  10  11
ATOM     11  C   UNL     1      16.483 -13.828  35.523  1.00  0.00    -0.000 C 
BRANCH  11  12
ATOM     12  C   UNL     1      18.010 -13.914  35.601  1.00  0.00    -0.003 C 
ATOM     13  C   UNL     1      18.466 -14.397  36.975  1.00  0.00     0.004 C 
ENDBRANCH  11  12
ENDBRANCH  10  11
ENDBRANCH   9  10
ENDBRANCH   8   9
ENDBRANCH   1   8
TORSDOF 9
ENDMDL
MODEL 2
REMARK VINA RESULT:    -4.441      1.878      3.915
REMARK INTER + INTRA:          -7.805
REMARK INTER:                  -6.690
REMARK INTRA:                  -1.115
REMARK UNBOUND:                -1.028
REMARK SMILES CCCCCCCCCCC(=O)[O-]
REMARK SMILES IDX 7 1 8 2 9 3 10 4 11 5 12 6 13 7 6 8 5 9 4 10 3 11 2 12 1 13
REMARK H PARENT
REMARK Flexibility Score: inf
ROOT
ATOM      1  C   UNL     1      15.886 -13.854  39.581  1.00  0.00     0.000 C 
ENDROOT
BRANCH   1   2
ATOM      2  C   UNL     1      15.012 -13.504  38.366  1.00  0.00     0.000 C 
BRANCH   2   3
ATOM      3  C   UNL     1      15.838 -13.010  37.165  1.00  0.00     0.006 C 
BRANCH   3   4
ATOM      4  C   UNL     1      17.119 -13.830  36.968  1.00  0.00     0.053 C 
BRANCH   4   5
ATOM      5  C   UNL     1      17.421 -14.052  35.517  1.00  0.00     0.041 C 
ATOM      6  O   UNL     1      16.749 -14.882  34.849  1.00  0.00    -0.550 OA
ATOM      7  O   UNL     1      18.463 -13.363  34.910  1.00  0.00    -0.550 OA
ENDBRANCH   4   5
ENDBRANCH   3   4
ENDBRANCH   2   3
ENDBRANCH   1   2
BRANCH   1   8
ATOM      8  C   UNL     1      15.314 -15.014  40.409  1.00  0.00     0.000 C 
BRANCH   8   9
ATOM      9  C   UNL     1      14.002 -15.527  39.802  1.00  0.00    -0.000 C 
BRANCH   9  10
ATOM     10  C   UNL     1      14.055 -17.042  39.573  1.00  0.00    -0.000 C 
BRANCH  10  11
ATOM     11  C   UNL     1      15.465 -17.490  39.168  1.00  0.00    -0.000 C 
BRANCH  11  12
ATOM     12  C   UNL     1      15.710 -17.250  37.675  1.00  0.00    -0.003 C 
ATOM     13  C   UNL     1      17.177 -17.468  37.314  1.00  0.00     0.004 C 
ENDBRANCH  11  12
ENDBRANCH  10  11
ENDBRANCH   9  10
ENDBRANCH   8   9
ENDBRANCH   1   8
TORSDOF 9
ENDMDL
MODEL 3
REMARK VINA RESULT:    -4.402      1.948      4.016
REMARK INTER + INTRA:          -7.745
REMARK INTER:                  -6.519
REMARK INTRA:                  -1.226
REMARK UNBOUND:                -1.028
REMARK SMILES CCCCCCCCCCC(=O)[O-]
REMARK SMILES IDX 7 1 8 2 9 3 10 4 11 5 12 6 13 7 6 8 5 9 4 10 3 11 2 12 1 13
REMARK H PARENT
REMARK Flexibility Score: inf
ROOT
ATOM      1  C   UNL     1      15.859 -18.094  38.367  1.00  0.00     0.000 C 
ENDROOT
BRANCH   1   2
ATOM      2  C   UNL     1      16.810 -17.108  37.670  1.00  0.00     0.000 C 
BRANCH   2   3
ATOM      3  C   UNL     1      16.415 -16.838  36.207  1.00  0.00     0.006 C 
BRANCH   3   4
ATOM      4  C   UNL     1      15.584 -15.557  36.060  1.00  0.00     0.053 C 
BRANCH   4   5
ATOM      5  C   UNL     1      16.363 -14.459  35.402  1.00  0.00     0.041 C 
ATOM      6  O   UNL     1      16.005 -13.259  35.533  1.00  0.00    -0.550 OA
ATOM      7  O   UNL     1      17.468 -14.766  34.618  1.00  0.00    -0.550 OA
ENDBRANCH   4   5
ENDBRANCH   3   4
ENDBRANCH   2   3
ENDBRANCH   1   2
BRANCH   1   8
ATOM      8  C   UNL     1      15.256 -17.523  39.659  1.00  0.00     0.000 C 
BRANCH   8   9
ATOM      9  C   UNL     1      13.905 -16.852  39.385  1.00  0.00    -0.000 C 
BRANCH   9  10
ATOM     10  C   UNL     1      13.977 -15.341  39.639  1.00  0.00    -0.000 C 
BRANCH  10  11
ATOM     11  C   UNL     1      15.320 -14.951  40.270  1.00  0.00    -0.000 C 
BRANCH  11  12
ATOM     12  C   UNL     1      15.986 -13.816  39.486  1.00  0.00    -0.003 C 
ATOM     13  C   UNL     1      14.952 -12.986  38.731  1.00  0.00     0.004 C 
ENDBRANCH  11  12
ENDBRANCH  10  11
ENDBRANCH   9  10
ENDBRANCH   8   9
ENDBRANCH   1   8
TORSDOF 9
ENDMDL
MODEL 4
REMARK VINA RESULT:    -4.377      0.985      1.781
REMARK INTER + INTRA:          -7.707
REMARK INTER:                  -6.795
REMARK INTRA:                  -0.912
REMARK UNBOUND:                -1.028
REMARK SMILES CCCCCCCCCCC(=O)[O-]
REMARK SMILES IDX 7 1 8 2 9 3 10 4 11 5 12 6 13 7 6 8 5 9 4 10 3 11 2 12 1 13
REMARK H PARENT
REMARK Flexibility Score: inf
ROOT
ATOM      1  C   UNL     1      15.893 -13.924  39.694  1.00  0.00     0.000 C 
ENDROOT
BRANCH   1   2
ATOM      2  C   UNL     1      15.016 -15.008  40.339  1.00  0.00     0.000 C 
BRANCH   2   3
ATOM      3  C   UNL     1      14.381 -15.951  39.302  1.00  0.00     0.006 C 
BRANCH   3   4
ATOM      4  C   UNL     1      15.173 -17.255  39.143  1.00  0.00     0.053 C 
BRANCH   4   5
ATOM      5  C   UNL     1      15.855 -17.334  37.811  1.00  0.00     0.041 C 
ATOM      6  O   UNL     1      17.064 -17.676  37.737  1.00  0.00    -0.550 OA
ATOM      7  O   UNL     1      15.161 -17.001  36.655  1.00  0.00    -0.550 OA
ENDBRANCH   4   5
ENDBRANCH   3   4
ENDBRANCH   2   3
ENDBRANCH   1   2
BRANCH   1   8
ATOM      8  C   UNL     1      15.289 -13.365  38.397  1.00  0.00     0.000 C 
BRANCH   8   9
ATOM      9  C   UNL     1      16.255 -13.544  37.220  1.00  0.00    -0.000 C 
BRANCH   9  10
ATOM     10  C   UNL     1      17.576 -14.173  37.681  1.00  0.00    -0.000 C 
BRANCH  10  11
ATOM     11  C   UNL     1      18.598 -14.207  36.538  1.00  0.00    -0.000 C 
BRANCH  11  12
ATOM     12  C   UNL     1      17.943 -13.838  35.203  1.00  0.00    -0.003 C 
ATOM     13  C   UNL     1      18.976 -13.321  34.206  1.00  0.00     0.004 C 
ENDBRANCH  11  12
ENDBRANCH  10  11
ENDBRANCH   9  10
ENDBRANCH   8   9
ENDBRANCH   1   8
TORSDOF 9
ENDMDL
MODEL 5
REMARK VINA RESULT:    -4.340      1.172      3.794
REMARK INTER + INTRA:          -7.652
REMARK INTER:                  -6.649
REMARK INTRA:                  -1.003
REMARK UNBOUND:                -1.028
REMARK SMILES CCCCCCCCCCC(=O)[O-]
REMARK SMILES IDX 7 1 8 2 9 3 10 4 11 5 12 6 13 7 6 8 5 9 4 10 3 11 2 12 1 13
REMARK H PARENT
REMARK Flexibility Score: inf
ROOT
ATOM      1  C   UNL     1      15.079 -13.474  38.251  1.00  0.00     0.000 C 
ENDROOT
BRANCH   1   2
ATOM      2  C   UNL     1      15.974 -13.143  37.047  1.00  0.00     0.000 C 
BRANCH   2   3
ATOM      3  C   UNL     1      17.028 -14.230  36.775  1.00  0.00     0.006 C 
BRANCH   3   4
ATOM      4  C   UNL     1      16.613 -15.167  35.634  1.00  0.00     0.053 C 
BRANCH   4   5
ATOM      5  C   UNL     1      16.286 -16.542  36.132  1.00  0.00     0.041 C 
ATOM      6  O   UNL     1      15.145 -17.036  35.931  1.00  0.00    -0.550 OA
ATOM      7  O   UNL     1      17.233 -17.265  36.846  1.00  0.00    -0.550 OA
ENDBRANCH   4   5
ENDBRANCH   3   4
ENDBRANCH   2   3
ENDBRANCH   1   2
BRANCH   1   8
ATOM      8  C   UNL     1      15.885 -13.834  39.508  1.00  0.00     0.000 C 
BRANCH   8   9
ATOM      9  C   UNL     1      15.241 -15.009  40.254  1.00  0.00    -0.000 C 
BRANCH   9  10
ATOM     10  C   UNL     1      13.912 -15.414  39.606  1.00  0.00    -0.000 C 
BRANCH  10  11
ATOM     11  C   UNL     1      13.911 -16.901  39.232  1.00  0.00    -0.000 C 
BRANCH  11  12
ATOM     12  C   UNL     1      15.232 -17.569  39.629  1.00  0.00    -0.003 C 
ATOM     13  C   UNL     1      15.233 -19.051  39.265  1.00  0.00     0.004 C 
ENDBRANCH  11  12
ENDBRANCH  10  11
ENDBRANCH   9  10
ENDBRANCH   8   9
ENDBRANCH   1   8
TORSDOF 9
ENDMDL
MODEL 6
REMARK VINA RESULT:    -4.323      1.370      2.145
REMARK INTER + INTRA:          -7.625
REMARK INTER:                  -6.397
REMARK INTRA:                  -1.228
REMARK UNBOUND:                -1.028
REMARK SMILES CCCCCCCCCCC(=O)[O-]
REMARK SMILES IDX 7 1 8 2 9 3 10 4 11 5 12 6 13 7 6 8 5 9 4 10 3 11 2 12 1 13
REMARK H PARENT
REMARK Flexibility Score: inf
ROOT
ATOM      1  C   UNL     1      15.353 -12.815  38.641  1.00  0.00     0.000 C 
ENDROOT
BRANCH   1   2
ATOM      2  C   UNL     1      15.522 -13.996  39.610  1.00  0.00     0.000 C 
BRANCH   2   3
ATOM      3  C   UNL     1      14.647 -15.204  39.230  1.00  0.00     0.006 C 
BRANCH   3   4
ATOM      4  C   UNL     1      15.127 -16.499  39.898  1.00  0.00     0.053 C 
BRANCH   4   5
ATOM      5  C   UNL     1      14.895 -17.695  39.026  1.00  0.00     0.041 C 
ATOM      6  O   UNL     1      13.802 -17.833  38.416  1.00  0.00    -0.550 OA
ATOM      7  O   UNL     1      15.875 -18.672  38.912  1.00  0.00    -0.550 OA
ENDBRANCH   4   5
ENDBRANCH   3   4
ENDBRANCH   2   3
ENDBRANCH   1   2
BRANCH   1   8
ATOM      8  C   UNL     1      15.058 -13.266  37.203  1.00  0.00     0.000 C 
BRANCH   8   9
ATOM      9  C   UNL     1      16.119 -12.732  36.232  1.00  0.00    -0.000 C 
BRANCH   9  10
ATOM     10  C   UNL     1      16.951 -13.876  35.640  1.00  0.00    -0.000 C 
BRANCH  10  11
ATOM     11  C   UNL     1      17.900 -14.468  36.690  1.00  0.00    -0.000 C 
BRANCH  11  12
ATOM     12  C   UNL     1      17.516 -15.913  37.024  1.00  0.00    -0.003 C 
ATOM     13  C   UNL     1      16.571 -16.490  35.974  1.00  0.00     0.004 C 
ENDBRANCH  11  12
ENDBRANCH  10  11
ENDBRANCH   9  10
ENDBRANCH   8   9
ENDBRANCH   1   8
TORSDOF 9
ENDMDL
MODEL 7
REMARK VINA RESULT:    -4.300      1.828      3.950
REMARK INTER + INTRA:          -7.590
REMARK INTER:                  -6.437
REMARK INTRA:                  -1.153
REMARK UNBOUND:                -1.028
REMARK SMILES CCCCCCCCCCC(=O)[O-]
REMARK SMILES IDX 7 1 8 2 9 3 10 4 11 5 12 6 13 7 6 8 5 9 4 10 3 11 2 12 1 13
REMARK H PARENT
REMARK Flexibility Score: inf
ROOT
ATOM      1  C   UNL     1      14.242 -16.619  37.795  1.00  0.00     0.000 C 
ENDROOT
BRANCH   1   2
ATOM      2  C   UNL     1      14.910 -16.777  36.421  1.00  0.00     0.000 C 
BRANCH   2   3
ATOM      3  C   UNL     1      16.351 -16.237  36.397  1.00  0.00     0.006 C 
BRANCH   3   4
ATOM      4  C   UNL     1      16.484 -14.983  35.523  1.00  0.00     0.053 C 
BRANCH   4   5
ATOM      5  C   UNL     1      17.704 -14.186  35.874  1.00  0.00     0.041 C 
ATOM      6  O   UNL     1      18.110 -13.275  35.106  1.00  0.00    -0.550 OA
ATOM      7  O   UNL     1      18.408 -14.471  37.037  1.00  0.00    -0.550 OA
ENDBRANCH   4   5
ENDBRANCH   3   4
ENDBRANCH   2   3
ENDBRANCH   1   2
BRANCH   1   8
ATOM      8  C   UNL     1      15.257 -16.401  38.927  1.00  0.00     0.000 C 
BRANCH   8   9
ATOM      9  C   UNL     1      14.936 -15.125  39.715  1.00  0.00    -0.000 C 
BRANCH   9  10
ATOM     10  C   UNL     1      15.869 -13.977  39.310  1.00  0.00    -0.000 C 
BRANCH  10  11
ATOM     11  C   UNL     1      15.068 -12.759  38.833  1.00  0.00    -0.000 C 
BRANCH  11  12
ATOM     12  C   UNL     1      14.214 -13.107  37.610  1.00  0.00    -0.003 C 
ATOM     13  C   UNL     1      12.735 -12.839  37.876  1.00  0.00     0.004 C 
ENDBRANCH  11  12
ENDBRANCH  10  11
ENDBRANCH   9  10
ENDBRANCH   8   9
ENDBRANCH   1   8
TORSDOF 9
ENDMDL
MODEL 8
REMARK VINA RESULT:    -4.228      1.198      3.843
REMARK INTER + INTRA:          -7.480
REMARK INTER:                  -6.349
REMARK INTRA:                  -1.131
REMARK UNBOUND:                -1.028
REMARK SMILES CCCCCCCCCCC(=O)[O-]
REMARK SMILES IDX 7 1 8 2 9 3 10 4 11 5 12 6 13 7 6 8 5 9 4 10 3 11 2 12 1 13
REMARK H PARENT
REMARK Flexibility Score: inf
ROOT
ATOM      1  C   UNL     1      16.732 -13.491  36.863  1.00  0.00     0.000 C 
ENDROOT
BRANCH   1   2
ATOM      2  C   UNL     1      16.933 -14.138  35.483  1.00  0.00     0.000 C 
BRANCH   2   3
ATOM      3  C   UNL     1      16.635 -15.648  35.488  1.00  0.00     0.006 C 
BRANCH   3   4
ATOM      4  C   UNL     1      17.088 -16.323  36.789  1.00  0.00     0.053 C 
BRANCH   4   5
ATOM      5  C   UNL     1      16.029 -17.224  37.347  1.00  0.00     0.041 C 
ATOM      6  O   UNL     1      16.280 -17.962  38.336  1.00  0.00    -0.550 OA
ATOM      7  O   UNL     1      14.773 -17.268  36.756  1.00  0.00    -0.550 OA
ENDBRANCH   4   5
ENDBRANCH   3   4
ENDBRANCH   2   3
ENDBRANCH   1   2
BRANCH   1   8
ATOM      8  C   UNL     1      15.272 -13.094  37.124  1.00  0.00     0.000 C 
BRANCH   8   9
ATOM      9  C   UNL     1      14.969 -13.075  38.627  1.00  0.00    -0.000 C 
BRANCH   9  10
ATOM     10  C   UNL     1      15.918 -14.005  39.393  1.00  0.00    -0.000 C 
BRANCH  10  11
ATOM     11  C   UNL     1      15.136 -15.032  40.222  1.00  0.00    -0.000 C 
BRANCH  11  12
ATOM     12  C   UNL     1      13.755 -15.292  39.612  1.00  0.00    -0.003 C 
ATOM     13  C   UNL     1      13.306 -16.730  39.856  1.00  0.00     0.004 C 
ENDBRANCH  11  12
ENDBRANCH  10  11
ENDBRANCH   9  10
ENDBRANCH   8   9
ENDBRANCH   1   8
TORSDOF 9
ENDMDL
MODEL 9
REMARK VINA RESULT:    -4.199      2.344      3.335
REMARK INTER + INTRA:          -7.435
REMARK INTER:                  -6.455
REMARK INTRA:                  -0.980
REMARK UNBOUND:                -1.028
REMARK SMILES CCCCCCCCCCC(=O)[O-]
REMARK SMILES IDX 7 1 8 2 9 3 10 4 11 5 12 6 13 7 6 8 5 9 4 10 3 11 2 12 1 13
REMARK H PARENT
REMARK Flexibility Score: inf
ROOT
ATOM      1  C   UNL     1      15.165 -17.268  38.230  1.00  0.00     0.000 C 
ENDROOT
BRANCH   1   2
ATOM      2  C   UNL     1      15.135 -16.621  39.624  1.00  0.00     0.000 C 
BRANCH   2   3
ATOM      3  C   UNL     1      14.236 -15.373  39.678  1.00  0.00     0.006 C 
BRANCH   3   4
ATOM      4  C   UNL     1      13.833 -14.890  38.279  1.00  0.00     0.053 C 
BRANCH   4   5
ATOM      5  C   UNL     1      13.920 -13.398  38.158  1.00  0.00     0.041 C 
ATOM      6  O   UNL     1      12.939 -12.738  37.726  1.00  0.00    -0.550 OA
ATOM      7  O   UNL     1      15.096 -12.742  38.497  1.00  0.00    -0.550 OA
ENDBRANCH   4   5
ENDBRANCH   3   4
ENDBRANCH   2   3
ENDBRANCH   1   2
BRANCH   1   8
ATOM      8  C   UNL     1      16.594 -17.508  37.719  1.00  0.00     0.000 C 
BRANCH   8   9
ATOM      9  C   UNL     1      17.150 -16.253  37.036  1.00  0.00    -0.000 C 
BRANCH   9  10
ATOM     10  C   UNL     1      16.427 -15.979  35.711  1.00  0.00    -0.000 C 
BRANCH  10  11
ATOM     11  C   UNL     1      16.266 -14.473  35.472  1.00  0.00    -0.000 C 
BRANCH  11  12
ATOM     12  C   UNL     1      17.500 -13.704  35.958  1.00  0.00    -0.003 C 
ATOM     13  C   UNL     1      18.515 -13.524  34.833  1.00  0.00     0.004 C 
ENDBRANCH  11  12
ENDBRANCH  10  11
ENDBRANCH   9  10
ENDBRANCH   8   9
ENDBRANCH   1   8
TORSDOF 9
ENDMDL
