MODEL 1
REMARK VINA RESULT:    -5.596      0.000      0.000
REMARK INTER + INTRA:          -9.038
REMARK INTER:                  -7.886
REMARK INTRA:                  -1.152
REMARK UNBOUND:                -1.152
REMARK SMILES OCC1=C[C@@H](O)[C@@H]2C=CO[C@@H](O[C@H]3O[C@@H](CO)[C@H](O)[C@H](O)[C@@H]3O)[C@@H]12
REMARK SMILES IDX 12 1 11 2 8 3 9 4 7 5 10 6 24 7 5 8 3 9 4 10 6 11 2 13 1 14
REMARK SMILES IDX 13 16 22 17 14 18 20 19 15 20 18 21 23 22 21 24 16 26 17 27
REMARK SMILES IDX 19 29
REMARK H PARENT 6 12 1 15 23 23 21 25 17 28 19 30
REMARK Flexibility Score: inf
ROOT
ATOM      1  O   UNL     1      -7.023  63.129   5.150  1.00  0.00    -0.310 OA
ENDROOT
BRANCH   1   2
ATOM      2  C   UNL     1      -5.844  63.476   4.437  1.00  0.00     0.316 C 
ATOM      3  C   UNL     1      -3.866  61.393   4.968  1.00  0.00     0.018 C 
ATOM      4  C   UNL     1      -4.509  61.428   3.787  1.00  0.00     0.186 C 
ATOM      5  C   UNL     1      -4.366  62.306   6.037  1.00  0.00     0.061 C 
ATOM      6  O   UNL     1      -5.500  62.407   3.525  1.00  0.00    -0.472 OA
ATOM      7  C   UNL     1      -4.677  63.658   5.415  1.00  0.00     0.096 C 
ATOM      8  C   UNL     1      -3.479  62.668   7.225  1.00  0.00     0.145 C 
ATOM      9  C   UNL     1      -4.802  64.523   6.622  1.00  0.00    -0.036 C 
ATOM     10  C   UNL     1      -4.066  64.001   7.613  1.00  0.00     0.007 C 
BRANCH   8  11
ATOM     11  O   UNL     1      -3.626  61.731   8.257  1.00  0.00    -0.388 OA
ATOM     12  H   UNL     1      -2.957  61.972   8.951  1.00  0.00     0.211 HD
ENDBRANCH   8  11
BRANCH   9  13
ATOM     13  C   UNL     1      -5.386  65.907   6.647  1.00  0.00     0.187 C 
BRANCH  13  14
ATOM     14  O   UNL     1      -6.639  65.895   7.274  1.00  0.00    -0.392 OA
ATOM     15  H   UNL     1      -6.868  64.942   7.436  1.00  0.00     0.211 HD
ENDBRANCH  13  14
ENDBRANCH   9  13
ENDBRANCH   1   2
BRANCH   1  16
ATOM     16  C   UNL     1      -8.186  63.783   4.664  1.00  0.00     0.286 C 
ATOM     17  C   UNL     1      -8.353  63.620   3.130  1.00  0.00     0.202 C 
ATOM     18  O   UNL     1      -8.181  65.152   5.036  1.00  0.00    -0.341 OA
ATOM     19  C   UNL     1      -9.644  64.313   2.662  1.00  0.00     0.179 C 
ATOM     20  C   UNL     1      -9.423  65.767   4.727  1.00  0.00     0.178 C 
ATOM     21  C   UNL     1      -9.671  65.759   3.198  1.00  0.00     0.177 C 
BRANCH  17  22
ATOM     22  O   UNL     1      -8.335  62.266   2.748  1.00  0.00    -0.385 OA
ATOM     23  H   UNL     1      -8.786  61.741   3.460  1.00  0.00     0.211 HD
ENDBRANCH  17  22
BRANCH  19  24
ATOM     24  O   UNL     1     -10.767  63.603   3.126  1.00  0.00    -0.387 OA
ATOM     25  H   UNL     1     -10.535  63.245   4.022  1.00  0.00     0.211 HD
ENDBRANCH  19  24
BRANCH  20  26
ATOM     26  C   UNL     1      -9.397  67.206   5.263  1.00  0.00     0.191 C 
BRANCH  26  27
ATOM     27  O   UNL     1      -9.214  68.116   4.212  1.00  0.00    -0.394 OA
ATOM     28  H   UNL     1      -9.058  69.004   4.628  1.00  0.00     0.210 HD
ENDBRANCH  26  27
ENDBRANCH  20  26
BRANCH  21  29
ATOM     29  O   UNL     1     -10.909  66.357   2.909  1.00  0.00    -0.387 OA
ATOM     30  H   UNL     1     -11.292  66.649   3.778  1.00  0.00     0.211 HD
ENDBRANCH  21  29
ENDBRANCH   1  16
TORSDOF 10
ENDMDL
MODEL 2
REMARK VINA RESULT:    -5.430     12.376     14.990
REMARK INTER + INTRA:          -8.803
REMARK INTER:                  -8.115
REMARK INTRA:                  -0.688
REMARK UNBOUND:                -1.152
REMARK SMILES OCC1=C[C@@H](O)[C@@H]2C=CO[C@@H](O[C@H]3O[C@@H](CO)[C@H](O)[C@H](O)[C@@H]3O)[C@@H]12
REMARK SMILES IDX 12 1 11 2 8 3 9 4 7 5 10 6 24 7 5 8 3 9 4 10 6 11 2 13 1 14
REMARK SMILES IDX 13 16 22 17 14 18 20 19 15 20 18 21 23 22 21 24 16 26 17 27
REMARK SMILES IDX 19 29
REMARK H PARENT 6 12 1 15 23 23 21 25 17 28 19 30
REMARK Flexibility Score: inf
ROOT
ATOM      1  O   UNL     1       2.417  53.149   8.946  1.00  0.00    -0.310 OA
ENDROOT
BRANCH   1   2
ATOM      2  C   UNL     1       2.153  52.089   8.038  1.00  0.00     0.316 C 
ATOM      3  C   UNL     1       4.332  50.161   8.302  1.00  0.00     0.018 C 
ATOM      4  C   UNL     1       3.132  49.901   8.848  1.00  0.00     0.186 C 
ATOM      5  C   UNL     1       4.549  51.539   7.770  1.00  0.00     0.061 C 
ATOM      6  O   UNL     1       2.074  50.841   8.764  1.00  0.00    -0.472 OA
ATOM      7  C   UNL     1       3.298  51.973   7.024  1.00  0.00     0.096 C 
ATOM      8  C   UNL     1       5.665  51.816   6.766  1.00  0.00     0.145 C 
ATOM      9  C   UNL     1       3.793  53.161   6.272  1.00  0.00    -0.036 C 
ATOM     10  C   UNL     1       5.111  53.031   6.065  1.00  0.00     0.007 C 
BRANCH   8  11
ATOM     11  O   UNL     1       6.863  52.116   7.427  1.00  0.00    -0.388 OA
ATOM     12  H   UNL     1       7.596  51.817   6.827  1.00  0.00     0.211 HD
ENDBRANCH   8  11
BRANCH   9  13
ATOM     13  C   UNL     1       2.931  54.179   5.583  1.00  0.00     0.187 C 
BRANCH  13  14
ATOM     14  O   UNL     1       3.423  54.446   4.299  1.00  0.00    -0.392 OA
ATOM     15  H   UNL     1       2.701  54.921   3.808  1.00  0.00     0.211 HD
ENDBRANCH  13  14
ENDBRANCH   9  13
ENDBRANCH   1   2
BRANCH   1  16
ATOM     16  C   UNL     1       1.255  53.882   9.305  1.00  0.00     0.286 C 
ATOM     17  C   UNL     1       1.570  55.026  10.307  1.00  0.00     0.202 C 
ATOM     18  O   UNL     1       0.255  53.015   9.816  1.00  0.00    -0.341 OA
ATOM     19  C   UNL     1       0.288  55.811  10.633  1.00  0.00     0.179 C 
ATOM     20  C   UNL     1      -0.973  53.706   9.994  1.00  0.00     0.178 C 
ATOM     21  C   UNL     1      -0.821  54.825  11.054  1.00  0.00     0.177 C 
BRANCH  17  22
ATOM     22  O   UNL     1       2.578  55.877   9.821  1.00  0.00    -0.385 OA
ATOM     23  H   UNL     1       3.447  55.404   9.909  1.00  0.00     0.211 HD
ENDBRANCH  17  22
BRANCH  19  24
ATOM     24  O   UNL     1      -0.122  56.551   9.509  1.00  0.00    -0.387 OA
ATOM     25  H   UNL     1       0.689  56.730   8.967  1.00  0.00     0.211 HD
ENDBRANCH  19  24
BRANCH  20  26
ATOM     26  C   UNL     1      -2.040  52.690  10.429  1.00  0.00     0.191 C 
BRANCH  26  27
ATOM     27  O   UNL     1      -3.283  53.015   9.864  1.00  0.00    -0.394 OA
ATOM     28  H   UNL     1      -3.877  52.234  10.018  1.00  0.00     0.210 HD
ENDBRANCH  26  27
ENDBRANCH  20  26
BRANCH  21  29
ATOM     29  O   UNL     1      -2.040  55.508  11.209  1.00  0.00    -0.387 OA
ATOM     30  H   UNL     1      -1.850  56.468  11.036  1.00  0.00     0.211 HD
ENDBRANCH  21  29
ENDBRANCH   1  16
TORSDOF 10
ENDMDL
MODEL 3
REMARK VINA RESULT:    -5.222     13.173     15.527
REMARK INTER + INTRA:          -8.510
REMARK INTER:                  -7.307
REMARK INTRA:                  -1.203
REMARK UNBOUND:                -1.152
REMARK SMILES OCC1=C[C@@H](O)[C@@H]2C=CO[C@@H](O[C@H]3O[C@@H](CO)[C@H](O)[C@H](O)[C@@H]3O)[C@@H]12
REMARK SMILES IDX 12 1 11 2 8 3 9 4 7 5 10 6 24 7 5 8 3 9 4 10 6 11 2 13 1 14
REMARK SMILES IDX 13 16 22 17 14 18 20 19 15 20 18 21 23 22 21 24 16 26 17 27
REMARK SMILES IDX 19 29
REMARK H PARENT 6 12 1 15 23 23 21 25 17 28 19 30
REMARK Flexibility Score: inf
ROOT
ATOM      1  O   UNL     1       4.138  54.074   8.622  1.00  0.00    -0.310 OA
ENDROOT
BRANCH   1   2
ATOM      2  C   UNL     1       3.899  52.817   8.005  1.00  0.00     0.316 C 
ATOM      3  C   UNL     1       6.092  52.341   6.135  1.00  0.00     0.018 C 
ATOM      4  C   UNL     1       6.057  51.693   7.312  1.00  0.00     0.186 C 
ATOM      5  C   UNL     1       5.107  53.446   5.941  1.00  0.00     0.061 C 
ATOM      6  O   UNL     1       5.022  51.939   8.249  1.00  0.00    -0.472 OA
ATOM      7  C   UNL     1       3.761  52.998   6.488  1.00  0.00     0.096 C 
ATOM      8  C   UNL     1       4.763  53.942   4.539  1.00  0.00     0.145 C 
ATOM      9  C   UNL     1       2.845  54.020   5.907  1.00  0.00    -0.036 C 
ATOM     10  C   UNL     1       3.379  54.493   4.772  1.00  0.00     0.007 C 
BRANCH   8  11
ATOM     11  O   UNL     1       5.648  54.952   4.140  1.00  0.00    -0.388 OA
ATOM     12  H   UNL     1       6.489  54.496   3.870  1.00  0.00     0.211 HD
ENDBRANCH   8  11
BRANCH   9  13
ATOM     13  C   UNL     1       1.425  54.261   6.332  1.00  0.00     0.187 C 
BRANCH  13  14
ATOM     14  O   UNL     1       0.816  53.055   6.703  1.00  0.00    -0.392 OA
ATOM     15  H   UNL     1       0.460  53.186   7.622  1.00  0.00     0.211 HD
ENDBRANCH  13  14
ENDBRANCH   9  13
ENDBRANCH   1   2
BRANCH   1  16
ATOM     16  C   UNL     1       3.192  54.393   9.632  1.00  0.00     0.286 C 
ATOM     17  C   UNL     1       3.771  54.204  11.059  1.00  0.00     0.202 C 
ATOM     18  O   UNL     1       2.002  53.638   9.458  1.00  0.00    -0.341 OA
ATOM     19  C   UNL     1       2.721  54.597  12.112  1.00  0.00     0.179 C 
ATOM     20  C   UNL     1       0.983  54.087  10.338  1.00  0.00     0.178 C 
ATOM     21  C   UNL     1       1.398  53.863  11.814  1.00  0.00     0.177 C 
BRANCH  17  22
ATOM     22  O   UNL     1       4.963  54.928  11.234  1.00  0.00    -0.385 OA
ATOM     23  H   UNL     1       5.077  55.525  10.449  1.00  0.00     0.211 HD
ENDBRANCH  17  22
BRANCH  19  24
ATOM     24  O   UNL     1       2.518  55.989  12.093  1.00  0.00    -0.387 OA
ATOM     25  H   UNL     1       3.402  56.410  11.932  1.00  0.00     0.211 HD
ENDBRANCH  19  24
BRANCH  20  26
ATOM     26  C   UNL     1      -0.307  53.319  10.016  1.00  0.00     0.191 C 
BRANCH  26  27
ATOM     27  O   UNL     1      -1.012  53.957   8.984  1.00  0.00    -0.394 OA
ATOM     28  H   UNL     1      -0.460  54.731   8.699  1.00  0.00     0.210 HD
ENDBRANCH  26  27
ENDBRANCH  20  26
BRANCH  21  29
ATOM     29  O   UNL     1       0.386  54.325  12.673  1.00  0.00    -0.387 OA
ATOM     30  H   UNL     1      -0.425  54.451  12.113  1.00  0.00     0.211 HD
ENDBRANCH  21  29
ENDBRANCH   1  16
TORSDOF 10
ENDMDL
MODEL 4
REMARK VINA RESULT:    -5.220     12.433     15.202
REMARK INTER + INTRA:          -8.508
REMARK INTER:                  -7.880
REMARK INTRA:                  -0.629
REMARK UNBOUND:                -1.152
REMARK SMILES OCC1=C[C@@H](O)[C@@H]2C=CO[C@@H](O[C@H]3O[C@@H](CO)[C@H](O)[C@H](O)[C@@H]3O)[C@@H]12
REMARK SMILES IDX 12 1 11 2 8 3 9 4 7 5 10 6 24 7 5 8 3 9 4 10 6 11 2 13 1 14
REMARK SMILES IDX 13 16 22 17 14 18 20 19 15 20 18 21 23 22 21 24 16 26 17 27
REMARK SMILES IDX 19 29
REMARK H PARENT 6 12 1 15 23 23 21 25 17 28 19 30
REMARK Flexibility Score: inf
ROOT
ATOM      1  O   UNL     1       1.946  53.329   8.354  1.00  0.00    -0.310 OA
ENDROOT
BRANCH   1   2
ATOM      2  C   UNL     1       1.895  52.197   7.496  1.00  0.00     0.316 C 
ATOM      3  C   UNL     1       3.982  50.352   8.374  1.00  0.00     0.018 C 
ATOM      4  C   UNL     1       2.694  50.102   8.667  1.00  0.00     0.186 C 
ATOM      5  C   UNL     1       4.296  51.690   7.793  1.00  0.00     0.061 C 
ATOM      6  O   UNL     1       1.671  51.006   8.284  1.00  0.00    -0.472 OA
ATOM      7  C   UNL     1       3.233  52.036   6.764  1.00  0.00     0.096 C 
ATOM      8  C   UNL     1       5.601  51.921   7.035  1.00  0.00     0.145 C 
ATOM      9  C   UNL     1       3.869  53.176   6.046  1.00  0.00    -0.036 C 
ATOM     10  C   UNL     1       5.201  53.065   6.138  1.00  0.00     0.007 C 
BRANCH   8  11
ATOM     11  O   UNL     1       6.625  52.300   7.912  1.00  0.00    -0.388 OA
ATOM     12  H   UNL     1       7.128  51.472   8.129  1.00  0.00     0.211 HD
ENDBRANCH   8  11
BRANCH   9  13
ATOM     13  C   UNL     1       3.167  54.118   5.109  1.00  0.00     0.187 C 
BRANCH  13  14
ATOM     14  O   UNL     1       3.946  54.340   3.967  1.00  0.00    -0.392 OA
ATOM     15  H   UNL     1       3.672  53.660   3.296  1.00  0.00     0.211 HD
ENDBRANCH  13  14
ENDBRANCH   9  13
ENDBRANCH   1   2
BRANCH   1  16
ATOM     16  C   UNL     1       0.842  53.411   9.242  1.00  0.00     0.286 C 
ATOM     17  C   UNL     1      -0.077  54.621   8.926  1.00  0.00     0.202 C 
ATOM     18  O   UNL     1       1.286  53.443  10.590  1.00  0.00    -0.341 OA
ATOM     19  C   UNL     1      -1.275  54.642   9.891  1.00  0.00     0.179 C 
ATOM     20  C   UNL     1       0.192  53.327  11.488  1.00  0.00     0.178 C 
ATOM     21  C   UNL     1      -0.764  54.538  11.343  1.00  0.00     0.177 C 
BRANCH  17  22
ATOM     22  O   UNL     1      -0.503  54.613   7.586  1.00  0.00    -0.385 OA
ATOM     23  H   UNL     1      -0.189  53.767   7.170  1.00  0.00     0.211 HD
ENDBRANCH  17  22
BRANCH  19  24
ATOM     24  O   UNL     1      -2.142  53.572   9.605  1.00  0.00    -0.387 OA
ATOM     25  H   UNL     1      -2.858  53.927   9.015  1.00  0.00     0.211 HD
ENDBRANCH  19  24
BRANCH  20  26
ATOM     26  C   UNL     1       0.747  53.244  12.917  1.00  0.00     0.191 C 
BRANCH  26  27
ATOM     27  O   UNL     1       2.109  52.907  12.894  1.00  0.00    -0.394 OA
ATOM     28  H   UNL     1       2.573  53.630  12.396  1.00  0.00     0.210 HD
ENDBRANCH  26  27
ENDBRANCH  20  26
BRANCH  21  29
ATOM     29  O   UNL     1      -1.848  54.403  12.227  1.00  0.00    -0.387 OA
ATOM     30  H   UNL     1      -1.532  53.831  12.975  1.00  0.00     0.211 HD
ENDBRANCH  21  29
ENDBRANCH   1  16
TORSDOF 10
ENDMDL
MODEL 5
REMARK VINA RESULT:    -5.218      1.299      2.325
REMARK INTER + INTRA:          -8.504
REMARK INTER:                  -7.389
REMARK INTRA:                  -1.115
REMARK UNBOUND:                -1.152
REMARK SMILES OCC1=C[C@@H](O)[C@@H]2C=CO[C@@H](O[C@H]3O[C@@H](CO)[C@H](O)[C@H](O)[C@@H]3O)[C@@H]12
REMARK SMILES IDX 12 1 11 2 8 3 9 4 7 5 10 6 24 7 5 8 3 9 4 10 6 11 2 13 1 14
REMARK SMILES IDX 13 16 22 17 14 18 20 19 15 20 18 21 23 22 21 24 16 26 17 27
REMARK SMILES IDX 19 29
REMARK H PARENT 6 12 1 15 23 23 21 25 17 28 19 30
REMARK Flexibility Score: inf
ROOT
ATOM      1  O   UNL     1      -6.774  64.369   5.458  1.00  0.00    -0.310 OA
ENDROOT
BRANCH   1   2
ATOM      2  C   UNL     1      -5.537  64.373   4.760  1.00  0.00     0.316 C 
ATOM      3  C   UNL     1      -4.206  61.838   5.341  1.00  0.00     0.018 C 
ATOM      4  C   UNL     1      -4.801  62.030   4.150  1.00  0.00     0.186 C 
ATOM      5  C   UNL     1      -4.451  62.868   6.393  1.00  0.00     0.061 C 
ATOM      6  O   UNL     1      -5.485  63.238   3.864  1.00  0.00    -0.472 OA
ATOM      7  C   UNL     1      -4.375  64.244   5.753  1.00  0.00     0.096 C 
ATOM      8  C   UNL     1      -3.513  62.991   7.591  1.00  0.00     0.145 C 
ATOM      9  C   UNL     1      -4.274  65.127   6.949  1.00  0.00    -0.036 C 
ATOM     10  C   UNL     1      -3.720  64.439   7.956  1.00  0.00     0.007 C 
BRANCH   8  11
ATOM     11  O   UNL     1      -3.921  62.144   8.630  1.00  0.00    -0.388 OA
ATOM     12  H   UNL     1      -4.092  61.257   8.217  1.00  0.00     0.211 HD
ENDBRANCH   8  11
BRANCH   9  13
ATOM     13  C   UNL     1      -4.461  66.618   6.952  1.00  0.00     0.187 C 
BRANCH  13  14
ATOM     14  O   UNL     1      -5.810  66.939   7.144  1.00  0.00    -0.392 OA
ATOM     15  H   UNL     1      -5.900  67.913   6.968  1.00  0.00     0.211 HD
ENDBRANCH  13  14
ENDBRANCH   9  13
ENDBRANCH   1   2
BRANCH   1  16
ATOM     16  C   UNL     1      -7.757  65.203   4.864  1.00  0.00     0.286 C 
ATOM     17  C   UNL     1      -8.993  65.398   5.782  1.00  0.00     0.202 C 
ATOM     18  O   UNL     1      -8.138  64.699   3.593  1.00  0.00    -0.341 OA
ATOM     19  C   UNL     1     -10.009  66.337   5.109  1.00  0.00     0.179 C 
ATOM     20  C   UNL     1      -8.970  65.623   2.909  1.00  0.00     0.178 C 
ATOM     21  C   UNL     1     -10.298  65.837   3.679  1.00  0.00     0.177 C 
BRANCH  17  22
ATOM     22  O   UNL     1      -8.624  65.874   7.053  1.00  0.00    -0.385 OA
ATOM     23  H   UNL     1      -9.367  66.437   7.397  1.00  0.00     0.211 HD
ENDBRANCH  17  22
BRANCH  19  24
ATOM     24  O   UNL     1      -9.500  67.648   5.071  1.00  0.00    -0.387 OA
ATOM     25  H   UNL     1      -9.147  67.850   5.977  1.00  0.00     0.211 HD
ENDBRANCH  19  24
BRANCH  20  26
ATOM     26  C   UNL     1      -9.244  65.077   1.500  1.00  0.00     0.191 C 
BRANCH  26  27
ATOM     27  O   UNL     1      -9.246  66.120   0.562  1.00  0.00    -0.394 OA
ATOM     28  H   UNL     1      -9.065  65.707  -0.322  1.00  0.00     0.210 HD
ENDBRANCH  26  27
ENDBRANCH  20  26
BRANCH  21  29
ATOM     29  O   UNL     1     -11.105  66.764   2.998  1.00  0.00    -0.387 OA
ATOM     30  H   UNL     1     -10.500  67.284   2.406  1.00  0.00     0.211 HD
ENDBRANCH  21  29
ENDBRANCH   1  16
TORSDOF 10
ENDMDL
MODEL 6
REMARK VINA RESULT:    -5.216     12.935     15.707
REMARK INTER + INTRA:          -8.502
REMARK INTER:                  -7.255
REMARK INTRA:                  -1.247
REMARK UNBOUND:                -1.152
REMARK SMILES OCC1=C[C@@H](O)[C@@H]2C=CO[C@@H](O[C@H]3O[C@@H](CO)[C@H](O)[C@H](O)[C@@H]3O)[C@@H]12
REMARK SMILES IDX 12 1 11 2 8 3 9 4 7 5 10 6 24 7 5 8 3 9 4 10 6 11 2 13 1 14
REMARK SMILES IDX 13 16 22 17 14 18 20 19 15 20 18 21 23 22 21 24 16 26 17 27
REMARK SMILES IDX 19 29
REMARK H PARENT 6 12 1 15 23 23 21 25 17 28 19 30
REMARK Flexibility Score: inf
ROOT
ATOM      1  O   UNL     1       1.895  52.523   7.797  1.00  0.00    -0.310 OA
ENDROOT
BRANCH   1   2
ATOM      2  C   UNL     1       2.592  53.751   7.644  1.00  0.00     0.316 C 
ATOM      3  C   UNL     1       4.416  53.437   5.384  1.00  0.00     0.018 C 
ATOM      4  C   UNL     1       3.280  54.142   5.241  1.00  0.00     0.186 C 
ATOM      5  C   UNL     1       4.576  52.662   6.649  1.00  0.00     0.061 C 
ATOM      6  O   UNL     1       2.363  54.273   6.315  1.00  0.00    -0.472 OA
ATOM      7  C   UNL     1       4.099  53.521   7.809  1.00  0.00     0.096 C 
ATOM      8  C   UNL     1       5.957  52.199   7.106  1.00  0.00     0.145 C 
ATOM      9  C   UNL     1       4.649  52.779   8.979  1.00  0.00    -0.036 C 
ATOM     10  C   UNL     1       5.736  52.097   8.594  1.00  0.00     0.007 C 
BRANCH   8  11
ATOM     11  O   UNL     1       6.269  50.949   6.555  1.00  0.00    -0.388 OA
ATOM     12  H   UNL     1       6.722  50.432   7.272  1.00  0.00     0.211 HD
ENDBRANCH   8  11
BRANCH   9  13
ATOM     13  C   UNL     1       4.256  52.996  10.413  1.00  0.00     0.187 C 
BRANCH  13  14
ATOM     14  O   UNL     1       4.115  51.767  11.070  1.00  0.00    -0.392 OA
ATOM     15  H   UNL     1       3.807  51.970  11.993  1.00  0.00     0.211 HD
ENDBRANCH  13  14
ENDBRANCH   9  13
ENDBRANCH   1   2
BRANCH   1  16
ATOM     16  C   UNL     1       1.235  52.403   9.048  1.00  0.00     0.286 C 
ATOM     17  C   UNL     1       1.039  50.922   9.469  1.00  0.00     0.202 C 
ATOM     18  O   UNL     1      -0.003  53.098   9.029  1.00  0.00    -0.341 OA
ATOM     19  C   UNL     1       0.356  50.849  10.845  1.00  0.00     0.179 C 
ATOM     20  C   UNL     1      -0.576  53.150  10.327  1.00  0.00     0.178 C 
ATOM     21  C   UNL     1      -0.914  51.725  10.832  1.00  0.00     0.177 C 
BRANCH  17  22
ATOM     22  O   UNL     1       2.257  50.218   9.468  1.00  0.00    -0.385 OA
ATOM     23  H   UNL     1       2.060  49.266   9.670  1.00  0.00     0.211 HD
ENDBRANCH  17  22
BRANCH  19  24
ATOM     24  O   UNL     1       1.240  51.293  11.846  1.00  0.00    -0.387 OA
ATOM     25  H   UNL     1       1.988  50.641  11.883  1.00  0.00     0.211 HD
ENDBRANCH  19  24
BRANCH  20  26
ATOM     26  C   UNL     1      -1.843  54.015  10.261  1.00  0.00     0.191 C 
BRANCH  26  27
ATOM     27  O   UNL     1      -2.934  53.252   9.820  1.00  0.00    -0.394 OA
ATOM     28  H   UNL     1      -2.558  52.457   9.360  1.00  0.00     0.210 HD
ENDBRANCH  26  27
ENDBRANCH  20  26
BRANCH  21  29
ATOM     29  O   UNL     1      -1.467  51.791  12.122  1.00  0.00    -0.387 OA
ATOM     30  H   UNL     1      -2.359  52.217  12.025  1.00  0.00     0.211 HD
ENDBRANCH  21  29
ENDBRANCH   1  16
TORSDOF 10
ENDMDL
MODEL 7
REMARK VINA RESULT:    -5.176      2.317      7.041
REMARK INTER + INTRA:          -8.446
REMARK INTER:                  -7.929
REMARK INTRA:                  -0.516
REMARK UNBOUND:                -1.152
REMARK SMILES OCC1=C[C@@H](O)[C@@H]2C=CO[C@@H](O[C@H]3O[C@@H](CO)[C@H](O)[C@H](O)[C@@H]3O)[C@@H]12
REMARK SMILES IDX 12 1 11 2 8 3 9 4 7 5 10 6 24 7 5 8 3 9 4 10 6 11 2 13 1 14
REMARK SMILES IDX 13 16 22 17 14 18 20 19 15 20 18 21 23 22 21 24 16 26 17 27
REMARK SMILES IDX 19 29
REMARK H PARENT 6 12 1 15 23 23 21 25 17 28 19 30
REMARK Flexibility Score: inf
ROOT
ATOM      1  O   UNL     1      -5.669  62.425   6.284  1.00  0.00    -0.310 OA
ENDROOT
BRANCH   1   2
ATOM      2  C   UNL     1      -5.119  63.115   5.170  1.00  0.00     0.316 C 
ATOM      3  C   UNL     1      -7.107  65.068   4.294  1.00  0.00     0.018 C 
ATOM      4  C   UNL     1      -6.028  65.469   4.988  1.00  0.00     0.186 C 
ATOM      5  C   UNL     1      -7.341  63.597   4.197  1.00  0.00     0.061 C 
ATOM      6  O   UNL     1      -5.072  64.532   5.455  1.00  0.00    -0.472 OA
ATOM      7  C   UNL     1      -6.010  62.910   3.938  1.00  0.00     0.096 C 
ATOM      8  C   UNL     1      -8.243  63.025   3.107  1.00  0.00     0.145 C 
ATOM      9  C   UNL     1      -6.450  61.551   3.514  1.00  0.00    -0.036 C 
ATOM     10  C   UNL     1      -7.676  61.634   2.980  1.00  0.00     0.007 C 
BRANCH   8  11
ATOM     11  O   UNL     1      -9.577  62.990   3.535  1.00  0.00    -0.388 OA
ATOM     12  H   UNL     1     -10.003  62.227   3.063  1.00  0.00     0.211 HD
ENDBRANCH   8  11
BRANCH   9  13
ATOM     13  C   UNL     1      -5.566  60.341   3.405  1.00  0.00     0.187 C 
BRANCH  13  14
ATOM     14  O   UNL     1      -5.904  59.591   2.272  1.00  0.00    -0.392 OA
ATOM     15  H   UNL     1      -5.921  60.223   1.505  1.00  0.00     0.211 HD
ENDBRANCH  13  14
ENDBRANCH   9  13
ENDBRANCH   1   2
BRANCH   1  16
ATOM     16  C   UNL     1      -4.689  61.992   7.215  1.00  0.00     0.286 C 
ATOM     17  C   UNL     1      -5.321  61.483   8.538  1.00  0.00     0.202 C 
ATOM     18  O   UNL     1      -3.743  63.021   7.462  1.00  0.00    -0.341 OA
ATOM     19  C   UNL     1      -4.221  60.991   9.494  1.00  0.00     0.179 C 
ATOM     20  C   UNL     1      -2.655  62.536   8.234  1.00  0.00     0.178 C 
ATOM     21  C   UNL     1      -3.140  62.081   9.634  1.00  0.00     0.177 C 
BRANCH  17  22
ATOM     22  O   UNL     1      -6.278  60.479   8.303  1.00  0.00    -0.385 OA
ATOM     23  H   UNL     1      -6.569  60.550   7.356  1.00  0.00     0.211 HD
ENDBRANCH  17  22
BRANCH  19  24
ATOM     24  O   UNL     1      -3.651  59.803   9.002  1.00  0.00    -0.387 OA
ATOM     25  H   UNL     1      -4.155  59.049   9.406  1.00  0.00     0.211 HD
ENDBRANCH  19  24
BRANCH  20  26
ATOM     26  C   UNL     1      -1.615  63.659   8.361  1.00  0.00     0.191 C 
BRANCH  26  27
ATOM     27  O   UNL     1      -0.316  63.133   8.279  1.00  0.00    -0.394 OA
ATOM     28  H   UNL     1       0.025  63.358   7.374  1.00  0.00     0.210 HD
ENDBRANCH  26  27
ENDBRANCH  20  26
BRANCH  21  29
ATOM     29  O   UNL     1      -2.055  61.592  10.382  1.00  0.00    -0.387 OA
ATOM     30  H   UNL     1      -1.316  61.434   9.738  1.00  0.00     0.211 HD
ENDBRANCH  21  29
ENDBRANCH   1  16
TORSDOF 10
ENDMDL
MODEL 8
REMARK VINA RESULT:    -5.133      2.152      5.993
REMARK INTER + INTRA:          -8.385
REMARK INTER:                  -7.042
REMARK INTRA:                  -1.343
REMARK UNBOUND:                -1.152
REMARK SMILES OCC1=C[C@@H](O)[C@@H]2C=CO[C@@H](O[C@H]3O[C@@H](CO)[C@H](O)[C@H](O)[C@@H]3O)[C@@H]12
REMARK SMILES IDX 12 1 11 2 8 3 9 4 7 5 10 6 24 7 5 8 3 9 4 10 6 11 2 13 1 14
REMARK SMILES IDX 13 16 22 17 14 18 20 19 15 20 18 21 23 22 21 24 16 26 17 27
REMARK SMILES IDX 19 29
REMARK H PARENT 6 12 1 15 23 23 21 25 17 28 19 30
REMARK Flexibility Score: inf
ROOT
ATOM      1  O   UNL     1      -7.205  65.697   4.738  1.00  0.00    -0.310 OA
ENDROOT
BRANCH   1   2
ATOM      2  C   UNL     1      -7.935  64.527   5.079  1.00  0.00     0.316 C 
ATOM      3  C   UNL     1      -9.239  63.578   2.643  1.00  0.00     0.018 C 
ATOM      4  C   UNL     1      -8.146  62.950   3.112  1.00  0.00     0.186 C 
ATOM      5  C   UNL     1      -9.601  64.875   3.286  1.00  0.00     0.061 C 
ATOM      6  O   UNL     1      -7.476  63.419   4.270  1.00  0.00    -0.472 OA
ATOM      7  C   UNL     1      -9.426  64.738   4.789  1.00  0.00     0.096 C 
ATOM      8  C   UNL     1     -11.013  65.440   3.152  1.00  0.00     0.145 C 
ATOM      9  C   UNL     1     -10.152  65.940   5.288  1.00  0.00    -0.036 C 
ATOM     10  C   UNL     1     -11.093  66.285   4.398  1.00  0.00     0.007 C 
BRANCH   8  11
ATOM     11  O   UNL     1     -11.125  66.227   1.998  1.00  0.00    -0.388 OA
ATOM     12  H   UNL     1     -11.850  65.823   1.453  1.00  0.00     0.211 HD
ENDBRANCH   8  11
BRANCH   9  13
ATOM     13  C   UNL     1     -10.073  66.492   6.683  1.00  0.00     0.187 C 
BRANCH  13  14
ATOM     14  O   UNL     1      -9.135  67.531   6.744  1.00  0.00    -0.392 OA
ATOM     15  H   UNL     1      -8.418  67.306   6.094  1.00  0.00     0.211 HD
ENDBRANCH  13  14
ENDBRANCH   9  13
ENDBRANCH   1   2
BRANCH   1  16
ATOM     16  C   UNL     1      -6.176  66.007   5.665  1.00  0.00     0.286 C 
ATOM     17  C   UNL     1      -5.106  64.886   5.749  1.00  0.00     0.202 C 
ATOM     18  O   UNL     1      -6.723  66.290   6.943  1.00  0.00    -0.341 OA
ATOM     19  C   UNL     1      -3.997  65.287   6.737  1.00  0.00     0.179 C 
ATOM     20  C   UNL     1      -5.727  66.789   7.823  1.00  0.00     0.178 C 
ATOM     21  C   UNL     1      -4.634  65.720   8.073  1.00  0.00     0.177 C 
BRANCH  17  22
ATOM     22  O   UNL     1      -4.574  64.580   4.484  1.00  0.00    -0.385 OA
ATOM     23  H   UNL     1      -5.333  64.416   3.864  1.00  0.00     0.211 HD
ENDBRANCH  17  22
BRANCH  19  24
ATOM     24  O   UNL     1      -3.233  66.340   6.201  1.00  0.00    -0.387 OA
ATOM     25  H   UNL     1      -2.861  66.850   6.967  1.00  0.00     0.211 HD
ENDBRANCH  19  24
BRANCH  20  26
ATOM     26  C   UNL     1      -6.403  67.190   9.142  1.00  0.00     0.191 C 
BRANCH  26  27
ATOM     27  O   UNL     1      -7.697  66.650   9.212  1.00  0.00    -0.394 OA
ATOM     28  H   UNL     1      -8.327  67.402   9.058  1.00  0.00     0.210 HD
ENDBRANCH  26  27
ENDBRANCH  20  26
BRANCH  21  29
ATOM     29  O   UNL     1      -3.648  66.233   8.933  1.00  0.00    -0.387 OA
ATOM     30  H   UNL     1      -2.831  66.359   8.384  1.00  0.00     0.211 HD
ENDBRANCH  21  29
ENDBRANCH   1  16
TORSDOF 10
ENDMDL
MODEL 9
REMARK VINA RESULT:    -5.091     12.438     15.840
REMARK INTER + INTRA:          -8.326
REMARK INTER:                  -7.398
REMARK INTRA:                  -0.928
REMARK UNBOUND:                -1.152
REMARK SMILES OCC1=C[C@@H](O)[C@@H]2C=CO[C@@H](O[C@H]3O[C@@H](CO)[C@H](O)[C@H](O)[C@@H]3O)[C@@H]12
REMARK SMILES IDX 12 1 11 2 8 3 9 4 7 5 10 6 24 7 5 8 3 9 4 10 6 11 2 13 1 14
REMARK SMILES IDX 13 16 22 17 14 18 20 19 15 20 18 21 23 22 21 24 16 26 17 27
REMARK SMILES IDX 19 29
REMARK H PARENT 6 12 1 15 23 23 21 25 17 28 19 30
REMARK Flexibility Score: inf
ROOT
ATOM      1  O   UNL     1       3.501  55.359   8.876  1.00  0.00    -0.310 OA
ENDROOT
BRANCH   1   2
ATOM      2  C   UNL     1       2.872  55.129  10.130  1.00  0.00     0.316 C 
ATOM      3  C   UNL     1       0.924  57.269  10.526  1.00  0.00     0.018 C 
ATOM      4  C   UNL     1       0.512  56.039  10.171  1.00  0.00     0.186 C 
ATOM      5  C   UNL     1       2.393  57.528  10.485  1.00  0.00     0.061 C 
ATOM      6  O   UNL     1       1.445  54.998   9.936  1.00  0.00    -0.472 OA
ATOM      7  C   UNL     1       3.116  56.322  11.062  1.00  0.00     0.096 C 
ATOM      8  C   UNL     1       2.997  58.697  11.260  1.00  0.00     0.145 C 
ATOM      9  C   UNL     1       4.484  56.868  11.285  1.00  0.00    -0.036 C 
ATOM     10  C   UNL     1       4.402  58.193  11.470  1.00  0.00     0.007 C 
BRANCH   8  11
ATOM     11  O   UNL     1       2.988  59.864  10.485  1.00  0.00    -0.388 OA
ATOM     12  H   UNL     1       3.896  60.259  10.564  1.00  0.00     0.211 HD
ENDBRANCH   8  11
BRANCH   9  13
ATOM     13  C   UNL     1       5.713  56.054  11.571  1.00  0.00     0.187 C 
BRANCH  13  14
ATOM     14  O   UNL     1       6.867  56.792  11.276  1.00  0.00    -0.392 OA
ATOM     15  H   UNL     1       7.314  56.332  10.517  1.00  0.00     0.211 HD
ENDBRANCH  13  14
ENDBRANCH   9  13
ENDBRANCH   1   2
BRANCH   1  16
ATOM     16  C   UNL     1       4.193  54.223   8.379  1.00  0.00     0.286 C 
ATOM     17  C   UNL     1       3.742  53.845   6.942  1.00  0.00     0.202 C 
ATOM     18  O   UNL     1       4.053  53.124   9.265  1.00  0.00    -0.341 OA
ATOM     19  C   UNL     1       4.546  52.635   6.437  1.00  0.00     0.179 C 
ATOM     20  C   UNL     1       4.896  52.049   8.879  1.00  0.00     0.178 C 
ATOM     21  C   UNL     1       4.486  51.507   7.487  1.00  0.00     0.177 C 
BRANCH  17  22
ATOM     22  O   UNL     1       3.853  54.934   6.060  1.00  0.00    -0.385 OA
ATOM     23  H   UNL     1       4.747  55.346   6.194  1.00  0.00     0.211 HD
ENDBRANCH  17  22
BRANCH  19  24
ATOM     24  O   UNL     1       5.882  53.009   6.204  1.00  0.00    -0.387 OA
ATOM     25  H   UNL     1       6.151  52.603   5.338  1.00  0.00     0.211 HD
ENDBRANCH  19  24
BRANCH  20  26
ATOM     26  C   UNL     1       4.791  50.946   9.943  1.00  0.00     0.191 C 
BRANCH  26  27
ATOM     27  O   UNL     1       3.876  49.962   9.538  1.00  0.00    -0.394 OA
ATOM     28  H   UNL     1       4.028  49.815   8.568  1.00  0.00     0.210 HD
ENDBRANCH  26  27
ENDBRANCH  20  26
BRANCH  21  29
ATOM     29  O   UNL     1       5.338  50.453   7.112  1.00  0.00    -0.387 OA
ATOM     30  H   UNL     1       6.058  50.855   6.559  1.00  0.00     0.211 HD
ENDBRANCH  21  29
ENDBRANCH   1  16
TORSDOF 10
ENDMDL
