MODEL 1
REMARK VINA RESULT:    -4.800      0.000      0.000
REMARK INTER + INTRA:          -7.360
REMARK INTER:                  -6.765
REMARK INTRA:                  -0.596
REMARK UNBOUND:                -0.596
REMARK SMILES C=CCCCCCCC(=O)[O-]
REMARK SMILES IDX 6 1 7 2 8 3 9 4 10 5 11 6 5 7 4 8 3 9 2 10 1 11
REMARK H PARENT
REMARK Flexibility Score: inf
ROOT
ATOM      1  C   UNL     1      -1.990  43.683   2.604  1.00  0.00     0.000 C 
ENDROOT
BRANCH   1   2
ATOM      2  C   UNL     1      -2.034  45.159   3.019  1.00  0.00     0.006 C 
BRANCH   2   3
ATOM      3  C   UNL     1      -2.106  45.300   4.542  1.00  0.00     0.053 C 
BRANCH   3   4
ATOM      4  C   UNL     1      -3.264  44.526   5.087  1.00  0.00     0.041 C 
ATOM      5  O   UNL     1      -3.072  43.603   5.921  1.00  0.00    -0.550 OA
ATOM      6  O   UNL     1      -4.559  44.855   4.711  1.00  0.00    -0.550 OA
ENDBRANCH   3   4
ENDBRANCH   2   3
ENDBRANCH   1   2
BRANCH   1   7
ATOM      7  C   UNL     1      -1.340  43.522   1.221  1.00  0.00     0.000 C 
BRANCH   7   8
ATOM      8  C   UNL     1      -0.624  44.799   0.752  1.00  0.00     0.004 C 
BRANCH   8   9
ATOM      9  C   UNL     1       0.768  44.516   0.167  1.00  0.00     0.027 C 
BRANCH   9  10
ATOM     10  C   UNL     1       1.814  44.481   1.247  1.00  0.00    -0.035 C 
ATOM     11  C   UNL     1       1.811  45.357   2.257  1.00  0.00     0.004 C 
ENDBRANCH   9  10
ENDBRANCH   8   9
ENDBRANCH   7   8
ENDBRANCH   1   7
TORSDOF 7
ENDMDL
MODEL 2
REMARK VINA RESULT:    -4.723      6.373      8.253
REMARK INTER + INTRA:          -7.251
REMARK INTER:                  -6.948
REMARK INTRA:                  -0.303
REMARK UNBOUND:                -0.596
REMARK SMILES C=CCCCCCCC(=O)[O-]
REMARK SMILES IDX 6 1 7 2 8 3 9 4 10 5 11 6 5 7 4 8 3 9 2 10 1 11
REMARK H PARENT
REMARK Flexibility Score: inf
ROOT
ATOM      1  C   UNL     1       3.117  44.499  -0.846  1.00  0.00     0.000 C 
ENDROOT
BRANCH   1   2
ATOM      2  C   UNL     1       3.185  44.000  -2.294  1.00  0.00     0.006 C 
BRANCH   2   3
ATOM      3  C   UNL     1       4.563  43.411  -2.610  1.00  0.00     0.053 C 
BRANCH   3   4
ATOM      4  C   UNL     1       5.190  44.131  -3.761  1.00  0.00     0.041 C 
ATOM      5  O   UNL     1       4.705  45.220  -4.167  1.00  0.00    -0.550 OA
ATOM      6  O   UNL     1       6.338  43.626  -4.356  1.00  0.00    -0.550 OA
ENDBRANCH   3   4
ENDBRANCH   2   3
ENDBRANCH   1   2
BRANCH   1   7
ATOM      7  C   UNL     1       1.672  44.477  -0.325  1.00  0.00     0.000 C 
BRANCH   7   8
ATOM      8  C   UNL     1       1.587  44.721   1.190  1.00  0.00     0.004 C 
BRANCH   8   9
ATOM      9  C   UNL     1       2.964  44.709   1.870  1.00  0.00     0.027 C 
BRANCH   9  10
ATOM     10  C   UNL     1       2.951  45.521   3.136  1.00  0.00    -0.035 C 
ATOM     11  C   UNL     1       3.681  46.633   3.265  1.00  0.00     0.004 C 
ENDBRANCH   9  10
ENDBRANCH   8   9
ENDBRANCH   7   8
ENDBRANCH   1   7
TORSDOF 7
ENDMDL
MODEL 3
REMARK VINA RESULT:    -4.715      3.335      4.783
REMARK INTER + INTRA:          -7.240
REMARK INTER:                  -6.920
REMARK INTRA:                  -0.320
REMARK UNBOUND:                -0.596
REMARK SMILES C=CCCCCCCC(=O)[O-]
REMARK SMILES IDX 6 1 7 2 8 3 9 4 10 5 11 6 5 7 4 8 3 9 2 10 1 11
REMARK H PARENT
REMARK Flexibility Score: inf
ROOT
ATOM      1  C   UNL     1       1.747  44.496   0.888  1.00  0.00     0.000 C 
ENDROOT
BRANCH   1   2
ATOM      2  C   UNL     1       0.373  44.890   1.445  1.00  0.00     0.006 C 
BRANCH   2   3
ATOM      3  C   UNL     1      -0.741  44.556   0.449  1.00  0.00     0.053 C 
BRANCH   3   4
ATOM      4  C   UNL     1      -1.484  45.793   0.058  1.00  0.00     0.041 C 
ATOM      5  O   UNL     1      -1.819  45.979  -1.141  1.00  0.00    -0.550 OA
ATOM      6  O   UNL     1      -1.849  46.720   1.026  1.00  0.00    -0.550 OA
ENDBRANCH   3   4
ENDBRANCH   2   3
ENDBRANCH   1   2
BRANCH   1   7
ATOM      7  C   UNL     1       2.862  44.828   1.891  1.00  0.00     0.000 C 
BRANCH   7   8
ATOM      8  C   UNL     1       2.391  45.780   3.003  1.00  0.00     0.004 C 
BRANCH   8   9
ATOM      9  C   UNL     1       3.451  45.980   4.097  1.00  0.00     0.027 C 
BRANCH   9  10
ATOM     10  C   UNL     1       4.325  44.764   4.235  1.00  0.00    -0.035 C 
ATOM     11  C   UNL     1       4.811  44.378   5.418  1.00  0.00     0.004 C 
ENDBRANCH   9  10
ENDBRANCH   8   9
ENDBRANCH   7   8
ENDBRANCH   1   7
TORSDOF 7
ENDMDL
MODEL 4
REMARK VINA RESULT:    -4.704      5.807      7.154
REMARK INTER + INTRA:          -7.225
REMARK INTER:                  -7.040
REMARK INTRA:                  -0.184
REMARK UNBOUND:                -0.596
REMARK SMILES C=CCCCCCCC(=O)[O-]
REMARK SMILES IDX 6 1 7 2 8 3 9 4 10 5 11 6 5 7 4 8 3 9 2 10 1 11
REMARK H PARENT
REMARK Flexibility Score: inf
ROOT
ATOM      1  C   UNL     1       1.794  44.528   0.319  1.00  0.00     0.000 C 
ENDROOT
BRANCH   1   2
ATOM      2  C   UNL     1       2.429  44.526  -1.077  1.00  0.00     0.006 C 
BRANCH   2   3
ATOM      3  C   UNL     1       1.356  44.512  -2.170  1.00  0.00     0.053 C 
BRANCH   3   4
ATOM      4  C   UNL     1       1.988  44.463  -3.524  1.00  0.00     0.041 C 
ATOM      5  O   UNL     1       1.341  44.019  -4.510  1.00  0.00    -0.550 OA
ATOM      6  O   UNL     1       3.274  44.952  -3.710  1.00  0.00    -0.550 OA
ENDBRANCH   3   4
ENDBRANCH   2   3
ENDBRANCH   1   2
BRANCH   1   7
ATOM      7  C   UNL     1       2.863  44.700   1.408  1.00  0.00     0.000 C 
BRANCH   7   8
ATOM      8  C   UNL     1       2.348  45.492   2.621  1.00  0.00     0.004 C 
BRANCH   8   9
ATOM      9  C   UNL     1       3.483  46.143   3.427  1.00  0.00     0.027 C 
BRANCH   9  10
ATOM     10  C   UNL     1       3.776  45.362   4.678  1.00  0.00    -0.035 C 
ATOM     11  C   UNL     1       4.892  44.637   4.809  1.00  0.00     0.004 C 
ENDBRANCH   9  10
ENDBRANCH   8   9
ENDBRANCH   7   8
ENDBRANCH   1   7
TORSDOF 7
ENDMDL
MODEL 5
REMARK VINA RESULT:    -4.676      1.642      2.834
REMARK INTER + INTRA:          -7.185
REMARK INTER:                  -6.896
REMARK INTRA:                  -0.289
REMARK UNBOUND:                -0.596
REMARK SMILES C=CCCCCCCC(=O)[O-]
REMARK SMILES IDX 6 1 7 2 8 3 9 4 10 5 11 6 5 7 4 8 3 9 2 10 1 11
REMARK H PARENT
REMARK Flexibility Score: inf
ROOT
ATOM      1  C   UNL     1       0.034  44.847   1.510  1.00  0.00     0.000 C 
ENDROOT
BRANCH   1   2
ATOM      2  C   UNL     1      -0.966  43.686   1.438  1.00  0.00     0.006 C 
BRANCH   2   3
ATOM      3  C   UNL     1      -2.357  44.127   1.903  1.00  0.00     0.053 C 
BRANCH   3   4
ATOM      4  C   UNL     1      -2.432  44.135   3.396  1.00  0.00     0.041 C 
ATOM      5  O   UNL     1      -2.321  45.217   4.031  1.00  0.00    -0.550 OA
ATOM      6  O   UNL     1      -2.675  42.955   4.087  1.00  0.00    -0.550 OA
ENDBRANCH   3   4
ENDBRANCH   2   3
ENDBRANCH   1   2
BRANCH   1   7
ATOM      7  C   UNL     1       1.282  44.549   0.666  1.00  0.00     0.000 C 
BRANCH   7   8
ATOM      8  C   UNL     1       2.587  44.714   1.463  1.00  0.00     0.004 C 
BRANCH   8   9
ATOM      9  C   UNL     1       2.400  45.554   2.736  1.00  0.00     0.027 C 
BRANCH   9  10
ATOM     10  C   UNL     1       3.697  45.701   3.483  1.00  0.00    -0.035 C 
ATOM     11  C   UNL     1       4.137  44.757   4.320  1.00  0.00     0.004 C 
ENDBRANCH   9  10
ENDBRANCH   8   9
ENDBRANCH   7   8
ENDBRANCH   1   7
TORSDOF 7
ENDMDL
MODEL 6
REMARK VINA RESULT:    -4.591      2.526      3.762
REMARK INTER + INTRA:          -7.066
REMARK INTER:                  -6.787
REMARK INTRA:                  -0.279
REMARK UNBOUND:                -0.596
REMARK SMILES C=CCCCCCCC(=O)[O-]
REMARK SMILES IDX 6 1 7 2 8 3 9 4 10 5 11 6 5 7 4 8 3 9 2 10 1 11
REMARK H PARENT
REMARK Flexibility Score: inf
ROOT
ATOM      1  C   UNL     1       0.306  44.892   1.463  1.00  0.00     0.000 C 
ENDROOT
BRANCH   1   2
ATOM      2  C   UNL     1      -0.812  43.957   0.982  1.00  0.00     0.006 C 
BRANCH   2   3
ATOM      3  C   UNL     1      -2.126  44.249   1.713  1.00  0.00     0.053 C 
BRANCH   3   4
ATOM      4  C   UNL     1      -3.139  44.808   0.766  1.00  0.00     0.041 C 
ATOM      5  O   UNL     1      -2.799  45.144  -0.400  1.00  0.00    -0.550 OA
ATOM      6  O   UNL     1      -4.468  44.914   1.152  1.00  0.00    -0.550 OA
ENDBRANCH   3   4
ENDBRANCH   2   3
ENDBRANCH   1   2
BRANCH   1   7
ATOM      7  C   UNL     1       1.617  44.611   0.713  1.00  0.00     0.000 C 
BRANCH   7   8
ATOM      8  C   UNL     1       2.856  44.782   1.607  1.00  0.00     0.004 C 
BRANCH   8   9
ATOM      9  C   UNL     1       2.570  45.622   2.860  1.00  0.00     0.027 C 
BRANCH   9  10
ATOM     10  C   UNL     1       3.803  45.765   3.710  1.00  0.00    -0.035 C 
ATOM     11  C   UNL     1       4.311  44.733   4.391  1.00  0.00     0.004 C 
ENDBRANCH   9  10
ENDBRANCH   8   9
ENDBRANCH   7   8
ENDBRANCH   1   7
TORSDOF 7
ENDMDL
MODEL 7
REMARK VINA RESULT:    -4.567      3.970      5.948
REMARK INTER + INTRA:          -7.031
REMARK INTER:                  -6.675
REMARK INTRA:                  -0.356
REMARK UNBOUND:                -0.596
REMARK SMILES C=CCCCCCCC(=O)[O-]
REMARK SMILES IDX 6 1 7 2 8 3 9 4 10 5 11 6 5 7 4 8 3 9 2 10 1 11
REMARK H PARENT
REMARK Flexibility Score: inf
ROOT
ATOM      1  C   UNL     1      -1.769  46.482   7.617  1.00  0.00     0.000 C 
ENDROOT
BRANCH   1   2
ATOM      2  C   UNL     1      -2.833  45.654   6.888  1.00  0.00     0.006 C 
BRANCH   2   3
ATOM      3  C   UNL     1      -2.418  45.374   5.440  1.00  0.00     0.053 C 
BRANCH   3   4
ATOM      4  C   UNL     1      -3.376  44.427   4.794  1.00  0.00     0.041 C 
ATOM      5  O   UNL     1      -4.550  44.797   4.527  1.00  0.00    -0.550 OA
ATOM      6  O   UNL     1      -2.961  43.150   4.439  1.00  0.00    -0.550 OA
ENDBRANCH   3   4
ENDBRANCH   2   3
ENDBRANCH   1   2
BRANCH   1   7
ATOM      7  C   UNL     1      -0.583  46.790   6.690  1.00  0.00     0.000 C 
BRANCH   7   8
ATOM      8  C   UNL     1       0.679  47.207   7.465  1.00  0.00     0.004 C 
BRANCH   8   9
ATOM      9  C   UNL     1       0.463  48.471   8.310  1.00  0.00     0.027 C 
BRANCH   9  10
ATOM     10  C   UNL     1       0.852  48.238   9.744  1.00  0.00    -0.035 C 
ATOM     11  C   UNL     1       1.772  47.329  10.084  1.00  0.00     0.004 C 
ENDBRANCH   9  10
ENDBRANCH   8   9
ENDBRANCH   7   8
ENDBRANCH   1   7
TORSDOF 7
ENDMDL
MODEL 8
REMARK VINA RESULT:    -4.506      8.283     10.557
REMARK INTER + INTRA:          -6.945
REMARK INTER:                  -6.547
REMARK INTRA:                  -0.398
REMARK UNBOUND:                -0.596
REMARK SMILES C=CCCCCCCC(=O)[O-]
REMARK SMILES IDX 6 1 7 2 8 3 9 4 10 5 11 6 5 7 4 8 3 9 2 10 1 11
REMARK H PARENT
REMARK Flexibility Score: inf
ROOT
ATOM      1  C   UNL     1       5.298  44.649  -4.385  1.00  0.00     0.000 C 
ENDROOT
BRANCH   1   2
ATOM      2  C   UNL     1       6.727  44.869  -4.897  1.00  0.00     0.006 C 
BRANCH   2   3
ATOM      3  C   UNL     1       7.093  46.356  -4.890  1.00  0.00     0.053 C 
BRANCH   3   4
ATOM      4  C   UNL     1       7.812  46.712  -3.628  1.00  0.00     0.041 C 
ATOM      5  O   UNL     1       7.321  47.560  -2.837  1.00  0.00    -0.550 OA
ATOM      6  O   UNL     1       9.000  46.073  -3.300  1.00  0.00    -0.550 OA
ENDBRANCH   3   4
ENDBRANCH   2   3
ENDBRANCH   1   2
BRANCH   1   7
ATOM      7  C   UNL     1       5.307  44.140  -2.936  1.00  0.00     0.000 C 
BRANCH   7   8
ATOM      8  C   UNL     1       4.038  43.346  -2.582  1.00  0.00     0.004 C 
BRANCH   8   9
ATOM      9  C   UNL     1       3.079  44.137  -1.679  1.00  0.00     0.027 C 
BRANCH   9  10
ATOM     10  C   UNL     1       1.787  44.434  -2.389  1.00  0.00    -0.035 C 
ATOM     11  C   UNL     1       1.549  43.994  -3.629  1.00  0.00     0.004 C 
ENDBRANCH   9  10
ENDBRANCH   8   9
ENDBRANCH   7   8
ENDBRANCH   1   7
TORSDOF 7
ENDMDL
MODEL 9
REMARK VINA RESULT:    -4.489      6.088      7.942
REMARK INTER + INTRA:          -6.922
REMARK INTER:                  -6.705
REMARK INTRA:                  -0.217
REMARK UNBOUND:                -0.596
REMARK SMILES C=CCCCCCCC(=O)[O-]
REMARK SMILES IDX 6 1 7 2 8 3 9 4 10 5 11 6 5 7 4 8 3 9 2 10 1 11
REMARK H PARENT
REMARK Flexibility Score: inf
ROOT
ATOM      1  C   UNL     1       1.319  44.524  -2.186  1.00  0.00     0.000 C 
ENDROOT
BRANCH   1   2
ATOM      2  C   UNL     1       2.486  44.102  -3.087  1.00  0.00     0.006 C 
BRANCH   2   3
ATOM      3  C   UNL     1       3.586  43.410  -2.275  1.00  0.00     0.053 C 
BRANCH   3   4
ATOM      4  C   UNL     1       4.931  43.711  -2.853  1.00  0.00     0.041 C 
ATOM      5  O   UNL     1       5.861  42.866  -2.767  1.00  0.00    -0.550 OA
ATOM      6  O   UNL     1       5.147  44.904  -3.531  1.00  0.00    -0.550 OA
ENDBRANCH   3   4
ENDBRANCH   2   3
ENDBRANCH   1   2
BRANCH   1   7
ATOM      7  C   UNL     1       0.094  44.921  -3.025  1.00  0.00     0.000 C 
BRANCH   7   8
ATOM      8  C   UNL     1      -0.898  45.797  -2.243  1.00  0.00     0.004 C 
BRANCH   8   9
ATOM      9  C   UNL     1      -1.266  45.200  -0.876  1.00  0.00     0.027 C 
BRANCH   9  10
ATOM     10  C   UNL     1      -1.817  46.253   0.045  1.00  0.00    -0.035 C 
ATOM     11  C   UNL     1      -1.657  46.181   1.370  1.00  0.00     0.004 C 
ENDBRANCH   9  10
ENDBRANCH   8   9
ENDBRANCH   7   8
ENDBRANCH   1   7
TORSDOF 7
ENDMDL
