MODEL 1
REMARK VINA RESULT:    -4.102      0.000      0.000
REMARK INTER + INTRA:          -9.202
REMARK INTER:                  -7.219
REMARK INTRA:                  -1.983
REMARK UNBOUND:                -1.983
REMARK SMILES CCCCCCCCCCCCCCC(=O)[O-]
REMARK SMILES IDX 9 1 10 2 11 3 12 4 13 5 14 6 15 7 16 8 17 9 8 10 7 11 6 12
REMARK SMILES IDX 5 13 4 14 3 15 2 16 1 17
REMARK H PARENT
REMARK Flexibility Score: inf
ROOT
ATOM      1  C   UNL     1      -8.875 -35.756 -28.678  1.00  0.00     0.000 C 
ENDROOT
BRANCH   1   2
ATOM      2  C   UNL     1      -9.862 -35.310 -29.773  1.00  0.00     0.000 C 
BRANCH   2   3
ATOM      3  C   UNL     1     -10.500 -36.495 -30.515  1.00  0.00     0.000 C 
BRANCH   3   4
ATOM      4  C   UNL     1     -12.037 -36.481 -30.436  1.00  0.00     0.000 C 
BRANCH   4   5
ATOM      5  C   UNL     1     -12.580 -35.291 -29.622  1.00  0.00     0.006 C 
BRANCH   5   6
ATOM      6  C   UNL     1     -13.912 -35.568 -28.906  1.00  0.00     0.053 C 
BRANCH   6   7
ATOM      7  C   UNL     1     -14.286 -34.461 -27.968  1.00  0.00     0.041 C 
ATOM      8  O   UNL     1     -13.399 -33.864 -27.304  1.00  0.00    -0.550 OA
ATOM      9  O   UNL     1     -15.622 -34.112 -27.805  1.00  0.00    -0.550 OA
ENDBRANCH   6   7
ENDBRANCH   5   6
ENDBRANCH   4   5
ENDBRANCH   3   4
ENDBRANCH   2   3
ENDBRANCH   1   2
BRANCH   1  10
ATOM     10  C   UNL     1      -8.973 -37.259 -28.372  1.00  0.00     0.000 C 
BRANCH  10  11
ATOM     11  C   UNL     1      -9.508 -37.540 -26.961  1.00  0.00    -0.000 C 
BRANCH  11  12
ATOM     12  C   UNL     1     -11.006 -37.869 -26.995  1.00  0.00    -0.000 C 
BRANCH  12  13
ATOM     13  C   UNL     1     -11.819 -36.821 -26.226  1.00  0.00    -0.000 C 
BRANCH  13  14
ATOM     14  C   UNL     1     -10.910 -35.707 -25.687  1.00  0.00    -0.000 C 
BRANCH  14  15
ATOM     15  C   UNL     1     -11.384 -35.150 -24.331  1.00  0.00    -0.000 C 
BRANCH  15  16
ATOM     16  C   UNL     1     -11.705 -36.219 -23.271  1.00  0.00    -0.003 C 
ATOM     17  C   UNL     1     -10.457 -36.886 -22.696  1.00  0.00     0.004 C 
ENDBRANCH  15  16
ENDBRANCH  14  15
ENDBRANCH  13  14
ENDBRANCH  12  13
ENDBRANCH  11  12
ENDBRANCH  10  11
ENDBRANCH   1  10
TORSDOF 13
ENDMDL
MODEL 2
REMARK VINA RESULT:    -4.061      1.907      4.270
REMARK INTER + INTRA:          -9.130
REMARK INTER:                  -7.032
REMARK INTRA:                  -2.098
REMARK UNBOUND:                -1.983
REMARK SMILES CCCCCCCCCCCCCCC(=O)[O-]
REMARK SMILES IDX 9 1 10 2 11 3 12 4 13 5 14 6 15 7 16 8 17 9 8 10 7 11 6 12
REMARK SMILES IDX 5 13 4 14 3 15 2 16 1 17
REMARK H PARENT
REMARK Flexibility Score: inf
ROOT
ATOM      1  C   UNL     1     -11.096 -34.782 -25.022  1.00  0.00     0.000 C 
ENDROOT
BRANCH   1   2
ATOM      2  C   UNL     1     -12.452 -34.394 -25.640  1.00  0.00     0.000 C 
BRANCH   2   3
ATOM      3  C   UNL     1     -12.348 -34.061 -27.137  1.00  0.00     0.000 C 
BRANCH   3   4
ATOM      4  C   UNL     1     -13.134 -35.050 -28.016  1.00  0.00     0.000 C 
BRANCH   4   5
ATOM      5  C   UNL     1     -12.947 -34.786 -29.523  1.00  0.00     0.006 C 
BRANCH   5   6
ATOM      6  C   UNL     1     -13.292 -35.982 -30.424  1.00  0.00     0.053 C 
BRANCH   6   7
ATOM      7  C   UNL     1     -14.537 -35.745 -31.221  1.00  0.00     0.041 C 
ATOM      8  O   UNL     1     -15.517 -35.147 -30.704  1.00  0.00    -0.550 OA
ATOM      9  O   UNL     1     -14.627 -36.215 -32.526  1.00  0.00    -0.550 OA
ENDBRANCH   6   7
ENDBRANCH   5   6
ENDBRANCH   4   5
ENDBRANCH   3   4
ENDBRANCH   2   3
ENDBRANCH   1   2
BRANCH   1  10
ATOM     10  C   UNL     1     -11.126 -36.165 -24.355  1.00  0.00     0.000 C 
BRANCH  10  11
ATOM     11  C   UNL     1     -11.602 -37.270 -25.309  1.00  0.00    -0.000 C 
BRANCH  11  12
ATOM     12  C   UNL     1     -10.417 -37.924 -26.030  1.00  0.00    -0.000 C 
BRANCH  12  13
ATOM     13  C   UNL     1     -10.479 -37.667 -27.540  1.00  0.00    -0.000 C 
BRANCH  13  14
ATOM     14  C   UNL     1      -9.145 -37.110 -28.058  1.00  0.00    -0.000 C 
BRANCH  14  15
ATOM     15  C   UNL     1      -9.112 -35.570 -28.093  1.00  0.00    -0.000 C 
BRANCH  15  16
ATOM     16  C   UNL     1      -9.206 -34.955 -29.500  1.00  0.00    -0.003 C 
ATOM     17  C   UNL     1      -9.570 -35.975 -30.577  1.00  0.00     0.004 C 
ENDBRANCH  15  16
ENDBRANCH  14  15
ENDBRANCH  13  14
ENDBRANCH  12  13
ENDBRANCH  11  12
ENDBRANCH  10  11
ENDBRANCH   1  10
TORSDOF 13
ENDMDL
MODEL 3
REMARK VINA RESULT:    -4.036      1.715      4.142
REMARK INTER + INTRA:          -9.087
REMARK INTER:                  -7.243
REMARK INTRA:                  -1.844
REMARK UNBOUND:                -1.983
REMARK SMILES CCCCCCCCCCCCCCC(=O)[O-]
REMARK SMILES IDX 9 1 10 2 11 3 12 4 13 5 14 6 15 7 16 8 17 9 8 10 7 11 6 12
REMARK SMILES IDX 5 13 4 14 3 15 2 16 1 17
REMARK H PARENT
REMARK Flexibility Score: inf
ROOT
ATOM      1  C   UNL     1      -9.696 -35.243 -29.849  1.00  0.00     0.000 C 
ENDROOT
BRANCH   1   2
ATOM      2  C   UNL     1      -8.997 -35.581 -28.518  1.00  0.00     0.000 C 
BRANCH   2   3
ATOM      3  C   UNL     1      -8.877 -37.094 -28.278  1.00  0.00     0.000 C 
BRANCH   3   4
ATOM      4  C   UNL     1      -9.707 -37.567 -27.073  1.00  0.00     0.000 C 
BRANCH   4   5
ATOM      5  C   UNL     1     -10.365 -36.402 -26.308  1.00  0.00     0.006 C 
BRANCH   5   6
ATOM      6  C   UNL     1     -10.804 -36.749 -24.877  1.00  0.00     0.053 C 
BRANCH   6   7
ATOM      7  C   UNL     1     -11.733 -35.721 -24.309  1.00  0.00     0.041 C 
ATOM      8  O   UNL     1     -12.047 -34.706 -24.985  1.00  0.00    -0.550 OA
ATOM      9  O   UNL     1     -12.226 -35.868 -23.018  1.00  0.00    -0.550 OA
ENDBRANCH   6   7
ENDBRANCH   5   6
ENDBRANCH   4   5
ENDBRANCH   3   4
ENDBRANCH   2   3
ENDBRANCH   1   2
BRANCH   1  10
ATOM     10  C   UNL     1      -9.888 -36.477 -30.744  1.00  0.00     0.000 C 
BRANCH  10  11
ATOM     11  C   UNL     1     -11.345 -36.660 -31.192  1.00  0.00    -0.000 C 
BRANCH  11  12
ATOM     12  C   UNL     1     -12.256 -36.957 -29.995  1.00  0.00    -0.000 C 
BRANCH  12  13
ATOM     13  C   UNL     1     -13.289 -35.841 -29.796  1.00  0.00    -0.000 C 
BRANCH  13  14
ATOM     14  C   UNL     1     -13.131 -35.185 -28.417  1.00  0.00    -0.000 C 
BRANCH  14  15
ATOM     15  C   UNL     1     -14.475 -34.754 -27.801  1.00  0.00    -0.000 C 
BRANCH  15  16
ATOM     16  C   UNL     1     -15.310 -35.901 -27.205  1.00  0.00    -0.003 C 
ATOM     17  C   UNL     1     -14.462 -36.942 -26.477  1.00  0.00     0.004 C 
ENDBRANCH  15  16
ENDBRANCH  14  15
ENDBRANCH  13  14
ENDBRANCH  12  13
ENDBRANCH  11  12
ENDBRANCH  10  11
ENDBRANCH   1  10
TORSDOF 13
ENDMDL
MODEL 4
REMARK VINA RESULT:    -4.002      2.268      3.970
REMARK INTER + INTRA:          -9.026
REMARK INTER:                  -7.192
REMARK INTRA:                  -1.835
REMARK UNBOUND:                -1.983
REMARK SMILES CCCCCCCCCCCCCCC(=O)[O-]
REMARK SMILES IDX 9 1 10 2 11 3 12 4 13 5 14 6 15 7 16 8 17 9 8 10 7 11 6 12
REMARK SMILES IDX 5 13 4 14 3 15 2 16 1 17
REMARK H PARENT
REMARK Flexibility Score: inf
ROOT
ATOM      1  C   UNL     1     -12.949 -34.706 -28.704  1.00  0.00     0.000 C 
ENDROOT
BRANCH   1   2
ATOM      2  C   UNL     1     -13.651 -35.074 -30.025  1.00  0.00     0.000 C 
BRANCH   2   3
ATOM      3  C   UNL     1     -13.028 -36.301 -30.707  1.00  0.00     0.000 C 
BRANCH   3   4
ATOM      4  C   UNL     1     -11.778 -36.814 -29.970  1.00  0.00     0.000 C 
BRANCH   4   5
ATOM      5  C   UNL     1     -10.509 -36.764 -30.843  1.00  0.00     0.006 C 
BRANCH   5   6
ATOM      6  C   UNL     1      -9.198 -36.652 -30.051  1.00  0.00     0.053 C 
BRANCH   6   7
ATOM      7  C   UNL     1      -9.133 -35.392 -29.243  1.00  0.00     0.041 C 
ATOM      8  O   UNL     1      -8.875 -35.440 -28.012  1.00  0.00    -0.550 OA
ATOM      9  O   UNL     1      -9.393 -34.167 -29.846  1.00  0.00    -0.550 OA
ENDBRANCH   6   7
ENDBRANCH   5   6
ENDBRANCH   4   5
ENDBRANCH   3   4
ENDBRANCH   2   3
ENDBRANCH   1   2
BRANCH   1  10
ATOM     10  C   UNL     1     -13.934 -34.557 -27.534  1.00  0.00     0.000 C 
BRANCH  10  11
ATOM     11  C   UNL     1     -14.880 -35.760 -27.401  1.00  0.00    -0.000 C 
BRANCH  11  12
ATOM     12  C   UNL     1     -14.101 -37.038 -27.067  1.00  0.00    -0.000 C 
BRANCH  12  13
ATOM     13  C   UNL     1     -13.981 -37.232 -25.551  1.00  0.00    -0.000 C 
BRANCH  13  14
ATOM     14  C   UNL     1     -12.542 -37.592 -25.155  1.00  0.00    -0.000 C 
BRANCH  14  15
ATOM     15  C   UNL     1     -11.486 -36.798 -25.945  1.00  0.00    -0.000 C 
BRANCH  15  16
ATOM     16  C   UNL     1     -11.056 -35.470 -25.295  1.00  0.00    -0.003 C 
ATOM     17  C   UNL     1     -11.092 -35.512 -23.768  1.00  0.00     0.004 C 
ENDBRANCH  15  16
ENDBRANCH  14  15
ENDBRANCH  13  14
ENDBRANCH  12  13
ENDBRANCH  11  12
ENDBRANCH  10  11
ENDBRANCH   1  10
TORSDOF 13
ENDMDL
MODEL 5
REMARK VINA RESULT:    -3.943      2.651      4.862
REMARK INTER + INTRA:          -8.923
REMARK INTER:                  -6.782
REMARK INTRA:                  -2.141
REMARK UNBOUND:                -1.983
REMARK SMILES CCCCCCCCCCCCCCC(=O)[O-]
REMARK SMILES IDX 9 1 10 2 11 3 12 4 13 5 14 6 15 7 16 8 17 9 8 10 7 11 6 12
REMARK SMILES IDX 5 13 4 14 3 15 2 16 1 17
REMARK H PARENT
REMARK Flexibility Score: inf
ROOT
ATOM      1  C   UNL     1      -9.548 -35.423 -28.782  1.00  0.00     0.000 C 
ENDROOT
BRANCH   1   2
ATOM      2  C   UNL     1      -9.510 -35.789 -27.286  1.00  0.00     0.000 C 
BRANCH   2   3
ATOM      3  C   UNL     1      -9.844 -37.266 -27.028  1.00  0.00     0.000 C 
BRANCH   3   4
ATOM      4  C   UNL     1     -10.846 -37.450 -25.874  1.00  0.00     0.000 C 
BRANCH   4   5
ATOM      5  C   UNL     1     -10.912 -36.225 -24.942  1.00  0.00     0.006 C 
BRANCH   5   6
ATOM      6  C   UNL     1     -11.966 -36.331 -23.829  1.00  0.00     0.053 C 
BRANCH   6   7
ATOM      7  C   UNL     1     -11.415 -36.970 -22.591  1.00  0.00     0.041 C 
ATOM      8  O   UNL     1     -12.174 -37.608 -21.815  1.00  0.00    -0.550 OA
ATOM      9  O   UNL     1     -10.068 -36.831 -22.278  1.00  0.00    -0.550 OA
ENDBRANCH   6   7
ENDBRANCH   5   6
ENDBRANCH   4   5
ENDBRANCH   3   4
ENDBRANCH   2   3
ENDBRANCH   1   2
BRANCH   1  10
ATOM     10  C   UNL     1      -9.244 -36.624 -29.691  1.00  0.00     0.000 C 
BRANCH  10  11
ATOM     11  C   UNL     1     -10.304 -36.819 -30.785  1.00  0.00    -0.000 C 
BRANCH  11  12
ATOM     12  C   UNL     1     -11.678 -37.117 -30.173  1.00  0.00    -0.000 C 
BRANCH  12  13
ATOM     13  C   UNL     1     -12.746 -36.165 -30.724  1.00  0.00    -0.000 C 
BRANCH  13  14
ATOM     14  C   UNL     1     -13.249 -35.211 -29.632  1.00  0.00    -0.000 C 
BRANCH  14  15
ATOM     15  C   UNL     1     -13.378 -35.890 -28.255  1.00  0.00    -0.000 C 
BRANCH  15  16
ATOM     16  C   UNL     1     -13.702 -34.936 -27.092  1.00  0.00    -0.003 C 
ATOM     17  C   UNL     1     -12.699 -33.791 -26.959  1.00  0.00     0.004 C 
ENDBRANCH  15  16
ENDBRANCH  14  15
ENDBRANCH  13  14
ENDBRANCH  12  13
ENDBRANCH  11  12
ENDBRANCH  10  11
ENDBRANCH   1  10
TORSDOF 13
ENDMDL
MODEL 6
REMARK VINA RESULT:    -3.936      2.561      6.160
REMARK INTER + INTRA:          -8.910
REMARK INTER:                  -7.035
REMARK INTRA:                  -1.875
REMARK UNBOUND:                -1.983
REMARK SMILES CCCCCCCCCCCCCCC(=O)[O-]
REMARK SMILES IDX 9 1 10 2 11 3 12 4 13 5 14 6 15 7 16 8 17 9 8 10 7 11 6 12
REMARK SMILES IDX 5 13 4 14 3 15 2 16 1 17
REMARK H PARENT
REMARK Flexibility Score: inf
ROOT
ATOM      1  C   UNL     1     -12.542 -33.967 -26.707  1.00  0.00     0.000 C 
ENDROOT
BRANCH   1   2
ATOM      2  C   UNL     1     -12.243 -34.980 -25.586  1.00  0.00     0.000 C 
BRANCH   2   3
ATOM      3  C   UNL     1     -10.785 -35.464 -25.596  1.00  0.00     0.000 C 
BRANCH   3   4
ATOM      4  C   UNL     1     -10.640 -36.887 -26.163  1.00  0.00     0.000 C 
BRANCH   4   5
ATOM      5  C   UNL     1      -9.684 -36.952 -27.369  1.00  0.00     0.006 C 
BRANCH   5   6
ATOM      6  C   UNL     1      -9.208 -35.582 -27.877  1.00  0.00     0.053 C 
BRANCH   6   7
ATOM      7  C   UNL     1      -9.154 -35.524 -29.373  1.00  0.00     0.041 C 
ATOM      8  O   UNL     1      -9.375 -34.440 -29.974  1.00  0.00    -0.550 OA
ATOM      9  O   UNL     1      -8.893 -36.677 -30.104  1.00  0.00    -0.550 OA
ENDBRANCH   6   7
ENDBRANCH   5   6
ENDBRANCH   4   5
ENDBRANCH   3   4
ENDBRANCH   2   3
ENDBRANCH   1   2
BRANCH   1  10
ATOM     10  C   UNL     1     -13.557 -34.500 -27.729  1.00  0.00     0.000 C 
BRANCH  10  11
ATOM     11  C   UNL     1     -12.914 -34.832 -29.083  1.00  0.00    -0.000 C 
BRANCH  11  12
ATOM     12  C   UNL     1     -12.718 -36.345 -29.243  1.00  0.00    -0.000 C 
BRANCH  12  13
ATOM     13  C   UNL     1     -12.472 -36.718 -30.710  1.00  0.00    -0.000 C 
BRANCH  13  14
ATOM     14  C   UNL     1     -13.796 -36.995 -31.436  1.00  0.00    -0.000 C 
BRANCH  14  15
ATOM     15  C   UNL     1     -14.180 -35.882 -32.429  1.00  0.00    -0.000 C 
BRANCH  15  16
ATOM     16  C   UNL     1     -15.640 -35.406 -32.333  1.00  0.00    -0.003 C 
ATOM     17  C   UNL     1     -15.879 -34.436 -31.178  1.00  0.00     0.004 C 
ENDBRANCH  15  16
ENDBRANCH  14  15
ENDBRANCH  13  14
ENDBRANCH  12  13
ENDBRANCH  11  12
ENDBRANCH  10  11
ENDBRANCH   1  10
TORSDOF 13
ENDMDL
MODEL 7
REMARK VINA RESULT:    -3.917     19.490     21.532
REMARK INTER + INTRA:          -8.876
REMARK INTER:                  -6.268
REMARK INTRA:                  -2.608
REMARK UNBOUND:                -1.983
REMARK SMILES CCCCCCCCCCCCCCC(=O)[O-]
REMARK SMILES IDX 9 1 10 2 11 3 12 4 13 5 14 6 15 7 16 8 17 9 8 10 7 11 6 12
REMARK SMILES IDX 5 13 4 14 3 15 2 16 1 17
REMARK H PARENT
REMARK Flexibility Score: inf
ROOT
ATOM      1  C   UNL     1     -25.012 -22.400 -30.251  1.00  0.00     0.000 C 
ENDROOT
BRANCH   1   2
ATOM      2  C   UNL     1     -24.807 -20.920 -29.878  1.00  0.00     0.000 C 
BRANCH   2   3
ATOM      3  C   UNL     1     -24.065 -20.130 -30.967  1.00  0.00     0.000 C 
BRANCH   3   4
ATOM      4  C   UNL     1     -25.018 -19.303 -31.848  1.00  0.00     0.000 C 
BRANCH   4   5
ATOM      5  C   UNL     1     -25.211 -19.912 -33.251  1.00  0.00     0.006 C 
BRANCH   5   6
ATOM      6  C   UNL     1     -24.027 -20.760 -33.743  1.00  0.00     0.053 C 
BRANCH   6   7
ATOM      7  C   UNL     1     -24.440 -22.158 -34.084  1.00  0.00     0.041 C 
ATOM      8  O   UNL     1     -25.383 -22.363 -34.893  1.00  0.00    -0.550 OA
ATOM      9  O   UNL     1     -23.803 -23.237 -33.480  1.00  0.00    -0.550 OA
ENDBRANCH   6   7
ENDBRANCH   5   6
ENDBRANCH   4   5
ENDBRANCH   3   4
ENDBRANCH   2   3
ENDBRANCH   1   2
BRANCH   1  10
ATOM     10  C   UNL     1     -26.496 -22.796 -30.296  1.00  0.00     0.000 C 
BRANCH  10  11
ATOM     11  C   UNL     1     -27.010 -22.999 -31.728  1.00  0.00    -0.000 C 
BRANCH  11  12
ATOM     12  C   UNL     1     -28.062 -21.944 -32.090  1.00  0.00    -0.000 C 
BRANCH  12  13
ATOM     13  C   UNL     1     -28.628 -21.274 -30.833  1.00  0.00    -0.000 C 
BRANCH  13  14
ATOM     14  C   UNL     1     -28.566 -19.745 -30.948  1.00  0.00    -0.000 C 
BRANCH  14  15
ATOM     15  C   UNL     1     -28.069 -19.065 -29.659  1.00  0.00    -0.000 C 
BRANCH  15  16
ATOM     16  C   UNL     1     -27.962 -19.997 -28.438  1.00  0.00    -0.003 C 
ATOM     17  C   UNL     1     -27.133 -19.402 -27.302  1.00  0.00     0.004 C 
ENDBRANCH  15  16
ENDBRANCH  14  15
ENDBRANCH  13  14
ENDBRANCH  12  13
ENDBRANCH  11  12
ENDBRANCH  10  11
ENDBRANCH   1  10
TORSDOF 13
ENDMDL
MODEL 8
REMARK VINA RESULT:    -3.874      1.279      4.595
REMARK INTER + INTRA:          -8.801
REMARK INTER:                  -7.244
REMARK INTRA:                  -1.557
REMARK UNBOUND:                -1.983
REMARK SMILES CCCCCCCCCCCCCCC(=O)[O-]
REMARK SMILES IDX 9 1 10 2 11 3 12 4 13 5 14 6 15 7 16 8 17 9 8 10 7 11 6 12
REMARK SMILES IDX 5 13 4 14 3 15 2 16 1 17
REMARK H PARENT
REMARK Flexibility Score: inf
ROOT
ATOM      1  C   UNL     1     -11.408 -35.613 -25.125  1.00  0.00     0.000 C 
ENDROOT
BRANCH   1   2
ATOM      2  C   UNL     1     -11.776 -37.042 -24.683  1.00  0.00     0.000 C 
BRANCH   2   3
ATOM      3  C   UNL     1     -13.290 -37.304 -24.723  1.00  0.00     0.000 C 
BRANCH   3   4
ATOM      4  C   UNL     1     -13.720 -38.087 -25.976  1.00  0.00     0.000 C 
BRANCH   4   5
ATOM      5  C   UNL     1     -14.017 -37.170 -27.178  1.00  0.00     0.006 C 
BRANCH   5   6
ATOM      6  C   UNL     1     -15.107 -36.118 -26.919  1.00  0.00     0.053 C 
BRANCH   6   7
ATOM      7  C   UNL     1     -14.834 -34.836 -27.643  1.00  0.00     0.041 C 
ATOM      8  O   UNL     1     -15.622 -34.432 -28.538  1.00  0.00    -0.550 OA
ATOM      9  O   UNL     1     -13.689 -34.104 -27.351  1.00  0.00    -0.550 OA
ENDBRANCH   6   7
ENDBRANCH   5   6
ENDBRANCH   4   5
ENDBRANCH   3   4
ENDBRANCH   2   3
ENDBRANCH   1   2
BRANCH   1  10
ATOM     10  C   UNL     1     -10.400 -35.595 -26.284  1.00  0.00     0.000 C 
BRANCH  10  11
ATOM     11  C   UNL     1     -10.014 -37.005 -26.754  1.00  0.00    -0.000 C 
BRANCH  11  12
ATOM     12  C   UNL     1      -9.255 -36.953 -28.085  1.00  0.00    -0.000 C 
BRANCH  12  13
ATOM     13  C   UNL     1      -8.876 -35.512 -28.449  1.00  0.00    -0.000 C 
BRANCH  13  14
ATOM     14  C   UNL     1      -9.597 -35.060 -29.727  1.00  0.00    -0.000 C 
BRANCH  14  15
ATOM     15  C   UNL     1      -9.772 -36.197 -30.751  1.00  0.00    -0.000 C 
BRANCH  15  16
ATOM     16  C   UNL     1     -11.181 -36.813 -30.797  1.00  0.00    -0.003 C 
ATOM     17  C   UNL     1     -12.254 -35.898 -30.208  1.00  0.00     0.004 C 
ENDBRANCH  15  16
ENDBRANCH  14  15
ENDBRANCH  13  14
ENDBRANCH  12  13
ENDBRANCH  11  12
ENDBRANCH  10  11
ENDBRANCH   1  10
TORSDOF 13
ENDMDL
MODEL 9
REMARK VINA RESULT:    -3.872     19.510     22.173
REMARK INTER + INTRA:          -8.797
REMARK INTER:                  -6.372
REMARK INTRA:                  -2.425
REMARK UNBOUND:                -1.983
REMARK SMILES CCCCCCCCCCCCCCC(=O)[O-]
REMARK SMILES IDX 9 1 10 2 11 3 12 4 13 5 14 6 15 7 16 8 17 9 8 10 7 11 6 12
REMARK SMILES IDX 5 13 4 14 3 15 2 16 1 17
REMARK H PARENT
REMARK Flexibility Score: inf
ROOT
ATOM      1  C   UNL     1     -24.422 -21.488 -31.149  1.00  0.00     0.000 C 
ENDROOT
BRANCH   1   2
ATOM      2  C   UNL     1     -24.373 -20.117 -30.449  1.00  0.00     0.000 C 
BRANCH   2   3
ATOM      3  C   UNL     1     -25.038 -19.005 -31.275  1.00  0.00     0.000 C 
BRANCH   3   4
ATOM      4  C   UNL     1     -26.221 -18.352 -30.540  1.00  0.00     0.000 C 
BRANCH   4   5
ATOM      5  C   UNL     1     -27.394 -19.326 -30.316  1.00  0.00     0.006 C 
BRANCH   5   6
ATOM      6  C   UNL     1     -27.996 -19.280 -28.902  1.00  0.00     0.053 C 
BRANCH   6   7
ATOM      7  C   UNL     1     -26.999 -19.670 -27.854  1.00  0.00     0.041 C 
ATOM      8  O   UNL     1     -26.688 -20.879 -27.692  1.00  0.00    -0.550 OA
ATOM      9  O   UNL     1     -26.440 -18.698 -27.033  1.00  0.00    -0.550 OA
ENDBRANCH   6   7
ENDBRANCH   5   6
ENDBRANCH   4   5
ENDBRANCH   3   4
ENDBRANCH   2   3
ENDBRANCH   1   2
BRANCH   1  10
ATOM     10  C   UNL     1     -24.866 -22.616 -30.206  1.00  0.00     0.000 C 
BRANCH  10  11
ATOM     11  C   UNL     1     -26.367 -22.923 -30.318  1.00  0.00    -0.000 C 
BRANCH  11  12
ATOM     12  C   UNL     1     -26.788 -23.082 -31.784  1.00  0.00    -0.000 C 
BRANCH  12  13
ATOM     13  C   UNL     1     -28.178 -22.483 -32.028  1.00  0.00    -0.000 C 
BRANCH  13  14
ATOM     14  C   UNL     1     -28.222 -21.718 -33.358  1.00  0.00    -0.000 C 
BRANCH  14  15
ATOM     15  C   UNL     1     -26.825 -21.485 -33.962  1.00  0.00    -0.000 C 
BRANCH  15  16
ATOM     16  C   UNL     1     -26.565 -20.050 -34.453  1.00  0.00    -0.003 C 
ATOM     17  C   UNL     1     -27.645 -19.062 -34.013  1.00  0.00     0.004 C 
ENDBRANCH  15  16
ENDBRANCH  14  15
ENDBRANCH  13  14
ENDBRANCH  12  13
ENDBRANCH  11  12
ENDBRANCH  10  11
ENDBRANCH   1  10
TORSDOF 13
ENDMDL
