MODEL 1
REMARK VINA RESULT:    -6.348      0.000      0.000
REMARK INTER + INTRA:          -7.742
REMARK INTER:                  -7.647
REMARK INTRA:                  -0.095
REMARK UNBOUND:                -0.095
REMARK SMILES O=c1c(O)c(-c2ccc(O)cc2O)oc2cc(O)cc(O)c12
REMARK SMILES IDX 5 1 3 2 2 3 1 4 22 5 20 6 19 7 17 8 16 9 15 10 14 11 6 12
REMARK SMILES IDX 8 13 7 14 9 15 11 16 12 17 10 18 13 20 4 22 21 24 18 26
REMARK H PARENT 10 19 13 21 4 23 21 25 18 27
REMARK Flexibility Score: inf
ROOT
ATOM      1  C   UNL     1     141.113 153.418 120.432  1.00  0.00     0.184 A 
ATOM      2  C   UNL     1     142.124 153.925 121.266  1.00  0.00     0.208 A 
ATOM      3  C   UNL     1     142.174 155.306 121.515  1.00  0.00     0.238 A 
ATOM      4  O   UNL     1     143.115 155.760 122.216  1.00  0.00    -0.285 OA
ATOM      5  C   UNL     1     141.200 156.161 120.942  1.00  0.00     0.111 A 
ATOM      6  C   UNL     1     141.131 157.570 121.159  1.00  0.00     0.134 A 
ATOM      7  C   UNL     1     140.201 158.333 120.440  1.00  0.00     0.093 A 
ATOM      8  C   UNL     1     139.299 157.733 119.565  1.00  0.00     0.123 A 
ATOM      9  C   UNL     1     139.319 156.348 119.390  1.00  0.00     0.094 A 
ATOM     10  C   UNL     1     140.257 155.563 120.065  1.00  0.00     0.146 A 
ATOM     11  O   UNL     1     140.251 154.251 119.862  1.00  0.00    -0.451 OA
ENDROOT
BRANCH   1  12
ATOM     12  C   UNL     1     140.987 151.971 120.148  1.00  0.00     0.063 A 
ATOM     13  C   UNL     1     139.664 149.927 120.154  1.00  0.00     0.047 A 
ATOM     14  C   UNL     1     139.795 151.286 120.448  1.00  0.00     0.020 A 
ATOM     15  C   UNL     1     140.719 149.233 119.547  1.00  0.00     0.119 A 
ATOM     16  C   UNL     1     141.902 149.907 119.234  1.00  0.00     0.093 A 
ATOM     17  C   UNL     1     142.042 151.273 119.526  1.00  0.00     0.130 A 
BRANCH  15  18
ATOM     18  O   UNL     1     140.599 147.878 119.251  1.00  0.00    -0.508 OA
ATOM     19  H   UNL     1     141.395 147.253 119.294  1.00  0.00     0.293 HD
ENDBRANCH  15  18
BRANCH  17  20
ATOM     20  O   UNL     1     143.232 151.930 119.212  1.00  0.00    -0.507 OA
ATOM     21  H   UNL     1     143.984 151.463 118.722  1.00  0.00     0.293 HD
ENDBRANCH  17  20
ENDBRANCH   1  12
BRANCH   2  22
ATOM     22  O   UNL     1     143.082 153.065 121.808  1.00  0.00    -0.502 OA
ATOM     23  H   UNL     1     143.315 152.174 121.385  1.00  0.00     0.293 HD
ENDBRANCH   2  22
BRANCH   6  24
ATOM     24  O   UNL     1     141.925 158.259 122.081  1.00  0.00    -0.507 OA
ATOM     25  H   UNL     1     142.686 158.873 121.837  1.00  0.00     0.293 HD
ENDBRANCH   6  24
BRANCH   8  26
ATOM     26  O   UNL     1     138.378 158.521 118.878  1.00  0.00    -0.508 OA
ATOM     27  H   UNL     1     138.581 159.484 118.636  1.00  0.00     0.293 HD
ENDBRANCH   8  26
TORSDOF 6
ENDMDL
MODEL 2
REMARK VINA RESULT:    -6.191      1.466      6.558
REMARK INTER + INTRA:          -7.552
REMARK INTER:                  -7.224
REMARK INTRA:                  -0.328
REMARK UNBOUND:                -0.095
REMARK SMILES O=c1c(O)c(-c2ccc(O)cc2O)oc2cc(O)cc(O)c12
REMARK SMILES IDX 5 1 3 2 2 3 1 4 22 5 20 6 19 7 17 8 16 9 15 10 14 11 6 12
REMARK SMILES IDX 8 13 7 14 9 15 11 16 12 17 10 18 13 20 4 22 21 24 18 26
REMARK H PARENT 10 19 13 21 4 23 21 25 18 27
REMARK Flexibility Score: inf
ROOT
ATOM      1  C   UNL     1     141.241 153.398 120.334  1.00  0.00     0.184 A 
ATOM      2  C   UNL     1     142.335 152.575 120.019  1.00  0.00     0.208 A 
ATOM      3  C   UNL     1     142.119 151.201 119.821  1.00  0.00     0.238 A 
ATOM      4  O   UNL     1     143.112 150.461 119.596  1.00  0.00    -0.285 OA
ATOM      5  C   UNL     1     140.809 150.672 119.921  1.00  0.00     0.111 A 
ATOM      6  C   UNL     1     140.469 149.304 119.701  1.00  0.00     0.134 A 
ATOM      7  C   UNL     1     139.161 148.869 119.952  1.00  0.00     0.093 A 
ATOM      8  C   UNL     1     138.169 149.762 120.351  1.00  0.00     0.123 A 
ATOM      9  C   UNL     1     138.478 151.114 120.512  1.00  0.00     0.094 A 
ATOM     10  C   UNL     1     139.780 151.572 120.305  1.00  0.00     0.146 A 
ATOM     11  O   UNL     1     140.035 152.864 120.480  1.00  0.00    -0.451 OA
ENDROOT
BRANCH   1  12
ATOM     12  C   UNL     1     141.393 154.858 120.532  1.00  0.00     0.063 A 
ATOM     13  C   UNL     1     140.997 157.141 119.783  1.00  0.00     0.047 A 
ATOM     14  C   UNL     1     140.879 155.763 119.584  1.00  0.00     0.020 A 
ATOM     15  C   UNL     1     141.620 157.635 120.935  1.00  0.00     0.119 A 
ATOM     16  C   UNL     1     142.121 156.745 121.888  1.00  0.00     0.093 A 
ATOM     17  C   UNL     1     142.009 155.359 121.697  1.00  0.00     0.130 A 
BRANCH  15  18
ATOM     18  O   UNL     1     141.742 159.006 121.142  1.00  0.00    -0.508 OA
ATOM     19  H   UNL     1     140.935 159.589 121.331  1.00  0.00     0.293 HD
ENDBRANCH  15  18
BRANCH  17  20
ATOM     20  O   UNL     1     142.519 154.483 122.654  1.00  0.00    -0.507 OA
ATOM     21  H   UNL     1     143.351 153.932 122.481  1.00  0.00     0.293 HD
ENDBRANCH  17  20
ENDBRANCH   1  12
BRANCH   2  22
ATOM     22  O   UNL     1     143.620 153.117 119.940  1.00  0.00    -0.502 OA
ATOM     23  H   UNL     1     144.350 152.706 119.370  1.00  0.00     0.293 HD
ENDBRANCH   2  22
BRANCH   6  24
ATOM     24  O   UNL     1     141.363 148.345 119.214  1.00  0.00    -0.507 OA
ATOM     25  H   UNL     1     141.602 147.489 119.689  1.00  0.00     0.293 HD
ENDBRANCH   6  24
BRANCH   8  26
ATOM     26  O   UNL     1     136.875 149.297 120.577  1.00  0.00    -0.508 OA
ATOM     27  H   UNL     1     136.231 149.794 121.180  1.00  0.00     0.293 HD
ENDBRANCH   8  26
TORSDOF 6
ENDMDL
MODEL 3
REMARK VINA RESULT:    -5.898      0.871      1.563
REMARK INTER + INTRA:          -7.200
REMARK INTER:                  -6.845
REMARK INTRA:                  -0.355
REMARK UNBOUND:                -0.095
REMARK SMILES O=c1c(O)c(-c2ccc(O)cc2O)oc2cc(O)cc(O)c12
REMARK SMILES IDX 5 1 3 2 2 3 1 4 22 5 20 6 19 7 17 8 16 9 15 10 14 11 6 12
REMARK SMILES IDX 8 13 7 14 9 15 11 16 12 17 10 18 13 20 4 22 21 24 18 26
REMARK H PARENT 10 19 13 21 4 23 21 25 18 27
REMARK Flexibility Score: inf
ROOT
ATOM      1  C   UNL     1     140.827 153.085 120.254  1.00  0.00     0.184 A 
ATOM      2  C   UNL     1     141.877 153.605 121.030  1.00  0.00     0.208 A 
ATOM      3  C   UNL     1     141.920 154.987 121.279  1.00  0.00     0.238 A 
ATOM      4  O   UNL     1     142.894 155.454 121.925  1.00  0.00    -0.285 OA
ATOM      5  C   UNL     1     140.902 155.827 120.766  1.00  0.00     0.111 A 
ATOM      6  C   UNL     1     140.824 157.235 120.990  1.00  0.00     0.134 A 
ATOM      7  C   UNL     1     139.843 157.986 120.329  1.00  0.00     0.093 A 
ATOM      8  C   UNL     1     138.900 157.372 119.505  1.00  0.00     0.123 A 
ATOM      9  C   UNL     1     138.932 155.989 119.326  1.00  0.00     0.094 A 
ATOM     10  C   UNL     1     139.919 155.217 119.943  1.00  0.00     0.146 A 
ATOM     11  O   UNL     1     139.921 153.906 119.737  1.00  0.00    -0.451 OA
ENDROOT
BRANCH   1  12
ATOM     12  C   UNL     1     140.707 151.636 119.973  1.00  0.00     0.063 A 
ATOM     13  C   UNL     1     141.619 149.590 119.020  1.00  0.00     0.047 A 
ATOM     14  C   UNL     1     141.717 150.963 119.261  1.00  0.00     0.020 A 
ATOM     15  C   UNL     1     140.516 148.868 119.494  1.00  0.00     0.119 A 
ATOM     16  C   UNL     1     139.515 149.526 120.213  1.00  0.00     0.093 A 
ATOM     17  C   UNL     1     139.604 150.905 120.459  1.00  0.00     0.130 A 
BRANCH  15  18
ATOM     18  O   UNL     1     140.409 147.500 119.258  1.00  0.00    -0.508 OA
ATOM     19  H   UNL     1     141.222 146.896 119.264  1.00  0.00     0.293 HD
ENDBRANCH  15  18
BRANCH  17  20
ATOM     20  O   UNL     1     138.594 151.548 121.174  1.00  0.00    -0.507 OA
ATOM     21  H   UNL     1     138.018 152.266 120.751  1.00  0.00     0.293 HD
ENDBRANCH  17  20
ENDBRANCH   1  12
BRANCH   2  22
ATOM     22  O   UNL     1     142.878 152.759 121.513  1.00  0.00    -0.502 OA
ATOM     23  H   UNL     1     142.721 151.773 121.686  1.00  0.00     0.293 HD
ENDBRANCH   2  22
BRANCH   6  24
ATOM     24  O   UNL     1     141.660 157.934 121.866  1.00  0.00    -0.507 OA
ATOM     25  H   UNL     1     141.482 158.866 122.209  1.00  0.00     0.293 HD
ENDBRANCH   6  24
BRANCH   8  26
ATOM     26  O   UNL     1     137.929 158.148 118.875  1.00  0.00    -0.508 OA
ATOM     27  H   UNL     1     137.892 159.153 118.998  1.00  0.00     0.293 HD
ENDBRANCH   8  26
TORSDOF 6
ENDMDL
MODEL 4
REMARK VINA RESULT:    -5.893      2.373      4.612
REMARK INTER + INTRA:          -7.194
REMARK INTER:                  -7.150
REMARK INTRA:                  -0.045
REMARK UNBOUND:                -0.095
REMARK SMILES O=c1c(O)c(-c2ccc(O)cc2O)oc2cc(O)cc(O)c12
REMARK SMILES IDX 5 1 3 2 2 3 1 4 22 5 20 6 19 7 17 8 16 9 15 10 14 11 6 12
REMARK SMILES IDX 8 13 7 14 9 15 11 16 12 17 10 18 13 20 4 22 21 24 18 26
REMARK H PARENT 10 19 13 21 4 23 21 25 18 27
REMARK Flexibility Score: inf
ROOT
ATOM      1  C   UNL     1     139.380 150.356 120.208  1.00  0.00     0.184 A 
ATOM      2  C   UNL     1     138.398 151.345 120.032  1.00  0.00     0.208 A 
ATOM      3  C   UNL     1     138.797 152.685 119.898  1.00  0.00     0.238 A 
ATOM      4  O   UNL     1     137.909 153.572 119.799  1.00  0.00    -0.285 OA
ATOM      5  C   UNL     1     140.174 153.016 119.921  1.00  0.00     0.111 A 
ATOM      6  C   UNL     1     140.693 154.335 119.754  1.00  0.00     0.134 A 
ATOM      7  C   UNL     1     142.065 154.562 119.921  1.00  0.00     0.093 A 
ATOM      8  C   UNL     1     142.943 153.512 120.184  1.00  0.00     0.123 A 
ATOM      9  C   UNL     1     142.453 152.209 120.291  1.00  0.00     0.094 A 
ATOM     10  C   UNL     1     141.086 151.955 120.165  1.00  0.00     0.146 A 
ATOM     11  O   UNL     1     140.659 150.703 120.285  1.00  0.00    -0.451 OA
ENDROOT
BRANCH   1  12
ATOM     12  C   UNL     1     139.032 148.922 120.331  1.00  0.00     0.063 A 
ATOM     13  C   UNL     1     137.561 147.173 121.173  1.00  0.00     0.047 A 
ATOM     14  C   UNL     1     137.908 148.524 121.079  1.00  0.00     0.020 A 
ATOM     15  C   UNL     1     138.326 146.202 120.515  1.00  0.00     0.119 A 
ATOM     16  C   UNL     1     139.436 146.589 119.759  1.00  0.00     0.093 A 
ATOM     17  C   UNL     1     139.792 147.943 119.660  1.00  0.00     0.130 A 
BRANCH  15  18
ATOM     18  O   UNL     1     137.989 144.854 120.603  1.00  0.00    -0.508 OA
ATOM     19  H   UNL     1     138.648 144.164 120.940  1.00  0.00     0.293 HD
ENDBRANCH  15  18
BRANCH  17  20
ATOM     20  O   UNL     1     140.906 148.313 118.907  1.00  0.00    -0.507 OA
ATOM     21  H   UNL     1     140.934 148.189 117.902  1.00  0.00     0.293 HD
ENDBRANCH  17  20
ENDBRANCH   1  12
BRANCH   2  22
ATOM     22  O   UNL     1     137.045 150.996 120.028  1.00  0.00    -0.502 OA
ATOM     23  H   UNL     1     136.656 150.318 120.671  1.00  0.00     0.293 HD
ENDBRANCH   2  22
BRANCH   6  24
ATOM     24  O   UNL     1     139.916 155.441 119.399  1.00  0.00    -0.507 OA
ATOM     25  H   UNL     1     140.134 156.080 118.650  1.00  0.00     0.293 HD
ENDBRANCH   6  24
BRANCH   8  26
ATOM     26  O   UNL     1     144.304 153.773 120.330  1.00  0.00    -0.508 OA
ATOM     27  H   UNL     1     144.848 154.184 119.580  1.00  0.00     0.293 HD
ENDBRANCH   8  26
TORSDOF 6
ENDMDL
MODEL 5
REMARK VINA RESULT:    -5.827      1.331      3.029
REMARK INTER + INTRA:          -7.115
REMARK INTER:                  -6.905
REMARK INTRA:                  -0.210
REMARK UNBOUND:                -0.095
REMARK SMILES O=c1c(O)c(-c2ccc(O)cc2O)oc2cc(O)cc(O)c12
REMARK SMILES IDX 5 1 3 2 2 3 1 4 22 5 20 6 19 7 17 8 16 9 15 10 14 11 6 12
REMARK SMILES IDX 8 13 7 14 9 15 11 16 12 17 10 18 13 20 4 22 21 24 18 26
REMARK H PARENT 10 19 13 21 4 23 21 25 18 27
REMARK Flexibility Score: inf
ROOT
ATOM      1  C   UNL     1     140.256 152.589 120.048  1.00  0.00     0.184 A 
ATOM      2  C   UNL     1     139.230 153.397 119.531  1.00  0.00     0.208 A 
ATOM      3  C   UNL     1     139.300 154.788 119.714  1.00  0.00     0.238 A 
ATOM      4  O   UNL     1     138.349 155.500 119.298  1.00  0.00    -0.285 OA
ATOM      5  C   UNL     1     140.405 155.354 120.395  1.00  0.00     0.111 A 
ATOM      6  C   UNL     1     140.599 156.753 120.603  1.00  0.00     0.134 A 
ATOM      7  C   UNL     1     141.664 157.191 121.401  1.00  0.00     0.093 A 
ATOM      8  C   UNL     1     142.577 156.288 121.942  1.00  0.00     0.123 A 
ATOM      9  C   UNL     1     142.431 154.922 121.696  1.00  0.00     0.094 A 
ATOM     10  C   UNL     1     141.359 154.451 120.935  1.00  0.00     0.146 A 
ATOM     11  O   UNL     1     141.249 153.143 120.734  1.00  0.00    -0.451 OA
ENDROOT
BRANCH   1  12
ATOM     12  C   UNL     1     140.258 151.119 119.870  1.00  0.00     0.063 A 
ATOM     13  C   UNL     1     139.104 148.979 119.990  1.00  0.00     0.047 A 
ATOM     14  C   UNL     1     139.114 150.362 120.184  1.00  0.00     0.020 A 
ATOM     15  C   UNL     1     140.233 148.332 119.471  1.00  0.00     0.119 A 
ATOM     16  C   UNL     1     141.370 149.077 119.145  1.00  0.00     0.093 A 
ATOM     17  C   UNL     1     141.389 150.467 119.338  1.00  0.00     0.130 A 
BRANCH  15  18
ATOM     18  O   UNL     1     140.234 146.954 119.275  1.00  0.00    -0.508 OA
ATOM     19  H   UNL     1     141.006 146.375 119.581  1.00  0.00     0.293 HD
ENDBRANCH  15  18
BRANCH  17  20
ATOM     20  O   UNL     1     142.533 151.196 119.013  1.00  0.00    -0.507 OA
ATOM     21  H   UNL     1     143.453 150.907 119.322  1.00  0.00     0.293 HD
ENDBRANCH  17  20
ENDBRANCH   1  12
BRANCH   2  22
ATOM     22  O   UNL     1     138.142 152.815 118.875  1.00  0.00    -0.502 OA
ATOM     23  H   UNL     1     138.039 152.837 117.868  1.00  0.00     0.293 HD
ENDBRANCH   2  22
BRANCH   6  24
ATOM     24  O   UNL     1     139.798 157.746 120.031  1.00  0.00    -0.507 OA
ATOM     25  H   UNL     1     139.364 158.499 120.542  1.00  0.00     0.293 HD
ENDBRANCH   6  24
BRANCH   8  26
ATOM     26  O   UNL     1     143.634 156.761 122.718  1.00  0.00    -0.508 OA
ATOM     27  H   UNL     1     143.588 156.763 123.731  1.00  0.00     0.293 HD
ENDBRANCH   8  26
TORSDOF 6
ENDMDL
MODEL 6
REMARK VINA RESULT:    -5.567      3.178      5.455
REMARK INTER + INTRA:          -6.801
REMARK INTER:                  -6.551
REMARK INTRA:                  -0.250
REMARK UNBOUND:                -0.095
REMARK SMILES O=c1c(O)c(-c2ccc(O)cc2O)oc2cc(O)cc(O)c12
REMARK SMILES IDX 5 1 3 2 2 3 1 4 22 5 20 6 19 7 17 8 16 9 15 10 14 11 6 12
REMARK SMILES IDX 8 13 7 14 9 15 11 16 12 17 10 18 13 20 4 22 21 24 18 26
REMARK H PARENT 10 19 13 21 4 23 21 25 18 27
REMARK Flexibility Score: inf
ROOT
ATOM      1  C   UNL     1     138.902 148.837 119.995  1.00  0.00     0.184 A 
ATOM      2  C   UNL     1     140.266 149.068 119.750  1.00  0.00     0.208 A 
ATOM      3  C   UNL     1     140.726 150.391 119.650  1.00  0.00     0.238 A 
ATOM      4  O   UNL     1     141.938 150.590 119.373  1.00  0.00    -0.285 OA
ATOM      5  C   UNL     1     139.820 151.466 119.818  1.00  0.00     0.111 A 
ATOM      6  C   UNL     1     140.184 152.846 119.778  1.00  0.00     0.134 A 
ATOM      7  C   UNL     1     139.183 153.825 119.830  1.00  0.00     0.093 A 
ATOM      8  C   UNL     1     137.842 153.477 119.986  1.00  0.00     0.123 A 
ATOM      9  C   UNL     1     137.482 152.133 120.085  1.00  0.00     0.094 A 
ATOM     10  C   UNL     1     138.452 151.132 120.000  1.00  0.00     0.146 A 
ATOM     11  O   UNL     1     138.067 149.864 120.088  1.00  0.00    -0.451 OA
ENDROOT
BRANCH   1  12
ATOM     12  C   UNL     1     138.354 147.469 120.135  1.00  0.00     0.063 A 
ATOM     13  C   UNL     1     138.098 145.202 119.284  1.00  0.00     0.047 A 
ATOM     14  C   UNL     1     138.590 146.501 119.140  1.00  0.00     0.020 A 
ATOM     15  C   UNL     1     137.370 144.847 120.427  1.00  0.00     0.119 A 
ATOM     16  C   UNL     1     137.142 145.797 121.425  1.00  0.00     0.093 A 
ATOM     17  C   UNL     1     137.631 147.105 121.289  1.00  0.00     0.130 A 
BRANCH  15  18
ATOM     18  O   UNL     1     136.875 143.554 120.579  1.00  0.00    -0.508 OA
ATOM     19  H   UNL     1     135.978 143.282 120.196  1.00  0.00     0.293 HD
ENDBRANCH  15  18
BRANCH  17  20
ATOM     20  O   UNL     1     137.390 148.043 122.292  1.00  0.00    -0.507 OA
ATOM     21  H   UNL     1     137.162 147.764 123.238  1.00  0.00     0.293 HD
ENDBRANCH  17  20
ENDBRANCH   1  12
BRANCH   2  22
ATOM     22  O   UNL     1     141.138 147.991 119.573  1.00  0.00    -0.502 OA
ATOM     23  H   UNL     1     142.044 147.945 120.024  1.00  0.00     0.293 HD
ENDBRANCH   2  22
BRANCH   6  24
ATOM     24  O   UNL     1     141.503 153.305 119.717  1.00  0.00    -0.507 OA
ATOM     25  H   UNL     1     141.923 153.936 120.382  1.00  0.00     0.293 HD
ENDBRANCH   6  24
BRANCH   8  26
ATOM     26  O   UNL     1     136.875 154.478 120.049  1.00  0.00    -0.508 OA
ATOM     27  H   UNL     1     137.022 155.385 119.622  1.00  0.00     0.293 HD
ENDBRANCH   8  26
TORSDOF 6
ENDMDL
MODEL 7
REMARK VINA RESULT:    -5.285      2.462      4.288
REMARK INTER + INTRA:          -6.461
REMARK INTER:                  -6.367
REMARK INTRA:                  -0.095
REMARK UNBOUND:                -0.095
REMARK SMILES O=c1c(O)c(-c2ccc(O)cc2O)oc2cc(O)cc(O)c12
REMARK SMILES IDX 5 1 3 2 2 3 1 4 22 5 20 6 19 7 17 8 16 9 15 10 14 11 6 12
REMARK SMILES IDX 8 13 7 14 9 15 11 16 12 17 10 18 13 20 4 22 21 24 18 26
REMARK H PARENT 10 19 13 21 4 23 21 25 18 27
REMARK Flexibility Score: inf
ROOT
ATOM      1  C   UNL     1     139.345 151.391 120.650  1.00  0.00     0.184 A 
ATOM      2  C   UNL     1     138.663 152.470 121.236  1.00  0.00     0.208 A 
ATOM      3  C   UNL     1     139.342 153.686 121.421  1.00  0.00     0.238 A 
ATOM      4  O   UNL     1     138.743 154.630 121.998  1.00  0.00    -0.285 OA
ATOM      5  C   UNL     1     140.687 153.813 120.997  1.00  0.00     0.111 A 
ATOM      6  C   UNL     1     141.459 155.010 121.098  1.00  0.00     0.134 A 
ATOM      7  C   UNL     1     142.819 154.984 120.764  1.00  0.00     0.093 A 
ATOM      8  C   UNL     1     143.418 153.825 120.273  1.00  0.00     0.123 A 
ATOM      9  C   UNL     1     142.658 152.665 120.115  1.00  0.00     0.094 A 
ATOM     10  C   UNL     1     141.309 152.649 120.473  1.00  0.00     0.146 A 
ATOM     11  O   UNL     1     140.624 151.522 120.318  1.00  0.00    -0.451 OA
ENDROOT
BRANCH   1  12
ATOM     12  C   UNL     1     138.684 150.089 120.404  1.00  0.00     0.063 A 
ATOM     13  C   UNL     1     138.030 148.311 118.876  1.00  0.00     0.047 A 
ATOM     14  C   UNL     1     138.628 149.552 119.105  1.00  0.00     0.020 A 
ATOM     15  C   UNL     1     137.486 147.584 119.942  1.00  0.00     0.119 A 
ATOM     16  C   UNL     1     137.547 148.103 121.238  1.00  0.00     0.093 A 
ATOM     17  C   UNL     1     138.146 149.350 121.477  1.00  0.00     0.130 A 
BRANCH  15  18
ATOM     18  O   UNL     1     136.886 146.346 119.724  1.00  0.00    -0.508 OA
ATOM     19  H   UNL     1     136.051 146.253 119.159  1.00  0.00     0.293 HD
ENDBRANCH  15  18
BRANCH  17  20
ATOM     20  O   UNL     1     138.195 149.857 122.775  1.00  0.00    -0.507 OA
ATOM     21  H   UNL     1     137.354 150.107 123.281  1.00  0.00     0.293 HD
ENDBRANCH  17  20
ENDBRANCH   1  12
BRANCH   2  22
ATOM     22  O   UNL     1     137.340 152.317 121.659  1.00  0.00    -0.502 OA
ATOM     23  H   UNL     1     136.985 151.444 122.029  1.00  0.00     0.293 HD
ENDBRANCH   2  22
BRANCH   6  24
ATOM     24  O   UNL     1     140.936 156.246 121.489  1.00  0.00    -0.507 OA
ATOM     25  H   UNL     1     141.481 157.083 121.625  1.00  0.00     0.293 HD
ENDBRANCH   6  24
BRANCH   8  26
ATOM     26  O   UNL     1     144.770 153.840 119.936  1.00  0.00    -0.508 OA
ATOM     27  H   UNL     1     145.490 153.958 120.639  1.00  0.00     0.293 HD
ENDBRANCH   8  26
TORSDOF 6
ENDMDL
MODEL 8
REMARK VINA RESULT:    -5.255      2.072      6.888
REMARK INTER + INTRA:          -6.426
REMARK INTER:                  -6.042
REMARK INTRA:                  -0.384
REMARK UNBOUND:                -0.095
REMARK SMILES O=c1c(O)c(-c2ccc(O)cc2O)oc2cc(O)cc(O)c12
REMARK SMILES IDX 5 1 3 2 2 3 1 4 22 5 20 6 19 7 17 8 16 9 15 10 14 11 6 12
REMARK SMILES IDX 8 13 7 14 9 15 11 16 12 17 10 18 13 20 4 22 21 24 18 26
REMARK H PARENT 10 19 13 21 4 23 21 25 18 27
REMARK Flexibility Score: inf
ROOT
ATOM      1  C   UNL     1     139.605 153.752 120.757  1.00  0.00     0.184 A 
ATOM      2  C   UNL     1     138.523 153.517 121.622  1.00  0.00     0.208 A 
ATOM      3  C   UNL     1     138.091 152.197 121.830  1.00  0.00     0.238 A 
ATOM      4  O   UNL     1     137.085 151.999 122.560  1.00  0.00    -0.285 OA
ATOM      5  C   UNL     1     138.760 151.127 121.187  1.00  0.00     0.111 A 
ATOM      6  C   UNL     1     138.434 149.748 121.357  1.00  0.00     0.134 A 
ATOM      7  C   UNL     1     139.081 148.784 120.573  1.00  0.00     0.093 A 
ATOM      8  C   UNL     1     140.085 149.142 119.674  1.00  0.00     0.123 A 
ATOM      9  C   UNL     1     140.453 150.482 119.544  1.00  0.00     0.094 A 
ATOM     10  C   UNL     1     139.802 151.470 120.285  1.00  0.00     0.146 A 
ATOM     11  O   UNL     1     140.174 152.735 120.122  1.00  0.00    -0.451 OA
ENDROOT
BRANCH   1  12
ATOM     12  C   UNL     1     140.127 155.116 120.511  1.00  0.00     0.063 A 
ATOM     13  C   UNL     1     140.146 157.161 119.190  1.00  0.00     0.047 A 
ATOM     14  C   UNL     1     139.676 155.863 119.408  1.00  0.00     0.020 A 
ATOM     15  C   UNL     1     141.066 157.734 120.076  1.00  0.00     0.119 A 
ATOM     16  C   UNL     1     141.510 157.005 121.182  1.00  0.00     0.093 A 
ATOM     17  C   UNL     1     141.045 155.700 121.408  1.00  0.00     0.130 A 
BRANCH  15  18
ATOM     18  O   UNL     1     141.541 159.026 119.868  1.00  0.00    -0.508 OA
ATOM     19  H   UNL     1     141.924 159.579 120.625  1.00  0.00     0.293 HD
ENDBRANCH  15  18
BRANCH  17  20
ATOM     20  O   UNL     1     141.502 154.983 122.513  1.00  0.00    -0.507 OA
ATOM     21  H   UNL     1     142.033 154.128 122.409  1.00  0.00     0.293 HD
ENDBRANCH  17  20
ENDBRANCH   1  12
BRANCH   2  22
ATOM     22  O   UNL     1     137.869 154.590 122.234  1.00  0.00    -0.502 OA
ATOM     23  H   UNL     1     137.148 155.126 121.766  1.00  0.00     0.293 HD
ENDBRANCH   2  22
BRANCH   6  24
ATOM     24  O   UNL     1     137.510 149.274 122.293  1.00  0.00    -0.507 OA
ATOM     25  H   UNL     1     137.357 148.300 122.506  1.00  0.00     0.293 HD
ENDBRANCH   6  24
BRANCH   8  26
ATOM     26  O   UNL     1     140.718 148.155 118.922  1.00  0.00    -0.508 OA
ATOM     27  H   UNL     1     141.534 148.360 118.358  1.00  0.00     0.293 HD
ENDBRANCH   8  26
TORSDOF 6
ENDMDL
