MODEL 1
REMARK VINA RESULT:    -3.643      0.000      0.000
REMARK INTER + INTRA:          -4.385
REMARK INTER:                  -4.282
REMARK INTRA:                  -0.103
REMARK UNBOUND:                -0.103
REMARK SMILES O=C([O-])CCC(=O)[O-]
REMARK SMILES IDX 4 1 2 2 1 3 3 4 5 5 6 6 7 7 8 8
REMARK H PARENT
REMARK Flexibility Score: inf
ROOT
ATOM      1  C   UNL     1      -5.803  -3.413  28.301  1.00  0.00     0.059 C 
ENDROOT
BRANCH   1   2
ATOM      2  C   UNL     1      -4.999  -4.677  28.335  1.00  0.00     0.042 C 
ATOM      3  O   UNL     1      -3.762  -4.636  28.572  1.00  0.00    -0.550 OA
ATOM      4  O   UNL     1      -5.607  -5.895  28.062  1.00  0.00    -0.550 OA
ENDBRANCH   1   2
BRANCH   1   5
ATOM      5  C   UNL     1      -5.250  -2.368  29.276  1.00  0.00     0.059 C 
BRANCH   5   6
ATOM      6  C   UNL     1      -4.960  -1.069  28.586  1.00  0.00     0.042 C 
ATOM      7  O   UNL     1      -4.138  -1.027  27.634  1.00  0.00    -0.550 OA
ATOM      8  O   UNL     1      -5.570   0.101  29.022  1.00  0.00    -0.550 OA
ENDBRANCH   5   6
ENDBRANCH   1   5
TORSDOF 3
ENDMDL
MODEL 2
REMARK VINA RESULT:    -3.633      0.046      4.080
REMARK INTER + INTRA:          -4.373
REMARK INTER:                  -4.276
REMARK INTRA:                  -0.097
REMARK UNBOUND:                -0.103
REMARK SMILES O=C([O-])CCC(=O)[O-]
REMARK SMILES IDX 4 1 2 2 1 3 3 4 5 5 6 6 7 7 8 8
REMARK H PARENT
REMARK Flexibility Score: inf
ROOT
ATOM      1  C   UNL     1      -5.249  -2.346  29.291  1.00  0.00     0.059 C 
ENDROOT
BRANCH   1   2
ATOM      2  C   UNL     1      -4.988  -1.040  28.605  1.00  0.00     0.042 C 
ATOM      3  O   UNL     1      -4.171  -0.979  27.648  1.00  0.00    -0.550 OA
ATOM      4  O   UNL     1      -5.613   0.117  29.051  1.00  0.00    -0.550 OA
ENDBRANCH   1   2
BRANCH   1   5
ATOM      5  C   UNL     1      -5.815  -3.388  28.321  1.00  0.00     0.059 C 
BRANCH   5   6
ATOM      6  C   UNL     1      -5.022  -4.659  28.353  1.00  0.00     0.042 C 
ATOM      7  O   UNL     1      -3.793  -4.634  28.623  1.00  0.00    -0.550 OA
ATOM      8  O   UNL     1      -5.634  -5.868  28.045  1.00  0.00    -0.550 OA
ENDBRANCH   5   6
ENDBRANCH   1   5
TORSDOF 3
ENDMDL
MODEL 3
REMARK VINA RESULT:    -3.617      0.139      4.065
REMARK INTER + INTRA:          -4.354
REMARK INTER:                  -4.254
REMARK INTRA:                  -0.100
REMARK UNBOUND:                -0.103
REMARK SMILES O=C([O-])CCC(=O)[O-]
REMARK SMILES IDX 4 1 2 2 1 3 3 4 5 5 6 6 7 7 8 8
REMARK H PARENT
REMARK Flexibility Score: inf
ROOT
ATOM      1  C   UNL     1      -5.105  -2.327  29.388  1.00  0.00     0.059 C 
ENDROOT
BRANCH   1   2
ATOM      2  C   UNL     1      -4.902  -1.026  28.674  1.00  0.00     0.042 C 
ATOM      3  O   UNL     1      -5.543  -0.001  29.028  1.00  0.00    -0.550 OA
ATOM      4  O   UNL     1      -4.036  -0.955  27.590  1.00  0.00    -0.550 OA
ENDBRANCH   1   2
BRANCH   1   5
ATOM      5  C   UNL     1      -5.822  -3.351  28.502  1.00  0.00     0.059 C 
BRANCH   5   6
ATOM      6  C   UNL     1      -5.019  -4.607  28.350  1.00  0.00     0.042 C 
ATOM      7  O   UNL     1      -3.775  -4.591  28.540  1.00  0.00    -0.550 OA
ATOM      8  O   UNL     1      -5.641  -5.786  27.959  1.00  0.00    -0.550 OA
ENDBRANCH   5   6
ENDBRANCH   1   5
TORSDOF 3
ENDMDL
MODEL 4
REMARK VINA RESULT:    -3.426      0.898      1.738
REMARK INTER + INTRA:          -4.129
REMARK INTER:                  -4.046
REMARK INTRA:                  -0.083
REMARK UNBOUND:                -0.103
REMARK SMILES O=C([O-])CCC(=O)[O-]
REMARK SMILES IDX 4 1 2 2 1 3 3 4 5 5 6 6 7 7 8 8
REMARK H PARENT
REMARK Flexibility Score: inf
ROOT
ATOM      1  C   UNL     1      -5.729  -3.287  29.201  1.00  0.00     0.059 C 
ENDROOT
BRANCH   1   2
ATOM      2  C   UNL     1      -5.004  -4.576  28.956  1.00  0.00     0.042 C 
ATOM      3  O   UNL     1      -5.616  -5.673  29.042  1.00  0.00    -0.550 OA
ATOM      4  O   UNL     1      -3.644  -4.566  28.674  1.00  0.00    -0.550 OA
ENDBRANCH   1   2
BRANCH   1   5
ATOM      5  C   UNL     1      -5.311  -2.206  28.198  1.00  0.00     0.059 C 
BRANCH   5   6
ATOM      6  C   UNL     1      -4.828  -0.968  28.892  1.00  0.00     0.042 C 
ATOM      7  O   UNL     1      -5.641  -0.060  29.206  1.00  0.00    -0.550 OA
ATOM      8  O   UNL     1      -3.475  -0.802  29.156  1.00  0.00    -0.550 OA
ENDBRANCH   5   6
ENDBRANCH   1   5
TORSDOF 3
ENDMDL
MODEL 5
REMARK VINA RESULT:    -3.341      2.122      3.764
REMARK INTER + INTRA:          -4.030
REMARK INTER:                  -3.908
REMARK INTRA:                  -0.122
REMARK UNBOUND:                -0.103
REMARK SMILES O=C([O-])CCC(=O)[O-]
REMARK SMILES IDX 4 1 2 2 1 3 3 4 5 5 6 6 7 7 8 8
REMARK H PARENT
REMARK Flexibility Score: inf
ROOT
ATOM      1  C   UNL     1      -3.560  -0.676  28.916  1.00  0.00     0.059 C 
ENDROOT
BRANCH   1   2
ATOM      2  C   UNL     1      -2.351  -1.087  28.132  1.00  0.00     0.042 C 
ATOM      3  O   UNL     1      -2.011  -0.440  27.106  1.00  0.00    -0.550 OA
ATOM      4  O   UNL     1      -1.626  -2.210  28.509  1.00  0.00    -0.550 OA
ENDBRANCH   1   2
BRANCH   1   5
ATOM      5  C   UNL     1      -4.851  -1.195  28.276  1.00  0.00     0.059 C 
BRANCH   5   6
ATOM      6  C   UNL     1      -5.246  -2.528  28.836  1.00  0.00     0.042 C 
ATOM      7  O   UNL     1      -4.944  -2.834  30.019  1.00  0.00    -0.550 OA
ATOM      8  O   UNL     1      -5.914  -3.447  28.037  1.00  0.00    -0.550 OA
ENDBRANCH   5   6
ENDBRANCH   1   5
TORSDOF 3
ENDMDL
MODEL 6
REMARK VINA RESULT:    -3.339      2.058      2.856
REMARK INTER + INTRA:          -4.027
REMARK INTER:                  -3.905
REMARK INTRA:                  -0.122
REMARK UNBOUND:                -0.103
REMARK SMILES O=C([O-])CCC(=O)[O-]
REMARK SMILES IDX 4 1 2 2 1 3 3 4 5 5 6 6 7 7 8 8
REMARK H PARENT
REMARK Flexibility Score: inf
ROOT
ATOM      1  C   UNL     1      -4.948  -1.310  28.245  1.00  0.00     0.059 C 
ENDROOT
BRANCH   1   2
ATOM      2  C   UNL     1      -5.299  -2.676  28.752  1.00  0.00     0.042 C 
ATOM      3  O   UNL     1      -5.918  -3.487  28.013  1.00  0.00    -0.550 OA
ATOM      4  O   UNL     1      -4.980  -3.037  30.055  1.00  0.00    -0.550 OA
ENDBRANCH   1   2
BRANCH   1   5
ATOM      5  C   UNL     1      -3.686  -0.765  28.921  1.00  0.00     0.059 C 
BRANCH   5   6
ATOM      6  C   UNL     1      -2.452  -1.114  28.145  1.00  0.00     0.042 C 
ATOM      7  O   UNL     1      -2.116  -0.427  27.145  1.00  0.00    -0.550 OA
ATOM      8  O   UNL     1      -1.694  -2.221  28.506  1.00  0.00    -0.550 OA
ENDBRANCH   5   6
ENDBRANCH   1   5
TORSDOF 3
ENDMDL
MODEL 7
REMARK VINA RESULT:    -3.145      2.356      4.067
REMARK INTER + INTRA:          -3.800
REMARK INTER:                  -3.733
REMARK INTRA:                  -0.067
REMARK UNBOUND:                -0.103
REMARK SMILES O=C([O-])CCC(=O)[O-]
REMARK SMILES IDX 4 1 2 2 1 3 3 4 5 5 6 6 7 7 8 8
REMARK H PARENT
REMARK Flexibility Score: inf
ROOT
ATOM      1  C   UNL     1      -3.312  -0.495  28.871  1.00  0.00     0.059 C 
ENDROOT
BRANCH   1   2
ATOM      2  C   UNL     1      -1.977  -0.561  28.195  1.00  0.00     0.042 C 
ATOM      3  O   UNL     1      -0.928  -0.713  28.875  1.00  0.00    -0.550 OA
ATOM      4  O   UNL     1      -1.887  -0.414  26.816  1.00  0.00    -0.550 OA
ENDBRANCH   1   2
BRANCH   1   5
ATOM      5  C   UNL     1      -4.411  -1.127  28.012  1.00  0.00     0.059 C 
BRANCH   5   6
ATOM      6  C   UNL     1      -4.942  -2.384  28.633  1.00  0.00     0.042 C 
ATOM      7  O   UNL     1      -5.717  -3.134  27.984  1.00  0.00    -0.550 OA
ATOM      8  O   UNL     1      -4.611  -2.705  29.943  1.00  0.00    -0.550 OA
ENDBRANCH   5   6
ENDBRANCH   1   5
TORSDOF 3
ENDMDL
MODEL 8
REMARK VINA RESULT:    -3.105      2.575      4.024
REMARK INTER + INTRA:          -3.753
REMARK INTER:                  -3.723
REMARK INTRA:                  -0.030
REMARK UNBOUND:                -0.103
REMARK SMILES O=C([O-])CCC(=O)[O-]
REMARK SMILES IDX 4 1 2 2 1 3 3 4 5 5 6 6 7 7 8 8
REMARK H PARENT
REMARK Flexibility Score: inf
ROOT
ATOM      1  C   UNL     1      -3.950  -0.955  27.876  1.00  0.00     0.059 C 
ENDROOT
BRANCH   1   2
ATOM      2  C   UNL     1      -5.140  -1.022  28.784  1.00  0.00     0.042 C 
ATOM      3  O   UNL     1      -5.655  -2.134  29.074  1.00  0.00    -0.550 OA
ATOM      4  O   UNL     1      -5.706   0.148  29.274  1.00  0.00    -0.550 OA
ENDBRANCH   1   2
BRANCH   1   5
ATOM      5  C   UNL     1      -2.705  -1.558  28.534  1.00  0.00     0.059 C 
BRANCH   5   6
ATOM      6  C   UNL     1      -1.445  -1.025  27.922  1.00  0.00     0.042 C 
ATOM      7  O   UNL     1      -0.360  -1.076  28.558  1.00  0.00    -0.550 OA
ATOM      8  O   UNL     1      -1.478  -0.436  26.665  1.00  0.00    -0.550 OA
ENDBRANCH   5   6
ENDBRANCH   1   5
TORSDOF 3
ENDMDL
MODEL 9
REMARK VINA RESULT:    -2.982      2.564      3.239
REMARK INTER + INTRA:          -3.608
REMARK INTER:                  -3.572
REMARK INTRA:                  -0.035
REMARK UNBOUND:                -0.103
REMARK SMILES O=C([O-])CCC(=O)[O-]
REMARK SMILES IDX 4 1 2 2 1 3 3 4 5 5 6 6 7 7 8 8
REMARK H PARENT
REMARK Flexibility Score: inf
ROOT
ATOM      1  C   UNL     1      -3.961  -3.265  29.194  1.00  0.00     0.059 C 
ENDROOT
BRANCH   1   2
ATOM      2  C   UNL     1      -5.173  -4.058  28.809  1.00  0.00     0.042 C 
ATOM      3  O   UNL     1      -5.386  -5.185  29.331  1.00  0.00    -0.550 OA
ATOM      4  O   UNL     1      -6.044  -3.572  27.843  1.00  0.00    -0.550 OA
ENDBRANCH   1   2
BRANCH   1   5
ATOM      5  C   UNL     1      -2.678  -4.090  29.047  1.00  0.00     0.059 C 
BRANCH   5   6
ATOM      6  C   UNL     1      -1.481  -3.213  28.836  1.00  0.00     0.042 C 
ATOM      7  O   UNL     1      -0.331  -3.628  29.135  1.00  0.00    -0.550 OA
ATOM      8  O   UNL     1      -1.641  -1.924  28.345  1.00  0.00    -0.550 OA
ENDBRANCH   5   6
ENDBRANCH   1   5
TORSDOF 3
ENDMDL
