MODEL 1
REMARK VINA RESULT:    -3.796      0.000      0.000
REMARK INTER + INTRA:          -6.645
REMARK INTER:                  -5.571
REMARK INTRA:                  -1.074
REMARK UNBOUND:                -1.074
REMARK SMILES Cc1cc2c(C(C)C)c(O)c(O)c(C=O)c2c(O)c1-c1c(C)cc2c(C(C)C)c(O)c(O)c(C=O)c2c1O
REMARK SMILES IDX 1 1 2 2 3 3 4 4 16 5 13 6 11 7 9 8 5 9 17 10 19 11 20 12
REMARK SMILES IDX 37 13 21 14 36 15 23 16 22 17 24 18 33 19 25 20 31 21 29 22
REMARK SMILES IDX 38 23 34 25 35 26 26 27 27 28 28 29 32 30 30 32 18 34 6 36
REMARK SMILES IDX 7 37 8 38 14 39 15 40 10 41 12 43
REMARK H PARENT 38 24 32 31 30 33 18 35 10 42 12 44
REMARK Flexibility Score: inf
ROOT
ATOM      1  C   UNL     1     -16.191  -7.338  30.237  1.00  0.00     0.045 C 
ATOM      2  C   UNL     1     -17.496  -7.686  30.911  1.00  0.00    -0.039 A 
ATOM      3  C   UNL     1     -18.599  -8.042  30.132  1.00  0.00     0.013 A 
ATOM      4  C   UNL     1     -19.844  -8.373  30.710  1.00  0.00    -0.006 A 
ATOM      5  C   UNL     1     -19.932  -8.484  32.129  1.00  0.00     0.039 A 
ATOM      6  C   UNL     1     -21.115  -9.039  32.705  1.00  0.00     0.072 A 
ATOM      7  C   UNL     1     -22.170  -9.458  31.868  1.00  0.00     0.169 A 
ATOM      8  C   UNL     1     -22.115  -9.238  30.488  1.00  0.00     0.162 A 
ATOM      9  C   UNL     1     -20.992  -8.617  29.899  1.00  0.00     0.008 A 
ATOM     10  C   UNL     1     -18.839  -8.024  32.923  1.00  0.00     0.132 A 
ATOM     11  C   UNL     1     -17.624  -7.643  32.310  1.00  0.00     0.031 A 
ENDROOT
BRANCH  11  12
ATOM     12  C   UNL     1     -16.478  -7.189  33.143  1.00  0.00     0.031 A 
ATOM     13  C   UNL     1     -16.300  -5.817  33.414  1.00  0.00     0.132 A 
ATOM     14  C   UNL     1     -15.572  -8.132  33.657  1.00  0.00    -0.039 A 
ATOM     15  C   UNL     1     -15.175  -5.371  34.170  1.00  0.00     0.039 A 
ATOM     16  C   UNL     1     -14.537  -7.704  34.492  1.00  0.00     0.013 A 
ATOM     17  C   UNL     1     -15.707  -9.600  33.336  1.00  0.00     0.045 C 
ATOM     18  C   UNL     1     -14.363  -6.342  34.824  1.00  0.00    -0.006 A 
ATOM     19  C   UNL     1     -14.849  -3.991  34.311  1.00  0.00     0.072 A 
ATOM     20  C   UNL     1     -13.375  -5.930  35.768  1.00  0.00     0.008 A 
ATOM     21  C   UNL     1     -13.776  -3.599  35.134  1.00  0.00     0.169 A 
ATOM     22  C   UNL     1     -13.024  -4.563  35.835  1.00  0.00     0.162 A 
BRANCH  13  23
ATOM     23  O   UNL     1     -17.260  -4.900  32.971  1.00  0.00    -0.507 OA
ATOM     24  H   UNL     1     -17.447  -4.014  33.425  1.00  0.00     0.293 HD
ENDBRANCH  13  23
BRANCH  19  25
ATOM     25  C   UNL     1     -15.521  -2.937  33.511  1.00  0.00     0.264 C 
ATOM     26  O   UNL     1     -16.494  -2.287  33.981  1.00  0.00    -0.298 OA
ENDBRANCH  19  25
BRANCH  20  27
ATOM     27  C   UNL     1     -12.680  -6.944  36.695  1.00  0.00     0.017 C 
ATOM     28  C   UNL     1     -13.679  -7.576  37.671  1.00  0.00     0.012 C 
ATOM     29  C   UNL     1     -11.875  -8.019  35.941  1.00  0.00     0.012 C 
ENDBRANCH  20  27
BRANCH  21  30
ATOM     30  O   UNL     1     -13.474  -2.236  35.226  1.00  0.00    -0.504 OA
ATOM     31  H   UNL     1     -13.131  -1.777  36.058  1.00  0.00     0.293 HD
ENDBRANCH  21  30
BRANCH  22  32
ATOM     32  O   UNL     1     -11.895  -4.194  36.571  1.00  0.00    -0.504 OA
ATOM     33  H   UNL     1     -10.965  -4.554  36.422  1.00  0.00     0.293 HD
ENDBRANCH  22  32
ENDBRANCH  11  12
BRANCH  10  34
ATOM     34  O   UNL     1     -18.967  -7.919  34.313  1.00  0.00    -0.507 OA
ATOM     35  H   UNL     1     -18.256  -7.527  34.917  1.00  0.00     0.293 HD
ENDBRANCH  10  34
BRANCH   9  36
ATOM     36  C   UNL     1     -21.030  -8.221  28.412  1.00  0.00     0.017 C 
ATOM     37  C   UNL     1     -21.124  -9.460  27.517  1.00  0.00     0.012 C 
ATOM     38  C   UNL     1     -22.133  -7.199  28.078  1.00  0.00     0.012 C 
ENDBRANCH   9  36
BRANCH   6  39
ATOM     39  C   UNL     1     -21.238  -9.277  34.158  1.00  0.00     0.264 C 
ATOM     40  O   UNL     1     -20.503 -10.124  34.733  1.00  0.00    -0.298 OA
ENDBRANCH   6  39
BRANCH   8  41
ATOM     41  O   UNL     1     -23.174  -9.665  29.684  1.00  0.00    -0.504 OA
ATOM     42  H   UNL     1     -23.044 -10.052  28.757  1.00  0.00     0.293 HD
ENDBRANCH   8  41
BRANCH   7  43
ATOM     43  O   UNL     1     -23.290 -10.124  32.382  1.00  0.00    -0.504 OA
ATOM     44  H   UNL     1     -24.127  -9.655  32.700  1.00  0.00     0.293 HD
ENDBRANCH   7  43
TORSDOF 11
ENDMDL
MODEL 2
REMARK VINA RESULT:    -3.721      8.308     13.506
REMARK INTER + INTRA:          -6.535
REMARK INTER:                  -5.502
REMARK INTRA:                  -1.033
REMARK UNBOUND:                -1.074
REMARK SMILES Cc1cc2c(C(C)C)c(O)c(O)c(C=O)c2c(O)c1-c1c(C)cc2c(C(C)C)c(O)c(O)c(C=O)c2c1O
REMARK SMILES IDX 1 1 2 2 3 3 4 4 16 5 13 6 11 7 9 8 5 9 17 10 19 11 20 12
REMARK SMILES IDX 37 13 21 14 36 15 23 16 22 17 24 18 33 19 25 20 31 21 29 22
REMARK SMILES IDX 38 23 34 25 35 26 26 27 27 28 28 29 32 30 30 32 18 34 6 36
REMARK SMILES IDX 7 37 8 38 14 39 15 40 10 41 12 43
REMARK H PARENT 38 24 32 31 30 33 18 35 10 42 12 44
REMARK Flexibility Score: inf
ROOT
ATOM      1  C   UNL     1     -28.742  -5.884  24.983  1.00  0.00     0.045 C 
ATOM      2  C   UNL     1     -28.289  -4.703  24.157  1.00  0.00    -0.039 A 
ATOM      3  C   UNL     1     -29.241  -3.895  23.533  1.00  0.00     0.013 A 
ATOM      4  C   UNL     1     -28.874  -2.782  22.747  1.00  0.00    -0.006 A 
ATOM      5  C   UNL     1     -27.501  -2.394  22.708  1.00  0.00     0.039 A 
ATOM      6  C   UNL     1     -27.155  -1.145  22.109  1.00  0.00     0.072 A 
ATOM      7  C   UNL     1     -28.166  -0.326  21.564  1.00  0.00     0.169 A 
ATOM      8  C   UNL     1     -29.490  -0.772  21.507  1.00  0.00     0.162 A 
ATOM      9  C   UNL     1     -29.850  -2.038  22.018  1.00  0.00     0.008 A 
ATOM     10  C   UNL     1     -26.524  -3.274  23.261  1.00  0.00     0.132 A 
ATOM     11  C   UNL     1     -26.924  -4.414  23.993  1.00  0.00     0.031 A 
ENDROOT
BRANCH  11  12
ATOM     12  C   UNL     1     -25.902  -5.315  24.589  1.00  0.00     0.031 A 
ATOM     13  C   UNL     1     -25.273  -4.968  25.803  1.00  0.00     0.132 A 
ATOM     14  C   UNL     1     -25.562  -6.514  23.940  1.00  0.00    -0.039 A 
ATOM     15  C   UNL     1     -24.256  -5.803  26.354  1.00  0.00     0.039 A 
ATOM     16  C   UNL     1     -24.650  -7.385  24.540  1.00  0.00     0.013 A 
ATOM     17  C   UNL     1     -26.177  -6.883  22.612  1.00  0.00     0.045 C 
ATOM     18  C   UNL     1     -24.043  -7.088  25.780  1.00  0.00    -0.006 A 
ATOM     19  C   UNL     1     -23.464  -5.405  27.470  1.00  0.00     0.072 A 
ATOM     20  C   UNL     1     -23.203  -8.036  26.438  1.00  0.00     0.008 A 
ATOM     21  C   UNL     1     -22.529  -6.298  28.026  1.00  0.00     0.169 A 
ATOM     22  C   UNL     1     -22.377  -7.595  27.497  1.00  0.00     0.162 A 
BRANCH  13  23
ATOM     23  O   UNL     1     -25.686  -3.817  26.484  1.00  0.00    -0.507 OA
ATOM     24  H   UNL     1     -25.988  -2.966  26.024  1.00  0.00     0.293 HD
ENDBRANCH  13  23
BRANCH  19  25
ATOM     25  C   UNL     1     -23.488  -4.019  28.000  1.00  0.00     0.264 C 
ATOM     26  O   UNL     1     -24.015  -3.760  29.115  1.00  0.00    -0.298 OA
ENDBRANCH  19  25
BRANCH  20  27
ATOM     27  C   UNL     1     -23.169  -9.514  26.008  1.00  0.00     0.017 C 
ATOM     28  C   UNL     1     -24.585 -10.092  25.904  1.00  0.00     0.012 C 
ATOM     29  C   UNL     1     -22.365  -9.762  24.717  1.00  0.00     0.012 C 
ENDBRANCH  20  27
BRANCH  21  30
ATOM     30  O   UNL     1     -21.754  -5.860  29.106  1.00  0.00    -0.504 OA
ATOM     31  H   UNL     1     -21.684  -4.900  29.413  1.00  0.00     0.293 HD
ENDBRANCH  21  30
BRANCH  22  32
ATOM     32  O   UNL     1     -21.381  -8.452  27.975  1.00  0.00    -0.504 OA
ATOM     33  H   UNL     1     -20.686  -8.905  27.402  1.00  0.00     0.293 HD
ENDBRANCH  22  32
ENDBRANCH  11  12
BRANCH  10  34
ATOM     34  O   UNL     1     -25.159  -3.035  23.058  1.00  0.00    -0.507 OA
ATOM     35  H   UNL     1     -24.433  -3.713  23.248  1.00  0.00     0.293 HD
ENDBRANCH  10  34
BRANCH   9  36
ATOM     36  C   UNL     1     -31.269  -2.583  21.782  1.00  0.00     0.017 C 
ATOM     37  C   UNL     1     -31.225  -3.931  21.056  1.00  0.00     0.012 C 
ATOM     38  C   UNL     1     -32.117  -2.661  23.065  1.00  0.00     0.012 C 
ENDBRANCH   9  36
BRANCH   6  39
ATOM     39  C   UNL     1     -25.770  -0.631  22.123  1.00  0.00     0.264 C 
ATOM     40  O   UNL     1     -25.254  -0.206  23.191  1.00  0.00    -0.298 OA
ENDBRANCH   6  39
BRANCH   8  41
ATOM     41  O   UNL     1     -30.470   0.061  20.962  1.00  0.00    -0.504 OA
ATOM     42  H   UNL     1     -30.543   0.252  19.970  1.00  0.00     0.293 HD
ENDBRANCH   8  41
BRANCH   7  43
ATOM     43  O   UNL     1     -27.885   0.959  21.084  1.00  0.00    -0.504 OA
ATOM     44  H   UNL     1     -28.572   1.696  21.014  1.00  0.00     0.293 HD
ENDBRANCH   7  43
TORSDOF 11
ENDMDL
MODEL 3
REMARK VINA RESULT:    -3.606      8.268     14.611
REMARK INTER + INTRA:          -6.367
REMARK INTER:                  -5.421
REMARK INTRA:                  -0.946
REMARK UNBOUND:                -1.074
REMARK SMILES Cc1cc2c(C(C)C)c(O)c(O)c(C=O)c2c(O)c1-c1c(C)cc2c(C(C)C)c(O)c(O)c(C=O)c2c1O
REMARK SMILES IDX 1 1 2 2 3 3 4 4 16 5 13 6 11 7 9 8 5 9 17 10 19 11 20 12
REMARK SMILES IDX 37 13 21 14 36 15 23 16 22 17 24 18 33 19 25 20 31 21 29 22
REMARK SMILES IDX 38 23 34 25 35 26 26 27 27 28 28 29 32 30 30 32 18 34 6 36
REMARK SMILES IDX 7 37 8 38 14 39 15 40 10 41 12 43
REMARK H PARENT 38 24 32 31 30 33 18 35 10 42 12 44
REMARK Flexibility Score: inf
ROOT
ATOM      1  C   UNL     1     -26.152  -6.917  22.642  1.00  0.00     0.045 C 
ATOM      2  C   UNL     1     -25.534  -6.546  23.968  1.00  0.00    -0.039 A 
ATOM      3  C   UNL     1     -24.632  -7.422  24.576  1.00  0.00     0.013 A 
ATOM      4  C   UNL     1     -24.028  -7.127  25.817  1.00  0.00    -0.006 A 
ATOM      5  C   UNL     1     -24.237  -5.838  26.391  1.00  0.00     0.039 A 
ATOM      6  C   UNL     1     -23.452  -5.450  27.519  1.00  0.00     0.072 A 
ATOM      7  C   UNL     1     -22.497  -6.343  28.047  1.00  0.00     0.169 A 
ATOM      8  C   UNL     1     -22.384  -7.643  27.544  1.00  0.00     0.162 A 
ATOM      9  C   UNL     1     -23.203  -8.083  26.483  1.00  0.00     0.008 A 
ATOM     10  C   UNL     1     -25.232  -4.987  25.824  1.00  0.00     0.132 A 
ATOM     11  C   UNL     1     -25.863  -5.339  24.609  1.00  0.00     0.031 A 
ENDROOT
BRANCH  11  12
ATOM     12  C   UNL     1     -26.881  -4.438  24.008  1.00  0.00     0.031 A 
ATOM     13  C   UNL     1     -26.476  -3.299  23.279  1.00  0.00     0.132 A 
ATOM     14  C   UNL     1     -28.248  -4.721  24.167  1.00  0.00    -0.039 A 
ATOM     15  C   UNL     1     -27.447  -2.403  22.742  1.00  0.00     0.039 A 
ATOM     16  C   UNL     1     -29.195  -3.905  23.543  1.00  0.00     0.013 A 
ATOM     17  C   UNL     1     -28.709  -5.899  24.989  1.00  0.00     0.045 C 
ATOM     18  C   UNL     1     -28.818  -2.789  22.765  1.00  0.00    -0.006 A 
ATOM     19  C   UNL     1     -27.092  -1.150  22.165  1.00  0.00     0.072 A 
ATOM     20  C   UNL     1     -29.787  -2.032  22.038  1.00  0.00     0.008 A 
ATOM     21  C   UNL     1     -28.080  -0.338  21.576  1.00  0.00     0.169 A 
ATOM     22  C   UNL     1     -29.424  -0.762  21.538  1.00  0.00     0.162 A 
BRANCH  13  23
ATOM     23  O   UNL     1     -25.112  -3.081  23.051  1.00  0.00    -0.507 OA
ATOM     24  H   UNL     1     -24.420  -3.015  23.787  1.00  0.00     0.293 HD
ENDBRANCH  13  23
BRANCH  19  25
ATOM     25  C   UNL     1     -25.722  -0.591  22.275  1.00  0.00     0.264 C 
ATOM     26  O   UNL     1     -25.265  -0.207  23.386  1.00  0.00    -0.298 OA
ENDBRANCH  19  25
BRANCH  20  27
ATOM     27  C   UNL     1     -31.213  -2.566  21.807  1.00  0.00     0.017 C 
ATOM     28  C   UNL     1     -31.187  -3.909  21.067  1.00  0.00     0.012 C 
ATOM     29  C   UNL     1     -32.056  -2.650  23.092  1.00  0.00     0.012 C 
ENDBRANCH  20  27
BRANCH  21  30
ATOM     30  O   UNL     1     -27.693   0.896  21.042  1.00  0.00    -0.504 OA
ATOM     31  H   UNL     1     -28.135   1.780  21.255  1.00  0.00     0.293 HD
ENDBRANCH  21  30
BRANCH  22  32
ATOM     32  O   UNL     1     -30.427   0.080  21.049  1.00  0.00    -0.504 OA
ATOM     33  H   UNL     1     -30.818   0.033  20.121  1.00  0.00     0.293 HD
ENDBRANCH  22  32
ENDBRANCH  11  12
BRANCH  10  34
ATOM     34  O   UNL     1     -25.616  -3.810  26.477  1.00  0.00    -0.507 OA
ATOM     35  H   UNL     1     -24.989  -3.243  27.033  1.00  0.00     0.293 HD
ENDBRANCH  10  34
BRANCH   9  36
ATOM     36  C   UNL     1     -23.191  -9.565  26.069  1.00  0.00     0.017 C 
ATOM     37  C   UNL     1     -24.614 -10.125  25.993  1.00  0.00     0.012 C 
ATOM     38  C   UNL     1     -22.410  -9.833  24.769  1.00  0.00     0.012 C 
ENDBRANCH   9  36
BRANCH   6  39
ATOM     39  C   UNL     1     -23.542  -4.096  28.104  1.00  0.00     0.264 C 
ATOM     40  O   UNL     1     -23.912  -3.937  29.298  1.00  0.00    -0.298 OA
ENDBRANCH   6  39
BRANCH   8  41
ATOM     41  O   UNL     1     -21.427  -8.506  28.087  1.00  0.00    -0.504 OA
ATOM     42  H   UNL     1     -20.842  -8.257  28.875  1.00  0.00     0.293 HD
ENDBRANCH   8  41
BRANCH   7  43
ATOM     43  O   UNL     1     -21.620  -5.956  29.068  1.00  0.00    -0.504 OA
ATOM     44  H   UNL     1     -20.660  -5.685  28.913  1.00  0.00     0.293 HD
ENDBRANCH   7  43
TORSDOF 11
ENDMDL
MODEL 4
REMARK VINA RESULT:    -3.574     11.859     15.775
REMARK INTER + INTRA:          -6.319
REMARK INTER:                  -5.576
REMARK INTRA:                  -0.744
REMARK UNBOUND:                -1.074
REMARK SMILES Cc1cc2c(C(C)C)c(O)c(O)c(C=O)c2c(O)c1-c1c(C)cc2c(C(C)C)c(O)c(O)c(C=O)c2c1O
REMARK SMILES IDX 1 1 2 2 3 3 4 4 16 5 13 6 11 7 9 8 5 9 17 10 19 11 20 12
REMARK SMILES IDX 37 13 21 14 36 15 23 16 22 17 24 18 33 19 25 20 31 21 29 22
REMARK SMILES IDX 38 23 34 25 35 26 26 27 27 28 28 29 32 30 30 32 18 34 6 36
REMARK SMILES IDX 7 37 8 38 14 39 15 40 10 41 12 43
REMARK H PARENT 38 24 32 31 30 33 18 35 10 42 12 44
REMARK Flexibility Score: inf
ROOT
ATOM      1  C   UNL     1     -24.201  -3.516  26.121  1.00  0.00     0.045 C 
ATOM      2  C   UNL     1     -24.536  -2.457  25.098  1.00  0.00    -0.039 A 
ATOM      3  C   UNL     1     -23.775  -1.288  25.045  1.00  0.00     0.013 A 
ATOM      4  C   UNL     1     -24.047  -0.264  24.112  1.00  0.00    -0.006 A 
ATOM      5  C   UNL     1     -25.033  -0.497  23.107  1.00  0.00     0.039 A 
ATOM      6  C   UNL     1     -25.151   0.432  22.029  1.00  0.00     0.072 A 
ATOM      7  C   UNL     1     -24.303   1.557  21.979  1.00  0.00     0.169 A 
ATOM      8  C   UNL     1     -23.420   1.831  23.028  1.00  0.00     0.162 A 
ATOM      9  C   UNL     1     -23.339   0.975  24.148  1.00  0.00     0.008 A 
ATOM     10  C   UNL     1     -25.874  -1.643  23.225  1.00  0.00     0.132 A 
ATOM     11  C   UNL     1     -25.612  -2.622  24.209  1.00  0.00     0.031 A 
ENDROOT
BRANCH  11  12
ATOM     12  C   UNL     1     -26.475  -3.829  24.311  1.00  0.00     0.031 A 
ATOM     13  C   UNL     1     -27.742  -3.744  24.924  1.00  0.00     0.132 A 
ATOM     14  C   UNL     1     -26.024  -5.056  23.796  1.00  0.00    -0.039 A 
ATOM     15  C   UNL     1     -28.554  -4.907  25.069  1.00  0.00     0.039 A 
ATOM     16  C   UNL     1     -26.868  -6.169  23.837  1.00  0.00     0.013 A 
ATOM     17  C   UNL     1     -24.651  -5.189  23.186  1.00  0.00     0.045 C 
ATOM     18  C   UNL     1     -28.162  -6.101  24.398  1.00  0.00    -0.006 A 
ATOM     19  C   UNL     1     -29.750  -4.912  25.843  1.00  0.00     0.072 A 
ATOM     20  C   UNL     1     -29.057  -7.211  24.330  1.00  0.00     0.008 A 
ATOM     21  C   UNL     1     -30.557  -6.064  25.889  1.00  0.00     0.169 A 
ATOM     22  C   UNL     1     -30.200  -7.217  25.161  1.00  0.00     0.162 A 
BRANCH  13  23
ATOM     23  O   UNL     1     -28.214  -2.497  25.350  1.00  0.00    -0.507 OA
ATOM     24  H   UNL     1     -28.368  -2.252  26.321  1.00  0.00     0.293 HD
ENDBRANCH  13  23
BRANCH  19  25
ATOM     25  C   UNL     1     -30.123  -3.777  26.725  1.00  0.00     0.264 C 
ATOM     26  O   UNL     1     -31.138  -3.071  26.479  1.00  0.00    -0.298 OA
ENDBRANCH  19  25
BRANCH  20  27
ATOM     27  C   UNL     1     -28.793  -8.399  23.387  1.00  0.00     0.017 C 
ATOM     28  C   UNL     1     -28.585  -7.923  21.944  1.00  0.00     0.012 C 
ATOM     29  C   UNL     1     -27.640  -9.309  23.849  1.00  0.00     0.012 C 
ENDBRANCH  20  27
BRANCH  21  30
ATOM     30  O   UNL     1     -31.712  -6.034  26.680  1.00  0.00    -0.504 OA
ATOM     31  H   UNL     1     -32.159  -5.193  27.015  1.00  0.00     0.293 HD
ENDBRANCH  21  30
BRANCH  22  32
ATOM     32  O   UNL     1     -30.938  -8.398  25.282  1.00  0.00    -0.504 OA
ATOM     33  H   UNL     1     -30.711  -9.269  24.827  1.00  0.00     0.293 HD
ENDBRANCH  22  32
ENDBRANCH  11  12
BRANCH  10  34
ATOM     34  O   UNL     1     -26.985  -1.797  22.386  1.00  0.00    -0.507 OA
ATOM     35  H   UNL     1     -27.349  -1.064  21.792  1.00  0.00     0.293 HD
ENDBRANCH  10  34
BRANCH   9  36
ATOM     36  C   UNL     1     -22.500   1.391  25.369  1.00  0.00     0.017 C 
ATOM     37  C   UNL     1     -21.033   0.990  25.188  1.00  0.00     0.012 C 
ATOM     38  C   UNL     1     -22.637   2.882  25.729  1.00  0.00     0.012 C 
ENDBRANCH   9  36
BRANCH   6  39
ATOM     39  C   UNL     1     -26.078   0.204  20.902  1.00  0.00     0.264 C 
ATOM     40  O   UNL     1     -27.264   0.629  20.951  1.00  0.00    -0.298 OA
ENDBRANCH   6  39
BRANCH   8  41
ATOM     41  O   UNL     1     -22.591   2.953  22.950  1.00  0.00    -0.504 OA
ATOM     42  H   UNL     1     -21.857   3.051  22.261  1.00  0.00     0.293 HD
ENDBRANCH   8  41
BRANCH   7  43
ATOM     43  O   UNL     1     -24.298   2.419  20.875  1.00  0.00    -0.504 OA
ATOM     44  H   UNL     1     -24.131   3.413  20.938  1.00  0.00     0.293 HD
ENDBRANCH   7  43
TORSDOF 11
ENDMDL
MODEL 5
REMARK VINA RESULT:    -3.551      0.605      9.186
REMARK INTER + INTRA:          -6.286
REMARK INTER:                  -5.299
REMARK INTRA:                  -0.988
REMARK UNBOUND:                -1.074
REMARK SMILES Cc1cc2c(C(C)C)c(O)c(O)c(C=O)c2c(O)c1-c1c(C)cc2c(C(C)C)c(O)c(O)c(C=O)c2c1O
REMARK SMILES IDX 1 1 2 2 3 3 4 4 16 5 13 6 11 7 9 8 5 9 17 10 19 11 20 12
REMARK SMILES IDX 37 13 21 14 36 15 23 16 22 17 24 18 33 19 25 20 31 21 29 22
REMARK SMILES IDX 38 23 34 25 35 26 26 27 27 28 28 29 32 30 30 32 18 34 6 36
REMARK SMILES IDX 7 37 8 38 14 39 15 40 10 41 12 43
REMARK H PARENT 38 24 32 31 30 33 18 35 10 42 12 44
REMARK Flexibility Score: inf
ROOT
ATOM      1  C   UNL     1     -15.825  -9.495  33.885  1.00  0.00     0.045 C 
ATOM      2  C   UNL     1     -15.597  -8.011  34.039  1.00  0.00    -0.039 A 
ATOM      3  C   UNL     1     -14.598  -7.555  34.901  1.00  0.00     0.013 A 
ATOM      4  C   UNL     1     -14.345  -6.178  35.086  1.00  0.00    -0.006 A 
ATOM      5  C   UNL     1     -15.033  -5.238  34.263  1.00  0.00     0.039 A 
ATOM      6  C   UNL     1     -14.618  -3.872  34.282  1.00  0.00     0.072 A 
ATOM      7  C   UNL     1     -13.549  -3.477  35.112  1.00  0.00     0.169 A 
ATOM      8  C   UNL     1     -12.960  -4.387  35.996  1.00  0.00     0.162 A 
ATOM      9  C   UNL     1     -13.404  -5.725  36.059  1.00  0.00     0.008 A 
ATOM     10  C   UNL     1     -16.120  -5.697  33.460  1.00  0.00     0.132 A 
ATOM     11  C   UNL     1     -16.385  -7.079  33.342  1.00  0.00     0.031 A 
ENDROOT
BRANCH  11  12
ATOM     12  C   UNL     1     -17.502  -7.555  32.482  1.00  0.00     0.031 A 
ATOM     13  C   UNL     1     -18.714  -7.980  33.066  1.00  0.00     0.132 A 
ATOM     14  C   UNL     1     -17.348  -7.580  31.086  1.00  0.00    -0.039 A 
ATOM     15  C   UNL     1     -19.770  -8.484  32.251  1.00  0.00     0.039 A 
ATOM     16  C   UNL     1     -18.424  -7.965  30.284  1.00  0.00     0.013 A 
ATOM     17  C   UNL     1     -16.044  -7.185  30.438  1.00  0.00     0.045 C 
ATOM     18  C   UNL     1     -19.666  -8.347  30.837  1.00  0.00    -0.006 A 
ATOM     19  C   UNL     1     -20.932  -9.098  32.802  1.00  0.00     0.072 A 
ATOM     20  C   UNL     1     -20.793  -8.627  30.006  1.00  0.00     0.008 A 
ATOM     21  C   UNL     1     -21.983  -9.505  31.958  1.00  0.00     0.169 A 
ATOM     22  C   UNL     1     -21.902  -9.299  30.566  1.00  0.00     0.162 A 
BRANCH  13  23
ATOM     23  O   UNL     1     -18.885  -7.863  34.451  1.00  0.00    -0.507 OA
ATOM     24  H   UNL     1     -18.403  -7.182  35.024  1.00  0.00     0.293 HD
ENDBRANCH  13  23
BRANCH  19  25
ATOM     25  C   UNL     1     -21.031  -9.451  34.240  1.00  0.00     0.264 C 
ATOM     26  O   UNL     1     -21.777  -8.799  35.019  1.00  0.00    -0.298 OA
ENDBRANCH  19  25
BRANCH  20  27
ATOM     27  C   UNL     1     -20.812  -8.227  28.520  1.00  0.00     0.017 C 
ATOM     28  C   UNL     1     -21.022  -9.451  27.621  1.00  0.00     0.012 C 
ATOM     29  C   UNL     1     -21.824  -7.112  28.194  1.00  0.00     0.012 C 
ENDBRANCH  20  27
BRANCH  21  30
ATOM     30  O   UNL     1     -23.096 -10.125  32.537  1.00  0.00    -0.504 OA
ATOM     31  H   UNL     1     -23.231 -10.257  33.529  1.00  0.00     0.293 HD
ENDBRANCH  21  30
BRANCH  22  32
ATOM     32  O   UNL     1     -22.892  -9.791  29.711  1.00  0.00    -0.504 OA
ATOM     33  H   UNL     1     -23.876  -9.831  29.928  1.00  0.00     0.293 HD
ENDBRANCH  22  32
ENDBRANCH  11  12
BRANCH  10  34
ATOM     34  O   UNL     1     -16.952  -4.782  32.803  1.00  0.00    -0.507 OA
ATOM     35  H   UNL     1     -17.959  -4.867  32.758  1.00  0.00     0.293 HD
ENDBRANCH  10  34
BRANCH   9  36
ATOM     36  C   UNL     1     -12.870  -6.657  37.162  1.00  0.00     0.017 C 
ATOM     37  C   UNL     1     -14.013  -7.182  38.036  1.00  0.00     0.012 C 
ATOM     38  C   UNL     1     -11.998  -7.806  36.624  1.00  0.00     0.012 C 
ENDBRANCH   9  36
BRANCH   6  39
ATOM     39  C   UNL     1     -15.216  -2.863  33.383  1.00  0.00     0.264 C 
ATOM     40  O   UNL     1     -14.623  -2.512  32.328  1.00  0.00    -0.298 OA
ENDBRANCH   6  39
BRANCH   8  41
ATOM     41  O   UNL     1     -11.902  -3.966  36.806  1.00  0.00    -0.504 OA
ATOM     42  H   UNL     1     -11.807  -4.238  37.776  1.00  0.00     0.293 HD
ENDBRANCH   8  41
BRANCH   7  43
ATOM     43  O   UNL     1     -13.029  -2.178  35.064  1.00  0.00    -0.504 OA
ATOM     44  H   UNL     1     -12.854  -1.610  35.881  1.00  0.00     0.293 HD
ENDBRANCH   7  43
TORSDOF 11
ENDMDL
MODEL 6
REMARK VINA RESULT:    -3.149      7.738     14.476
REMARK INTER + INTRA:          -5.696
REMARK INTER:                  -4.680
REMARK INTRA:                  -1.016
REMARK UNBOUND:                -1.074
REMARK SMILES Cc1cc2c(C(C)C)c(O)c(O)c(C=O)c2c(O)c1-c1c(C)cc2c(C(C)C)c(O)c(O)c(C=O)c2c1O
REMARK SMILES IDX 1 1 2 2 3 3 4 4 16 5 13 6 11 7 9 8 5 9 17 10 19 11 20 12
REMARK SMILES IDX 37 13 21 14 36 15 23 16 22 17 24 18 33 19 25 20 31 21 29 22
REMARK SMILES IDX 38 23 34 25 35 26 26 27 27 28 28 29 32 30 30 32 18 34 6 36
REMARK SMILES IDX 7 37 8 38 14 39 15 40 10 41 12 43
REMARK H PARENT 38 24 32 31 30 33 18 35 10 42 12 44
REMARK Flexibility Score: inf
ROOT
ATOM      1  C   UNL     1     -25.367  -6.607  22.953  1.00  0.00     0.045 C 
ATOM      2  C   UNL     1     -24.877  -6.323  24.353  1.00  0.00    -0.039 A 
ATOM      3  C   UNL     1     -24.026  -7.233  24.981  1.00  0.00     0.013 A 
ATOM      4  C   UNL     1     -23.541  -7.020  26.290  1.00  0.00    -0.006 A 
ATOM      5  C   UNL     1     -23.817  -5.774  26.928  1.00  0.00     0.039 A 
ATOM      6  C   UNL     1     -23.144  -5.460  28.147  1.00  0.00     0.072 A 
ATOM      7  C   UNL     1     -22.230  -6.382  28.700  1.00  0.00     0.169 A 
ATOM      8  C   UNL     1     -22.057  -7.645  28.124  1.00  0.00     0.162 A 
ATOM      9  C   UNL     1     -22.770  -8.015  26.963  1.00  0.00     0.008 A 
ATOM     10  C   UNL     1     -24.765  -4.892  26.329  1.00  0.00     0.132 A 
ATOM     11  C   UNL     1     -25.278  -5.165  25.041  1.00  0.00     0.031 A 
ENDROOT
BRANCH  11  12
ATOM     12  C   UNL     1     -26.246  -4.229  24.409  1.00  0.00     0.031 A 
ATOM     13  C   UNL     1     -27.621  -4.545  24.380  1.00  0.00     0.132 A 
ATOM     14  C   UNL     1     -25.789  -3.029  23.839  1.00  0.00    -0.039 A 
ATOM     15  C   UNL     1     -28.548  -3.676  23.733  1.00  0.00     0.039 A 
ATOM     16  C   UNL     1     -26.712  -2.126  23.307  1.00  0.00     0.013 A 
ATOM     17  C   UNL     1     -24.318  -2.692  23.805  1.00  0.00     0.045 C 
ATOM     18  C   UNL     1     -28.099  -2.392  23.310  1.00  0.00    -0.006 A 
ATOM     19  C   UNL     1     -29.908  -4.039  23.512  1.00  0.00     0.072 A 
ATOM     20  C   UNL     1     -29.041  -1.414  22.870  1.00  0.00     0.008 A 
ATOM     21  C   UNL     1     -30.802  -3.114  22.941  1.00  0.00     0.169 A 
ATOM     22  C   UNL     1     -30.366  -1.820  22.595  1.00  0.00     0.162 A 
BRANCH  13  23
ATOM     23  O   UNL     1     -28.072  -5.699  25.032  1.00  0.00    -0.507 OA
ATOM     24  H   UNL     1     -27.882  -5.910  26.003  1.00  0.00     0.293 HD
ENDBRANCH  13  23
BRANCH  19  25
ATOM     25  C   UNL     1     -30.403  -5.420  23.743  1.00  0.00     0.264 C 
ATOM     26  O   UNL     1     -31.141  -5.687  24.729  1.00  0.00    -0.298 OA
ENDBRANCH  19  25
BRANCH  20  27
ATOM     27  C   UNL     1     -28.638   0.060  22.677  1.00  0.00     0.017 C 
ATOM     28  C   UNL     1     -28.590   0.429  21.190  1.00  0.00     0.012 C 
ATOM     29  C   UNL     1     -29.511   1.047  23.473  1.00  0.00     0.012 C 
ENDBRANCH  20  27
BRANCH  21  30
ATOM     30  O   UNL     1     -32.124  -3.519  22.720  1.00  0.00    -0.504 OA
ATOM     31  H   UNL     1     -32.747  -3.867  23.435  1.00  0.00     0.293 HD
ENDBRANCH  21  30
BRANCH  22  32
ATOM     32  O   UNL     1     -31.218  -0.930  21.933  1.00  0.00    -0.504 OA
ATOM     33  H   UNL     1     -32.012  -0.471  22.353  1.00  0.00     0.293 HD
ENDBRANCH  22  32
ENDBRANCH  11  12
BRANCH  10  34
ATOM     34  O   UNL     1     -25.221  -3.764  27.022  1.00  0.00    -0.507 OA
ATOM     35  H   UNL     1     -24.730  -2.880  27.045  1.00  0.00     0.293 HD
ENDBRANCH  10  34
BRANCH   9  36
ATOM     36  C   UNL     1     -22.703  -9.466  26.455  1.00  0.00     0.017 C 
ATOM     37  C   UNL     1     -24.087 -10.123  26.486  1.00  0.00     0.012 C 
ATOM     38  C   UNL     1     -22.048  -9.600  25.067  1.00  0.00     0.012 C 
ENDBRANCH   9  36
BRANCH   6  39
ATOM     39  C   UNL     1     -23.302  -4.150  28.810  1.00  0.00     0.264 C 
ATOM     40  O   UNL     1     -22.292  -3.468  29.131  1.00  0.00    -0.298 OA
ENDBRANCH   6  39
BRANCH   8  41
ATOM     41  O   UNL     1     -21.145  -8.537  28.693  1.00  0.00    -0.504 OA
ATOM     42  H   UNL     1     -20.391  -8.243  29.301  1.00  0.00     0.293 HD
ENDBRANCH   8  41
BRANCH   7  43
ATOM     43  O   UNL     1     -21.456  -6.060  29.821  1.00  0.00    -0.504 OA
ATOM     44  H   UNL     1     -20.524  -5.672  29.769  1.00  0.00     0.293 HD
ENDBRANCH   7  43
TORSDOF 11
ENDMDL
MODEL 7
REMARK VINA RESULT:    -3.044     11.657     15.975
REMARK INTER + INTRA:          -5.542
REMARK INTER:                  -5.625
REMARK INTRA:                   0.083
REMARK UNBOUND:                -1.074
REMARK SMILES Cc1cc2c(C(C)C)c(O)c(O)c(C=O)c2c(O)c1-c1c(C)cc2c(C(C)C)c(O)c(O)c(C=O)c2c1O
REMARK SMILES IDX 1 1 2 2 3 3 4 4 16 5 13 6 11 7 9 8 5 9 17 10 19 11 20 12
REMARK SMILES IDX 37 13 21 14 36 15 23 16 22 17 24 18 33 19 25 20 31 21 29 22
REMARK SMILES IDX 38 23 34 25 35 26 26 27 27 28 28 29 32 30 30 32 18 34 6 36
REMARK SMILES IDX 7 37 8 38 14 39 15 40 10 41 12 43
REMARK H PARENT 38 24 32 31 30 33 18 35 10 42 12 44
REMARK Flexibility Score: inf
ROOT
ATOM      1  C   UNL     1     -27.685  -1.436  21.325  1.00  0.00     0.045 C 
ATOM      2  C   UNL     1     -26.551  -1.242  22.303  1.00  0.00    -0.039 A 
ATOM      3  C   UNL     1     -25.666  -0.176  22.127  1.00  0.00     0.013 A 
ATOM      4  C   UNL     1     -24.587   0.049  23.009  1.00  0.00    -0.006 A 
ATOM      5  C   UNL     1     -24.486  -0.750  24.186  1.00  0.00     0.039 A 
ATOM      6  C   UNL     1     -23.541  -0.380  25.191  1.00  0.00     0.072 A 
ATOM      7  C   UNL     1     -22.725   0.754  25.000  1.00  0.00     0.169 A 
ATOM      8  C   UNL     1     -22.756   1.459  23.793  1.00  0.00     0.162 A 
ATOM      9  C   UNL     1     -23.622   1.068  22.749  1.00  0.00     0.008 A 
ATOM     10  C   UNL     1     -25.326  -1.896  24.311  1.00  0.00     0.132 A 
ATOM     11  C   UNL     1     -26.361  -2.127  23.378  1.00  0.00     0.031 A 
ENDROOT
BRANCH  11  12
ATOM     12  C   UNL     1     -27.252  -3.308  23.527  1.00  0.00     0.031 A 
ATOM     13  C   UNL     1     -26.762  -4.603  23.253  1.00  0.00     0.132 A 
ATOM     14  C   UNL     1     -28.583  -3.133  23.940  1.00  0.00    -0.039 A 
ATOM     15  C   UNL     1     -27.625  -5.735  23.346  1.00  0.00     0.039 A 
ATOM     16  C   UNL     1     -29.393  -4.253  24.141  1.00  0.00     0.013 A 
ATOM     17  C   UNL     1     -29.149  -1.756  24.185  1.00  0.00     0.045 C 
ATOM     18  C   UNL     1     -28.915  -5.565  23.925  1.00  0.00    -0.006 A 
ATOM     19  C   UNL     1     -27.233  -7.031  22.901  1.00  0.00     0.072 A 
ATOM     20  C   UNL     1     -29.713  -6.705  24.244  1.00  0.00     0.008 A 
ATOM     21  C   UNL     1     -28.091  -8.131  23.089  1.00  0.00     0.169 A 
ATOM     22  C   UNL     1     -29.336  -7.966  23.729  1.00  0.00     0.162 A 
BRANCH  13  23
ATOM     23  O   UNL     1     -25.410  -4.770  22.931  1.00  0.00    -0.507 OA
ATOM     24  H   UNL     1     -24.976  -4.387  22.101  1.00  0.00     0.293 HD
ENDBRANCH  13  23
BRANCH  19  25
ATOM     25  C   UNL     1     -25.994  -7.254  22.116  1.00  0.00     0.264 C 
ATOM     26  O   UNL     1     -25.963  -7.035  20.875  1.00  0.00    -0.298 OA
ENDBRANCH  19  25
BRANCH  20  27
ATOM     27  C   UNL     1     -30.975  -6.583  25.117  1.00  0.00     0.017 C 
ATOM     28  C   UNL     1     -30.642  -5.984  26.489  1.00  0.00     0.012 C 
ATOM     29  C   UNL     1     -32.125  -5.818  24.435  1.00  0.00     0.012 C 
ENDBRANCH  20  27
BRANCH  21  30
ATOM     30  O   UNL     1     -27.679  -9.382  22.616  1.00  0.00    -0.504 OA
ATOM     31  H   UNL     1     -27.906 -10.265  23.050  1.00  0.00     0.293 HD
ENDBRANCH  21  30
BRANCH  22  32
ATOM     32  O   UNL     1     -30.237  -9.030  23.828  1.00  0.00    -0.504 OA
ATOM     33  H   UNL     1     -30.046  -9.908  24.287  1.00  0.00     0.293 HD
ENDBRANCH  22  32
ENDBRANCH  11  12
BRANCH  10  34
ATOM     34  O   UNL     1     -25.117  -2.820  25.342  1.00  0.00    -0.507 OA
ATOM     35  H   UNL     1     -25.033  -2.567  26.318  1.00  0.00     0.293 HD
ENDBRANCH  10  34
BRANCH   9  36
ATOM     36  C   UNL     1     -23.509   1.741  21.369  1.00  0.00     0.017 C 
ATOM     37  C   UNL     1     -24.412   2.975  21.286  1.00  0.00     0.012 C 
ATOM     38  C   UNL     1     -22.060   2.074  20.966  1.00  0.00     0.012 C 
ENDBRANCH   9  36
BRANCH   6  39
ATOM     39  C   UNL     1     -23.450  -1.099  26.479  1.00  0.00     0.264 C 
ATOM     40  O   UNL     1     -24.429  -1.117  27.273  1.00  0.00    -0.298 OA
ENDBRANCH   6  39
BRANCH   8  41
ATOM     41  O   UNL     1     -21.936   2.579  23.633  1.00  0.00    -0.504 OA
ATOM     42  H   UNL     1     -21.134   2.765  24.222  1.00  0.00     0.293 HD
ENDBRANCH   8  41
BRANCH   7  43
ATOM     43  O   UNL     1     -21.879   1.224  26.013  1.00  0.00    -0.504 OA
ATOM     44  H   UNL     1     -21.678   0.713  26.861  1.00  0.00     0.293 HD
ENDBRANCH   7  43
TORSDOF 11
ENDMDL
MODEL 8
REMARK VINA RESULT:    -2.510     12.092     16.239
REMARK INTER + INTRA:          -4.758
REMARK INTER:                  -3.733
REMARK INTRA:                  -1.025
REMARK UNBOUND:                -1.074
REMARK SMILES Cc1cc2c(C(C)C)c(O)c(O)c(C=O)c2c(O)c1-c1c(C)cc2c(C(C)C)c(O)c(O)c(C=O)c2c1O
REMARK SMILES IDX 1 1 2 2 3 3 4 4 16 5 13 6 11 7 9 8 5 9 17 10 19 11 20 12
REMARK SMILES IDX 37 13 21 14 36 15 23 16 22 17 24 18 33 19 25 20 31 21 29 22
REMARK SMILES IDX 38 23 34 25 35 26 26 27 27 28 28 29 32 30 30 32 18 34 6 36
REMARK SMILES IDX 7 37 8 38 14 39 15 40 10 41 12 43
REMARK H PARENT 38 24 32 31 30 33 18 35 10 42 12 44
REMARK Flexibility Score: inf
ROOT
ATOM      1  C   UNL     1     -24.669  -3.728  25.671  1.00  0.00     0.045 C 
ATOM      2  C   UNL     1     -24.901  -2.551  24.755  1.00  0.00    -0.039 A 
ATOM      3  C   UNL     1     -23.990  -1.493  24.750  1.00  0.00     0.013 A 
ATOM      4  C   UNL     1     -24.160  -0.366  23.917  1.00  0.00    -0.006 A 
ATOM      5  C   UNL     1     -25.214  -0.379  22.956  1.00  0.00     0.039 A 
ATOM      6  C   UNL     1     -25.252   0.646  21.962  1.00  0.00     0.072 A 
ATOM      7  C   UNL     1     -24.260   1.648  21.952  1.00  0.00     0.169 A 
ATOM      8  C   UNL     1     -23.301   1.711  22.967  1.00  0.00     0.162 A 
ATOM      9  C   UNL     1     -23.288   0.760  24.010  1.00  0.00     0.008 A 
ATOM     10  C   UNL     1     -26.199  -1.409  23.031  1.00  0.00     0.132 A 
ATOM     11  C   UNL     1     -26.029  -2.495  23.919  1.00  0.00     0.031 A 
ENDROOT
BRANCH  11  12
ATOM     12  C   UNL     1     -27.044  -3.579  23.975  1.00  0.00     0.031 A 
ATOM     13  C   UNL     1     -26.847  -4.773  23.248  1.00  0.00     0.132 A 
ATOM     14  C   UNL     1     -28.202  -3.414  24.753  1.00  0.00    -0.039 A 
ATOM     15  C   UNL     1     -27.840  -5.796  23.258  1.00  0.00     0.039 A 
ATOM     16  C   UNL     1     -29.118  -4.463  24.852  1.00  0.00     0.013 A 
ATOM     17  C   UNL     1     -28.466  -2.127  25.495  1.00  0.00     0.045 C 
ATOM     18  C   UNL     1     -28.923  -5.688  24.177  1.00  0.00    -0.006 A 
ATOM     19  C   UNL     1     -27.776  -6.930  22.397  1.00  0.00     0.072 A 
ATOM     20  C   UNL     1     -29.804  -6.793  24.378  1.00  0.00     0.008 A 
ATOM     21  C   UNL     1     -28.738  -7.952  22.503  1.00  0.00     0.169 A 
ATOM     22  C   UNL     1     -29.763  -7.872  23.466  1.00  0.00     0.162 A 
BRANCH  13  23
ATOM     23  O   UNL     1     -25.648  -4.960  22.551  1.00  0.00    -0.507 OA
ATOM     24  H   UNL     1     -24.856  -5.473  22.917  1.00  0.00     0.293 HD
ENDBRANCH  13  23
BRANCH  19  25
ATOM     25  C   UNL     1     -26.797  -7.021  21.285  1.00  0.00     0.264 C 
ATOM     26  O   UNL     1     -25.742  -7.702  21.404  1.00  0.00    -0.298 OA
ENDBRANCH  19  25
BRANCH  20  27
ATOM     27  C   UNL     1     -30.801  -6.822  25.551  1.00  0.00     0.017 C 
ATOM     28  C   UNL     1     -30.078  -7.037  26.885  1.00  0.00     0.012 C 
ATOM     29  C   UNL     1     -31.725  -5.591  25.605  1.00  0.00     0.012 C 
ENDBRANCH  20  27
BRANCH  21  30
ATOM     30  O   UNL     1     -28.653  -9.037  21.622  1.00  0.00    -0.504 OA
ATOM     31  H   UNL     1     -29.443  -9.569  21.286  1.00  0.00     0.293 HD
ENDBRANCH  21  30
BRANCH  22  32
ATOM     32  O   UNL     1     -30.781  -8.829  23.510  1.00  0.00    -0.504 OA
ATOM     33  H   UNL     1     -30.635  -9.826  23.545  1.00  0.00     0.293 HD
ENDBRANCH  22  32
ENDBRANCH  11  12
BRANCH  10  34
ATOM     34  O   UNL     1     -27.357  -1.341  22.248  1.00  0.00    -0.507 OA
ATOM     35  H   UNL     1     -28.224  -0.922  22.557  1.00  0.00     0.293 HD
ENDBRANCH  10  34
BRANCH   9  36
ATOM     36  C   UNL     1     -22.344   0.953  25.210  1.00  0.00     0.017 C 
ATOM     37  C   UNL     1     -20.905   0.583  24.841  1.00  0.00     0.012 C 
ATOM     38  C   UNL     1     -22.423   2.360  25.831  1.00  0.00     0.012 C 
ENDBRANCH   9  36
BRANCH   6  39
ATOM     39  C   UNL     1     -26.253   0.641  20.875  1.00  0.00     0.264 C 
ATOM     40  O   UNL     1     -27.397   1.140  21.054  1.00  0.00    -0.298 OA
ENDBRANCH   6  39
BRANCH   8  41
ATOM     41  O   UNL     1     -22.330   2.715  22.931  1.00  0.00    -0.504 OA
ATOM     42  H   UNL     1     -21.582   2.735  22.249  1.00  0.00     0.293 HD
ENDBRANCH   8  41
BRANCH   7  43
ATOM     43  O   UNL     1     -24.188   2.593  20.921  1.00  0.00    -0.504 OA
ATOM     44  H   UNL     1     -23.347   3.097  20.677  1.00  0.00     0.293 HD
ENDBRANCH   7  43
TORSDOF 11
ENDMDL
