MODEL 1
REMARK VINA RESULT:    -3.939      0.000      0.000
REMARK INTER + INTRA:          -4.975
REMARK INTER:                  -4.860
REMARK INTRA:                  -0.114
REMARK UNBOUND:                -0.114
REMARK SMILES CCCCCC(=O)[O-]
REMARK SMILES IDX 4 1 5 2 6 3 7 4 8 5 3 6 2 7 1 8
REMARK H PARENT
REMARK Flexibility Score: inf
ROOT
ATOM      1  C   UNL     1      -9.256  36.212   6.690  1.00  0.00     0.006 C 
ENDROOT
BRANCH   1   2
ATOM      2  C   UNL     1      -8.509  37.170   5.758  1.00  0.00     0.053 C 
BRANCH   2   3
ATOM      3  C   UNL     1      -8.845  38.590   6.085  1.00  0.00     0.041 C 
ATOM      4  O   UNL     1      -9.958  39.072   5.747  1.00  0.00    -0.550 OA
ATOM      5  O   UNL     1      -7.908  39.398   6.719  1.00  0.00    -0.550 OA
ENDBRANCH   2   3
ENDBRANCH   1   2
BRANCH   1   6
ATOM      6  C   UNL     1      -8.995  34.750   6.299  1.00  0.00     0.000 C 
BRANCH   6   7
ATOM      7  C   UNL     1      -7.875  34.607   5.258  1.00  0.00    -0.003 C 
ATOM      8  C   UNL     1      -6.745  33.689   5.726  1.00  0.00     0.004 C 
ENDBRANCH   6   7
ENDBRANCH   1   6
TORSDOF 4
ENDMDL
MODEL 2
REMARK VINA RESULT:    -3.838      1.959      2.944
REMARK INTER + INTRA:          -4.850
REMARK INTER:                  -4.711
REMARK INTRA:                  -0.139
REMARK UNBOUND:                -0.114
REMARK SMILES CCCCCC(=O)[O-]
REMARK SMILES IDX 4 1 5 2 6 3 7 4 8 5 3 6 2 7 1 8
REMARK H PARENT
REMARK Flexibility Score: inf
ROOT
ATOM      1  C   UNL     1      -9.120  38.904   6.352  1.00  0.00     0.006 C 
ENDROOT
BRANCH   1   2
ATOM      2  C   UNL     1     -10.438  38.856   5.575  1.00  0.00     0.053 C 
BRANCH   2   3
ATOM      3  C   UNL     1     -11.576  39.292   6.443  1.00  0.00     0.041 C 
ATOM      4  O   UNL     1     -11.762  38.749   7.564  1.00  0.00    -0.550 OA
ATOM      5  O   UNL     1     -12.463  40.262   5.992  1.00  0.00    -0.550 OA
ENDBRANCH   2   3
ENDBRANCH   1   2
BRANCH   1   6
ATOM      6  C   UNL     1      -8.232  37.701   6.002  1.00  0.00     0.000 C 
BRANCH   6   7
ATOM      7  C   UNL     1      -9.047  36.445   5.658  1.00  0.00    -0.003 C 
ATOM      8  C   UNL     1      -8.187  35.183   5.585  1.00  0.00     0.004 C 
ENDBRANCH   6   7
ENDBRANCH   1   6
TORSDOF 4
ENDMDL
MODEL 3
REMARK VINA RESULT:    -3.816      2.730      4.745
REMARK INTER + INTRA:          -4.823
REMARK INTER:                  -4.700
REMARK INTRA:                  -0.123
REMARK UNBOUND:                -0.114
REMARK SMILES CCCCCC(=O)[O-]
REMARK SMILES IDX 4 1 5 2 6 3 7 4 8 5 3 6 2 7 1 8
REMARK H PARENT
REMARK Flexibility Score: inf
ROOT
ATOM      1  C   UNL     1     -10.409  38.879   5.790  1.00  0.00     0.006 C 
ENDROOT
BRANCH   1   2
ATOM      2  C   UNL     1     -10.057  37.447   5.379  1.00  0.00     0.053 C 
BRANCH   2   3
ATOM      3  C   UNL     1      -8.626  37.147   5.696  1.00  0.00     0.041 C 
ATOM      4  O   UNL     1      -8.226  35.954   5.752  1.00  0.00    -0.550 OA
ATOM      5  O   UNL     1      -7.744  38.183   5.981  1.00  0.00    -0.550 OA
ENDBRANCH   2   3
ENDBRANCH   1   2
BRANCH   1   6
ATOM      6  C   UNL     1     -10.985  38.917   7.214  1.00  0.00     0.000 C 
BRANCH   6   7
ATOM      7  C   UNL     1     -12.447  39.385   7.248  1.00  0.00    -0.003 C 
ATOM      8  C   UNL     1     -12.778  40.379   6.135  1.00  0.00     0.004 C 
ENDBRANCH   6   7
ENDBRANCH   1   6
TORSDOF 4
ENDMDL
MODEL 4
REMARK VINA RESULT:    -3.814      2.702      4.742
REMARK INTER + INTRA:          -4.820
REMARK INTER:                  -4.726
REMARK INTRA:                  -0.094
REMARK UNBOUND:                -0.114
REMARK SMILES CCCCCC(=O)[O-]
REMARK SMILES IDX 4 1 5 2 6 3 7 4 8 5 3 6 2 7 1 8
REMARK H PARENT
REMARK Flexibility Score: inf
ROOT
ATOM      1  C   UNL     1      -9.163  38.794   6.439  1.00  0.00     0.006 C 
ENDROOT
BRANCH   1   2
ATOM      2  C   UNL     1      -8.304  37.723   5.762  1.00  0.00     0.053 C 
BRANCH   2   3
ATOM      3  C   UNL     1      -8.715  36.357   6.214  1.00  0.00     0.041 C 
ATOM      4  O   UNL     1      -9.298  36.204   7.319  1.00  0.00    -0.550 OA
ATOM      5  O   UNL     1      -8.409  35.246   5.437  1.00  0.00    -0.550 OA
ENDBRANCH   2   3
ENDBRANCH   1   2
BRANCH   1   6
ATOM      6  C   UNL     1     -10.482  39.001   5.680  1.00  0.00     0.000 C 
BRANCH   6   7
ATOM      7  C   UNL     1     -11.670  39.262   6.619  1.00  0.00    -0.003 C 
ATOM      8  C   UNL     1     -12.602  40.359   6.105  1.00  0.00     0.004 C 
ENDBRANCH   6   7
ENDBRANCH   1   6
TORSDOF 4
ENDMDL
MODEL 5
REMARK VINA RESULT:    -3.771      3.012      4.507
REMARK INTER + INTRA:          -4.768
REMARK INTER:                  -4.659
REMARK INTRA:                  -0.109
REMARK UNBOUND:                -0.114
REMARK SMILES CCCCCC(=O)[O-]
REMARK SMILES IDX 4 1 5 2 6 3 7 4 8 5 3 6 2 7 1 8
REMARK H PARENT
REMARK Flexibility Score: inf
ROOT
ATOM      1  C   UNL     1      -8.622  36.558   5.329  1.00  0.00     0.006 C 
ENDROOT
BRANCH   1   2
ATOM      2  C   UNL     1      -8.687  35.310   6.214  1.00  0.00     0.053 C 
BRANCH   2   3
ATOM      3  C   UNL     1      -7.982  34.164   5.559  1.00  0.00     0.041 C 
ATOM      4  O   UNL     1      -8.629  33.330   4.873  1.00  0.00    -0.550 OA
ATOM      5  O   UNL     1      -6.617  33.988   5.749  1.00  0.00    -0.550 OA
ENDBRANCH   2   3
ENDBRANCH   1   2
BRANCH   1   6
ATOM      6  C   UNL     1      -8.137  37.775   6.130  1.00  0.00     0.000 C 
BRANCH   6   7
ATOM      7  C   UNL     1      -9.200  38.880   6.228  1.00  0.00    -0.003 C 
ATOM      8  C   UNL     1     -10.474  38.547   5.452  1.00  0.00     0.004 C 
ENDBRANCH   6   7
ENDBRANCH   1   6
TORSDOF 4
ENDMDL
MODEL 6
REMARK VINA RESULT:    -3.710      3.081      4.592
REMARK INTER + INTRA:          -4.692
REMARK INTER:                  -4.603
REMARK INTRA:                  -0.090
REMARK UNBOUND:                -0.114
REMARK SMILES CCCCCC(=O)[O-]
REMARK SMILES IDX 4 1 5 2 6 3 7 4 8 5 3 6 2 7 1 8
REMARK H PARENT
REMARK Flexibility Score: inf
ROOT
ATOM      1  C   UNL     1      -8.777  36.321   5.547  1.00  0.00     0.006 C 
ENDROOT
BRANCH   1   2
ATOM      2  C   UNL     1      -8.844  34.964   6.253  1.00  0.00     0.053 C 
BRANCH   2   3
ATOM      3  C   UNL     1      -7.964  33.970   5.564  1.00  0.00     0.041 C 
ATOM      4  O   UNL     1      -6.719  33.987   5.754  1.00  0.00    -0.550 OA
ATOM      5  O   UNL     1      -8.512  33.057   4.671  1.00  0.00    -0.550 OA
ENDBRANCH   2   3
ENDBRANCH   1   2
BRANCH   1   6
ATOM      6  C   UNL     1      -9.991  37.189   5.910  1.00  0.00     0.000 C 
BRANCH   6   7
ATOM      7  C   UNL     1      -9.660  38.689   5.934  1.00  0.00    -0.003 C 
ATOM      8  C   UNL     1      -8.277  38.981   6.515  1.00  0.00     0.004 C 
ENDBRANCH   6   7
ENDBRANCH   1   6
TORSDOF 4
ENDMDL
MODEL 7
REMARK VINA RESULT:    -3.509      2.543      3.879
REMARK INTER + INTRA:          -4.444
REMARK INTER:                  -4.208
REMARK INTRA:                  -0.235
REMARK UNBOUND:                -0.114
REMARK SMILES CCCCCC(=O)[O-]
REMARK SMILES IDX 4 1 5 2 6 3 7 4 8 5 3 6 2 7 1 8
REMARK H PARENT
REMARK Flexibility Score: inf
ROOT
ATOM      1  C   UNL     1      -8.884  36.266   6.084  1.00  0.00     0.006 C 
ENDROOT
BRANCH   1   2
ATOM      2  C   UNL     1      -9.568  35.092   6.789  1.00  0.00     0.053 C 
BRANCH   2   3
ATOM      3  C   UNL     1     -10.508  35.588   7.842  1.00  0.00     0.041 C 
ATOM      4  O   UNL     1     -11.715  35.226   7.835  1.00  0.00    -0.550 OA
ATOM      5  O   UNL     1     -10.065  36.490   8.801  1.00  0.00    -0.550 OA
ENDBRANCH   2   3
ENDBRANCH   1   2
BRANCH   1   6
ATOM      6  C   UNL     1      -9.919  37.200   5.439  1.00  0.00     0.000 C 
BRANCH   6   7
ATOM      7  C   UNL     1      -9.752  38.662   5.878  1.00  0.00    -0.003 C 
ATOM      8  C   UNL     1      -8.375  38.947   6.478  1.00  0.00     0.004 C 
ENDBRANCH   6   7
ENDBRANCH   1   6
TORSDOF 4
ENDMDL
MODEL 8
REMARK VINA RESULT:    -3.470     13.095     14.446
REMARK INTER + INTRA:          -4.396
REMARK INTER:                  -4.286
REMARK INTRA:                  -0.110
REMARK UNBOUND:                -0.114
REMARK SMILES CCCCCC(=O)[O-]
REMARK SMILES IDX 4 1 5 2 6 3 7 4 8 5 3 6 2 7 1 8
REMARK H PARENT
REMARK Flexibility Score: inf
ROOT
ATOM      1  C   UNL     1       0.498  28.772  -1.162  1.00  0.00     0.006 C 
ENDROOT
BRANCH   1   2
ATOM      2  C   UNL     1       1.531  29.785  -0.662  1.00  0.00     0.053 C 
BRANCH   2   3
ATOM      3  C   UNL     1       1.377  30.010   0.809  1.00  0.00     0.041 C 
ATOM      4  O   UNL     1       0.716  29.198   1.509  1.00  0.00    -0.550 OA
ATOM      5  O   UNL     1       1.920  31.144   1.400  1.00  0.00    -0.550 OA
ENDBRANCH   2   3
ENDBRANCH   1   2
BRANCH   1   6
ATOM      6  C   UNL     1       1.051  27.961  -2.344  1.00  0.00     0.000 C 
BRANCH   6   7
ATOM      7  C   UNL     1       2.043  28.764  -3.198  1.00  0.00    -0.003 C 
ATOM      8  C   UNL     1       1.772  28.636  -4.697  1.00  0.00     0.004 C 
ENDBRANCH   6   7
ENDBRANCH   1   6
TORSDOF 4
ENDMDL
MODEL 9
REMARK VINA RESULT:    -3.452     11.862     12.301
REMARK INTER + INTRA:          -4.373
REMARK INTER:                  -4.244
REMARK INTRA:                  -0.130
REMARK UNBOUND:                -0.114
REMARK SMILES CCCCCC(=O)[O-]
REMARK SMILES IDX 4 1 5 2 6 3 7 4 8 5 3 6 2 7 1 8
REMARK H PARENT
REMARK Flexibility Score: inf
ROOT
ATOM      1  C   UNL     1      -0.395  43.016   1.198  1.00  0.00     0.006 C 
ENDROOT
BRANCH   1   2
ATOM      2  C   UNL     1      -0.494  41.955   0.099  1.00  0.00     0.053 C 
BRANCH   2   3
ATOM      3  C   UNL     1      -0.073  42.524  -1.220  1.00  0.00     0.041 C 
ATOM      4  O   UNL     1      -0.592  43.589  -1.646  1.00  0.00    -0.550 OA
ATOM      5  O   UNL     1       0.856  41.849  -2.003  1.00  0.00    -0.550 OA
ENDBRANCH   2   3
ENDBRANCH   1   2
BRANCH   1   6
ATOM      6  C   UNL     1       0.555  42.563   2.315  1.00  0.00     0.000 C 
BRANCH   6   7
ATOM      7  C   UNL     1       1.318  41.278   1.958  1.00  0.00    -0.003 C 
ATOM      8  C   UNL     1       2.794  41.336   2.354  1.00  0.00     0.004 C 
ENDBRANCH   6   7
ENDBRANCH   1   6
TORSDOF 4
ENDMDL
