MODEL 1
REMARK VINA RESULT:    -3.502      0.000      0.000
REMARK INTER + INTRA:          -4.074
REMARK INTER:                  -4.014
REMARK INTRA:                  -0.060
REMARK UNBOUND:                -0.060
REMARK SMILES CC(C)[C@@H]([NH3+])C(=O)[O-]
REMARK SMILES IDX 4 1 5 2 6 6 7 7 8 8 2 9 1 10 3 11
REMARK H PARENT 5 3 5 4 5 5
REMARK Flexibility Score: inf
ROOT
ATOM      1  C   UNL     1     101.943  69.348  74.060  1.00  0.00     0.230 C 
ENDROOT
BRANCH   1   2
ATOM      2  N   UNL     1     102.001  68.292  75.084  1.00  0.00    -0.350 N 
ATOM      3  H   UNL     1     102.927  67.809  75.059  1.00  0.00     0.345 HD
ATOM      4  H   UNL     1     101.266  67.575  74.886  1.00  0.00     0.345 HD
ATOM      5  H   UNL     1     101.837  68.678  76.042  1.00  0.00     0.345 HD
ENDBRANCH   1   2
BRANCH   1   6
ATOM      6  C   UNL     1     101.220  68.864  72.827  1.00  0.00     0.099 C 
ATOM      7  O   UNL     1     100.123  69.374  72.478  1.00  0.00    -0.544 OA
ATOM      8  O   UNL     1     101.794  67.875  72.037  1.00  0.00    -0.544 OA
ENDBRANCH   1   6
BRANCH   1   9
ATOM      9  C   UNL     1     101.317  70.675  74.585  1.00  0.00     0.047 C 
ATOM     10  C   UNL     1     100.500  70.504  75.877  1.00  0.00     0.014 C 
ATOM     11  C   UNL     1     102.377  71.772  74.772  1.00  0.00     0.014 C 
ENDBRANCH   1   9
TORSDOF 3
ENDMDL
MODEL 2
REMARK VINA RESULT:    -3.382      4.835      5.846
REMARK INTER + INTRA:          -3.936
REMARK INTER:                  -3.877
REMARK INTRA:                  -0.059
REMARK UNBOUND:                -0.060
REMARK SMILES CC(C)[C@@H]([NH3+])C(=O)[O-]
REMARK SMILES IDX 4 1 5 2 6 6 7 7 8 8 2 9 1 10 3 11
REMARK H PARENT 5 3 5 4 5 5
REMARK Flexibility Score: inf
ROOT
ATOM      1  C   UNL     1      99.257  69.680  69.284  1.00  0.00     0.230 C 
ENDROOT
BRANCH   1   2
ATOM      2  N   UNL     1      99.836  70.034  67.978  1.00  0.00    -0.350 N 
ATOM      3  H   UNL     1      99.321  69.551  67.208  1.00  0.00     0.345 HD
ATOM      4  H   UNL     1     100.831  69.713  67.941  1.00  0.00     0.345 HD
ATOM      5  H   UNL     1      99.815  71.067  67.817  1.00  0.00     0.345 HD
ENDBRANCH   1   2
BRANCH   1   6
ATOM      6  C   UNL     1      97.759  69.524  69.186  1.00  0.00     0.099 C 
ATOM      7  O   UNL     1      97.007  70.532  69.120  1.00  0.00    -0.544 OA
ATOM      8  O   UNL     1      97.203  68.253  69.118  1.00  0.00    -0.544 OA
ENDBRANCH   1   6
BRANCH   1   9
ATOM      9  C   UNL     1      99.906  68.412  69.917  1.00  0.00     0.047 C 
ATOM     10  C   UNL     1     101.111  67.875  69.127  1.00  0.00     0.014 C 
ATOM     11  C   UNL     1     100.298  68.642  71.385  1.00  0.00     0.014 C 
ENDBRANCH   1   9
TORSDOF 3
ENDMDL
MODEL 3
REMARK VINA RESULT:    -3.263     14.107     14.668
REMARK INTER + INTRA:          -3.800
REMARK INTER:                  -3.767
REMARK INTRA:                  -0.033
REMARK UNBOUND:                -0.060
REMARK SMILES CC(C)[C@@H]([NH3+])C(=O)[O-]
REMARK SMILES IDX 4 1 5 2 6 6 7 7 8 8 2 9 1 10 3 11
REMARK H PARENT 5 3 5 4 5 5
REMARK Flexibility Score: inf
ROOT
ATOM      1  C   UNL     1      92.188  80.352  69.941  1.00  0.00     0.230 C 
ENDROOT
BRANCH   1   2
ATOM      2  N   UNL     1      92.621  81.102  71.130  1.00  0.00    -0.350 N 
ATOM      3  H   UNL     1      93.503  81.626  70.931  1.00  0.00     0.345 HD
ATOM      4  H   UNL     1      92.821  80.434  71.909  1.00  0.00     0.345 HD
ATOM      5  H   UNL     1      91.884  81.772  71.450  1.00  0.00     0.345 HD
ENDBRANCH   1   2
BRANCH   1   6
ATOM      6  C   UNL     1      92.819  80.912  68.690  1.00  0.00     0.099 C 
ATOM      7  O   UNL     1      94.013  80.644  68.391  1.00  0.00    -0.544 OA
ATOM      8  O   UNL     1      92.060  81.696  67.829  1.00  0.00    -0.544 OA
ENDBRANCH   1   6
BRANCH   1   9
ATOM      9  C   UNL     1      92.451  78.820  70.055  1.00  0.00     0.047 C 
ATOM     10  C   UNL     1      91.945  78.204  71.370  1.00  0.00     0.014 C 
ATOM     11  C   UNL     1      91.875  78.049  68.856  1.00  0.00     0.014 C 
ENDBRANCH   1   9
TORSDOF 3
ENDMDL
MODEL 4
REMARK VINA RESULT:    -3.169     14.908     15.400
REMARK INTER + INTRA:          -3.692
REMARK INTER:                  -3.646
REMARK INTRA:                  -0.047
REMARK UNBOUND:                -0.060
REMARK SMILES CC(C)[C@@H]([NH3+])C(=O)[O-]
REMARK SMILES IDX 4 1 5 2 6 6 7 7 8 8 2 9 1 10 3 11
REMARK H PARENT 5 3 5 4 5 5
REMARK Flexibility Score: inf
ROOT
ATOM      1  C   UNL     1      93.071  81.265  68.730  1.00  0.00     0.230 C 
ENDROOT
BRANCH   1   2
ATOM      2  N   UNL     1      94.413  80.769  68.384  1.00  0.00    -0.350 N 
ATOM      3  H   UNL     1      95.010  81.549  68.028  1.00  0.00     0.345 HD
ATOM      4  H   UNL     1      94.335  80.058  67.621  1.00  0.00     0.345 HD
ATOM      5  H   UNL     1      94.880  80.321  69.206  1.00  0.00     0.345 HD
ENDBRANCH   1   2
BRANCH   1   6
ATOM      6  C   UNL     1      92.234  81.465  67.490  1.00  0.00     0.099 C 
ATOM      7  O   UNL     1      91.875  82.617  67.130  1.00  0.00    -0.544 OA
ATOM      8  O   UNL     1      91.894  80.369  66.706  1.00  0.00    -0.544 OA
ENDBRANCH   1   6
BRANCH   1   9
ATOM      9  C   UNL     1      92.331  80.358  69.759  1.00  0.00     0.047 C 
ATOM     10  C   UNL     1      93.057  79.035  70.051  1.00  0.00     0.014 C 
ATOM     11  C   UNL     1      92.041  81.103  71.072  1.00  0.00     0.014 C 
ENDBRANCH   1   9
TORSDOF 3
ENDMDL
MODEL 5
REMARK VINA RESULT:    -3.053      2.692      3.568
REMARK INTER + INTRA:          -3.559
REMARK INTER:                  -3.532
REMARK INTRA:                  -0.027
REMARK UNBOUND:                -0.060
REMARK SMILES CC(C)[C@@H]([NH3+])C(=O)[O-]
REMARK SMILES IDX 4 1 5 2 6 6 7 7 8 8 2 9 1 10 3 11
REMARK H PARENT 5 3 5 4 5 5
REMARK Flexibility Score: inf
ROOT
ATOM      1  C   UNL     1     101.260  70.911  74.369  1.00  0.00     0.230 C 
ENDROOT
BRANCH   1   2
ATOM      2  N   UNL     1     100.521  70.895  75.642  1.00  0.00    -0.350 N 
ATOM      3  H   UNL     1     100.236  71.863  75.910  1.00  0.00     0.345 HD
ATOM      4  H   UNL     1     101.141  70.528  76.399  1.00  0.00     0.345 HD
ATOM      5  H   UNL     1      99.673  70.286  75.585  1.00  0.00     0.345 HD
ENDBRANCH   1   2
BRANCH   1   6
ATOM      6  C   UNL     1     102.463  71.817  74.455  1.00  0.00     0.099 C 
ATOM      7  O   UNL     1     103.568  71.388  74.881  1.00  0.00    -0.544 OA
ATOM      8  O   UNL     1     102.367  73.131  74.013  1.00  0.00    -0.544 OA
ENDBRANCH   1   6
BRANCH   1   9
ATOM      9  C   UNL     1     101.671  69.488  73.883  1.00  0.00     0.047 C 
ATOM     10  C   UNL     1     101.757  68.450  75.014  1.00  0.00     0.014 C 
ATOM     11  C   UNL     1     100.747  68.976  72.767  1.00  0.00     0.014 C 
ENDBRANCH   1   9
TORSDOF 3
ENDMDL
MODEL 6
REMARK VINA RESULT:    -2.984      4.764      5.708
REMARK INTER + INTRA:          -3.480
REMARK INTER:                  -3.417
REMARK INTRA:                  -0.063
REMARK UNBOUND:                -0.060
REMARK SMILES CC(C)[C@@H]([NH3+])C(=O)[O-]
REMARK SMILES IDX 4 1 5 2 6 6 7 7 8 8 2 9 1 10 3 11
REMARK H PARENT 5 3 5 4 5 5
REMARK Flexibility Score: inf
ROOT
ATOM      1  C   UNL     1      99.385  69.136  69.071  1.00  0.00     0.230 C 
ENDROOT
BRANCH   1   2
ATOM      2  N   UNL     1     100.200  69.498  67.900  1.00  0.00    -0.350 N 
ATOM      3  H   UNL     1     101.153  69.075  67.975  1.00  0.00     0.345 HD
ATOM      4  H   UNL     1     100.318  70.536  67.867  1.00  0.00     0.345 HD
ATOM      5  H   UNL     1      99.751  69.187  67.008  1.00  0.00     0.345 HD
ENDBRANCH   1   2
BRANCH   1   6
ATOM      6  C   UNL     1     100.257  68.693  70.220  1.00  0.00     0.099 C 
ATOM      7  O   UNL     1     101.197  67.875  70.041  1.00  0.00    -0.544 OA
ATOM      8  O   UNL     1     100.053  69.232  71.485  1.00  0.00    -0.544 OA
ENDBRANCH   1   6
BRANCH   1   9
ATOM      9  C   UNL     1      98.415  70.272  69.515  1.00  0.00     0.047 C 
ATOM     10  C   UNL     1      98.783  71.654  68.949  1.00  0.00     0.014 C 
ATOM     11  C   UNL     1      96.952  69.939  69.183  1.00  0.00     0.014 C 
ENDBRANCH   1   9
TORSDOF 3
ENDMDL
MODEL 7
REMARK VINA RESULT:    -2.958      2.474      3.332
REMARK INTER + INTRA:          -3.450
REMARK INTER:                  -3.486
REMARK INTRA:                   0.036
REMARK UNBOUND:                -0.060
REMARK SMILES CC(C)[C@@H]([NH3+])C(=O)[O-]
REMARK SMILES IDX 4 1 5 2 6 6 7 7 8 8 2 9 1 10 3 11
REMARK H PARENT 5 3 5 4 5 5
REMARK Flexibility Score: inf
ROOT
ATOM      1  C   UNL     1     102.211  69.620  74.750  1.00  0.00     0.230 C 
ENDROOT
BRANCH   1   2
ATOM      2  N   UNL     1     103.496  70.127  74.240  1.00  0.00    -0.350 N 
ATOM      3  H   UNL     1     103.336  70.818  73.473  1.00  0.00     0.345 HD
ATOM      4  H   UNL     1     104.047  69.334  73.840  1.00  0.00     0.345 HD
ATOM      5  H   UNL     1     104.060  70.573  74.999  1.00  0.00     0.345 HD
ENDBRANCH   1   2
BRANCH   1   6
ATOM      6  C   UNL     1     101.326  70.755  75.206  1.00  0.00     0.099 C 
ATOM      7  O   UNL     1     100.294  70.534  75.894  1.00  0.00    -0.544 OA
ATOM      8  O   UNL     1     101.679  72.065  74.906  1.00  0.00    -0.544 OA
ENDBRANCH   1   6
BRANCH   1   9
ATOM      9  C   UNL     1     101.464  68.710  73.729  1.00  0.00     0.047 C 
ATOM     10  C   UNL     1     100.492  69.475  72.816  1.00  0.00     0.014 C 
ATOM     11  C   UNL     1     102.441  67.880  72.882  1.00  0.00     0.014 C 
ENDBRANCH   1   9
TORSDOF 3
ENDMDL
MODEL 8
REMARK VINA RESULT:    -2.839      2.844      3.528
REMARK INTER + INTRA:          -3.314
REMARK INTER:                  -3.249
REMARK INTRA:                  -0.065
REMARK UNBOUND:                -0.060
REMARK SMILES CC(C)[C@@H]([NH3+])C(=O)[O-]
REMARK SMILES IDX 4 1 5 2 6 6 7 7 8 8 2 9 1 10 3 11
REMARK H PARENT 5 3 5 4 5 5
REMARK Flexibility Score: inf
ROOT
ATOM      1  C   UNL     1     102.759  70.855  74.781  1.00  0.00     0.230 C 
ENDROOT
BRANCH   1   2
ATOM      2  N   UNL     1     103.612  69.905  74.047  1.00  0.00    -0.350 N 
ATOM      3  H   UNL     1     103.098  69.513  73.226  1.00  0.00     0.345 HD
ATOM      4  H   UNL     1     103.860  69.106  74.674  1.00  0.00     0.345 HD
ATOM      5  H   UNL     1     104.496  70.357  73.721  1.00  0.00     0.345 HD
ENDBRANCH   1   2
BRANCH   1   6
ATOM      6  C   UNL     1     103.134  72.280  74.455  1.00  0.00     0.099 C 
ATOM      7  O   UNL     1     102.316  73.052  73.890  1.00  0.00    -0.544 OA
ATOM      8  O   UNL     1     104.383  72.764  74.826  1.00  0.00    -0.544 OA
ENDBRANCH   1   6
BRANCH   1   9
ATOM      9  C   UNL     1     101.236  70.616  74.547  1.00  0.00     0.047 C 
ATOM     10  C   UNL     1     100.934  69.446  73.595  1.00  0.00     0.014 C 
ATOM     11  C   UNL     1     100.477  70.428  75.870  1.00  0.00     0.014 C 
ENDBRANCH   1   9
TORSDOF 3
ENDMDL
