MODEL 1
REMARK VINA RESULT:    -5.382      0.000      0.000
REMARK INTER + INTRA:          -9.041
REMARK INTER:                  -7.899
REMARK INTRA:                  -1.142
REMARK UNBOUND:                -1.142
REMARK SMILES CC(C)COC(=O)c1ccccc1C(=O)OCC(C)C
REMARK SMILES IDX 8 1 9 2 10 3 11 4 12 5 13 6 6 7 7 8 5 9 4 10 2 11 1 12 3 13
REMARK SMILES IDX 14 14 15 15 16 16 17 17 18 18 19 19 20 20
REMARK H PARENT
REMARK Flexibility Score: inf
ROOT
ATOM      1  C   UNL     1      94.163  86.074  80.453  1.00  0.00     0.074 A 
ATOM      2  C   UNL     1      93.063  85.379  79.920  1.00  0.00     0.016 A 
ATOM      3  C   UNL     1      91.812  85.441  80.537  1.00  0.00     0.001 A 
ATOM      4  C   UNL     1      91.642  86.198  81.695  1.00  0.00     0.001 A 
ATOM      5  C   UNL     1      92.714  86.914  82.227  1.00  0.00     0.016 A 
ATOM      6  C   UNL     1      93.978  86.885  81.608  1.00  0.00     0.074 A 
ENDROOT
BRANCH   1   7
ATOM      7  C   UNL     1      95.482  85.877  79.814  1.00  0.00     0.339 C 
ATOM      8  O   UNL     1      96.306  85.052  80.298  1.00  0.00    -0.246 OA
BRANCH   7   9
ATOM      9  O   UNL     1      95.786  86.569  78.635  1.00  0.00    -0.462 OA
BRANCH   9  10
ATOM     10  C   UNL     1      97.117  86.883  78.229  1.00  0.00     0.236 C 
BRANCH  10  11
ATOM     11  C   UNL     1      97.420  88.380  78.422  1.00  0.00     0.021 C 
ATOM     12  C   UNL     1      98.729  88.754  77.717  1.00  0.00     0.011 C 
ATOM     13  C   UNL     1      96.268  89.248  77.903  1.00  0.00     0.011 C 
ENDBRANCH  10  11
ENDBRANCH   9  10
ENDBRANCH   7   9
ENDBRANCH   1   7
BRANCH   6  14
ATOM     14  C   UNL     1      95.039  87.758  82.159  1.00  0.00     0.339 C 
ATOM     15  O   UNL     1      95.421  88.778  81.522  1.00  0.00    -0.246 OA
BRANCH  14  16
ATOM     16  O   UNL     1      95.578  87.475  83.418  1.00  0.00    -0.462 OA
BRANCH  16  17
ATOM     17  C   UNL     1      95.874  88.488  84.375  1.00  0.00     0.236 C 
BRANCH  17  18
ATOM     18  C   UNL     1      94.776  88.534  85.447  1.00  0.00     0.021 C 
ATOM     19  C   UNL     1      93.656  89.503  85.047  1.00  0.00     0.011 C 
ATOM     20  C   UNL     1      94.205  87.132  85.690  1.00  0.00     0.011 C 
ENDBRANCH  17  18
ENDBRANCH  16  17
ENDBRANCH  14  16
ENDBRANCH   6  14
TORSDOF 8
ENDMDL
MODEL 2
REMARK VINA RESULT:    -5.366      1.300      5.421
REMARK INTER + INTRA:          -9.018
REMARK INTER:                  -7.844
REMARK INTRA:                  -1.174
REMARK UNBOUND:                -1.142
REMARK SMILES CC(C)COC(=O)c1ccccc1C(=O)OCC(C)C
REMARK SMILES IDX 8 1 9 2 10 3 11 4 12 5 13 6 6 7 7 8 5 9 4 10 2 11 1 12 3 13
REMARK SMILES IDX 14 14 15 15 16 16 17 17 18 18 19 19 20 20
REMARK H PARENT
REMARK Flexibility Score: inf
ROOT
ATOM      1  C   UNL     1      96.219  88.634  79.401  1.00  0.00     0.074 A 
ATOM      2  C   UNL     1      96.869  89.648  78.674  1.00  0.00     0.016 A 
ATOM      3  C   UNL     1      97.726  89.333  77.619  1.00  0.00     0.001 A 
ATOM      4  C   UNL     1      97.947  88.001  77.273  1.00  0.00     0.001 A 
ATOM      5  C   UNL     1      97.294  86.980  77.966  1.00  0.00     0.016 A 
ATOM      6  C   UNL     1      96.407  87.277  79.018  1.00  0.00     0.074 A 
ENDROOT
BRANCH   1   7
ATOM      7  C   UNL     1      95.413  89.032  80.575  1.00  0.00     0.339 C 
ATOM      8  O   UNL     1      94.241  89.476  80.420  1.00  0.00    -0.246 OA
BRANCH   7   9
ATOM      9  O   UNL     1      95.937  88.859  81.861  1.00  0.00    -0.462 OA
BRANCH   9  10
ATOM     10  C   UNL     1      96.286  89.943  82.721  1.00  0.00     0.236 C 
BRANCH  10  11
ATOM     11  C   UNL     1      96.150  89.545  84.203  1.00  0.00     0.021 C 
ATOM     12  C   UNL     1      94.762  89.926  84.731  1.00  0.00     0.011 C 
ATOM     13  C   UNL     1      96.399  88.044  84.396  1.00  0.00     0.011 C 
ENDBRANCH  10  11
ENDBRANCH   9  10
ENDBRANCH   7   9
ENDBRANCH   1   7
BRANCH   6  14
ATOM     14  C   UNL     1      95.661  86.155  79.632  1.00  0.00     0.339 C 
ATOM     15  O   UNL     1      96.250  85.336  80.391  1.00  0.00    -0.246 OA
BRANCH  14  16
ATOM     16  O   UNL     1      94.285  86.040  79.409  1.00  0.00    -0.462 OA
BRANCH  16  17
ATOM     17  C   UNL     1      93.409  85.383  80.319  1.00  0.00     0.236 C 
BRANCH  17  18
ATOM     18  C   UNL     1      92.753  86.412  81.252  1.00  0.00     0.021 C 
ATOM     19  C   UNL     1      91.273  86.081  81.483  1.00  0.00     0.011 C 
ATOM     20  C   UNL     1      93.499  86.476  82.590  1.00  0.00     0.011 C 
ENDBRANCH  17  18
ENDBRANCH  16  17
ENDBRANCH  14  16
ENDBRANCH   6  14
TORSDOF 8
ENDMDL
MODEL 3
REMARK VINA RESULT:    -5.349      9.575     12.343
REMARK INTER + INTRA:          -8.993
REMARK INTER:                  -8.051
REMARK INTRA:                  -0.942
REMARK UNBOUND:                -1.142
REMARK SMILES CC(C)COC(=O)c1ccccc1C(=O)OCC(C)C
REMARK SMILES IDX 8 1 9 2 10 3 11 4 12 5 13 6 6 7 7 8 5 9 4 10 2 11 1 12 3 13
REMARK SMILES IDX 14 14 15 15 16 16 17 17 18 18 19 19 20 20
REMARK H PARENT
REMARK Flexibility Score: inf
ROOT
ATOM      1  C   UNL     1      88.601  95.444  81.752  1.00  0.00     0.074 A 
ATOM      2  C   UNL     1      89.907  95.563  82.259  1.00  0.00     0.016 A 
ATOM      3  C   UNL     1      90.874  96.299  81.574  1.00  0.00     0.001 A 
ATOM      4  C   UNL     1      90.552  96.928  80.372  1.00  0.00     0.001 A 
ATOM      5  C   UNL     1      89.255  96.843  79.864  1.00  0.00     0.016 A 
ATOM      6  C   UNL     1      88.258  96.125  80.550  1.00  0.00     0.074 A 
ENDROOT
BRANCH   1   7
ATOM      7  C   UNL     1      87.657  94.559  82.470  1.00  0.00     0.339 C 
ATOM      8  O   UNL     1      87.449  93.384  82.058  1.00  0.00    -0.246 OA
BRANCH   7   9
ATOM      9  O   UNL     1      87.042  95.016  83.641  1.00  0.00    -0.462 OA
BRANCH   9  10
ATOM     10  C   UNL     1      87.101  94.316  84.884  1.00  0.00     0.236 C 
BRANCH  10  11
ATOM     11  C   UNL     1      88.555  93.989  85.271  1.00  0.00     0.021 C 
ATOM     12  C   UNL     1      88.979  94.814  86.492  1.00  0.00     0.011 C 
ATOM     13  C   UNL     1      88.728  92.491  85.554  1.00  0.00     0.011 C 
ENDBRANCH  10  11
ENDBRANCH   9  10
ENDBRANCH   7   9
ENDBRANCH   1   7
BRANCH   6  14
ATOM     14  C   UNL     1      86.878  96.171  80.015  1.00  0.00     0.339 C 
ATOM     15  O   UNL     1      86.185  97.220  80.125  1.00  0.00    -0.246 OA
BRANCH  14  16
ATOM     16  O   UNL     1      86.366  95.061  79.336  1.00  0.00    -0.462 OA
BRANCH  16  17
ATOM     17  C   UNL     1      85.649  95.170  78.110  1.00  0.00     0.236 C 
BRANCH  17  18
ATOM     18  C   UNL     1      84.556  94.094  78.043  1.00  0.00     0.021 C 
ATOM     19  C   UNL     1      84.478  93.474  76.641  1.00  0.00     0.011 C 
ATOM     20  C   UNL     1      84.811  93.005  79.092  1.00  0.00     0.011 C 
ENDBRANCH  17  18
ENDBRANCH  16  17
ENDBRANCH  14  16
ENDBRANCH   6  14
TORSDOF 8
ENDMDL
MODEL 4
REMARK VINA RESULT:    -5.340      4.807      7.502
REMARK INTER + INTRA:          -8.979
REMARK INTER:                  -7.666
REMARK INTRA:                  -1.313
REMARK UNBOUND:                -1.142
REMARK SMILES CC(C)COC(=O)c1ccccc1C(=O)OCC(C)C
REMARK SMILES IDX 8 1 9 2 10 3 11 4 12 5 13 6 6 7 7 8 5 9 4 10 2 11 1 12 3 13
REMARK SMILES IDX 14 14 15 15 16 16 17 17 18 18 19 19 20 20
REMARK H PARENT
REMARK Flexibility Score: inf
ROOT
ATOM      1  C   UNL     1      94.479  90.246  84.852  1.00  0.00     0.074 A 
ATOM      2  C   UNL     1      94.093  88.995  85.364  1.00  0.00     0.016 A 
ATOM      3  C   UNL     1      94.896  87.870  85.180  1.00  0.00     0.001 A 
ATOM      4  C   UNL     1      96.098  87.976  84.481  1.00  0.00     0.001 A 
ATOM      5  C   UNL     1      96.512  89.213  83.985  1.00  0.00     0.016 A 
ATOM      6  C   UNL     1      95.728  90.366  84.180  1.00  0.00     0.074 A 
ENDROOT
BRANCH   1   7
ATOM      7  C   UNL     1      93.530  91.373  84.987  1.00  0.00     0.339 C 
ATOM      8  O   UNL     1      92.453  91.379  84.329  1.00  0.00    -0.246 OA
BRANCH   7   9
ATOM      9  O   UNL     1      93.809  92.402  85.894  1.00  0.00    -0.462 OA
BRANCH   9  10
ATOM     10  C   UNL     1      93.129  93.657  85.892  1.00  0.00     0.236 C 
BRANCH  10  11
ATOM     11  C   UNL     1      93.665  94.579  84.780  1.00  0.00     0.021 C 
ATOM     12  C   UNL     1      92.599  95.607  84.382  1.00  0.00     0.011 C 
ATOM     13  C   UNL     1      94.951  95.287  85.221  1.00  0.00     0.011 C 
ENDBRANCH  10  11
ENDBRANCH   9  10
ENDBRANCH   7   9
ENDBRANCH   1   7
BRANCH   6  14
ATOM     14  C   UNL     1      96.281  91.663  83.730  1.00  0.00     0.339 C 
ATOM     15  O   UNL     1      96.849  92.436  84.551  1.00  0.00    -0.246 OA
BRANCH  14  16
ATOM     16  O   UNL     1      96.219  92.004  82.374  1.00  0.00    -0.462 OA
BRANCH  16  17
ATOM     17  C   UNL     1      95.169  92.795  81.826  1.00  0.00     0.236 C 
BRANCH  17  18
ATOM     18  C   UNL     1      95.627  94.255  81.692  1.00  0.00     0.021 C 
ATOM     19  C   UNL     1      96.953  94.348  80.928  1.00  0.00     0.011 C 
ATOM     20  C   UNL     1      94.549  95.092  80.992  1.00  0.00     0.011 C 
ENDBRANCH  17  18
ENDBRANCH  16  17
ENDBRANCH  14  16
ENDBRANCH   6  14
TORSDOF 8
ENDMDL
MODEL 5
REMARK VINA RESULT:    -5.321      7.448     10.315
REMARK INTER + INTRA:          -8.951
REMARK INTER:                  -7.678
REMARK INTRA:                  -1.273
REMARK UNBOUND:                -1.142
REMARK SMILES CC(C)COC(=O)c1ccccc1C(=O)OCC(C)C
REMARK SMILES IDX 8 1 9 2 10 3 11 4 12 5 13 6 6 7 7 8 5 9 4 10 2 11 1 12 3 13
REMARK SMILES IDX 14 14 15 15 16 16 17 17 18 18 19 19 20 20
REMARK H PARENT
REMARK Flexibility Score: inf
ROOT
ATOM      1  C   UNL     1      92.540  97.069  79.797  1.00  0.00     0.074 A 
ATOM      2  C   UNL     1      92.516  98.422  79.417  1.00  0.00     0.016 A 
ATOM      3  C   UNL     1      93.239  98.866  78.310  1.00  0.00     0.001 A 
ATOM      4  C   UNL     1      93.997  97.965  77.565  1.00  0.00     0.001 A 
ATOM      5  C   UNL     1      94.017  96.613  77.910  1.00  0.00     0.016 A 
ATOM      6  C   UNL     1      93.276  96.140  79.009  1.00  0.00     0.074 A 
ENDROOT
BRANCH   1   7
ATOM      7  C   UNL     1      91.841  96.687  81.043  1.00  0.00     0.339 C 
ATOM      8  O   UNL     1      90.610  96.406  81.021  1.00  0.00    -0.246 OA
BRANCH   7   9
ATOM      9  O   UNL     1      92.567  96.582  82.235  1.00  0.00    -0.462 OA
BRANCH   9  10
ATOM     10  C   UNL     1      92.692  95.368  82.976  1.00  0.00     0.236 C 
BRANCH  10  11
ATOM     11  C   UNL     1      93.012  95.649  84.456  1.00  0.00     0.021 C 
ATOM     12  C   UNL     1      92.748  94.400  85.305  1.00  0.00     0.011 C 
ATOM     13  C   UNL     1      94.463  96.114  84.629  1.00  0.00     0.011 C 
ENDBRANCH  10  11
ENDBRANCH   9  10
ENDBRANCH   7   9
ENDBRANCH   1   7
BRANCH   6  14
ATOM     14  C   UNL     1      93.249  94.679  79.250  1.00  0.00     0.339 C 
ATOM     15  O   UNL     1      92.361  93.960  78.714  1.00  0.00    -0.246 OA
BRANCH  14  16
ATOM     16  O   UNL     1      94.250  94.092  80.032  1.00  0.00    -0.462 OA
BRANCH  16  17
ATOM     17  C   UNL     1      95.553  93.810  79.531  1.00  0.00     0.236 C 
BRANCH  17  18
ATOM     18  C   UNL     1      96.616  94.376  80.484  1.00  0.00     0.021 C 
ATOM     19  C   UNL     1      96.889  95.856  80.188  1.00  0.00     0.011 C 
ATOM     20  C   UNL     1      96.177  94.197  81.943  1.00  0.00     0.011 C 
ENDBRANCH  17  18
ENDBRANCH  16  17
ENDBRANCH  14  16
ENDBRANCH   6  14
TORSDOF 8
ENDMDL
MODEL 6
REMARK VINA RESULT:    -5.314      6.355      9.557
REMARK INTER + INTRA:          -8.941
REMARK INTER:                  -7.869
REMARK INTRA:                  -1.072
REMARK UNBOUND:                -1.142
REMARK SMILES CC(C)COC(=O)c1ccccc1C(=O)OCC(C)C
REMARK SMILES IDX 8 1 9 2 10 3 11 4 12 5 13 6 6 7 7 8 5 9 4 10 2 11 1 12 3 13
REMARK SMILES IDX 14 14 15 15 16 16 17 17 18 18 19 19 20 20
REMARK H PARENT
REMARK Flexibility Score: inf
ROOT
ATOM      1  C   UNL     1      95.676  93.770  81.703  1.00  0.00     0.074 A 
ATOM      2  C   UNL     1      95.757  92.503  82.307  1.00  0.00     0.016 A 
ATOM      3  C   UNL     1      96.507  91.481  81.725  1.00  0.00     0.001 A 
ATOM      4  C   UNL     1      97.188  91.708  80.530  1.00  0.00     0.001 A 
ATOM      5  C   UNL     1      97.140  92.964  79.926  1.00  0.00     0.016 A 
ATOM      6  C   UNL     1      96.409  94.016  80.508  1.00  0.00     0.074 A 
ENDROOT
BRANCH   1   7
ATOM      7  C   UNL     1      94.777  94.772  82.314  1.00  0.00     0.339 C 
ATOM      8  O   UNL     1      93.636  94.989  81.818  1.00  0.00    -0.246 OA
BRANCH   7   9
ATOM      9  O   UNL     1      95.177  95.436  83.479  1.00  0.00    -0.462 OA
BRANCH   9  10
ATOM     10  C   UNL     1      94.276  95.805  84.523  1.00  0.00     0.236 C 
BRANCH  10  11
ATOM     11  C   UNL     1      94.239  94.735  85.630  1.00  0.00     0.021 C 
ATOM     12  C   UNL     1      93.116  93.727  85.360  1.00  0.00     0.011 C 
ATOM     13  C   UNL     1      95.587  94.013  85.746  1.00  0.00     0.011 C 
ENDBRANCH  10  11
ENDBRANCH   9  10
ENDBRANCH   7   9
ENDBRANCH   1   7
BRANCH   6  14
ATOM     14  C   UNL     1      96.496  95.353  79.876  1.00  0.00     0.339 C 
ATOM     15  O   UNL     1      97.378  96.177  80.243  1.00  0.00    -0.246 OA
BRANCH  14  16
ATOM     16  O   UNL     1      95.625  95.677  78.830  1.00  0.00    -0.462 OA
BRANCH  16  17
ATOM     17  C   UNL     1      95.396  97.017  78.405  1.00  0.00     0.236 C 
BRANCH  17  18
ATOM     18  C   UNL     1      93.982  97.148  77.822  1.00  0.00     0.021 C 
ATOM     19  C   UNL     1      93.035  96.106  78.430  1.00  0.00     0.011 C 
ATOM     20  C   UNL     1      93.436  98.562  78.053  1.00  0.00     0.011 C 
ENDBRANCH  17  18
ENDBRANCH  16  17
ENDBRANCH  14  16
ENDBRANCH   6  14
TORSDOF 8
ENDMDL
MODEL 7
REMARK VINA RESULT:    -5.300      7.500      9.369
REMARK INTER + INTRA:          -8.921
REMARK INTER:                  -7.617
REMARK INTRA:                  -1.304
REMARK UNBOUND:                -1.142
REMARK SMILES CC(C)COC(=O)c1ccccc1C(=O)OCC(C)C
REMARK SMILES IDX 8 1 9 2 10 3 11 4 12 5 13 6 6 7 7 8 5 9 4 10 2 11 1 12 3 13
REMARK SMILES IDX 14 14 15 15 16 16 17 17 18 18 19 19 20 20
REMARK H PARENT
REMARK Flexibility Score: inf
ROOT
ATOM      1  C   UNL     1      93.071  96.114  78.777  1.00  0.00     0.074 A 
ATOM      2  C   UNL     1      93.655  96.664  77.622  1.00  0.00     0.016 A 
ATOM      3  C   UNL     1      93.631  98.041  77.397  1.00  0.00     0.001 A 
ATOM      4  C   UNL     1      93.023  98.889  78.321  1.00  0.00     0.001 A 
ATOM      5  C   UNL     1      92.458  98.366  79.485  1.00  0.00     0.016 A 
ATOM      6  C   UNL     1      92.492  96.983  79.744  1.00  0.00     0.074 A 
ENDROOT
BRANCH   1   7
ATOM      7  C   UNL     1      93.035  94.640  78.899  1.00  0.00     0.339 C 
ATOM      8  O   UNL     1      92.113  93.978  78.346  1.00  0.00    -0.246 OA
BRANCH   7   9
ATOM      9  O   UNL     1      94.063  93.981  79.584  1.00  0.00    -0.462 OA
BRANCH   9  10
ATOM     10  C   UNL     1      95.444  94.121  79.253  1.00  0.00     0.236 C 
BRANCH  10  11
ATOM     11  C   UNL     1      96.174  95.012  80.275  1.00  0.00     0.021 C 
ATOM     12  C   UNL     1      97.314  94.233  80.942  1.00  0.00     0.011 C 
ATOM     13  C   UNL     1      96.715  96.285  79.611  1.00  0.00     0.011 C 
ENDBRANCH  10  11
ENDBRANCH   9  10
ENDBRANCH   7   9
ENDBRANCH   1   7
BRANCH   6  14
ATOM     14  C   UNL     1      91.979  96.509  81.049  1.00  0.00     0.339 C 
ATOM     15  O   UNL     1      90.737  96.467  81.270  1.00  0.00    -0.246 OA
BRANCH  14  16
ATOM     16  O   UNL     1      92.879  96.055  82.019  1.00  0.00    -0.462 OA
BRANCH  16  17
ATOM     17  C   UNL     1      92.660  96.229  83.415  1.00  0.00     0.236 C 
BRANCH  17  18
ATOM     18  C   UNL     1      93.641  95.358  84.213  1.00  0.00     0.021 C 
ATOM     19  C   UNL     1      94.267  94.276  83.324  1.00  0.00     0.011 C 
ATOM     20  C   UNL     1      94.737  96.227  84.844  1.00  0.00     0.011 C 
ENDBRANCH  17  18
ENDBRANCH  16  17
ENDBRANCH  14  16
ENDBRANCH   6  14
TORSDOF 8
ENDMDL
MODEL 8
REMARK VINA RESULT:    -5.298      1.964      5.888
REMARK INTER + INTRA:          -8.917
REMARK INTER:                  -7.693
REMARK INTRA:                  -1.224
REMARK UNBOUND:                -1.142
REMARK SMILES CC(C)COC(=O)c1ccccc1C(=O)OCC(C)C
REMARK SMILES IDX 8 1 9 2 10 3 11 4 12 5 13 6 6 7 7 8 5 9 4 10 2 11 1 12 3 13
REMARK SMILES IDX 14 14 15 15 16 16 17 17 18 18 19 19 20 20
REMARK H PARENT
REMARK Flexibility Score: inf
ROOT
ATOM      1  C   UNL     1      96.976  89.931  79.399  1.00  0.00     0.074 A 
ATOM      2  C   UNL     1      98.346  90.011  79.092  1.00  0.00     0.016 A 
ATOM      3  C   UNL     1      98.924  89.133  78.175  1.00  0.00     0.001 A 
ATOM      4  C   UNL     1      98.143  88.161  77.551  1.00  0.00     0.001 A 
ATOM      5  C   UNL     1      96.777  88.080  77.823  1.00  0.00     0.016 A 
ATOM      6  C   UNL     1      96.169  88.971  78.727  1.00  0.00     0.074 A 
ENDROOT
BRANCH   1   7
ATOM      7  C   UNL     1      96.452  90.819  80.460  1.00  0.00     0.339 C 
ATOM      8  O   UNL     1      95.787  91.848  80.156  1.00  0.00    -0.246 OA
BRANCH   7   9
ATOM      9  O   UNL     1      96.649  90.477  81.803  1.00  0.00    -0.462 OA
BRANCH   9  10
ATOM     10  C   UNL     1      95.958  89.411  82.452  1.00  0.00     0.236 C 
BRANCH  10  11
ATOM     11  C   UNL     1      96.260  89.389  83.962  1.00  0.00     0.021 C 
ATOM     12  C   UNL     1      95.196  90.183  84.730  1.00  0.00     0.011 C 
ATOM     13  C   UNL     1      96.336  87.951  84.490  1.00  0.00     0.011 C 
ENDBRANCH  10  11
ENDBRANCH   9  10
ENDBRANCH   7   9
ENDBRANCH   1   7
BRANCH   6  14
ATOM     14  C   UNL     1      94.698  88.904  78.881  1.00  0.00     0.339 C 
ATOM     15  O   UNL     1      93.948  89.637  78.179  1.00  0.00    -0.246 OA
BRANCH  14  16
ATOM     16  O   UNL     1      94.141  87.982  79.774  1.00  0.00    -0.462 OA
BRANCH  16  17
ATOM     17  C   UNL     1      93.886  86.626  79.420  1.00  0.00     0.236 C 
BRANCH  17  18
ATOM     18  C   UNL     1      94.468  85.687  80.486  1.00  0.00     0.021 C 
ATOM     19  C   UNL     1      95.979  85.502  80.292  1.00  0.00     0.011 C 
ATOM     20  C   UNL     1      94.174  86.224  81.892  1.00  0.00     0.011 C 
ENDBRANCH  17  18
ENDBRANCH  16  17
ENDBRANCH  14  16
ENDBRANCH   6  14
TORSDOF 8
ENDMDL
MODEL 9
REMARK VINA RESULT:    -5.275      8.987     11.430
REMARK INTER + INTRA:          -8.884
REMARK INTER:                  -7.330
REMARK INTRA:                  -1.553
REMARK UNBOUND:                -1.142
REMARK SMILES CC(C)COC(=O)c1ccccc1C(=O)OCC(C)C
REMARK SMILES IDX 8 1 9 2 10 3 11 4 12 5 13 6 6 7 7 8 5 9 4 10 2 11 1 12 3 13
REMARK SMILES IDX 14 14 15 15 16 16 17 17 18 18 19 19 20 20
REMARK H PARENT
REMARK Flexibility Score: inf
ROOT
ATOM      1  C   UNL     1      87.844  95.261  80.433  1.00  0.00     0.074 A 
ATOM      2  C   UNL     1      87.045  96.415  80.513  1.00  0.00     0.016 A 
ATOM      3  C   UNL     1      86.132  96.721  79.503  1.00  0.00     0.001 A 
ATOM      4  C   UNL     1      86.004  95.881  78.398  1.00  0.00     0.001 A 
ATOM      5  C   UNL     1      86.771  94.718  78.311  1.00  0.00     0.016 A 
ATOM      6  C   UNL     1      87.680  94.377  79.330  1.00  0.00     0.074 A 
ENDROOT
BRANCH   1   7
ATOM      7  C   UNL     1      88.867  95.054  81.482  1.00  0.00     0.339 C 
ATOM      8  O   UNL     1      90.070  95.370  81.268  1.00  0.00    -0.246 OA
BRANCH   7   9
ATOM      9  O   UNL     1      88.480  94.559  82.732  1.00  0.00    -0.462 OA
BRANCH   9  10
ATOM     10  C   UNL     1      88.644  95.284  83.951  1.00  0.00     0.236 C 
BRANCH  10  11
ATOM     11  C   UNL     1      87.831  94.647  85.093  1.00  0.00     0.021 C 
ATOM     12  C   UNL     1      86.366  94.476  84.672  1.00  0.00     0.011 C 
ATOM     13  C   UNL     1      88.427  93.297  85.509  1.00  0.00     0.011 C 
ENDBRANCH  10  11
ENDBRANCH   9  10
ENDBRANCH   7   9
ENDBRANCH   1   7
BRANCH   6  14
ATOM     14  C   UNL     1      88.376  93.074  79.230  1.00  0.00     0.339 C 
ATOM     15  O   UNL     1      89.405  92.952  78.509  1.00  0.00    -0.246 OA
BRANCH  14  16
ATOM     16  O   UNL     1      87.916  91.990  79.985  1.00  0.00    -0.462 OA
BRANCH  16  17
ATOM     17  C   UNL     1      86.809  91.188  79.586  1.00  0.00     0.236 C 
BRANCH  17  18
ATOM     18  C   UNL     1      85.641  91.382  80.565  1.00  0.00     0.021 C 
ATOM     19  C   UNL     1      86.110  92.068  81.854  1.00  0.00     0.011 C 
ATOM     20  C   UNL     1      84.520  92.195  79.907  1.00  0.00     0.011 C 
ENDBRANCH  17  18
ENDBRANCH  16  17
ENDBRANCH  14  16
ENDBRANCH   6  14
TORSDOF 8
ENDMDL
