MODEL 1
REMARK VINA RESULT:    -5.299      0.000      0.000
REMARK INTER + INTRA:         -10.451
REMARK INTER:                  -9.635
REMARK INTRA:                  -0.815
REMARK UNBOUND:                -0.815
REMARK SMILES CCCCCCCCCCCCCC[C@@H](C)C(=O)[O-]
REMARK SMILES IDX 9 1 10 2 11 3 12 4 13 5 14 6 15 7 16 8 17 9 18 10 19 11 8 12
REMARK SMILES IDX 7 13 6 14 5 15 4 16 3 17 2 18 1 19
REMARK H PARENT
REMARK Flexibility Score: inf
ROOT
ATOM      1  C   UNL     1       2.374  19.853 -12.076  1.00  0.00     0.000 C 
ENDROOT
BRANCH   1   2
ATOM      2  C   UNL     1       2.399  21.208 -12.800  1.00  0.00     0.000 C 
BRANCH   2   3
ATOM      3  C   UNL     1       2.504  21.062 -14.326  1.00  0.00     0.000 C 
BRANCH   3   4
ATOM      4  C   UNL     1       3.269  22.223 -14.981  1.00  0.00     0.000 C 
BRANCH   4   5
ATOM      5  C   UNL     1       3.133  22.177 -16.508  1.00  0.00     0.001 C 
BRANCH   5   6
ATOM      6  C   UNL     1       1.793  21.550 -16.925  1.00  0.00     0.009 C 
BRANCH   6   7
ATOM      7  C   UNL     1       1.247  22.160 -18.233  1.00  0.00     0.032 C 
ATOM      8  C   UNL     1       1.684  23.621 -18.371  1.00  0.00     0.014 C 
BRANCH   7   9
ATOM      9  C   UNL     1       1.706  21.377 -19.434  1.00  0.00     0.044 C 
ATOM     10  O   UNL     1       1.003  20.433 -19.880  1.00  0.00    -0.550 OA
ATOM     11  O   UNL     1       2.906  21.691 -20.060  1.00  0.00    -0.550 OA
ENDBRANCH   7   9
ENDBRANCH   6   7
ENDBRANCH   5   6
ENDBRANCH   4   5
ENDBRANCH   3   4
ENDBRANCH   2   3
ENDBRANCH   1   2
BRANCH   1  12
ATOM     12  C   UNL     1       2.062  20.034 -10.585  1.00  0.00     0.000 C 
BRANCH  12  13
ATOM     13  C   UNL     1       2.628  21.362 -10.061  1.00  0.00    -0.000 C 
BRANCH  13  14
ATOM     14  C   UNL     1       2.145  21.690  -8.638  1.00  0.00    -0.000 C 
BRANCH  14  15
ATOM     15  C   UNL     1       3.156  21.261  -7.559  1.00  0.00    -0.000 C 
BRANCH  15  16
ATOM     16  C   UNL     1       2.478  20.637  -6.328  1.00  0.00    -0.000 C 
BRANCH  16  17
ATOM     17  C   UNL     1       0.983  20.987  -6.237  1.00  0.00    -0.000 C 
BRANCH  17  18
ATOM     18  C   UNL     1       0.213  20.041  -5.303  1.00  0.00    -0.003 C 
ATOM     19  C   UNL     1      -0.155  18.716  -5.972  1.00  0.00     0.004 C 
ENDBRANCH  17  18
ENDBRANCH  16  17
ENDBRANCH  15  16
ENDBRANCH  14  15
ENDBRANCH  13  14
ENDBRANCH  12  13
ENDBRANCH   1  12
TORSDOF 14
ENDMDL
MODEL 2
REMARK VINA RESULT:    -5.291      4.802      9.928
REMARK INTER + INTRA:         -10.436
REMARK INTER:                  -9.246
REMARK INTRA:                  -1.190
REMARK UNBOUND:                -0.815
REMARK SMILES CCCCCCCCCCCCCC[C@@H](C)C(=O)[O-]
REMARK SMILES IDX 9 1 10 2 11 3 12 4 13 5 14 6 15 7 16 8 17 9 18 10 19 11 8 12
REMARK SMILES IDX 7 13 6 14 5 15 4 16 3 17 2 18 1 19
REMARK H PARENT
REMARK Flexibility Score: inf
ROOT
ATOM      1  C   UNL     1       2.232  21.780 -12.067  1.00  0.00     0.000 C 
ENDROOT
BRANCH   1   2
ATOM      2  C   UNL     1       2.112  20.278 -12.366  1.00  0.00     0.000 C 
BRANCH   2   3
ATOM      3  C   UNL     1       2.837  19.407 -11.327  1.00  0.00     0.000 C 
BRANCH   3   4
ATOM      4  C   UNL     1       1.870  18.570 -10.477  1.00  0.00     0.000 C 
BRANCH   4   5
ATOM      5  C   UNL     1       1.653  19.212  -9.101  1.00  0.00     0.001 C 
BRANCH   5   6
ATOM      6  C   UNL     1       2.993  19.566  -8.439  1.00  0.00     0.009 C 
BRANCH   6   7
ATOM      7  C   UNL     1       2.898  20.839  -7.573  1.00  0.00     0.032 C 
ATOM      8  C   UNL     1       2.024  21.894  -8.260  1.00  0.00     0.014 C 
BRANCH   7   9
ATOM      9  C   UNL     1       2.345  20.532  -6.207  1.00  0.00     0.044 C 
ATOM     10  O   UNL     1       2.902  19.670  -5.479  1.00  0.00    -0.550 OA
ATOM     11  O   UNL     1       1.219  21.198  -5.739  1.00  0.00    -0.550 OA
ENDBRANCH   7   9
ENDBRANCH   6   7
ENDBRANCH   5   6
ENDBRANCH   4   5
ENDBRANCH   3   4
ENDBRANCH   2   3
ENDBRANCH   1   2
BRANCH   1  12
ATOM     12  C   UNL     1       2.854  22.527 -13.254  1.00  0.00     0.000 C 
BRANCH  12  13
ATOM     13  C   UNL     1       2.660  21.743 -14.561  1.00  0.00    -0.000 C 
BRANCH  13  14
ATOM     14  C   UNL     1       3.672  22.145 -15.647  1.00  0.00    -0.000 C 
BRANCH  14  15
ATOM     15  C   UNL     1       2.994  22.493 -16.984  1.00  0.00    -0.000 C 
BRANCH  15  16
ATOM     16  C   UNL     1       1.604  21.853 -17.127  1.00  0.00    -0.000 C 
BRANCH  16  17
ATOM     17  C   UNL     1       1.018  22.024 -18.539  1.00  0.00    -0.000 C 
BRANCH  17  18
ATOM     18  C   UNL     1       1.964  21.507 -19.635  1.00  0.00    -0.003 C 
ATOM     19  C   UNL     1       1.802  20.010 -19.900  1.00  0.00     0.004 C 
ENDBRANCH  17  18
ENDBRANCH  16  17
ENDBRANCH  15  16
ENDBRANCH  14  15
ENDBRANCH  13  14
ENDBRANCH  12  13
ENDBRANCH   1  12
TORSDOF 14
ENDMDL
MODEL 3
REMARK VINA RESULT:    -5.257      9.392     11.034
REMARK INTER + INTRA:         -10.375
REMARK INTER:                  -8.733
REMARK INTRA:                  -1.642
REMARK UNBOUND:                -0.815
REMARK SMILES CCCCCCCCCCCCCC[C@@H](C)C(=O)[O-]
REMARK SMILES IDX 9 1 10 2 11 3 12 4 13 5 14 6 15 7 16 8 17 9 18 10 19 11 8 12
REMARK SMILES IDX 7 13 6 14 5 15 4 16 3 17 2 18 1 19
REMARK H PARENT
REMARK Flexibility Score: inf
ROOT
ATOM      1  C   UNL     1       7.830  29.504 -12.763  1.00  0.00     0.000 C 
ENDROOT
BRANCH   1   2
ATOM      2  C   UNL     1       8.774  30.716 -12.739  1.00  0.00     0.000 C 
BRANCH   2   3
ATOM      3  C   UNL     1       8.058  32.016 -12.338  1.00  0.00     0.000 C 
BRANCH   3   4
ATOM      4  C   UNL     1       6.533  31.852 -12.258  1.00  0.00     0.000 C 
BRANCH   4   5
ATOM      5  C   UNL     1       5.832  32.730 -13.303  1.00  0.00     0.001 C 
BRANCH   5   6
ATOM      6  C   UNL     1       5.267  31.879 -14.450  1.00  0.00     0.009 C 
BRANCH   6   7
ATOM      7  C   UNL     1       6.330  31.567 -15.523  1.00  0.00     0.032 C 
ATOM      8  C   UNL     1       6.218  30.111 -15.987  1.00  0.00     0.014 C 
BRANCH   7   9
ATOM      9  C   UNL     1       6.200  32.489 -16.707  1.00  0.00     0.044 C 
ATOM     10  O   UNL     1       5.816  32.039 -17.818  1.00  0.00    -0.550 OA
ATOM     11  O   UNL     1       6.498  33.840 -16.581  1.00  0.00    -0.550 OA
ENDBRANCH   7   9
ENDBRANCH   6   7
ENDBRANCH   5   6
ENDBRANCH   4   5
ENDBRANCH   3   4
ENDBRANCH   2   3
ENDBRANCH   1   2
BRANCH   1  12
ATOM     12  C   UNL     1       8.623  28.192 -12.786  1.00  0.00     0.000 C 
BRANCH  12  13
ATOM     13  C   UNL     1      10.114  28.444 -12.513  1.00  0.00    -0.000 C 
BRANCH  13  14
ATOM     14  C   UNL     1      10.841  27.191 -11.999  1.00  0.00    -0.000 C 
BRANCH  14  15
ATOM     15  C   UNL     1      10.057  25.897 -12.281  1.00  0.00    -0.000 C 
BRANCH  15  16
ATOM     16  C   UNL     1       9.717  25.120 -10.999  1.00  0.00    -0.000 C 
BRANCH  16  17
ATOM     17  C   UNL     1       8.366  24.391 -11.091  1.00  0.00    -0.000 C 
BRANCH  17  18
ATOM     18  C   UNL     1       7.668  24.616 -12.441  1.00  0.00    -0.003 C 
ATOM     19  C   UNL     1       6.157  24.809 -12.304  1.00  0.00     0.004 C 
ENDBRANCH  17  18
ENDBRANCH  16  17
ENDBRANCH  15  16
ENDBRANCH  14  15
ENDBRANCH  13  14
ENDBRANCH  12  13
ENDBRANCH   1  12
TORSDOF 14
ENDMDL
MODEL 4
REMARK VINA RESULT:    -5.197      4.233     10.159
REMARK INTER + INTRA:         -10.265
REMARK INTER:                  -9.449
REMARK INTRA:                  -0.816
REMARK UNBOUND:                -0.815
REMARK SMILES CCCCCCCCCCCCCC[C@@H](C)C(=O)[O-]
REMARK SMILES IDX 9 1 10 2 11 3 12 4 13 5 14 6 15 7 16 8 17 9 18 10 19 11 8 12
REMARK SMILES IDX 7 13 6 14 5 15 4 16 3 17 2 18 1 19
REMARK H PARENT
REMARK Flexibility Score: inf
ROOT
ATOM      1  C   UNL     1       2.555  21.474 -13.549  1.00  0.00     0.000 C 
ENDROOT
BRANCH   1   2
ATOM      2  C   UNL     1       2.249  20.128 -12.876  1.00  0.00     0.000 C 
BRANCH   2   3
ATOM      3  C   UNL     1       2.492  20.157 -11.358  1.00  0.00     0.000 C 
BRANCH   3   4
ATOM      4  C   UNL     1       1.814  21.353 -10.672  1.00  0.00     0.000 C 
BRANCH   4   5
ATOM      5  C   UNL     1       2.394  21.584  -9.272  1.00  0.00     0.001 C 
BRANCH   5   6
ATOM      6  C   UNL     1       1.283  21.617  -8.211  1.00  0.00     0.009 C 
BRANCH   6   7
ATOM      7  C   UNL     1       1.495  20.556  -7.112  1.00  0.00     0.032 C 
ATOM      8  C   UNL     1       1.277  21.167  -5.724  1.00  0.00     0.014 C 
BRANCH   7   9
ATOM      9  C   UNL     1       0.572  19.381  -7.300  1.00  0.00     0.044 C 
ATOM     10  O   UNL     1      -0.118  18.959  -6.336  1.00  0.00    -0.550 OA
ATOM     11  O   UNL     1       0.474  18.757  -8.538  1.00  0.00    -0.550 OA
ENDBRANCH   7   9
ENDBRANCH   6   7
ENDBRANCH   5   6
ENDBRANCH   4   5
ENDBRANCH   3   4
ENDBRANCH   2   3
ENDBRANCH   1   2
BRANCH   1  12
ATOM     12  C   UNL     1       2.454  21.360 -15.075  1.00  0.00     0.000 C 
BRANCH  12  13
ATOM     13  C   UNL     1       3.602  22.116 -15.761  1.00  0.00    -0.000 C 
BRANCH  13  14
ATOM     14  C   UNL     1       3.270  22.507 -17.210  1.00  0.00    -0.000 C 
BRANCH  14  15
ATOM     15  C   UNL     1       1.764  22.746 -17.426  1.00  0.00    -0.000 C 
BRANCH  15  16
ATOM     16  C   UNL     1       1.308  22.396 -18.852  1.00  0.00    -0.000 C 
BRANCH  16  17
ATOM     17  C   UNL     1       2.324  21.512 -19.596  1.00  0.00    -0.000 C 
BRANCH  17  18
ATOM     18  C   UNL     1       1.810  20.080 -19.813  1.00  0.00    -0.003 C 
ATOM     19  C   UNL     1       2.692  19.272 -20.766  1.00  0.00     0.004 C 
ENDBRANCH  17  18
ENDBRANCH  16  17
ENDBRANCH  15  16
ENDBRANCH  14  15
ENDBRANCH  13  14
ENDBRANCH  12  13
ENDBRANCH   1  12
TORSDOF 14
ENDMDL
MODEL 5
REMARK VINA RESULT:    -5.133      9.069     11.617
REMARK INTER + INTRA:         -10.149
REMARK INTER:                  -8.099
REMARK INTRA:                  -2.050
REMARK UNBOUND:                -0.815
REMARK SMILES CCCCCCCCCCCCCC[C@@H](C)C(=O)[O-]
REMARK SMILES IDX 9 1 10 2 11 3 12 4 13 5 14 6 15 7 16 8 17 9 18 10 19 11 8 12
REMARK SMILES IDX 7 13 6 14 5 15 4 16 3 17 2 18 1 19
REMARK H PARENT
REMARK Flexibility Score: inf
ROOT
ATOM      1  C   UNL     1       9.058  29.814 -12.431  1.00  0.00     0.000 C 
ENDROOT
BRANCH   1   2
ATOM      2  C   UNL     1      10.251  29.309 -13.256  1.00  0.00     0.000 C 
BRANCH   2   3
ATOM      3  C   UNL     1      10.709  27.903 -12.834  1.00  0.00     0.000 C 
BRANCH   3   4
ATOM      4  C   UNL     1      10.740  26.914 -14.009  1.00  0.00     0.000 C 
BRANCH   4   5
ATOM      5  C   UNL     1       9.818  25.717 -13.743  1.00  0.00     0.001 C 
BRANCH   5   6
ATOM      6  C   UNL     1       9.771  25.378 -12.245  1.00  0.00     0.009 C 
BRANCH   6   7
ATOM      7  C   UNL     1       8.326  25.272 -11.716  1.00  0.00     0.032 C 
ATOM      8  C   UNL     1       7.322  25.649 -12.810  1.00  0.00     0.014 C 
BRANCH   7   9
ATOM      9  C   UNL     1       8.029  23.884 -11.211  1.00  0.00     0.044 C 
ATOM     10  O   UNL     1       8.782  22.925 -11.521  1.00  0.00    -0.550 OA
ATOM     11  O   UNL     1       6.927  23.655 -10.397  1.00  0.00    -0.550 OA
ENDBRANCH   7   9
ENDBRANCH   6   7
ENDBRANCH   5   6
ENDBRANCH   4   5
ENDBRANCH   3   4
ENDBRANCH   2   3
ENDBRANCH   1   2
BRANCH   1  12
ATOM     12  C   UNL     1       7.753  29.151 -12.890  1.00  0.00     0.000 C 
BRANCH  12  13
ATOM     13  C   UNL     1       7.678  29.086 -14.423  1.00  0.00    -0.000 C 
BRANCH  13  14
ATOM     14  C   UNL     1       6.261  29.353 -14.957  1.00  0.00    -0.000 C 
BRANCH  14  15
ATOM     15  C   UNL     1       6.058  30.818 -15.383  1.00  0.00    -0.000 C 
BRANCH  15  16
ATOM     16  C   UNL     1       5.408  31.670 -14.281  1.00  0.00    -0.000 C 
BRANCH  16  17
ATOM     17  C   UNL     1       6.418  32.592 -13.575  1.00  0.00    -0.000 C 
BRANCH  17  18
ATOM     18  C   UNL     1       6.374  32.451 -12.046  1.00  0.00    -0.003 C 
ATOM     19  C   UNL     1       4.961  32.583 -11.478  1.00  0.00     0.004 C 
ENDBRANCH  17  18
ENDBRANCH  16  17
ENDBRANCH  15  16
ENDBRANCH  14  15
ENDBRANCH  13  14
ENDBRANCH  12  13
ENDBRANCH   1  12
TORSDOF 14
ENDMDL
MODEL 6
REMARK VINA RESULT:    -5.097      8.914     12.049
REMARK INTER + INTRA:         -10.084
REMARK INTER:                  -8.351
REMARK INTRA:                  -1.733
REMARK UNBOUND:                -0.815
REMARK SMILES CCCCCCCCCCCCCC[C@@H](C)C(=O)[O-]
REMARK SMILES IDX 9 1 10 2 11 3 12 4 13 5 14 6 15 7 16 8 17 9 18 10 19 11 8 12
REMARK SMILES IDX 7 13 6 14 5 15 4 16 3 17 2 18 1 19
REMARK H PARENT
REMARK Flexibility Score: inf
ROOT
ATOM      1  C   UNL     1       9.448  28.981 -12.862  1.00  0.00     0.000 C 
ENDROOT
BRANCH   1   2
ATOM      2  C   UNL     1       9.972  28.253 -14.109  1.00  0.00     0.000 C 
BRANCH   2   3
ATOM      3  C   UNL     1      10.817  27.017 -13.761  1.00  0.00     0.000 C 
BRANCH   3   4
ATOM      4  C   UNL     1      10.419  25.779 -14.579  1.00  0.00     0.000 C 
BRANCH   4   5
ATOM      5  C   UNL     1       9.531  24.838 -13.754  1.00  0.00     0.001 C 
BRANCH   5   6
ATOM      6  C   UNL     1       9.607  25.179 -12.258  1.00  0.00     0.009 C 
BRANCH   6   7
ATOM      7  C   UNL     1       8.251  24.988 -11.547  1.00  0.00     0.032 C 
ATOM      8  C   UNL     1       7.114  24.895 -12.570  1.00  0.00     0.014 C 
BRANCH   7   9
ATOM      9  C   UNL     1       8.256  23.758 -10.680  1.00  0.00     0.044 C 
ATOM     10  O   UNL     1       8.011  23.851  -9.449  1.00  0.00    -0.550 OA
ATOM     11  O   UNL     1       8.528  22.511 -11.231  1.00  0.00    -0.550 OA
ENDBRANCH   7   9
ENDBRANCH   6   7
ENDBRANCH   5   6
ENDBRANCH   4   5
ENDBRANCH   3   4
ENDBRANCH   2   3
ENDBRANCH   1   2
BRANCH   1  12
ATOM     12  C   UNL     1       7.917  28.915 -12.791  1.00  0.00     0.000 C 
BRANCH  12  13
ATOM     13  C   UNL     1       7.332  28.318 -14.080  1.00  0.00    -0.000 C 
BRANCH  13  14
ATOM     14  C   UNL     1       6.423  29.306 -14.830  1.00  0.00    -0.000 C 
BRANCH  14  15
ATOM     15  C   UNL     1       6.638  30.762 -14.379  1.00  0.00    -0.000 C 
BRANCH  15  16
ATOM     16  C   UNL     1       5.346  31.594 -14.430  1.00  0.00    -0.000 C 
BRANCH  16  17
ATOM     17  C   UNL     1       5.261  32.475 -15.688  1.00  0.00    -0.000 C 
BRANCH  17  18
ATOM     18  C   UNL     1       6.175  33.708 -15.604  1.00  0.00    -0.003 C 
ATOM     19  C   UNL     1       7.295  33.688 -16.644  1.00  0.00     0.004 C 
ENDBRANCH  17  18
ENDBRANCH  16  17
ENDBRANCH  15  16
ENDBRANCH  14  15
ENDBRANCH  13  14
ENDBRANCH  12  13
ENDBRANCH   1  12
TORSDOF 14
ENDMDL
MODEL 7
REMARK VINA RESULT:    -5.095      9.352     12.028
REMARK INTER + INTRA:         -10.080
REMARK INTER:                  -8.047
REMARK INTRA:                  -2.032
REMARK UNBOUND:                -0.815
REMARK SMILES CCCCCCCCCCCCCC[C@@H](C)C(=O)[O-]
REMARK SMILES IDX 9 1 10 2 11 3 12 4 13 5 14 6 15 7 16 8 17 9 18 10 19 11 8 12
REMARK SMILES IDX 7 13 6 14 5 15 4 16 3 17 2 18 1 19
REMARK H PARENT
REMARK Flexibility Score: inf
ROOT
ATOM      1  C   UNL     1       6.132  29.829 -15.066  1.00  0.00     0.000 C 
ENDROOT
BRANCH   1   2
ATOM      2  C   UNL     1       7.524  29.271 -14.735  1.00  0.00     0.000 C 
BRANCH   2   3
ATOM      3  C   UNL     1       7.713  29.005 -13.233  1.00  0.00     0.000 C 
BRANCH   3   4
ATOM      4  C   UNL     1       9.186  28.800 -12.849  1.00  0.00     0.000 C 
BRANCH   4   5
ATOM      5  C   UNL     1       9.462  27.334 -12.492  1.00  0.00     0.001 C 
BRANCH   5   6
ATOM      6  C   UNL     1       8.252  26.447 -12.827  1.00  0.00     0.009 C 
BRANCH   6   7
ATOM      7  C   UNL     1       8.416  25.011 -12.290  1.00  0.00     0.032 C 
ATOM      8  C   UNL     1       9.477  24.965 -11.185  1.00  0.00     0.014 C 
BRANCH   7   9
ATOM      9  C   UNL     1       7.112  24.471 -11.764  1.00  0.00     0.044 C 
ATOM     10  O   UNL     1       7.086  23.818 -10.689  1.00  0.00    -0.550 OA
ATOM     11  O   UNL     1       5.930  24.693 -12.460  1.00  0.00    -0.550 OA
ENDBRANCH   7   9
ENDBRANCH   6   7
ENDBRANCH   5   6
ENDBRANCH   4   5
ENDBRANCH   3   4
ENDBRANCH   2   3
ENDBRANCH   1   2
BRANCH   1  12
ATOM     12  C   UNL     1       6.232  31.018 -16.030  1.00  0.00     0.000 C 
BRANCH  12  13
ATOM     13  C   UNL     1       5.462  32.233 -15.488  1.00  0.00    -0.000 C 
BRANCH  13  14
ATOM     14  C   UNL     1       4.873  31.983 -14.090  1.00  0.00    -0.000 C 
BRANCH  14  15
ATOM     15  C   UNL     1       5.523  32.865 -13.009  1.00  0.00    -0.000 C 
BRANCH  15  16
ATOM     16  C   UNL     1       6.427  32.065 -12.058  1.00  0.00    -0.000 C 
BRANCH  16  17
ATOM     17  C   UNL     1       7.857  32.628 -11.990  1.00  0.00    -0.000 C 
BRANCH  17  18
ATOM     18  C   UNL     1       8.301  33.267 -13.315  1.00  0.00    -0.003 C 
ATOM     19  C   UNL     1       9.198  32.348 -14.146  1.00  0.00     0.004 C 
ENDBRANCH  17  18
ENDBRANCH  16  17
ENDBRANCH  15  16
ENDBRANCH  14  15
ENDBRANCH  13  14
ENDBRANCH  12  13
ENDBRANCH   1  12
TORSDOF 14
ENDMDL
MODEL 8
REMARK VINA RESULT:    -5.057      9.475     12.224
REMARK INTER + INTRA:         -10.011
REMARK INTER:                  -8.383
REMARK INTRA:                  -1.628
REMARK UNBOUND:                -0.815
REMARK SMILES CCCCCCCCCCCCCC[C@@H](C)C(=O)[O-]
REMARK SMILES IDX 9 1 10 2 11 3 12 4 13 5 14 6 15 7 16 8 17 9 18 10 19 11 8 12
REMARK SMILES IDX 7 13 6 14 5 15 4 16 3 17 2 18 1 19
REMARK H PARENT
REMARK Flexibility Score: inf
ROOT
ATOM      1  C   UNL     1       8.017  31.051 -12.375  1.00  0.00     0.000 C 
ENDROOT
BRANCH   1   2
ATOM      2  C   UNL     1       9.283  30.297 -12.809  1.00  0.00     0.000 C 
BRANCH   2   3
ATOM      3  C   UNL     1       9.001  28.833 -13.183  1.00  0.00     0.000 C 
BRANCH   3   4
ATOM      4  C   UNL     1       7.503  28.546 -13.366  1.00  0.00     0.000 C 
BRANCH   4   5
ATOM      5  C   UNL     1       7.139  27.161 -12.817  1.00  0.00     0.001 C 
BRANCH   5   6
ATOM      6  C   UNL     1       8.393  26.292 -12.635  1.00  0.00     0.009 C 
BRANCH   6   7
ATOM      7  C   UNL     1       8.057  24.787 -12.586  1.00  0.00     0.032 C 
ATOM      8  C   UNL     1       9.145  23.968 -13.289  1.00  0.00     0.014 C 
BRANCH   7   9
ATOM      9  C   UNL     1       7.898  24.308 -11.168  1.00  0.00     0.044 C 
ATOM     10  O   UNL     1       6.778  23.907 -10.758  1.00  0.00    -0.550 OA
ATOM     11  O   UNL     1       8.986  24.302 -10.303  1.00  0.00    -0.550 OA
ENDBRANCH   7   9
ENDBRANCH   6   7
ENDBRANCH   5   6
ENDBRANCH   4   5
ENDBRANCH   3   4
ENDBRANCH   2   3
ENDBRANCH   1   2
BRANCH   1  12
ATOM     12  C   UNL     1       8.248  32.567 -12.390  1.00  0.00     0.000 C 
BRANCH  12  13
ATOM     13  C   UNL     1       6.983  33.322 -11.954  1.00  0.00    -0.000 C 
BRANCH  13  14
ATOM     14  C   UNL     1       5.714  32.462 -12.066  1.00  0.00    -0.000 C 
BRANCH  14  15
ATOM     15  C   UNL     1       4.629  33.122 -12.936  1.00  0.00    -0.000 C 
BRANCH  15  16
ATOM     16  C   UNL     1       4.795  32.806 -14.431  1.00  0.00    -0.000 C 
BRANCH  16  17
ATOM     17  C   UNL     1       5.137  31.328 -14.687  1.00  0.00    -0.000 C 
BRANCH  17  18
ATOM     18  C   UNL     1       6.220  31.153 -15.763  1.00  0.00    -0.003 C 
ATOM     19  C   UNL     1       6.059  32.126 -16.931  1.00  0.00     0.004 C 
ENDBRANCH  17  18
ENDBRANCH  16  17
ENDBRANCH  15  16
ENDBRANCH  14  15
ENDBRANCH  13  14
ENDBRANCH  12  13
ENDBRANCH   1  12
TORSDOF 14
ENDMDL
MODEL 9
REMARK VINA RESULT:    -4.996      9.428     12.073
REMARK INTER + INTRA:          -9.900
REMARK INTER:                  -8.166
REMARK INTRA:                  -1.735
REMARK UNBOUND:                -0.815
REMARK SMILES CCCCCCCCCCCCCC[C@@H](C)C(=O)[O-]
REMARK SMILES IDX 9 1 10 2 11 3 12 4 13 5 14 6 15 7 16 8 17 9 18 10 19 11 8 12
REMARK SMILES IDX 7 13 6 14 5 15 4 16 3 17 2 18 1 19
REMARK H PARENT
REMARK Flexibility Score: inf
ROOT
ATOM      1  C   UNL     1       7.742  29.854 -12.713  1.00  0.00     0.000 C 
ENDROOT
BRANCH   1   2
ATOM      2  C   UNL     1       7.859  28.356 -13.032  1.00  0.00     0.000 C 
BRANCH   2   3
ATOM      3  C   UNL     1       9.249  27.787 -12.702  1.00  0.00     0.000 C 
BRANCH   3   4
ATOM      4  C   UNL     1       9.720  26.744 -13.726  1.00  0.00     0.000 C 
BRANCH   4   5
ATOM      5  C   UNL     1       9.220  25.343 -13.351  1.00  0.00     0.001 C 
BRANCH   5   6
ATOM      6  C   UNL     1       9.413  25.070 -11.851  1.00  0.00     0.009 C 
BRANCH   6   7
ATOM      7  C   UNL     1       8.088  24.704 -11.151  1.00  0.00     0.032 C 
ATOM      8  C   UNL     1       6.924  24.739 -12.145  1.00  0.00     0.014 C 
BRANCH   7   9
ATOM      9  C   UNL     1       8.167  23.344 -10.509  1.00  0.00     0.044 C 
ATOM     10  O   UNL     1       8.557  22.352 -11.178  1.00  0.00    -0.550 OA
ATOM     11  O   UNL     1       7.813  23.175  -9.176  1.00  0.00    -0.550 OA
ENDBRANCH   7   9
ENDBRANCH   6   7
ENDBRANCH   5   6
ENDBRANCH   4   5
ENDBRANCH   3   4
ENDBRANCH   2   3
ENDBRANCH   1   2
BRANCH   1  12
ATOM     12  C   UNL     1       9.021  30.601 -13.110  1.00  0.00     0.000 C 
BRANCH  12  13
ATOM     13  C   UNL     1       8.789  32.120 -13.125  1.00  0.00    -0.000 C 
BRANCH  13  14
ATOM     14  C   UNL     1       7.717  32.564 -12.116  1.00  0.00    -0.000 C 
BRANCH  14  15
ATOM     15  C   UNL     1       6.915  33.784 -12.606  1.00  0.00    -0.000 C 
BRANCH  15  16
ATOM     16  C   UNL     1       6.091  33.482 -13.868  1.00  0.00    -0.000 C 
BRANCH  16  17
ATOM     17  C   UNL     1       5.083  32.339 -13.656  1.00  0.00    -0.000 C 
BRANCH  17  18
ATOM     18  C   UNL     1       5.140  31.289 -14.776  1.00  0.00    -0.003 C 
ATOM     19  C   UNL     1       5.897  31.780 -16.011  1.00  0.00     0.004 C 
ENDBRANCH  17  18
ENDBRANCH  16  17
ENDBRANCH  15  16
ENDBRANCH  14  15
ENDBRANCH  13  14
ENDBRANCH  12  13
ENDBRANCH   1  12
TORSDOF 14
ENDMDL
