MODEL 1
REMARK VINA RESULT:    -2.259      0.000      0.000
REMARK INTER + INTRA:          -2.259
REMARK INTER:                  -2.259
REMARK INTRA:                   0.000
REMARK UNBOUND:                 0.000
REMARK SMILES CC(=O)[O-]
REMARK SMILES IDX 1 1 2 2 3 3 4 4
REMARK H PARENT
REMARK Flexibility Score: inf
ROOT
ATOM      1  C   UNL     1      17.431 -35.827  -2.138  1.00  0.00     0.063 C 
ATOM      2  C   UNL     1      17.360 -34.492  -1.475  1.00  0.00     0.038 C 
ATOM      3  O   UNL     1      17.718 -34.364  -0.275  1.00  0.00    -0.550 OA
ATOM      4  O   UNL     1      16.850 -33.399  -2.163  1.00  0.00    -0.550 OA
ENDROOT
TORSDOF 0
ENDMDL
MODEL 2
REMARK VINA RESULT:    -2.147      2.171      2.551
REMARK INTER + INTRA:          -2.147
REMARK INTER:                  -2.147
REMARK INTRA:                   0.000
REMARK UNBOUND:                 0.000
REMARK SMILES CC(=O)[O-]
REMARK SMILES IDX 1 1 2 2 3 3 4 4
REMARK H PARENT
REMARK Flexibility Score: inf
ROOT
ATOM      1  C   UNL     1      17.450 -34.314  -1.870  1.00  0.00     0.063 C 
ATOM      2  C   UNL     1      17.092 -35.737  -2.137  1.00  0.00     0.038 C 
ATOM      3  O   UNL     1      15.900 -36.122  -2.013  1.00  0.00    -0.550 OA
ATOM      4  O   UNL     1      18.081 -36.653  -2.471  1.00  0.00    -0.550 OA
ENDROOT
TORSDOF 0
ENDMDL
MODEL 3
REMARK VINA RESULT:    -2.025      2.031      2.168
REMARK INTER + INTRA:          -2.025
REMARK INTER:                  -2.025
REMARK INTRA:                   0.000
REMARK UNBOUND:                 0.000
REMARK SMILES CC(=O)[O-]
REMARK SMILES IDX 1 1 2 2 3 3 4 4
REMARK H PARENT
REMARK Flexibility Score: inf
ROOT
ATOM      1  C   UNL     1      17.467 -33.930  -1.882  1.00  0.00     0.063 C 
ATOM      2  C   UNL     1      16.010 -33.611  -1.923  1.00  0.00     0.038 C 
ATOM      3  O   UNL     1      15.162 -34.540  -1.978  1.00  0.00    -0.550 OA
ATOM      4  O   UNL     1      15.588 -32.289  -1.954  1.00  0.00    -0.550 OA
ENDROOT
TORSDOF 0
ENDMDL
MODEL 4
REMARK VINA RESULT:    -2.004      2.074      2.244
REMARK INTER + INTRA:          -2.004
REMARK INTER:                  -2.004
REMARK INTRA:                   0.000
REMARK UNBOUND:                 0.000
REMARK SMILES CC(=O)[O-]
REMARK SMILES IDX 1 1 2 2 3 3 4 4
REMARK H PARENT
REMARK Flexibility Score: inf
ROOT
ATOM      1  C   UNL     1      15.963 -36.487  -1.778  1.00  0.00     0.063 C 
ATOM      2  C   UNL     1      17.324 -36.060  -2.212  1.00  0.00     0.038 C 
ATOM      3  O   UNL     1      18.172 -36.920  -2.567  1.00  0.00    -0.550 OA
ATOM      4  O   UNL     1      17.678 -34.719  -2.174  1.00  0.00    -0.550 OA
ENDROOT
TORSDOF 0
ENDMDL
MODEL 5
REMARK VINA RESULT:    -1.976     11.294     11.831
REMARK INTER + INTRA:          -1.976
REMARK INTER:                  -1.976
REMARK INTRA:                   0.000
REMARK UNBOUND:                 0.000
REMARK SMILES CC(=O)[O-]
REMARK SMILES IDX 1 1 2 2 3 3 4 4
REMARK H PARENT
REMARK Flexibility Score: inf
ROOT
ATOM      1  C   UNL     1      18.650 -26.361   7.804  1.00  0.00     0.063 C 
ATOM      2  C   UNL     1      19.315 -26.265   6.472  1.00  0.00     0.038 C 
ATOM      3  O   UNL     1      19.192 -25.221   5.780  1.00  0.00    -0.550 OA
ATOM      4  O   UNL     1      20.026 -27.345   5.969  1.00  0.00    -0.550 OA
ENDROOT
TORSDOF 0
ENDMDL
MODEL 6
REMARK VINA RESULT:    -1.963     13.650     13.839
REMARK INTER + INTRA:          -1.963
REMARK INTER:                  -1.963
REMARK INTRA:                   0.000
REMARK UNBOUND:                 0.000
REMARK SMILES CC(=O)[O-]
REMARK SMILES IDX 1 1 2 2 3 3 4 4
REMARK H PARENT
REMARK Flexibility Score: inf
ROOT
ATOM      1  C   UNL     1      28.171 -26.057  -4.502  1.00  0.00     0.063 C 
ATOM      2  C   UNL     1      28.668 -27.006  -3.464  1.00  0.00     0.038 C 
ATOM      3  O   UNL     1      29.714 -27.676  -3.669  1.00  0.00    -0.550 OA
ATOM      4  O   UNL     1      27.949 -27.194  -2.291  1.00  0.00    -0.550 OA
ENDROOT
TORSDOF 0
ENDMDL
MODEL 7
REMARK VINA RESULT:    -1.925     11.582     11.797
REMARK INTER + INTRA:          -1.925
REMARK INTER:                  -1.925
REMARK INTRA:                   0.000
REMARK UNBOUND:                 0.000
REMARK SMILES CC(=O)[O-]
REMARK SMILES IDX 1 1 2 2 3 3 4 4
REMARK H PARENT
REMARK Flexibility Score: inf
ROOT
ATOM      1  C   UNL     1      29.090 -36.870  -2.082  1.00  0.00     0.063 C 
ATOM      2  C   UNL     1      29.043 -35.392  -1.890  1.00  0.00     0.038 C 
ATOM      3  O   UNL     1      28.227 -34.887  -1.074  1.00  0.00    -0.550 OA
ATOM      4  O   UNL     1      29.860 -34.564  -2.647  1.00  0.00    -0.550 OA
ENDROOT
TORSDOF 0
ENDMDL
MODEL 8
REMARK VINA RESULT:    -1.915      3.165      3.909
REMARK INTER + INTRA:          -1.915
REMARK INTER:                  -1.915
REMARK INTRA:                   0.000
REMARK UNBOUND:                 0.000
REMARK SMILES CC(=O)[O-]
REMARK SMILES IDX 1 1 2 2 3 3 4 4
REMARK H PARENT
REMARK Flexibility Score: inf
ROOT
ATOM      1  C   UNL     1      17.977 -37.475  -1.871  1.00  0.00     0.063 C 
ATOM      2  C   UNL     1      18.381 -37.706  -0.454  1.00  0.00     0.038 C 
ATOM      3  O   UNL     1      18.011 -36.908   0.446  1.00  0.00    -0.550 OA
ATOM      4  O   UNL     1      19.211 -38.771  -0.132  1.00  0.00    -0.550 OA
ENDROOT
TORSDOF 0
ENDMDL
MODEL 9
REMARK VINA RESULT:    -1.914      1.632      2.098
REMARK INTER + INTRA:          -1.914
REMARK INTER:                  -1.914
REMARK INTRA:                   0.000
REMARK UNBOUND:                 0.000
REMARK SMILES CC(=O)[O-]
REMARK SMILES IDX 1 1 2 2 3 3 4 4
REMARK H PARENT
REMARK Flexibility Score: inf
ROOT
ATOM      1  C   UNL     1      15.586 -34.871  -1.755  1.00  0.00     0.063 C 
ATOM      2  C   UNL     1      16.393 -33.628  -1.926  1.00  0.00     0.038 C 
ATOM      3  O   UNL     1      15.819 -32.519  -2.082  1.00  0.00    -0.550 OA
ATOM      4  O   UNL     1      17.779 -33.698  -1.968  1.00  0.00    -0.550 OA
ENDROOT
TORSDOF 0
ENDMDL
