MODEL 1
REMARK VINA RESULT:    -5.212      0.000      0.000
REMARK INTER + INTRA:          -5.212
REMARK INTER:                  -5.212
REMARK INTRA:                   0.000
REMARK UNBOUND:                 0.000
REMARK SMILES C=C1CCC[C@@]2(C)CC(=O)C(=C(C)C)C[C@@H]12
REMARK SMILES IDX 13 1 12 2 11 3 15 4 16 5 2 6 1 7 3 8 4 9 5 10 6 11 8 12 9 13
REMARK SMILES IDX 10 14 7 15 14 16
REMARK H PARENT
REMARK Flexibility Score: inf
ROOT
ATOM      1  C   UNL     1      -0.435  76.178 -22.894  1.00  0.00     0.039 C 
ATOM      2  C   UNL     1      -0.261  77.348 -21.956  1.00  0.00    -0.070 C 
ATOM      3  C   UNL     1      -0.144  77.146 -20.614  1.00  0.00    -0.006 C 
ATOM      4  C   UNL     1       0.261  78.235 -19.652  1.00  0.00     0.047 C 
ATOM      5  C   UNL     1       1.733  78.034 -19.191  1.00  0.00     0.025 C 
ATOM      6  C   UNL     1       2.015  78.943 -17.999  1.00  0.00    -0.073 C 
ATOM      7  C   UNL     1       1.934  80.278 -18.121  1.00  0.00     0.008 C 
ATOM      8  C   UNL     1       2.488  78.350 -16.705  1.00  0.00     0.031 C 
ATOM      9  C   UNL     1       3.623  77.392 -17.030  1.00  0.00     0.005 C 
ATOM     10  C   UNL     1       3.046  76.170 -17.745  1.00  0.00     0.008 C 
ATOM     11  C   UNL     1       2.145  76.485 -19.006  1.00  0.00    -0.018 C 
ATOM     12  C   UNL     1       0.864  75.580 -18.883  1.00  0.00     0.088 C 
ATOM     13  C   UNL     1      -0.107  75.812 -20.002  1.00  0.00     0.159 C 
ATOM     14  O   UNL     1      -0.941  74.917 -20.309  1.00  0.00    -0.295 OA
ATOM     15  C   UNL     1       2.929  76.036 -20.278  1.00  0.00     0.012 C 
ATOM     16  C   UNL     1      -0.109  78.721 -22.559  1.00  0.00     0.039 C 
ENDROOT
TORSDOF 0
ENDMDL
MODEL 2
REMARK VINA RESULT:    -5.155     10.400     12.444
REMARK INTER + INTRA:          -5.155
REMARK INTER:                  -5.155
REMARK INTRA:                   0.000
REMARK UNBOUND:                 0.000
REMARK SMILES C=C1CCC[C@@]2(C)CC(=O)C(=C(C)C)C[C@@H]12
REMARK SMILES IDX 13 1 12 2 11 3 15 4 16 5 2 6 1 7 3 8 4 9 5 10 6 11 8 12 9 13
REMARK SMILES IDX 10 14 7 15 14 16
REMARK H PARENT
REMARK Flexibility Score: inf
ROOT
ATOM      1  C   UNL     1      10.422  75.364 -29.742  1.00  0.00     0.039 C 
ATOM      2  C   UNL     1       9.214  76.114 -30.250  1.00  0.00    -0.070 C 
ATOM      3  C   UNL     1       8.087  75.444 -30.618  1.00  0.00    -0.006 C 
ATOM      4  C   UNL     1       6.778  76.134 -30.909  1.00  0.00     0.047 C 
ATOM      5  C   UNL     1       5.781  75.927 -29.735  1.00  0.00     0.025 C 
ATOM      6  C   UNL     1       4.386  76.354 -30.179  1.00  0.00    -0.073 C 
ATOM      7  C   UNL     1       4.139  77.623 -30.541  1.00  0.00     0.008 C 
ATOM      8  C   UNL     1       3.250  75.375 -30.114  1.00  0.00     0.031 C 
ATOM      9  C   UNL     1       3.286  74.725 -28.740  1.00  0.00     0.005 C 
ATOM     10  C   UNL     1       4.503  73.803 -28.663  1.00  0.00     0.008 C 
ATOM     11  C   UNL     1       5.885  74.469 -29.049  1.00  0.00    -0.018 C 
ATOM     12  C   UNL     1       6.622  73.458 -30.002  1.00  0.00     0.088 C 
ATOM     13  C   UNL     1       7.940  73.988 -30.486  1.00  0.00     0.159 C 
ATOM     14  O   UNL     1       8.834  73.191 -30.878  1.00  0.00    -0.295 OA
ATOM     15  C   UNL     1       6.732  74.606 -27.746  1.00  0.00     0.012 C 
ATOM     16  C   UNL     1       9.258  77.621 -30.229  1.00  0.00     0.039 C 
ENDROOT
TORSDOF 0
ENDMDL
MODEL 3
REMARK VINA RESULT:    -5.131      4.652      6.767
REMARK INTER + INTRA:          -5.131
REMARK INTER:                  -5.131
REMARK INTRA:                   0.000
REMARK UNBOUND:                 0.000
REMARK SMILES C=C1CCC[C@@]2(C)CC(=O)C(=C(C)C)C[C@@H]12
REMARK SMILES IDX 13 1 12 2 11 3 15 4 16 5 2 6 1 7 3 8 4 9 5 10 6 11 8 12 9 13
REMARK SMILES IDX 10 14 7 15 14 16
REMARK H PARENT
REMARK Flexibility Score: inf
ROOT
ATOM      1  C   UNL     1       3.046  78.031 -17.138  1.00  0.00     0.039 C 
ATOM      2  C   UNL     1       4.216  78.967 -16.952  1.00  0.00    -0.070 C 
ATOM      3  C   UNL     1       5.370  78.527 -16.379  1.00  0.00    -0.006 C 
ATOM      4  C   UNL     1       6.645  79.333 -16.374  1.00  0.00     0.047 C 
ATOM      5  C   UNL     1       7.657  78.756 -17.404  1.00  0.00     0.025 C 
ATOM      6  C   UNL     1       9.029  79.376 -17.161  1.00  0.00    -0.073 C 
ATOM      7  C   UNL     1       9.216  80.700 -17.289  1.00  0.00     0.008 C 
ATOM      8  C   UNL     1      10.208  78.492 -16.879  1.00  0.00     0.031 C 
ATOM      9  C   UNL     1      10.209  77.385 -17.922  1.00  0.00     0.005 C 
ATOM     10  C   UNL     1       9.035  76.446 -17.644  1.00  0.00     0.008 C 
ATOM     11  C   UNL     1       7.622  77.146 -17.510  1.00  0.00    -0.018 C 
ATOM     12  C   UNL     1       6.927  76.520 -16.247  1.00  0.00     0.088 C 
ATOM     13  C   UNL     1       5.584  77.131 -15.974  1.00  0.00     0.159 C 
ATOM     14  O   UNL     1       4.724  76.493 -15.308  1.00  0.00    -0.295 OA
ATOM     15  C   UNL     1       6.777  76.761 -18.764  1.00  0.00     0.012 C 
ATOM     16  C   UNL     1       4.105  80.360 -17.520  1.00  0.00     0.039 C 
ENDROOT
TORSDOF 0
ENDMDL
MODEL 4
REMARK VINA RESULT:    -5.131      4.993      7.322
REMARK INTER + INTRA:          -5.131
REMARK INTER:                  -5.131
REMARK INTRA:                   0.000
REMARK UNBOUND:                 0.000
REMARK SMILES C=C1CCC[C@@]2(C)CC(=O)C(=C(C)C)C[C@@H]12
REMARK SMILES IDX 13 1 12 2 11 3 15 4 16 5 2 6 1 7 3 8 4 9 5 10 6 11 8 12 9 13
REMARK SMILES IDX 10 14 7 15 14 16
REMARK H PARENT
REMARK Flexibility Score: inf
ROOT
ATOM      1  C   UNL     1       9.653  78.367 -18.523  1.00  0.00     0.039 C 
ATOM      2  C   UNL     1       8.787  77.435 -17.710  1.00  0.00    -0.070 C 
ATOM      3  C   UNL     1       7.862  77.932 -16.841  1.00  0.00    -0.006 C 
ATOM      4  C   UNL     1       6.815  77.073 -16.177  1.00  0.00     0.047 C 
ATOM      5  C   UNL     1       5.425  77.305 -16.833  1.00  0.00     0.025 C 
ATOM      6  C   UNL     1       4.345  76.680 -15.957  1.00  0.00    -0.073 C 
ATOM      7  C   UNL     1       4.332  75.358 -15.722  1.00  0.00     0.008 C 
ATOM      8  C   UNL     1       3.224  77.530 -15.433  1.00  0.00     0.031 C 
ATOM      9  C   UNL     1       2.678  78.335 -16.603  1.00  0.00     0.005 C 
ATOM     10  C   UNL     1       3.714  79.387 -17.001  1.00  0.00     0.008 C 
ATOM     11  C   UNL     1       5.170  78.835 -17.279  1.00  0.00    -0.018 C 
ATOM     12  C   UNL     1       6.167  79.803 -16.543  1.00  0.00     0.088 C 
ATOM     13  C   UNL     1       7.595  79.368 -16.687  1.00  0.00     0.159 C 
ATOM     14  O   UNL     1       8.527  80.206 -16.554  1.00  0.00    -0.295 OA
ATOM     15  C   UNL     1       5.439  78.945 -18.812  1.00  0.00     0.012 C 
ATOM     16  C   UNL     1       8.901  75.955 -17.971  1.00  0.00     0.039 C 
ENDROOT
TORSDOF 0
ENDMDL
MODEL 5
REMARK VINA RESULT:    -5.120      1.914      5.200
REMARK INTER + INTRA:          -5.120
REMARK INTER:                  -5.120
REMARK INTRA:                   0.000
REMARK UNBOUND:                 0.000
REMARK SMILES C=C1CCC[C@@]2(C)CC(=O)C(=C(C)C)C[C@@H]12
REMARK SMILES IDX 13 1 12 2 11 3 15 4 16 5 2 6 1 7 3 8 4 9 5 10 6 11 8 12 9 13
REMARK SMILES IDX 10 14 7 15 14 16
REMARK H PARENT
REMARK Flexibility Score: inf
ROOT
ATOM      1  C   UNL     1       3.644  78.635 -17.909  1.00  0.00     0.039 C 
ATOM      2  C   UNL     1       2.765  77.439 -18.184  1.00  0.00    -0.070 C 
ATOM      3  C   UNL     1       1.479  77.606 -18.600  1.00  0.00    -0.006 C 
ATOM      4  C   UNL     1       0.626  76.471 -19.111  1.00  0.00     0.047 C 
ATOM      5  C   UNL     1       0.491  76.547 -20.658  1.00  0.00     0.025 C 
ATOM      6  C   UNL     1      -0.613  75.598 -21.113  1.00  0.00    -0.073 C 
ATOM      7  C   UNL     1      -0.510  74.275 -20.901  1.00  0.00     0.008 C 
ATOM      8  C   UNL     1      -1.777  76.128 -21.898  1.00  0.00     0.031 C 
ATOM      9  C   UNL     1      -1.217  76.999 -23.011  1.00  0.00     0.005 C 
ATOM     10  C   UNL     1      -0.643  78.276 -22.396  1.00  0.00     0.008 C 
ATOM     11  C   UNL     1       0.397  78.056 -21.224  1.00  0.00    -0.018 C 
ATOM     12  C   UNL     1       0.002  79.057 -20.077  1.00  0.00     0.088 C 
ATOM     13  C   UNL     1       0.888  78.922 -18.874  1.00  0.00     0.159 C 
ATOM     14  O   UNL     1       1.009  79.885 -18.069  1.00  0.00    -0.295 OA
ATOM     15  C   UNL     1       1.807  78.464 -21.753  1.00  0.00     0.012 C 
ATOM     16  C   UNL     1       3.387  76.068 -18.092  1.00  0.00     0.039 C 
ENDROOT
TORSDOF 0
ENDMDL
MODEL 6
REMARK VINA RESULT:    -5.112     10.836     12.836
REMARK INTER + INTRA:          -5.112
REMARK INTER:                  -5.112
REMARK INTRA:                   0.000
REMARK UNBOUND:                 0.000
REMARK SMILES C=C1CCC[C@@]2(C)CC(=O)C(=C(C)C)C[C@@H]12
REMARK SMILES IDX 13 1 12 2 11 3 15 4 16 5 2 6 1 7 3 8 4 9 5 10 6 11 8 12 9 13
REMARK SMILES IDX 10 14 7 15 14 16
REMARK H PARENT
REMARK Flexibility Score: inf
ROOT
ATOM      1  C   UNL     1       3.715  76.117 -28.747  1.00  0.00     0.039 C 
ATOM      2  C   UNL     1       4.645  74.980 -29.096  1.00  0.00    -0.070 C 
ATOM      3  C   UNL     1       5.575  75.124 -30.080  1.00  0.00    -0.006 C 
ATOM      4  C   UNL     1       6.678  74.124 -30.321  1.00  0.00     0.047 C 
ATOM      5  C   UNL     1       8.036  74.675 -29.801  1.00  0.00     0.025 C 
ATOM      6  C   UNL     1       9.169  73.803 -30.331  1.00  0.00    -0.073 C 
ATOM      7  C   UNL     1       9.245  72.502 -30.002  1.00  0.00     0.008 C 
ATOM      8  C   UNL     1      10.269  74.420 -31.143  1.00  0.00     0.031 C 
ATOM      9  C   UNL     1      10.743  75.660 -30.401  1.00  0.00     0.005 C 
ATOM     10  C   UNL     1       9.652  76.728 -30.482  1.00  0.00     0.008 C 
ATOM     11  C   UNL     1       8.212  76.265 -30.019  1.00  0.00    -0.018 C 
ATOM     12  C   UNL     1       7.200  76.794 -31.100  1.00  0.00     0.088 C 
ATOM     13  C   UNL     1       5.787  76.383 -30.807  1.00  0.00     0.159 C 
ATOM     14  O   UNL     1       4.826  77.045 -31.284  1.00  0.00    -0.295 OA
ATOM     15  C   UNL     1       7.890  76.978 -28.670  1.00  0.00     0.012 C 
ATOM     16  C   UNL     1       4.584  73.732 -28.251  1.00  0.00     0.039 C 
ENDROOT
TORSDOF 0
ENDMDL
MODEL 7
REMARK VINA RESULT:    -5.109      5.285      8.864
REMARK INTER + INTRA:          -5.109
REMARK INTER:                  -5.109
REMARK INTRA:                   0.000
REMARK UNBOUND:                 0.000
REMARK SMILES C=C1CCC[C@@]2(C)CC(=O)C(=C(C)C)C[C@@H]12
REMARK SMILES IDX 13 1 12 2 11 3 15 4 16 5 2 6 1 7 3 8 4 9 5 10 6 11 8 12 9 13
REMARK SMILES IDX 10 14 7 15 14 16
REMARK H PARENT
REMARK Flexibility Score: inf
ROOT
ATOM      1  C   UNL     1       0.635  77.242 -23.339  1.00  0.00     0.039 C 
ATOM      2  C   UNL     1       0.687  75.975 -24.158  1.00  0.00    -0.070 C 
ATOM      3  C   UNL     1       0.340  75.988 -25.475  1.00  0.00    -0.006 C 
ATOM      4  C   UNL     1       0.587  74.823 -26.401  1.00  0.00     0.047 C 
ATOM      5  C   UNL     1       1.786  75.124 -27.344  1.00  0.00     0.025 C 
ATOM      6  C   UNL     1       1.818  74.088 -28.463  1.00  0.00    -0.073 C 
ATOM      7  C   UNL     1       1.993  72.785 -28.187  1.00  0.00     0.008 C 
ATOM      8  C   UNL     1       1.757  74.534 -29.895  1.00  0.00     0.031 C 
ATOM      9  C   UNL     1       2.769  75.656 -30.066  1.00  0.00     0.005 C 
ATOM     10  C   UNL     1       2.261  76.894 -29.327  1.00  0.00     0.008 C 
ATOM     11  C   UNL     1       1.867  76.667 -27.812  1.00  0.00    -0.018 C 
ATOM     12  C   UNL     1       0.487  77.388 -27.592  1.00  0.00     0.088 C 
ATOM     13  C   UNL     1      -0.031  77.212 -26.196  1.00  0.00     0.159 C 
ATOM     14  O   UNL     1      -0.856  78.039 -25.720  1.00  0.00    -0.295 OA
ATOM     15  C   UNL     1       2.932  77.386 -26.928  1.00  0.00     0.012 C 
ATOM     16  C   UNL     1       1.237  74.733 -23.504  1.00  0.00     0.039 C 
ENDROOT
TORSDOF 0
ENDMDL
MODEL 8
REMARK VINA RESULT:    -5.097     12.254     14.337
REMARK INTER + INTRA:          -5.097
REMARK INTER:                  -5.097
REMARK INTRA:                   0.000
REMARK UNBOUND:                 0.000
REMARK SMILES C=C1CCC[C@@]2(C)CC(=O)C(=C(C)C)C[C@@H]12
REMARK SMILES IDX 13 1 12 2 11 3 15 4 16 5 2 6 1 7 3 8 4 9 5 10 6 11 8 12 9 13
REMARK SMILES IDX 10 14 7 15 14 16
REMARK H PARENT
REMARK Flexibility Score: inf
ROOT
ATOM      1  C   UNL     1      14.208  77.002 -23.643  1.00  0.00     0.039 C 
ATOM      2  C   UNL     1      13.918  77.562 -25.014  1.00  0.00    -0.070 C 
ATOM      3  C   UNL     1      13.819  76.737 -26.093  1.00  0.00    -0.006 C 
ATOM      4  C   UNL     1      13.307  77.195 -27.435  1.00  0.00     0.047 C 
ATOM      5  C   UNL     1      11.862  76.672 -27.673  1.00  0.00     0.025 C 
ATOM      6  C   UNL     1      11.489  76.875 -29.138  1.00  0.00    -0.073 C 
ATOM      7  C   UNL     1      11.437  78.107 -29.669  1.00  0.00     0.008 C 
ATOM      8  C   UNL     1      11.076  75.698 -29.972  1.00  0.00     0.031 C 
ATOM      9  C   UNL     1      10.042  74.916 -29.177  1.00  0.00     0.005 C 
ATOM     10  C   UNL     1      10.739  74.238 -27.997  1.00  0.00     0.008 C 
ATOM     11  C   UNL     1      11.606  75.193 -27.081  1.00  0.00    -0.018 C 
ATOM     12  C   UNL     1      12.970  74.453 -26.822  1.00  0.00     0.088 C 
ATOM     13  C   UNL     1      13.915  75.274 -25.996  1.00  0.00     0.159 C 
ATOM     14  O   UNL     1      14.834  74.710 -25.342  1.00  0.00    -0.295 OA
ATOM     15  C   UNL     1      10.872  75.339 -25.712  1.00  0.00     0.012 C 
ATOM     16  C   UNL     1      13.631  79.038 -25.128  1.00  0.00     0.039 C 
ENDROOT
TORSDOF 0
ENDMDL
MODEL 9
REMARK VINA RESULT:    -5.056     12.618     14.011
REMARK INTER + INTRA:          -5.056
REMARK INTER:                  -5.056
REMARK INTRA:                   0.000
REMARK UNBOUND:                 0.000
REMARK SMILES C=C1CCC[C@@]2(C)CC(=O)C(=C(C)C)C[C@@H]12
REMARK SMILES IDX 13 1 12 2 11 3 15 4 16 5 2 6 1 7 3 8 4 9 5 10 6 11 8 12 9 13
REMARK SMILES IDX 10 14 7 15 14 16
REMARK H PARENT
REMARK Flexibility Score: inf
ROOT
ATOM      1  C   UNL     1       9.900  76.171 -29.321  1.00  0.00     0.039 C 
ATOM      2  C   UNL     1      10.833  75.312 -28.502  1.00  0.00    -0.070 C 
ATOM      3  C   UNL     1      12.088  75.746 -28.201  1.00  0.00    -0.006 C 
ATOM      4  C   UNL     1      12.981  75.051 -27.203  1.00  0.00     0.047 C 
ATOM      5  C   UNL     1      13.046  75.860 -25.876  1.00  0.00     0.025 C 
ATOM      6  C   UNL     1      14.181  75.319 -25.013  1.00  0.00    -0.073 C 
ATOM      7  C   UNL     1      14.163  74.050 -24.573  1.00  0.00     0.008 C 
ATOM      8  C   UNL     1      15.278  76.238 -24.562  1.00  0.00     0.031 C 
ATOM      9  C   UNL     1      14.622  77.490 -24.002  1.00  0.00     0.005 C 
ATOM     10  C   UNL     1      14.003  78.279 -25.156  1.00  0.00     0.008 C 
ATOM     11  C   UNL     1      13.029  77.459 -26.094  1.00  0.00    -0.018 C 
ATOM     12  C   UNL     1      13.415  77.823 -27.574  1.00  0.00     0.088 C 
ATOM     13  C   UNL     1      12.591  77.073 -28.579  1.00  0.00     0.159 C 
ATOM     14  O   UNL     1      12.450  77.530 -29.746  1.00  0.00    -0.295 OA
ATOM     15  C   UNL     1      11.577  77.968 -25.837  1.00  0.00     0.012 C 
ATOM     16  C   UNL     1      10.294  74.021 -27.938  1.00  0.00     0.039 C 
ENDROOT
TORSDOF 0
ENDMDL
