MODEL 1
REMARK VINA RESULT:    -3.708      0.000      0.000
REMARK INTER + INTRA:          -4.386
REMARK INTER:                  -4.359
REMARK INTRA:                  -0.028
REMARK UNBOUND:                -0.028
REMARK SMILES CCCCC(=O)[O-]
REMARK SMILES IDX 4 1 5 2 6 3 7 4 3 5 2 6 1 7
REMARK H PARENT
REMARK Flexibility Score: inf
ROOT
ATOM      1  C   UNL     1     117.702 164.671 118.011  1.00  0.00     0.053 C 
ENDROOT
BRANCH   1   2
ATOM      2  C   UNL     1     117.686 165.631 116.862  1.00  0.00     0.041 C 
ATOM      3  O   UNL     1     117.053 166.715 116.952  1.00  0.00    -0.550 OA
ATOM      4  O   UNL     1     118.343 165.315 115.678  1.00  0.00    -0.550 OA
ENDBRANCH   1   2
BRANCH   1   5
ATOM      5  C   UNL     1     116.893 165.179 119.217  1.00  0.00     0.006 C 
BRANCH   5   6
ATOM      6  C   UNL     1     117.420 164.682 120.575  1.00  0.00    -0.003 C 
ATOM      7  C   UNL     1     117.703 163.180 120.598  1.00  0.00     0.004 C 
ENDBRANCH   5   6
ENDBRANCH   1   5
TORSDOF 3
ENDMDL
MODEL 2
REMARK VINA RESULT:    -3.702      3.064      4.162
REMARK INTER + INTRA:          -4.379
REMARK INTER:                  -4.362
REMARK INTRA:                  -0.016
REMARK UNBOUND:                -0.028
REMARK SMILES CCCCC(=O)[O-]
REMARK SMILES IDX 4 1 5 2 6 3 7 4 3 5 2 6 1 7
REMARK H PARENT
REMARK Flexibility Score: inf
ROOT
ATOM      1  C   UNL     1     116.942 165.062 119.904  1.00  0.00     0.053 C 
ENDROOT
BRANCH   1   2
ATOM      2  C   UNL     1     117.755 164.403 120.976  1.00  0.00     0.041 C 
ATOM      3  O   UNL     1     118.426 165.101 121.781  1.00  0.00    -0.550 OA
ATOM      4  O   UNL     1     117.801 163.017 121.066  1.00  0.00    -0.550 OA
ENDBRANCH   1   2
BRANCH   1   5
ATOM      5  C   UNL     1     117.335 164.593 118.493  1.00  0.00     0.006 C 
BRANCH   5   6
ATOM      6  C   UNL     1     117.469 165.736 117.471  1.00  0.00    -0.003 C 
ATOM      7  C   UNL     1     118.168 165.311 116.181  1.00  0.00     0.004 C 
ENDBRANCH   5   6
ENDBRANCH   1   5
TORSDOF 3
ENDMDL
MODEL 3
REMARK VINA RESULT:    -3.634      1.968      3.120
REMARK INTER + INTRA:          -4.299
REMARK INTER:                  -4.277
REMARK INTRA:                  -0.021
REMARK UNBOUND:                -0.028
REMARK SMILES CCCCC(=O)[O-]
REMARK SMILES IDX 4 1 5 2 6 3 7 4 3 5 2 6 1 7
REMARK H PARENT
REMARK Flexibility Score: inf
ROOT
ATOM      1  C   UNL     1     117.667 164.424 120.740  1.00  0.00     0.053 C 
ENDROOT
BRANCH   1   2
ATOM      2  C   UNL     1     117.043 164.995 119.505  1.00  0.00     0.041 C 
ATOM      3  O   UNL     1     117.563 164.785 118.377  1.00  0.00    -0.550 OA
ATOM      4  O   UNL     1     115.905 165.789 119.599  1.00  0.00    -0.550 OA
ENDBRANCH   1   2
BRANCH   1   5
ATOM      5  C   UNL     1     117.851 162.899 120.658  1.00  0.00     0.006 C 
BRANCH   5   6
ATOM      6  C   UNL     1     118.982 162.359 121.552  1.00  0.00    -0.003 C 
ATOM      7  C   UNL     1     119.476 160.977 121.127  1.00  0.00     0.004 C 
ENDBRANCH   5   6
ENDBRANCH   1   5
TORSDOF 3
ENDMDL
MODEL 4
REMARK VINA RESULT:    -3.608      3.697      4.682
REMARK INTER + INTRA:          -4.268
REMARK INTER:                  -4.225
REMARK INTRA:                  -0.043
REMARK UNBOUND:                -0.028
REMARK SMILES CCCCC(=O)[O-]
REMARK SMILES IDX 4 1 5 2 6 3 7 4 3 5 2 6 1 7
REMARK H PARENT
REMARK Flexibility Score: inf
ROOT
ATOM      1  C   UNL     1     117.187 165.279 121.880  1.00  0.00     0.053 C 
ENDROOT
BRANCH   1   2
ATOM      2  C   UNL     1     116.069 165.989 122.579  1.00  0.00     0.041 C 
ATOM      3  O   UNL     1     115.930 165.878 123.825  1.00  0.00    -0.550 OA
ATOM      4  O   UNL     1     115.159 166.747 121.851  1.00  0.00    -0.550 OA
ENDBRANCH   1   2
BRANCH   1   5
ATOM      5  C   UNL     1     116.948 165.147 120.366  1.00  0.00     0.006 C 
BRANCH   5   6
ATOM      6  C   UNL     1     117.436 163.814 119.771  1.00  0.00    -0.003 C 
ATOM      7  C   UNL     1     117.858 162.800 120.834  1.00  0.00     0.004 C 
ENDBRANCH   5   6
ENDBRANCH   1   5
TORSDOF 3
ENDMDL
MODEL 5
REMARK VINA RESULT:    -3.486      3.580      4.023
REMARK INTER + INTRA:          -4.125
REMARK INTER:                  -4.042
REMARK INTRA:                  -0.083
REMARK UNBOUND:                -0.028
REMARK SMILES CCCCC(=O)[O-]
REMARK SMILES IDX 4 1 5 2 6 3 7 4 3 5 2 6 1 7
REMARK H PARENT
REMARK Flexibility Score: inf
ROOT
ATOM      1  C   UNL     1     117.230 164.965 120.221  1.00  0.00     0.053 C 
ENDROOT
BRANCH   1   2
ATOM      2  C   UNL     1     117.568 165.307 121.639  1.00  0.00     0.041 C 
ATOM      3  O   UNL     1     116.651 165.492 122.482  1.00  0.00    -0.550 OA
ATOM      4  O   UNL     1     118.896 165.454 122.026  1.00  0.00    -0.550 OA
ENDBRANCH   1   2
BRANCH   1   5
ATOM      5  C   UNL     1     117.728 163.567 119.816  1.00  0.00     0.006 C 
BRANCH   5   6
ATOM      6  C   UNL     1     117.621 162.518 120.937  1.00  0.00    -0.003 C 
ATOM      7  C   UNL     1     118.959 161.865 121.281  1.00  0.00     0.004 C 
ENDBRANCH   5   6
ENDBRANCH   1   5
TORSDOF 3
ENDMDL
MODEL 6
REMARK VINA RESULT:    -3.462      4.156      5.247
REMARK INTER + INTRA:          -4.097
REMARK INTER:                  -4.078
REMARK INTRA:                  -0.019
REMARK UNBOUND:                -0.028
REMARK SMILES CCCCC(=O)[O-]
REMARK SMILES IDX 4 1 5 2 6 3 7 4 3 5 2 6 1 7
REMARK H PARENT
REMARK Flexibility Score: inf
ROOT
ATOM      1  C   UNL     1     116.686 165.523 122.087  1.00  0.00     0.053 C 
ENDROOT
BRANCH   1   2
ATOM      2  C   UNL     1     117.125 166.393 123.224  1.00  0.00     0.041 C 
ATOM      3  O   UNL     1     118.062 166.023 123.979  1.00  0.00    -0.550 OA
ATOM      4  O   UNL     1     116.477 167.598 123.474  1.00  0.00    -0.550 OA
ENDBRANCH   1   2
BRANCH   1   5
ATOM      5  C   UNL     1     117.865 164.823 121.389  1.00  0.00     0.006 C 
BRANCH   5   6
ATOM      6  C   UNL     1     117.468 164.057 120.115  1.00  0.00    -0.003 C 
ATOM      7  C   UNL     1     117.281 164.965 118.900  1.00  0.00     0.004 C 
ENDBRANCH   5   6
ENDBRANCH   1   5
TORSDOF 3
ENDMDL
MODEL 7
REMARK VINA RESULT:    -3.430      1.998      2.706
REMARK INTER + INTRA:          -4.059
REMARK INTER:                  -4.027
REMARK INTRA:                  -0.032
REMARK UNBOUND:                -0.028
REMARK SMILES CCCCC(=O)[O-]
REMARK SMILES IDX 4 1 5 2 6 3 7 4 3 5 2 6 1 7
REMARK H PARENT
REMARK Flexibility Score: inf
ROOT
ATOM      1  C   UNL     1     117.556 164.248 120.042  1.00  0.00     0.053 C 
ENDROOT
BRANCH   1   2
ATOM      2  C   UNL     1     116.909 165.230 119.115  1.00  0.00     0.041 C 
ATOM      3  O   UNL     1     115.895 165.878 119.485  1.00  0.00    -0.550 OA
ATOM      4  O   UNL     1     117.405 165.407 117.828  1.00  0.00    -0.550 OA
ENDBRANCH   1   2
BRANCH   1   5
ATOM      5  C   UNL     1     117.499 164.698 121.512  1.00  0.00     0.006 C 
BRANCH   5   6
ATOM      6  C   UNL     1     118.863 165.122 122.087  1.00  0.00    -0.003 C 
ATOM      7  C   UNL     1     118.746 166.107 123.250  1.00  0.00     0.004 C 
ENDBRANCH   5   6
ENDBRANCH   1   5
TORSDOF 3
ENDMDL
MODEL 8
REMARK VINA RESULT:    -3.375      4.522      5.503
REMARK INTER + INTRA:          -3.995
REMARK INTER:                  -3.980
REMARK INTRA:                  -0.015
REMARK UNBOUND:                -0.028
REMARK SMILES CCCCC(=O)[O-]
REMARK SMILES IDX 4 1 5 2 6 3 7 4 3 5 2 6 1 7
REMARK H PARENT
REMARK Flexibility Score: inf
ROOT
ATOM      1  C   UNL     1     116.135 165.888 122.244  1.00  0.00     0.053 C 
ENDROOT
BRANCH   1   2
ATOM      2  C   UNL     1     116.174 166.600 123.561  1.00  0.00     0.041 C 
ATOM      3  O   UNL     1     116.507 167.813 123.615  1.00  0.00    -0.550 OA
ATOM      4  O   UNL     1     115.877 165.917 124.735  1.00  0.00    -0.550 OA
ENDBRANCH   1   2
BRANCH   1   5
ATOM      5  C   UNL     1     117.480 165.231 121.888  1.00  0.00     0.006 C 
BRANCH   5   6
ATOM      6  C   UNL     1     117.459 164.446 120.564  1.00  0.00    -0.003 C 
ATOM      7  C   UNL     1     117.799 162.967 120.736  1.00  0.00     0.004 C 
ENDBRANCH   5   6
ENDBRANCH   1   5
TORSDOF 3
ENDMDL
MODEL 9
REMARK VINA RESULT:    -3.304     13.173     13.842
REMARK INTER + INTRA:          -3.911
REMARK INTER:                  -3.860
REMARK INTRA:                  -0.051
REMARK UNBOUND:                -0.028
REMARK SMILES CCCCC(=O)[O-]
REMARK SMILES IDX 4 1 5 2 6 3 7 4 3 5 2 6 1 7
REMARK H PARENT
REMARK Flexibility Score: inf
ROOT
ATOM      1  C   UNL     1     124.903 165.194 130.202  1.00  0.00     0.053 C 
ENDROOT
BRANCH   1   2
ATOM      2  C   UNL     1     125.931 164.427 129.428  1.00  0.00     0.041 C 
ATOM      3  O   UNL     1     127.061 164.933 129.203  1.00  0.00    -0.550 OA
ATOM      4  O   UNL     1     125.631 163.166 128.927  1.00  0.00    -0.550 OA
ENDBRANCH   1   2
BRANCH   1   5
ATOM      5  C   UNL     1     123.930 165.961 129.291  1.00  0.00     0.006 C 
BRANCH   5   6
ATOM      6  C   UNL     1     124.489 167.294 128.762  1.00  0.00    -0.003 C 
ATOM      7  C   UNL     1     124.116 168.492 129.633  1.00  0.00     0.004 C 
ENDBRANCH   5   6
ENDBRANCH   1   5
TORSDOF 3
ENDMDL
