MODEL 1
REMARK VINA RESULT:     7.002      0.000      0.000
REMARK INTER + INTRA:           7.002
REMARK INTER:                   7.002
REMARK INTRA:                   0.000
REMARK UNBOUND:                 0.000
REMARK SMILES O=c1ccc2ccc3occc3c2o1
REMARK SMILES IDX 6 1 7 2 8 3 12 4 11 5 10 6 9 7 13 8 5 9 4 10 3 11 2 12 1 13
REMARK SMILES IDX 14 14
REMARK H PARENT
REMARK Flexibility Score: inf
ROOT
ATOM      1  C   UNL     1      94.364  17.034 118.471  1.00  0.00     0.016 A 
ATOM      2  C   UNL     1      95.022  15.818 118.733  1.00  0.00     0.048 A 
ATOM      3  C   UNL     1      94.445  14.945 119.654  1.00  0.00     0.137 A 
ATOM      4  C   UNL     1      93.273  15.242 120.296  1.00  0.00     0.064 A 
ATOM      5  C   UNL     1      92.991  14.180 121.125  1.00  0.00     0.054 A 
ATOM      6  C   UNL     1      94.039  13.290 120.921  1.00  0.00     0.196 A 
ATOM      7  O   UNL     1      94.892  13.774 120.036  1.00  0.00    -0.464 OA
ATOM      8  C   UNL     1      92.592  16.435 120.065  1.00  0.00     0.149 A 
ATOM      9  C   UNL     1      93.151  17.346 119.133  1.00  0.00     0.018 A 
ATOM     10  C   UNL     1      92.472  18.545 118.896  1.00  0.00     0.019 A 
ATOM     11  C   UNL     1      91.280  18.804 119.576  1.00  0.00     0.094 A 
ATOM     12  C   UNL     1      90.792  17.853 120.482  1.00  0.00     0.336 A 
ATOM     13  O   UNL     1      89.719  18.072 121.102  1.00  0.00    -0.246 OA
ATOM     14  O   UNL     1      91.454  16.719 120.692  1.00  0.00    -0.422 OA
ENDROOT
TORSDOF 0
ENDMDL
MODEL 2
REMARK VINA RESULT:     8.803      4.723      7.297
REMARK INTER + INTRA:           8.803
REMARK INTER:                   8.803
REMARK INTRA:                   0.000
REMARK UNBOUND:                 0.000
REMARK SMILES O=c1ccc2ccc3occc3c2o1
REMARK SMILES IDX 6 1 7 2 8 3 12 4 11 5 10 6 9 7 13 8 5 9 4 10 3 11 2 12 1 13
REMARK SMILES IDX 14 14
REMARK H PARENT
REMARK Flexibility Score: inf
ROOT
ATOM      1  C   UNL     1      85.972  20.347 121.043  1.00  0.00     0.016 A 
ATOM      2  C   UNL     1      87.337  20.681 121.124  1.00  0.00     0.048 A 
ATOM      3  C   UNL     1      88.270  19.646 121.068  1.00  0.00     0.137 A 
ATOM      4  C   UNL     1      87.891  18.337 120.938  1.00  0.00     0.064 A 
ATOM      5  C   UNL     1      89.044  17.587 120.915  1.00  0.00     0.054 A 
ATOM      6  C   UNL     1      90.069  18.519 121.036  1.00  0.00     0.196 A 
ATOM      7  O   UNL     1      89.575  19.741 121.125  1.00  0.00    -0.464 OA
ATOM      8  C   UNL     1      86.551  17.966 120.855  1.00  0.00     0.149 A 
ATOM      9  C   UNL     1      85.575  18.994 120.909  1.00  0.00     0.018 A 
ATOM     10  C   UNL     1      84.228  18.628 120.826  1.00  0.00     0.019 A 
ATOM     11  C   UNL     1      83.891  17.280 120.694  1.00  0.00     0.094 A 
ATOM     12  C   UNL     1      84.913  16.323 120.648  1.00  0.00     0.336 A 
ATOM     13  O   UNL     1      84.625  15.103 120.530  1.00  0.00    -0.246 OA
ATOM     14  O   UNL     1      86.188  16.692 120.729  1.00  0.00    -0.422 OA
ENDROOT
TORSDOF 0
ENDMDL
