MODEL 1
REMARK VINA RESULT:    -4.848      0.000      0.000
REMARK INTER + INTRA:          -5.726
REMARK INTER:                  -5.557
REMARK INTRA:                  -0.169
REMARK UNBOUND:                -0.169
REMARK SMILES CC=Cc1ccc(O)c(OC)c1
REMARK SMILES IDX 4 1 12 2 9 3 7 4 6 5 5 6 3 7 1 8 2 9 10 10 11 11 8 12
REMARK H PARENT 8 13
REMARK Flexibility Score: inf
ROOT
ATOM      1  C   UNL     1      12.054 -11.371 -43.978  1.00  0.00    -0.022 A 
ATOM      2  C   UNL     1      11.718 -10.010 -43.887  1.00  0.00     0.058 A 
ATOM      3  C   UNL     1      10.472  -9.541 -44.348  1.00  0.00     0.161 A 
ATOM      4  C   UNL     1       9.563 -10.447 -44.912  1.00  0.00     0.157 A 
ATOM      5  C   UNL     1       9.897 -11.802 -45.019  1.00  0.00     0.051 A 
ATOM      6  C   UNL     1      11.133 -12.262 -44.560  1.00  0.00     0.012 A 
ENDROOT
BRANCH   1   7
ATOM      7  C   UNL     1      13.384 -11.809 -43.486  1.00  0.00     0.003 C 
ATOM      8  C   UNL     1      15.841 -11.985 -43.526  1.00  0.00     0.035 C 
ATOM      9  C   UNL     1      14.542 -11.491 -44.077  1.00  0.00    -0.030 C 
ENDBRANCH   1   7
BRANCH   3  10
ATOM     10  O   UNL     1      10.102  -8.190 -44.263  1.00  0.00    -0.493 OA
ATOM     11  C   UNL     1       9.790  -7.513 -43.050  1.00  0.00     0.278 C 
ENDBRANCH   3  10
BRANCH   4  12
ATOM     12  O   UNL     1       8.328  -9.990 -45.369  1.00  0.00    -0.504 OA
ATOM     13  H   UNL     1       7.458 -10.329 -44.974  1.00  0.00     0.293 HD
ENDBRANCH   4  12
TORSDOF 3
ENDMDL
MODEL 2
REMARK VINA RESULT:    -4.834      1.968      2.962
REMARK INTER + INTRA:          -5.709
REMARK INTER:                  -5.557
REMARK INTRA:                  -0.152
REMARK UNBOUND:                -0.169
REMARK SMILES CC=Cc1ccc(O)c(OC)c1
REMARK SMILES IDX 4 1 12 2 9 3 7 4 6 5 5 6 3 7 1 8 2 9 10 10 11 11 8 12
REMARK H PARENT 8 13
REMARK Flexibility Score: inf
ROOT
ATOM      1  C   UNL     1      11.437 -10.123 -43.601  1.00  0.00    -0.022 A 
ATOM      2  C   UNL     1      10.987  -9.909 -42.287  1.00  0.00     0.058 A 
ATOM      3  C   UNL     1      10.294  -8.732 -41.942  1.00  0.00     0.161 A 
ATOM      4  C   UNL     1      10.062  -7.760 -42.924  1.00  0.00     0.157 A 
ATOM      5  C   UNL     1      10.519  -7.959 -44.231  1.00  0.00     0.051 A 
ATOM      6  C   UNL     1      11.206  -9.127 -44.569  1.00  0.00     0.012 A 
ENDROOT
BRANCH   1   7
ATOM      7  C   UNL     1      12.170 -11.377 -43.907  1.00  0.00     0.003 C 
ATOM      8  C   UNL     1      14.090 -12.919 -43.854  1.00  0.00     0.035 C 
ATOM      9  C   UNL     1      13.415 -11.636 -43.490  1.00  0.00    -0.030 C 
ENDBRANCH   1   7
BRANCH   3  10
ATOM     10  O   UNL     1       9.824  -8.494 -40.641  1.00  0.00    -0.493 OA
ATOM     11  C   UNL     1      10.470  -8.943 -39.455  1.00  0.00     0.278 C 
ENDBRANCH   3  10
BRANCH   4  12
ATOM     12  O   UNL     1       9.376  -6.593 -42.589  1.00  0.00    -0.504 OA
ATOM     13  H   UNL     1       9.171  -6.357 -41.625  1.00  0.00     0.293 HD
ENDBRANCH   4  12
TORSDOF 3
ENDMDL
MODEL 3
REMARK VINA RESULT:    -4.520      1.110      2.774
REMARK INTER + INTRA:          -5.349
REMARK INTER:                  -5.185
REMARK INTRA:                  -0.164
REMARK UNBOUND:                -0.169
REMARK SMILES CC=Cc1ccc(O)c(OC)c1
REMARK SMILES IDX 4 1 12 2 9 3 7 4 6 5 5 6 3 7 1 8 2 9 10 10 11 11 8 12
REMARK H PARENT 8 13
REMARK Flexibility Score: inf
ROOT
ATOM      1  C   UNL     1      11.946 -11.146 -44.001  1.00  0.00    -0.022 A 
ATOM      2  C   UNL     1      11.106 -12.097 -44.605  1.00  0.00     0.058 A 
ATOM      3  C   UNL     1       9.842 -11.730 -45.107  1.00  0.00     0.161 A 
ATOM      4  C   UNL     1       9.417 -10.400 -44.990  1.00  0.00     0.157 A 
ATOM      5  C   UNL     1      10.242  -9.450 -44.376  1.00  0.00     0.051 A 
ATOM      6  C   UNL     1      11.494  -9.818 -43.881  1.00  0.00     0.012 A 
ENDROOT
BRANCH   1   7
ATOM      7  C   UNL     1      13.264 -11.589 -43.481  1.00  0.00     0.003 C 
ATOM      8  C   UNL     1      15.703 -11.928 -43.556  1.00  0.00     0.035 C 
ATOM      9  C   UNL     1      14.417 -11.440 -44.143  1.00  0.00    -0.030 C 
ENDBRANCH   1   7
BRANCH   3  10
ATOM     10  O   UNL     1       8.984 -12.654 -45.724  1.00  0.00    -0.493 OA
ATOM     11  C   UNL     1       8.393 -13.770 -45.066  1.00  0.00     0.278 C 
ENDBRANCH   3  10
BRANCH   4  12
ATOM     12  O   UNL     1       8.167 -10.030 -45.485  1.00  0.00    -0.504 OA
ATOM     13  H   UNL     1       7.425  -9.714 -44.870  1.00  0.00     0.293 HD
ENDBRANCH   4  12
TORSDOF 3
ENDMDL
MODEL 4
REMARK VINA RESULT:    -4.449      2.768      4.747
REMARK INTER + INTRA:          -5.268
REMARK INTER:                  -5.093
REMARK INTRA:                  -0.175
REMARK UNBOUND:                -0.169
REMARK SMILES CC=Cc1ccc(O)c(OC)c1
REMARK SMILES IDX 4 1 12 2 9 3 7 4 6 5 5 6 3 7 1 8 2 9 10 10 11 11 8 12
REMARK H PARENT 8 13
REMARK Flexibility Score: inf
ROOT
ATOM      1  C   UNL     1      11.224 -10.800 -44.494  1.00  0.00    -0.022 A 
ATOM      2  C   UNL     1      12.445 -10.880 -43.804  1.00  0.00     0.058 A 
ATOM      3  C   UNL     1      13.255 -12.029 -43.897  1.00  0.00     0.161 A 
ATOM      4  C   UNL     1      12.827 -13.108 -44.682  1.00  0.00     0.157 A 
ATOM      5  C   UNL     1      11.605 -13.042 -45.361  1.00  0.00     0.051 A 
ATOM      6  C   UNL     1      10.806 -11.901 -45.266  1.00  0.00     0.012 A 
ENDROOT
BRANCH   1   7
ATOM      7  C   UNL     1      10.407  -9.569 -44.353  1.00  0.00     0.003 C 
ATOM      8  C   UNL     1       9.737  -7.430 -43.333  1.00  0.00     0.035 C 
ATOM      9  C   UNL     1      10.616  -8.636 -43.417  1.00  0.00    -0.030 C 
ENDBRANCH   1   7
BRANCH   3  10
ATOM     10  O   UNL     1      14.483 -12.136 -43.227  1.00  0.00    -0.493 OA
ATOM     11  C   UNL     1      15.698 -11.539 -43.668  1.00  0.00     0.278 C 
ENDBRANCH   3  10
BRANCH   4  12
ATOM     12  O   UNL     1      13.624 -14.248 -44.778  1.00  0.00    -0.504 OA
ATOM     13  H   UNL     1      14.092 -14.639 -43.968  1.00  0.00     0.293 HD
ENDBRANCH   4  12
TORSDOF 3
ENDMDL
MODEL 5
REMARK VINA RESULT:    -4.435      1.262      1.658
REMARK INTER + INTRA:          -5.252
REMARK INTER:                  -5.093
REMARK INTRA:                  -0.159
REMARK UNBOUND:                -0.169
REMARK SMILES CC=Cc1ccc(O)c(OC)c1
REMARK SMILES IDX 4 1 12 2 9 3 7 4 6 5 5 6 3 7 1 8 2 9 10 10 11 11 8 12
REMARK H PARENT 8 13
REMARK Flexibility Score: inf
ROOT
ATOM      1  C   UNL     1      13.190 -11.896 -43.640  1.00  0.00    -0.022 A 
ATOM      2  C   UNL     1      12.463 -10.760 -44.036  1.00  0.00     0.058 A 
ATOM      3  C   UNL     1      11.097 -10.854 -44.364  1.00  0.00     0.161 A 
ATOM      4  C   UNL     1      10.460 -12.101 -44.304  1.00  0.00     0.157 A 
ATOM      5  C   UNL     1      11.180 -13.239 -43.925  1.00  0.00     0.051 A 
ATOM      6  C   UNL     1      12.535 -13.142 -43.600  1.00  0.00     0.012 A 
ENDROOT
BRANCH   1   7
ATOM      7  C   UNL     1      14.629 -11.741 -43.314  1.00  0.00     0.003 C 
ATOM      8  C   UNL     1      17.044 -11.697 -43.800  1.00  0.00     0.035 C 
ATOM      9  C   UNL     1      15.615 -11.852 -44.213  1.00  0.00    -0.030 C 
ENDBRANCH   1   7
BRANCH   3  10
ATOM     10  O   UNL     1      10.341  -9.737 -44.753  1.00  0.00    -0.493 OA
ATOM     11  C   UNL     1      10.361  -8.478 -44.088  1.00  0.00     0.278 C 
ENDBRANCH   3  10
BRANCH   4  12
ATOM     12  O   UNL     1       9.108 -12.200 -44.627  1.00  0.00    -0.504 OA
ATOM     13  H   UNL     1       8.458 -12.709 -44.037  1.00  0.00     0.293 HD
ENDBRANCH   4  12
TORSDOF 3
ENDMDL
MODEL 6
REMARK VINA RESULT:    -4.402     13.575     14.793
REMARK INTER + INTRA:          -5.214
REMARK INTER:                  -5.063
REMARK INTRA:                  -0.151
REMARK UNBOUND:                -0.169
REMARK SMILES CC=Cc1ccc(O)c(OC)c1
REMARK SMILES IDX 4 1 12 2 9 3 7 4 6 5 5 6 3 7 1 8 2 9 10 10 11 11 8 12
REMARK H PARENT 8 13
REMARK Flexibility Score: inf
ROOT
ATOM      1  C   UNL     1       8.898 -21.541 -35.861  1.00  0.00    -0.022 A 
ATOM      2  C   UNL     1      10.076 -21.464 -36.624  1.00  0.00     0.058 A 
ATOM      3  C   UNL     1      10.854 -22.611 -36.871  1.00  0.00     0.161 A 
ATOM      4  C   UNL     1      10.449 -23.843 -36.338  1.00  0.00     0.157 A 
ATOM      5  C   UNL     1       9.285 -23.926 -35.565  1.00  0.00     0.051 A 
ATOM      6  C   UNL     1       8.516 -22.785 -35.324  1.00  0.00     0.012 A 
ENDROOT
BRANCH   1   7
ATOM      7  C   UNL     1       8.121 -20.299 -35.625  1.00  0.00     0.003 C 
ATOM      8  C   UNL     1       6.309 -18.679 -36.026  1.00  0.00     0.035 C 
ATOM      9  C   UNL     1       7.027 -19.958 -36.316  1.00  0.00    -0.030 C 
ENDBRANCH   1   7
BRANCH   3  10
ATOM     10  O   UNL     1      12.030 -22.568 -37.635  1.00  0.00    -0.493 OA
ATOM     11  C   UNL     1      12.920 -21.458 -37.686  1.00  0.00     0.278 C 
ENDBRANCH   3  10
BRANCH   4  12
ATOM     12  O   UNL     1      11.215 -24.983 -36.579  1.00  0.00    -0.504 OA
ATOM     13  H   UNL     1      11.818 -25.055 -37.391  1.00  0.00     0.293 HD
ENDBRANCH   4  12
TORSDOF 3
ENDMDL
MODEL 7
REMARK VINA RESULT:    -4.398      3.541      4.965
REMARK INTER + INTRA:          -5.210
REMARK INTER:                  -5.029
REMARK INTRA:                  -0.181
REMARK UNBOUND:                -0.169
REMARK SMILES CC=Cc1ccc(O)c(OC)c1
REMARK SMILES IDX 4 1 12 2 9 3 7 4 6 5 5 6 3 7 1 8 2 9 10 10 11 11 8 12
REMARK H PARENT 8 13
REMARK Flexibility Score: inf
ROOT
ATOM      1  C   UNL     1       9.420 -10.905 -45.362  1.00  0.00    -0.022 A 
ATOM      2  C   UNL     1      10.051 -12.063 -45.845  1.00  0.00     0.058 A 
ATOM      3  C   UNL     1       9.348 -12.995 -46.634  1.00  0.00     0.161 A 
ATOM      4  C   UNL     1       7.997 -12.763 -46.928  1.00  0.00     0.157 A 
ATOM      5  C   UNL     1       7.357 -11.620 -46.438  1.00  0.00     0.051 A 
ATOM      6  C   UNL     1       8.059 -10.699 -45.657  1.00  0.00     0.012 A 
ENDROOT
BRANCH   1   7
ATOM      7  C   UNL     1      10.206  -9.962 -44.528  1.00  0.00     0.003 C 
ATOM      8  C   UNL     1      10.624  -7.864 -43.308  1.00  0.00     0.035 C 
ATOM      9  C   UNL     1       9.763  -8.762 -44.136  1.00  0.00    -0.030 C 
ENDBRANCH   1   7
BRANCH   3  10
ATOM     10  O   UNL     1       9.952 -14.156 -47.140  1.00  0.00    -0.493 OA
ATOM     11  C   UNL     1      11.044 -14.165 -48.054  1.00  0.00     0.278 C 
ENDBRANCH   3  10
BRANCH   4  12
ATOM     12  O   UNL     1       7.295 -13.681 -47.709  1.00  0.00    -0.504 OA
ATOM     13  H   UNL     1       7.150 -13.532 -48.701  1.00  0.00     0.293 HD
ENDBRANCH   4  12
TORSDOF 3
ENDMDL
MODEL 8
REMARK VINA RESULT:    -4.253      2.464      4.672
REMARK INTER + INTRA:          -5.043
REMARK INTER:                  -4.882
REMARK INTRA:                  -0.161
REMARK UNBOUND:                -0.169
REMARK SMILES CC=Cc1ccc(O)c(OC)c1
REMARK SMILES IDX 4 1 12 2 9 3 7 4 6 5 5 6 3 7 1 8 2 9 10 10 11 11 8 12
REMARK H PARENT 8 13
REMARK Flexibility Score: inf
ROOT
ATOM      1  C   UNL     1      11.431 -10.874 -43.744  1.00  0.00    -0.022 A 
ATOM      2  C   UNL     1      10.815 -11.408 -44.889  1.00  0.00     0.058 A 
ATOM      3  C   UNL     1      11.281 -12.604 -45.470  1.00  0.00     0.161 A 
ATOM      4  C   UNL     1      12.381 -13.259 -44.902  1.00  0.00     0.157 A 
ATOM      5  C   UNL     1      13.010 -12.726 -43.770  1.00  0.00     0.051 A 
ATOM      6  C   UNL     1      12.543 -11.541 -43.197  1.00  0.00     0.012 A 
ENDROOT
BRANCH   1   7
ATOM      7  C   UNL     1      10.904  -9.607 -43.179  1.00  0.00     0.003 C 
ATOM      8  C   UNL     1       9.794  -7.409 -43.257  1.00  0.00     0.035 C 
ATOM      9  C   UNL     1      10.284  -8.667 -43.901  1.00  0.00    -0.030 C 
ENDBRANCH   1   7
BRANCH   3  10
ATOM     10  O   UNL     1      10.682 -13.167 -46.607  1.00  0.00    -0.493 OA
ATOM     11  C   UNL     1       9.279 -13.346 -46.775  1.00  0.00     0.278 C 
ENDBRANCH   3  10
BRANCH   4  12
ATOM     12  O   UNL     1      12.848 -14.443 -45.472  1.00  0.00    -0.504 OA
ATOM     13  H   UNL     1      12.516 -15.349 -45.159  1.00  0.00     0.293 HD
ENDBRANCH   4  12
TORSDOF 3
ENDMDL
MODEL 9
REMARK VINA RESULT:    -4.188      2.877      4.971
REMARK INTER + INTRA:          -4.968
REMARK INTER:                  -4.800
REMARK INTRA:                  -0.169
REMARK UNBOUND:                -0.169
REMARK SMILES CC=Cc1ccc(O)c(OC)c1
REMARK SMILES IDX 4 1 12 2 9 3 7 4 6 5 5 6 3 7 1 8 2 9 10 10 11 11 8 12
REMARK H PARENT 8 13
REMARK Flexibility Score: inf
ROOT
ATOM      1  C   UNL     1      11.677 -10.655 -43.866  1.00  0.00    -0.022 A 
ATOM      2  C   UNL     1      10.914 -11.744 -43.410  1.00  0.00     0.058 A 
ATOM      3  C   UNL     1      11.490 -13.022 -43.269  1.00  0.00     0.161 A 
ATOM      4  C   UNL     1      12.839 -13.207 -43.598  1.00  0.00     0.157 A 
ATOM      5  C   UNL     1      13.602 -12.131 -44.067  1.00  0.00     0.051 A 
ATOM      6  C   UNL     1      13.027 -10.866 -44.205  1.00  0.00     0.012 A 
ENDROOT
BRANCH   1   7
ATOM      7  C   UNL     1      11.018  -9.334 -44.005  1.00  0.00     0.003 C 
ATOM      8  C   UNL     1       9.821  -7.332 -43.211  1.00  0.00     0.035 C 
ATOM      9  C   UNL     1      10.482  -8.654 -42.985  1.00  0.00    -0.030 C 
ENDBRANCH   1   7
BRANCH   3  10
ATOM     10  O   UNL     1      10.757 -14.126 -42.807  1.00  0.00    -0.493 OA
ATOM     11  C   UNL     1       9.812 -14.850 -43.588  1.00  0.00     0.278 C 
ENDBRANCH   3  10
BRANCH   4  12
ATOM     12  O   UNL     1      13.415 -14.469 -43.460  1.00  0.00    -0.504 OA
ATOM     13  H   UNL     1      13.536 -15.087 -44.255  1.00  0.00     0.293 HD
ENDBRANCH   4  12
TORSDOF 3
ENDMDL
