MODEL 1
REMARK VINA RESULT:    -5.689      0.000      0.000
REMARK INTER + INTRA:          -6.376
REMARK INTER:                  -6.188
REMARK INTRA:                  -0.188
REMARK UNBOUND:                -0.188
REMARK SMILES Cc1ccc(C(C)C)c(O)c1
REMARK SMILES IDX 1 1 2 2 11 3 9 4 5 5 4 6 3 7 10 8 6 10 7 11 8 12
REMARK H PARENT 10 9
REMARK Flexibility Score: inf
ROOT
ATOM      1  C   UNL     1     -30.750  12.000  55.875  1.00  0.00     0.044 C 
ATOM      2  C   UNL     1     -32.064  12.413  56.471  1.00  0.00    -0.047 A 
ATOM      3  C   UNL     1     -32.345  13.766  56.692  1.00  0.00     0.049 A 
ATOM      4  C   UNL     1     -33.556  14.165  57.270  1.00  0.00     0.119 A 
ATOM      5  C   UNL     1     -34.491  13.186  57.703  1.00  0.00    -0.004 A 
ATOM      6  C   UNL     1     -34.204  11.828  57.446  1.00  0.00     0.008 A 
ATOM      7  C   UNL     1     -33.000  11.447  56.853  1.00  0.00     0.004 A 
ENDROOT
BRANCH   4   8
ATOM      8  O   UNL     1     -33.794  15.538  57.374  1.00  0.00    -0.508 OA
ATOM      9  H   UNL     1     -33.655  16.196  56.621  1.00  0.00     0.293 HD
ENDBRANCH   4   8
BRANCH   5  10
ATOM     10  C   UNL     1     -35.807  13.580  58.370  1.00  0.00     0.017 C 
ATOM     11  C   UNL     1     -36.956  13.500  57.361  1.00  0.00     0.012 C 
ATOM     12  C   UNL     1     -36.127  12.750  59.625  1.00  0.00     0.012 C 
ENDBRANCH   5  10
TORSDOF 2
ENDMDL
MODEL 2
REMARK VINA RESULT:    -5.678      2.364      4.411
REMARK INTER + INTRA:          -6.364
REMARK INTER:                  -6.297
REMARK INTRA:                  -0.067
REMARK UNBOUND:                -0.188
REMARK SMILES Cc1ccc(C(C)C)c(O)c1
REMARK SMILES IDX 1 1 2 2 11 3 9 4 5 5 4 6 3 7 10 8 6 10 7 11 8 12
REMARK H PARENT 10 9
REMARK Flexibility Score: inf
ROOT
ATOM      1  C   UNL     1     -36.750  12.750  60.050  1.00  0.00     0.044 C 
ATOM      2  C   UNL     1     -36.141  13.315  58.801  1.00  0.00    -0.047 A 
ATOM      3  C   UNL     1     -36.867  13.326  57.604  1.00  0.00     0.049 A 
ATOM      4  C   UNL     1     -36.303  13.827  56.425  1.00  0.00     0.119 A 
ATOM      5  C   UNL     1     -34.952  14.270  56.417  1.00  0.00    -0.004 A 
ATOM      6  C   UNL     1     -34.245  14.278  57.639  1.00  0.00     0.008 A 
ATOM      7  C   UNL     1     -34.827  13.792  58.810  1.00  0.00     0.004 A 
ENDROOT
BRANCH   4   8
ATOM      8  O   UNL     1     -37.125  13.883  55.296  1.00  0.00    -0.508 OA
ATOM      9  H   UNL     1     -36.926  13.411  54.426  1.00  0.00     0.293 HD
ENDBRANCH   4   8
BRANCH   5  10
ATOM     10  C   UNL     1     -34.290  14.789  55.143  1.00  0.00     0.017 C 
ATOM     11  C   UNL     1     -34.877  16.150  54.759  1.00  0.00     0.012 C 
ATOM     12  C   UNL     1     -32.757  14.866  55.239  1.00  0.00     0.012 C 
ENDBRANCH   5  10
TORSDOF 2
ENDMDL
MODEL 3
REMARK VINA RESULT:    -5.599      2.404      2.884
REMARK INTER + INTRA:          -6.278
REMARK INTER:                  -6.110
REMARK INTRA:                  -0.168
REMARK UNBOUND:                -0.188
REMARK SMILES Cc1ccc(C(C)C)c(O)c1
REMARK SMILES IDX 1 1 2 2 11 3 9 4 5 5 4 6 3 7 10 8 6 10 7 11 8 12
REMARK H PARENT 10 9
REMARK Flexibility Score: inf
ROOT
ATOM      1  C   UNL     1     -31.413  17.002  56.241  1.00  0.00     0.044 C 
ATOM      2  C   UNL     1     -32.476  16.147  56.865  1.00  0.00    -0.047 A 
ATOM      3  C   UNL     1     -32.359  15.735  58.198  1.00  0.00     0.049 A 
ATOM      4  C   UNL     1     -33.330  14.916  58.787  1.00  0.00     0.119 A 
ATOM      5  C   UNL     1     -34.418  14.437  58.010  1.00  0.00    -0.004 A 
ATOM      6  C   UNL     1     -34.537  14.885  56.677  1.00  0.00     0.008 A 
ATOM      7  C   UNL     1     -33.569  15.715  56.109  1.00  0.00     0.004 A 
ENDROOT
BRANCH   4   8
ATOM      8  O   UNL     1     -33.182  14.624  60.146  1.00  0.00    -0.508 OA
ATOM      9  H   UNL     1     -33.953  14.478  60.781  1.00  0.00     0.293 HD
ENDBRANCH   4   8
BRANCH   5  10
ATOM     10  C   UNL     1     -35.478  13.513  58.606  1.00  0.00     0.017 C 
ATOM     11  C   UNL     1     -36.764  13.580  57.777  1.00  0.00     0.012 C 
ATOM     12  C   UNL     1     -35.005  12.057  58.756  1.00  0.00     0.012 C 
ENDBRANCH   5  10
TORSDOF 2
ENDMDL
MODEL 4
REMARK VINA RESULT:    -5.526      2.357      3.605
REMARK INTER + INTRA:          -6.199
REMARK INTER:                  -6.008
REMARK INTRA:                  -0.190
REMARK UNBOUND:                -0.188
REMARK SMILES Cc1ccc(C(C)C)c(O)c1
REMARK SMILES IDX 1 1 2 2 11 3 9 4 5 5 4 6 3 7 10 8 6 10 7 11 8 12
REMARK H PARENT 10 9
REMARK Flexibility Score: inf
ROOT
ATOM      1  C   UNL     1     -36.819  12.376  54.058  1.00  0.00     0.044 C 
ATOM      2  C   UNL     1     -36.101  13.153  55.122  1.00  0.00    -0.047 A 
ATOM      3  C   UNL     1     -35.663  14.457  54.869  1.00  0.00     0.049 A 
ATOM      4  C   UNL     1     -34.970  15.186  55.843  1.00  0.00     0.119 A 
ATOM      5  C   UNL     1     -34.643  14.577  57.085  1.00  0.00    -0.004 A 
ATOM      6  C   UNL     1     -35.118  13.272  57.334  1.00  0.00     0.008 A 
ATOM      7  C   UNL     1     -35.822  12.564  56.359  1.00  0.00     0.004 A 
ENDROOT
BRANCH   4   8
ATOM      8  O   UNL     1     -34.646  16.512  55.541  1.00  0.00    -0.508 OA
ATOM      9  H   UNL     1     -33.791  16.797  55.085  1.00  0.00     0.293 HD
ENDBRANCH   4   8
BRANCH   5  10
ATOM     10  C   UNL     1     -33.857  15.326  58.158  1.00  0.00     0.017 C 
ATOM     11  C   UNL     1     -34.230  14.803  59.548  1.00  0.00     0.012 C 
ATOM     12  C   UNL     1     -32.334  15.274  57.949  1.00  0.00     0.012 C 
ENDBRANCH   5  10
TORSDOF 2
ENDMDL
MODEL 5
REMARK VINA RESULT:    -5.525      2.096      3.569
REMARK INTER + INTRA:          -6.198
REMARK INTER:                  -6.014
REMARK INTRA:                  -0.184
REMARK UNBOUND:                -0.188
REMARK SMILES Cc1ccc(C(C)C)c(O)c1
REMARK SMILES IDX 1 1 2 2 11 3 9 4 5 5 4 6 3 7 10 8 6 10 7 11 8 12
REMARK H PARENT 10 9
REMARK Flexibility Score: inf
ROOT
ATOM      1  C   UNL     1     -33.955  15.295  60.683  1.00  0.00     0.044 C 
ATOM      2  C   UNL     1     -34.213  14.769  59.301  1.00  0.00    -0.047 A 
ATOM      3  C   UNL     1     -33.427  15.197  58.225  1.00  0.00     0.049 A 
ATOM      4  C   UNL     1     -33.672  14.734  56.926  1.00  0.00     0.119 A 
ATOM      5  C   UNL     1     -34.772  13.870  56.677  1.00  0.00    -0.004 A 
ATOM      6  C   UNL     1     -35.535  13.426  57.778  1.00  0.00     0.008 A 
ATOM      7  C   UNL     1     -35.268  13.883  59.070  1.00  0.00     0.004 A 
ENDROOT
BRANCH   4   8
ATOM      8  O   UNL     1     -32.787  15.142  55.924  1.00  0.00    -0.508 OA
ATOM      9  H   UNL     1     -32.100  15.874  56.038  1.00  0.00     0.293 HD
ENDBRANCH   4   8
BRANCH   5  10
ATOM     10  C   UNL     1     -35.093  13.372  55.270  1.00  0.00     0.017 C 
ATOM     11  C   UNL     1     -34.789  11.876  55.156  1.00  0.00     0.012 C 
ATOM     12  C   UNL     1     -36.538  13.667  54.833  1.00  0.00     0.012 C 
ENDBRANCH   5  10
TORSDOF 2
ENDMDL
MODEL 6
REMARK VINA RESULT:    -5.466      2.414      2.802
REMARK INTER + INTRA:          -6.133
REMARK INTER:                  -5.960
REMARK INTRA:                  -0.173
REMARK UNBOUND:                -0.188
REMARK SMILES Cc1ccc(C(C)C)c(O)c1
REMARK SMILES IDX 1 1 2 2 11 3 9 4 5 5 4 6 3 7 10 8 6 10 7 11 8 12
REMARK H PARENT 10 9
REMARK Flexibility Score: inf
ROOT
ATOM      1  C   UNL     1     -31.906  16.827  56.994  1.00  0.00     0.044 C 
ATOM      2  C   UNL     1     -32.992  15.826  57.259  1.00  0.00    -0.047 A 
ATOM      3  C   UNL     1     -34.062  15.693  56.368  1.00  0.00     0.049 A 
ATOM      4  C   UNL     1     -35.096  14.781  56.614  1.00  0.00     0.119 A 
ATOM      5  C   UNL     1     -35.101  14.025  57.817  1.00  0.00    -0.004 A 
ATOM      6  C   UNL     1     -34.000  14.151  58.691  1.00  0.00     0.008 A 
ATOM      7  C   UNL     1     -32.968  15.051  58.422  1.00  0.00     0.004 A 
ENDROOT
BRANCH   4   8
ATOM      8  O   UNL     1     -36.080  14.648  55.631  1.00  0.00    -0.508 OA
ATOM      9  H   UNL     1     -36.017  15.052  54.708  1.00  0.00     0.293 HD
ENDBRANCH   4   8
BRANCH   5  10
ATOM     10  C   UNL     1     -36.229  13.047  58.140  1.00  0.00     0.017 C 
ATOM     11  C   UNL     1     -35.979  11.705  57.448  1.00  0.00     0.012 C 
ATOM     12  C   UNL     1     -36.451  12.847  59.649  1.00  0.00     0.012 C 
ENDBRANCH   5  10
TORSDOF 2
ENDMDL
MODEL 7
REMARK VINA RESULT:    -5.444      1.806      4.424
REMARK INTER + INTRA:          -6.109
REMARK INTER:                  -5.931
REMARK INTRA:                  -0.179
REMARK UNBOUND:                -0.188
REMARK SMILES Cc1ccc(C(C)C)c(O)c1
REMARK SMILES IDX 1 1 2 2 11 3 9 4 5 5 4 6 3 7 10 8 6 10 7 11 8 12
REMARK H PARENT 10 9
REMARK Flexibility Score: inf
ROOT
ATOM      1  C   UNL     1     -36.927  12.359  59.318  1.00  0.00     0.044 C 
ATOM      2  C   UNL     1     -35.782  12.635  58.389  1.00  0.00    -0.047 A 
ATOM      3  C   UNL     1     -35.576  11.829  57.264  1.00  0.00     0.049 A 
ATOM      4  C   UNL     1     -34.497  12.060  56.401  1.00  0.00     0.119 A 
ATOM      5  C   UNL     1     -33.555  13.081  56.701  1.00  0.00    -0.004 A 
ATOM      6  C   UNL     1     -33.795  13.902  57.823  1.00  0.00     0.008 A 
ATOM      7  C   UNL     1     -34.885  13.671  58.664  1.00  0.00     0.004 A 
ENDROOT
BRANCH   4   8
ATOM      8  O   UNL     1     -34.414  11.265  55.254  1.00  0.00    -0.508 OA
ATOM      9  H   UNL     1     -33.740  10.525  55.124  1.00  0.00     0.293 HD
ENDBRANCH   4   8
BRANCH   5  10
ATOM     10  C   UNL     1     -32.346  13.339  55.805  1.00  0.00     0.017 C 
ATOM     11  C   UNL     1     -31.857  14.779  55.979  1.00  0.00     0.012 C 
ATOM     12  C   UNL     1     -31.195  12.344  56.030  1.00  0.00     0.012 C 
ENDBRANCH   5  10
TORSDOF 2
ENDMDL
MODEL 8
REMARK VINA RESULT:    -5.441      2.472      3.763
REMARK INTER + INTRA:          -6.107
REMARK INTER:                  -5.916
REMARK INTRA:                  -0.190
REMARK UNBOUND:                -0.188
REMARK SMILES Cc1ccc(C(C)C)c(O)c1
REMARK SMILES IDX 1 1 2 2 11 3 9 4 5 5 4 6 3 7 10 8 6 10 7 11 8 12
REMARK H PARENT 10 9
REMARK Flexibility Score: inf
ROOT
ATOM      1  C   UNL     1     -36.748  12.434  54.145  1.00  0.00     0.044 C 
ATOM      2  C   UNL     1     -35.834  12.883  55.246  1.00  0.00    -0.047 A 
ATOM      3  C   UNL     1     -35.624  12.069  56.365  1.00  0.00     0.049 A 
ATOM      4  C   UNL     1     -34.793  12.485  57.413  1.00  0.00     0.119 A 
ATOM      5  C   UNL     1     -34.204  13.778  57.379  1.00  0.00    -0.004 A 
ATOM      6  C   UNL     1     -34.402  14.573  56.230  1.00  0.00     0.008 A 
ATOM      7  C   UNL     1     -35.220  14.137  55.186  1.00  0.00     0.004 A 
ENDROOT
BRANCH   4   8
ATOM      8  O   UNL     1     -34.568  11.576  58.450  1.00  0.00    -0.508 OA
ATOM      9  H   UNL     1     -35.300  11.084  58.941  1.00  0.00     0.293 HD
ENDBRANCH   4   8
BRANCH   5  10
ATOM     10  C   UNL     1     -33.321  14.282  58.518  1.00  0.00     0.017 C 
ATOM     11  C   UNL     1     -32.297  15.289  57.987  1.00  0.00     0.012 C 
ATOM     12  C   UNL     1     -34.118  14.884  59.688  1.00  0.00     0.012 C 
ENDBRANCH   5  10
TORSDOF 2
ENDMDL
