MODEL 1
REMARK VINA RESULT:    -5.440      0.000      0.000
REMARK INTER + INTRA:          -9.166
REMARK INTER:                  -8.461
REMARK INTRA:                  -0.705
REMARK UNBOUND:                -0.705
REMARK SMILES COc1cc(CNC(=O)CCCCC=CC(C)C)ccc1O
REMARK SMILES IDX 11 1 12 2 13 3 14 4 15 5 16 6 17 7 18 8 10 9 8 10 9 11 7 12
REMARK SMILES IDX 6 14 5 15 4 16 19 17 3 18 20 19 21 20 2 21 1 22 22 23
REMARK H PARENT 7 13 22 24
REMARK Flexibility Score: inf
ROOT
ATOM      1  C   UNL     1     128.273 129.278 113.978  1.00  0.00     0.010 C 
ENDROOT
BRANCH   1   2
ATOM      2  C   UNL     1     127.851 128.598 115.289  1.00  0.00     0.005 C 
BRANCH   2   3
ATOM      3  C   UNL     1     126.873 129.453 116.108  1.00  0.00     0.027 C 
BRANCH   3   4
ATOM      4  C   UNL     1     127.434 129.753 117.470  1.00  0.00    -0.031 C 
ATOM      5  C   UNL     1     128.674 129.374 117.818  1.00  0.00    -0.028 C 
BRANCH   5   6
ATOM      6  C   UNL     1     129.234 129.678 119.188  1.00  0.00     0.005 C 
ATOM      7  C   UNL     1     128.117 129.668 120.238  1.00  0.00     0.012 C 
ATOM      8  C   UNL     1     130.324 128.666 119.557  1.00  0.00     0.012 C 
ENDBRANCH   5   6
ENDBRANCH   3   4
ENDBRANCH   2   3
ENDBRANCH   1   2
BRANCH   1   9
ATOM      9  C   UNL     1     129.797 129.358 113.819  1.00  0.00     0.100 C 
BRANCH   9  10
ATOM     10  C   UNL     1     130.264 128.318 112.847  1.00  0.00     0.220 C 
ATOM     11  O   UNL     1     129.424 127.739 112.107  1.00  0.00    -0.275 OA
ATOM     12  N   UNL     1     131.664 128.030 112.719  1.00  0.00    -0.352 N 
ATOM     13  H   UNL     1     132.334 128.464 113.394  1.00  0.00     0.163 HD
BRANCH  12  14
ATOM     14  C   UNL     1     132.209 127.314 111.570  1.00  0.00     0.151 C 
BRANCH  14  15
ATOM     15  C   UNL     1     133.668 127.031 111.797  1.00  0.00    -0.025 A 
ATOM     16  C   UNL     1     134.483 126.646 110.720  1.00  0.00     0.056 A 
ATOM     17  C   UNL     1     134.210 127.080 113.089  1.00  0.00     0.009 A 
ATOM     18  C   UNL     1     135.842 126.333 110.926  1.00  0.00     0.160 A 
ATOM     19  C   UNL     1     135.557 126.773 113.300  1.00  0.00     0.050 A 
ATOM     20  C   UNL     1     136.374 126.403 112.222  1.00  0.00     0.157 A 
BRANCH  18  21
ATOM     21  O   UNL     1     136.689 125.949 109.875  1.00  0.00    -0.493 OA
ATOM     22  C   UNL     1     136.970 126.750 108.730  1.00  0.00     0.278 C 
ENDBRANCH  18  21
BRANCH  20  23
ATOM     23  O   UNL     1     137.718 126.096 112.434  1.00  0.00    -0.504 OA
ATOM     24  H   UNL     1     138.156 125.299 111.988  1.00  0.00     0.293 HD
ENDBRANCH  20  23
ENDBRANCH  14  15
ENDBRANCH  12  14
ENDBRANCH   9  10
ENDBRANCH   1   9
TORSDOF 10
ENDMDL
MODEL 2
REMARK VINA RESULT:    -5.395      5.919      9.757
REMARK INTER + INTRA:          -9.095
REMARK INTER:                  -8.314
REMARK INTRA:                  -0.781
REMARK UNBOUND:                -0.705
REMARK SMILES COc1cc(CNC(=O)CCCCC=CC(C)C)ccc1O
REMARK SMILES IDX 11 1 12 2 13 3 14 4 15 5 16 6 17 7 18 8 10 9 8 10 9 11 7 12
REMARK SMILES IDX 6 14 5 15 4 16 19 17 3 18 20 19 21 20 2 21 1 22 22 23
REMARK H PARENT 7 13 22 24
REMARK Flexibility Score: inf
ROOT
ATOM      1  C   UNL     1     127.742 129.877 113.073  1.00  0.00     0.010 C 
ENDROOT
BRANCH   1   2
ATOM      2  C   UNL     1     128.258 129.139 114.318  1.00  0.00     0.005 C 
BRANCH   2   3
ATOM      3  C   UNL     1     127.268 129.198 115.490  1.00  0.00     0.027 C 
BRANCH   3   4
ATOM      4  C   UNL     1     127.985 129.070 116.805  1.00  0.00    -0.031 C 
ATOM      5  C   UNL     1     127.612 129.780 117.881  1.00  0.00    -0.028 C 
BRANCH   5   6
ATOM      6  C   UNL     1     128.335 129.648 119.200  1.00  0.00     0.005 C 
ATOM      7  C   UNL     1     129.765 129.140 118.979  1.00  0.00     0.012 C 
ATOM      8  C   UNL     1     128.353 130.991 119.938  1.00  0.00     0.012 C 
ENDBRANCH   5   6
ENDBRANCH   3   4
ENDBRANCH   2   3
ENDBRANCH   1   2
BRANCH   1   9
ATOM      9  C   UNL     1     127.928 129.063 111.785  1.00  0.00     0.100 C 
BRANCH   9  10
ATOM     10  C   UNL     1     127.057 129.619 110.701  1.00  0.00     0.220 C 
ATOM     11  O   UNL     1     126.574 128.842 109.833  1.00  0.00    -0.275 OA
ATOM     12  N   UNL     1     126.727 131.015 110.688  1.00  0.00    -0.352 N 
ATOM     13  H   UNL     1     127.198 131.654 111.368  1.00  0.00     0.163 HD
BRANCH  12  14
ATOM     14  C   UNL     1     125.622 131.547 109.897  1.00  0.00     0.151 C 
BRANCH  14  15
ATOM     15  C   UNL     1     124.392 131.656 110.755  1.00  0.00    -0.025 A 
ATOM     16  C   UNL     1     123.136 131.854 110.159  1.00  0.00     0.056 A 
ATOM     17  C   UNL     1     124.496 131.632 112.154  1.00  0.00     0.009 A 
ATOM     18  C   UNL     1     121.982 132.003 110.954  1.00  0.00     0.160 A 
ATOM     19  C   UNL     1     123.355 131.778 112.947  1.00  0.00     0.050 A 
ATOM     20  C   UNL     1     122.099 131.961 112.351  1.00  0.00     0.157 A 
BRANCH  18  21
ATOM     21  O   UNL     1     120.709 132.198 110.396  1.00  0.00    -0.493 OA
ATOM     22  C   UNL     1     120.039 131.255 109.563  1.00  0.00     0.278 C 
ENDBRANCH  18  21
BRANCH  20  23
ATOM     23  O   UNL     1     120.962 132.107 113.144  1.00  0.00    -0.504 OA
ATOM     24  H   UNL     1     120.992 132.597 114.030  1.00  0.00     0.293 HD
ENDBRANCH  20  23
ENDBRANCH  14  15
ENDBRANCH  12  14
ENDBRANCH   9  10
ENDBRANCH   1   9
TORSDOF 10
ENDMDL
MODEL 3
REMARK VINA RESULT:    -5.360      4.425      8.367
REMARK INTER + INTRA:          -9.041
REMARK INTER:                  -7.974
REMARK INTRA:                  -1.067
REMARK UNBOUND:                -0.705
REMARK SMILES COc1cc(CNC(=O)CCCCC=CC(C)C)ccc1O
REMARK SMILES IDX 11 1 12 2 13 3 14 4 15 5 16 6 17 7 18 8 10 9 8 10 9 11 7 12
REMARK SMILES IDX 6 14 5 15 4 16 19 17 3 18 20 19 21 20 2 21 1 22 22 23
REMARK H PARENT 7 13 22 24
REMARK Flexibility Score: inf
ROOT
ATOM      1  C   UNL     1     129.878 129.791 113.824  1.00  0.00     0.010 C 
ENDROOT
BRANCH   1   2
ATOM      2  C   UNL     1     129.610 129.318 115.261  1.00  0.00     0.005 C 
BRANCH   2   3
ATOM      3  C   UNL     1     128.114 129.128 115.549  1.00  0.00     0.027 C 
BRANCH   3   4
ATOM      4  C   UNL     1     127.844 129.167 117.028  1.00  0.00    -0.031 C 
ATOM      5  C   UNL     1     128.735 129.678 117.891  1.00  0.00    -0.028 C 
BRANCH   5   6
ATOM      6  C   UNL     1     128.460 129.715 119.376  1.00  0.00     0.005 C 
ATOM      7  C   UNL     1     129.628 129.098 120.154  1.00  0.00     0.012 C 
ATOM      8  C   UNL     1     128.211 131.156 119.838  1.00  0.00     0.012 C 
ENDBRANCH   5   6
ENDBRANCH   3   4
ENDBRANCH   2   3
ENDBRANCH   1   2
BRANCH   1   9
ATOM      9  C   UNL     1     130.154 128.628 112.862  1.00  0.00     0.100 C 
BRANCH   9  10
ATOM     10  C   UNL     1     129.086 128.569 111.813  1.00  0.00     0.220 C 
ATOM     11  O   UNL     1     128.754 127.454 111.328  1.00  0.00    -0.275 OA
ATOM     12  N   UNL     1     128.406 129.767 111.411  1.00  0.00    -0.352 N 
ATOM     13  H   UNL     1     128.748 130.688 111.768  1.00  0.00     0.163 HD
BRANCH  12  14
ATOM     14  C   UNL     1     127.141 129.738 110.683  1.00  0.00     0.151 C 
BRANCH  14  15
ATOM     15  C   UNL     1     126.102 130.515 111.443  1.00  0.00    -0.025 A 
ATOM     16  C   UNL     1     125.072 131.171 110.750  1.00  0.00     0.056 A 
ATOM     17  C   UNL     1     126.192 130.650 112.836  1.00  0.00     0.009 A 
ATOM     18  C   UNL     1     124.118 131.940 111.446  1.00  0.00     0.160 A 
ATOM     19  C   UNL     1     125.248 131.409 113.531  1.00  0.00     0.050 A 
ATOM     20  C   UNL     1     124.211 132.053 112.841  1.00  0.00     0.157 A 
BRANCH  18  21
ATOM     21  O   UNL     1     123.071 132.607 110.789  1.00  0.00    -0.493 OA
ATOM     22  C   UNL     1     123.141 133.950 110.315  1.00  0.00     0.278 C 
ENDBRANCH  18  21
BRANCH  20  23
ATOM     23  O   UNL     1     123.270 132.811 113.536  1.00  0.00    -0.504 OA
ATOM     24  H   UNL     1     122.611 132.382 114.175  1.00  0.00     0.293 HD
ENDBRANCH  20  23
ENDBRANCH  14  15
ENDBRANCH  12  14
ENDBRANCH   9  10
ENDBRANCH   1   9
TORSDOF 10
ENDMDL
MODEL 4
REMARK VINA RESULT:    -5.169      4.499      5.450
REMARK INTER + INTRA:          -8.744
REMARK INTER:                  -8.014
REMARK INTRA:                  -0.730
REMARK UNBOUND:                -0.705
REMARK SMILES COc1cc(CNC(=O)CCCCC=CC(C)C)ccc1O
REMARK SMILES IDX 11 1 12 2 13 3 14 4 15 5 16 6 17 7 18 8 10 9 8 10 9 11 7 12
REMARK SMILES IDX 6 14 5 15 4 16 19 17 3 18 20 19 21 20 2 21 1 22 22 23
REMARK H PARENT 7 13 22 24
REMARK Flexibility Score: inf
ROOT
ATOM      1  C   UNL     1     130.268 129.354 114.001  1.00  0.00     0.010 C 
ENDROOT
BRANCH   1   2
ATOM      2  C   UNL     1     130.482 129.784 115.461  1.00  0.00     0.005 C 
BRANCH   2   3
ATOM      3  C   UNL     1     131.662 129.057 116.122  1.00  0.00     0.027 C 
BRANCH   3   4
ATOM      4  C   UNL     1     131.446 128.924 117.604  1.00  0.00    -0.031 C 
ATOM      5  C   UNL     1     130.242 129.130 118.160  1.00  0.00    -0.028 C 
BRANCH   5   6
ATOM      6  C   UNL     1     130.030 128.994 119.650  1.00  0.00     0.005 C 
ATOM      7  C   UNL     1     128.619 129.455 120.035  1.00  0.00     0.012 C 
ATOM      8  C   UNL     1     130.258 127.545 120.093  1.00  0.00     0.012 C 
ENDBRANCH   5   6
ENDBRANCH   3   4
ENDBRANCH   2   3
ENDBRANCH   1   2
BRANCH   1   9
ATOM      9  C   UNL     1     128.786 129.152 113.657  1.00  0.00     0.100 C 
BRANCH   9  10
ATOM     10  C   UNL     1     128.602 129.168 112.171  1.00  0.00     0.220 C 
ATOM     11  O   UNL     1     127.437 129.143 111.690  1.00  0.00    -0.275 OA
ATOM     12  N   UNL     1     129.741 129.273 111.306  1.00  0.00    -0.352 N 
ATOM     13  H   UNL     1     130.699 129.214 111.720  1.00  0.00     0.163 HD
BRANCH  12  14
ATOM     14  C   UNL     1     129.621 129.651 109.901  1.00  0.00     0.151 C 
BRANCH  14  15
ATOM     15  C   UNL     1     130.285 130.981 109.676  1.00  0.00    -0.025 A 
ATOM     16  C   UNL     1     131.363 131.085 108.781  1.00  0.00     0.056 A 
ATOM     17  C   UNL     1     129.884 132.109 110.407  1.00  0.00     0.009 A 
ATOM     18  C   UNL     1     132.023 132.315 108.596  1.00  0.00     0.160 A 
ATOM     19  C   UNL     1     130.534 133.332 110.226  1.00  0.00     0.050 A 
ATOM     20  C   UNL     1     131.600 133.439 109.322  1.00  0.00     0.157 A 
BRANCH  18  21
ATOM     21  O   UNL     1     133.101 132.460 107.708  1.00  0.00    -0.493 OA
ATOM     22  C   UNL     1     132.969 132.760 106.321  1.00  0.00     0.278 C 
ENDBRANCH  18  21
BRANCH  20  23
ATOM     23  O   UNL     1     132.248 134.660 109.142  1.00  0.00    -0.504 OA
ATOM     24  H   UNL     1     131.814 135.421 108.634  1.00  0.00     0.293 HD
ENDBRANCH  20  23
ENDBRANCH  14  15
ENDBRANCH  12  14
ENDBRANCH   9  10
ENDBRANCH   1   9
TORSDOF 10
ENDMDL
MODEL 5
REMARK VINA RESULT:    -5.108      5.810     10.298
REMARK INTER + INTRA:          -8.650
REMARK INTER:                  -8.004
REMARK INTRA:                  -0.647
REMARK UNBOUND:                -0.705
REMARK SMILES COc1cc(CNC(=O)CCCCC=CC(C)C)ccc1O
REMARK SMILES IDX 11 1 12 2 13 3 14 4 15 5 16 6 17 7 18 8 10 9 8 10 9 11 7 12
REMARK SMILES IDX 6 14 5 15 4 16 19 17 3 18 20 19 21 20 2 21 1 22 22 23
REMARK H PARENT 7 13 22 24
REMARK Flexibility Score: inf
ROOT
ATOM      1  C   UNL     1     128.925 129.528 112.157  1.00  0.00     0.010 C 
ENDROOT
BRANCH   1   2
ATOM      2  C   UNL     1     129.510 129.708 113.566  1.00  0.00     0.005 C 
BRANCH   2   3
ATOM      3  C   UNL     1     128.625 129.087 114.655  1.00  0.00     0.027 C 
BRANCH   3   4
ATOM      4  C   UNL     1     129.218 129.309 116.019  1.00  0.00    -0.031 C 
ATOM      5  C   UNL     1     128.444 129.508 117.098  1.00  0.00    -0.028 C 
BRANCH   5   6
ATOM      6  C   UNL     1     129.045 129.730 118.466  1.00  0.00     0.005 C 
ATOM      7  C   UNL     1     127.956 129.683 119.544  1.00  0.00     0.012 C 
ATOM      8  C   UNL     1     130.126 128.682 118.752  1.00  0.00     0.012 C 
ENDBRANCH   5   6
ENDBRANCH   3   4
ENDBRANCH   2   3
ENDBRANCH   1   2
BRANCH   1   9
ATOM      9  C   UNL     1     127.391 129.524 112.151  1.00  0.00     0.100 C 
BRANCH   9  10
ATOM     10  C   UNL     1     126.879 130.908 111.897  1.00  0.00     0.220 C 
ATOM     11  O   UNL     1     127.637 131.762 111.363  1.00  0.00    -0.275 OA
ATOM     12  N   UNL     1     125.517 131.239 112.203  1.00  0.00    -0.352 N 
ATOM     13  H   UNL     1     124.928 130.542 112.715  1.00  0.00     0.163 HD
BRANCH  12  14
ATOM     14  C   UNL     1     124.862 132.426 111.661  1.00  0.00     0.151 C 
BRANCH  14  15
ATOM     15  C   UNL     1     123.699 132.014 110.801  1.00  0.00    -0.025 A 
ATOM     16  C   UNL     1     122.386 132.277 111.226  1.00  0.00     0.056 A 
ATOM     17  C   UNL     1     123.911 131.305 109.610  1.00  0.00     0.009 A 
ATOM     18  C   UNL     1     121.286 131.856 110.452  1.00  0.00     0.160 A 
ATOM     19  C   UNL     1     122.824 130.887 108.838  1.00  0.00     0.050 A 
ATOM     20  C   UNL     1     121.514 131.162 109.254  1.00  0.00     0.157 A 
BRANCH  18  21
ATOM     21  O   UNL     1     119.960 132.104 110.840  1.00  0.00    -0.493 OA
ATOM     22  C   UNL     1     119.213 131.282 111.733  1.00  0.00     0.278 C 
ENDBRANCH  18  21
BRANCH  20  23
ATOM     23  O   UNL     1     120.430 130.744 108.483  1.00  0.00    -0.504 OA
ATOM     24  H   UNL     1     119.870 129.943 108.746  1.00  0.00     0.293 HD
ENDBRANCH  20  23
ENDBRANCH  14  15
ENDBRANCH  12  14
ENDBRANCH   9  10
ENDBRANCH   1   9
TORSDOF 10
ENDMDL
MODEL 6
REMARK VINA RESULT:    -5.091      4.518      8.416
REMARK INTER + INTRA:          -8.624
REMARK INTER:                  -7.988
REMARK INTRA:                  -0.636
REMARK UNBOUND:                -0.705
REMARK SMILES COc1cc(CNC(=O)CCCCC=CC(C)C)ccc1O
REMARK SMILES IDX 11 1 12 2 13 3 14 4 15 5 16 6 17 7 18 8 10 9 8 10 9 11 7 12
REMARK SMILES IDX 6 14 5 15 4 16 19 17 3 18 20 19 21 20 2 21 1 22 22 23
REMARK H PARENT 7 13 22 24
REMARK Flexibility Score: inf
ROOT
ATOM      1  C   UNL     1     128.749 128.946 112.301  1.00  0.00     0.010 C 
ENDROOT
BRANCH   1   2
ATOM      2  C   UNL     1     128.769 127.711 111.387  1.00  0.00     0.005 C 
BRANCH   2   3
ATOM      3  C   UNL     1     130.053 126.884 111.542  1.00  0.00     0.027 C 
BRANCH   3   4
ATOM      4  C   UNL     1     129.773 125.419 111.355  1.00  0.00    -0.031 C 
ATOM      5  C   UNL     1     130.525 124.657 110.545  1.00  0.00    -0.028 C 
BRANCH   5   6
ATOM      6  C   UNL     1     130.239 123.185 110.361  1.00  0.00     0.005 C 
ATOM      7  C   UNL     1     131.519 122.363 110.555  1.00  0.00     0.012 C 
ATOM      8  C   UNL     1     129.154 122.724 111.340  1.00  0.00     0.012 C 
ENDBRANCH   5   6
ENDBRANCH   3   4
ENDBRANCH   2   3
ENDBRANCH   1   2
BRANCH   1   9
ATOM      9  C   UNL     1     127.497 129.810 112.098  1.00  0.00     0.100 C 
BRANCH   9  10
ATOM     10  C   UNL     1     126.861 130.104 113.422  1.00  0.00     0.220 C 
ATOM     11  O   UNL     1     125.802 130.786 113.463  1.00  0.00    -0.275 OA
ATOM     12  N   UNL     1     127.422 129.562 114.626  1.00  0.00    -0.352 N 
ATOM     13  H   UNL     1     128.341 129.066 114.579  1.00  0.00     0.163 HD
BRANCH  12  14
ATOM     14  C   UNL     1     126.673 129.504 115.877  1.00  0.00     0.151 C 
BRANCH  14  15
ATOM     15  C   UNL     1     127.627 129.511 117.039  1.00  0.00    -0.025 A 
ATOM     16  C   UNL     1     128.980 129.193 116.838  1.00  0.00     0.056 A 
ATOM     17  C   UNL     1     127.163 129.762 118.339  1.00  0.00     0.009 A 
ATOM     18  C   UNL     1     129.875 129.150 117.925  1.00  0.00     0.160 A 
ATOM     19  C   UNL     1     128.047 129.723 119.421  1.00  0.00     0.050 A 
ATOM     20  C   UNL     1     129.400 129.420 119.217  1.00  0.00     0.157 A 
BRANCH  18  21
ATOM     21  O   UNL     1     131.235 128.841 117.764  1.00  0.00    -0.493 OA
ATOM     22  C   UNL     1     131.979 129.074 116.570  1.00  0.00     0.278 C 
ENDBRANCH  18  21
BRANCH  20  23
ATOM     23  O   UNL     1     130.281 129.381 120.298  1.00  0.00    -0.504 OA
ATOM     24  H   UNL     1     131.274 129.229 120.168  1.00  0.00     0.293 HD
ENDBRANCH  20  23
ENDBRANCH  14  15
ENDBRANCH  12  14
ENDBRANCH   9  10
ENDBRANCH   1   9
TORSDOF 10
ENDMDL
MODEL 7
REMARK VINA RESULT:    -4.996      8.119     11.818
REMARK INTER + INTRA:          -8.475
REMARK INTER:                  -7.421
REMARK INTRA:                  -1.053
REMARK UNBOUND:                -0.705
REMARK SMILES COc1cc(CNC(=O)CCCCC=CC(C)C)ccc1O
REMARK SMILES IDX 11 1 12 2 13 3 14 4 15 5 16 6 17 7 18 8 10 9 8 10 9 11 7 12
REMARK SMILES IDX 6 14 5 15 4 16 19 17 3 18 20 19 21 20 2 21 1 22 22 23
REMARK H PARENT 7 13 22 24
REMARK Flexibility Score: inf
ROOT
ATOM      1  C   UNL     1     126.075 130.533 111.337  1.00  0.00     0.010 C 
ENDROOT
BRANCH   1   2
ATOM      2  C   UNL     1     126.654 131.779 110.648  1.00  0.00     0.005 C 
BRANCH   2   3
ATOM      3  C   UNL     1     128.060 132.132 111.154  1.00  0.00     0.027 C 
BRANCH   3   4
ATOM      4  C   UNL     1     128.419 133.547 110.794  1.00  0.00    -0.031 C 
ATOM      5  C   UNL     1     127.868 134.594 111.428  1.00  0.00    -0.028 C 
BRANCH   5   6
ATOM      6  C   UNL     1     128.232 136.014 111.063  1.00  0.00     0.005 C 
ATOM      7  C   UNL     1     129.083 136.650 112.169  1.00  0.00     0.012 C 
ATOM      8  C   UNL     1     128.981 136.048 109.726  1.00  0.00     0.012 C 
ENDBRANCH   5   6
ENDBRANCH   3   4
ENDBRANCH   2   3
ENDBRANCH   1   2
BRANCH   1   9
ATOM      9  C   UNL     1     126.099 130.641 112.868  1.00  0.00     0.100 C 
BRANCH   9  10
ATOM     10  C   UNL     1     125.035 131.588 113.329  1.00  0.00     0.220 C 
ATOM     11  O   UNL     1     125.331 132.794 113.549  1.00  0.00    -0.275 OA
ATOM     12  N   UNL     1     123.679 131.139 113.459  1.00  0.00    -0.352 N 
ATOM     13  H   UNL     1     123.469 130.121 113.347  1.00  0.00     0.163 HD
BRANCH  12  14
ATOM     14  C   UNL     1     122.556 132.067 113.548  1.00  0.00     0.151 C 
BRANCH  14  15
ATOM     15  C   UNL     1     121.768 132.033 112.268  1.00  0.00    -0.025 A 
ATOM     16  C   UNL     1     122.436 131.950 111.035  1.00  0.00     0.056 A 
ATOM     17  C   UNL     1     120.371 132.155 112.289  1.00  0.00     0.009 A 
ATOM     18  C   UNL     1     121.712 131.964 109.827  1.00  0.00     0.160 A 
ATOM     19  C   UNL     1     119.648 132.167 111.094  1.00  0.00     0.050 A 
ATOM     20  C   UNL     1     120.314 132.070 109.864  1.00  0.00     0.157 A 
BRANCH  18  21
ATOM     21  O   UNL     1     122.343 131.878 108.575  1.00  0.00    -0.493 OA
ATOM     22  C   UNL     1     123.387 130.960 108.259  1.00  0.00     0.278 C 
ENDBRANCH  18  21
BRANCH  20  23
ATOM     23  O   UNL     1     119.591 132.082 108.672  1.00  0.00    -0.504 OA
ATOM     24  H   UNL     1     119.239 131.228 108.257  1.00  0.00     0.293 HD
ENDBRANCH  20  23
ENDBRANCH  14  15
ENDBRANCH  12  14
ENDBRANCH   9  10
ENDBRANCH   1   9
TORSDOF 10
ENDMDL
MODEL 8
REMARK VINA RESULT:    -4.954      7.238     11.062
REMARK INTER + INTRA:          -8.410
REMARK INTER:                  -6.734
REMARK INTRA:                  -1.676
REMARK UNBOUND:                -0.705
REMARK SMILES COc1cc(CNC(=O)CCCCC=CC(C)C)ccc1O
REMARK SMILES IDX 11 1 12 2 13 3 14 4 15 5 16 6 17 7 18 8 10 9 8 10 9 11 7 12
REMARK SMILES IDX 6 14 5 15 4 16 19 17 3 18 20 19 21 20 2 21 1 22 22 23
REMARK H PARENT 7 13 22 24
REMARK Flexibility Score: inf
ROOT
ATOM      1  C   UNL     1     119.588 131.549 109.633  1.00  0.00     0.010 C 
ENDROOT
BRANCH   1   2
ATOM      2  C   UNL     1     120.810 130.919 108.947  1.00  0.00     0.005 C 
BRANCH   2   3
ATOM      3  C   UNL     1     121.454 131.855 107.915  1.00  0.00     0.027 C 
BRANCH   3   4
ATOM      4  C   UNL     1     122.946 131.675 107.885  1.00  0.00    -0.031 C 
ATOM      5  C   UNL     1     123.642 131.392 108.998  1.00  0.00    -0.028 C 
BRANCH   5   6
ATOM      6  C   UNL     1     125.141 131.212 108.963  1.00  0.00     0.005 C 
ATOM      7  C   UNL     1     125.510 129.740 109.184  1.00  0.00     0.012 C 
ATOM      8  C   UNL     1     125.710 131.711 107.630  1.00  0.00     0.012 C 
ENDBRANCH   5   6
ENDBRANCH   3   4
ENDBRANCH   2   3
ENDBRANCH   1   2
BRANCH   1   9
ATOM      9  C   UNL     1     119.640 131.424 111.162  1.00  0.00     0.100 C 
BRANCH   9  10
ATOM     10  C   UNL     1     120.813 132.185 111.696  1.00  0.00     0.220 C 
ATOM     11  O   UNL     1     121.089 133.318 111.215  1.00  0.00    -0.275 OA
ATOM     12  N   UNL     1     121.578 131.655 112.788  1.00  0.00    -0.352 N 
ATOM     13  H   UNL     1     121.381 130.683 113.120  1.00  0.00     0.163 HD
BRANCH  12  14
ATOM     14  C   UNL     1     122.483 132.482 113.580  1.00  0.00     0.151 C 
BRANCH  14  15
ATOM     15  C   UNL     1     123.856 132.458 112.968  1.00  0.00    -0.025 A 
ATOM     16  C   UNL     1     124.644 131.298 113.058  1.00  0.00     0.056 A 
ATOM     17  C   UNL     1     124.388 133.609 112.369  1.00  0.00     0.009 A 
ATOM     18  C   UNL     1     125.950 131.278 112.529  1.00  0.00     0.160 A 
ATOM     19  C   UNL     1     125.682 133.593 111.841  1.00  0.00     0.050 A 
ATOM     20  C   UNL     1     126.462 132.431 111.918  1.00  0.00     0.157 A 
BRANCH  18  21
ATOM     21  O   UNL     1     126.765 130.137 112.595  1.00  0.00    -0.493 OA
ATOM     22  C   UNL     1     127.422 129.681 113.776  1.00  0.00     0.278 C 
ENDBRANCH  18  21
BRANCH  20  23
ATOM     23  O   UNL     1     127.753 132.417 111.392  1.00  0.00    -0.504 OA
ATOM     24  H   UNL     1     128.163 131.571 111.015  1.00  0.00     0.293 HD
ENDBRANCH  20  23
ENDBRANCH  14  15
ENDBRANCH  12  14
ENDBRANCH   9  10
ENDBRANCH   1   9
TORSDOF 10
ENDMDL
MODEL 9
REMARK VINA RESULT:    -4.825      9.375     12.230
REMARK INTER + INTRA:          -8.210
REMARK INTER:                  -6.213
REMARK INTRA:                  -1.996
REMARK UNBOUND:                -0.705
REMARK SMILES COc1cc(CNC(=O)CCCCC=CC(C)C)ccc1O
REMARK SMILES IDX 11 1 12 2 13 3 14 4 15 5 16 6 17 7 18 8 10 9 8 10 9 11 7 12
REMARK SMILES IDX 6 14 5 15 4 16 19 17 3 18 20 19 21 20 2 21 1 22 22 23
REMARK H PARENT 7 13 22 24
REMARK Flexibility Score: inf
ROOT
ATOM      1  C   UNL     1     125.122 132.326 107.002  1.00  0.00     0.010 C 
ENDROOT
BRANCH   1   2
ATOM      2  C   UNL     1     125.578 131.451 108.180  1.00  0.00     0.005 C 
BRANCH   2   3
ATOM      3  C   UNL     1     124.401 130.808 108.927  1.00  0.00     0.027 C 
BRANCH   3   4
ATOM      4  C   UNL     1     123.088 131.276 108.362  1.00  0.00    -0.031 C 
ATOM      5  C   UNL     1     121.919 130.940 108.930  1.00  0.00    -0.028 C 
BRANCH   5   6
ATOM      6  C   UNL     1     120.603 131.413 108.360  1.00  0.00     0.005 C 
ATOM      7  C   UNL     1     120.115 132.663 109.101  1.00  0.00     0.012 C 
ATOM      8  C   UNL     1     120.742 131.701 106.861  1.00  0.00     0.012 C 
ENDBRANCH   5   6
ENDBRANCH   3   4
ENDBRANCH   2   3
ENDBRANCH   1   2
BRANCH   1   9
ATOM      9  C   UNL     1     125.572 133.786 107.143  1.00  0.00     0.100 C 
BRANCH   9  10
ATOM     10  C   UNL     1     124.793 134.457 108.232  1.00  0.00     0.220 C 
ATOM     11  O   UNL     1     123.549 134.614 108.099  1.00  0.00    -0.275 OA
ATOM     12  N   UNL     1     125.449 134.861 109.442  1.00  0.00    -0.352 N 
ATOM     13  H   UNL     1     126.491 134.792 109.502  1.00  0.00     0.163 HD
BRANCH  12  14
ATOM     14  C   UNL     1     124.710 135.179 110.660  1.00  0.00     0.151 C 
BRANCH  14  15
ATOM     15  C   UNL     1     124.493 133.926 111.462  1.00  0.00    -0.025 A 
ATOM     16  C   UNL     1     123.211 133.358 111.541  1.00  0.00     0.056 A 
ATOM     17  C   UNL     1     125.546 133.358 112.194  1.00  0.00     0.009 A 
ATOM     18  C   UNL     1     122.984 132.210 112.327  1.00  0.00     0.160 A 
ATOM     19  C   UNL     1     125.327 132.219 112.972  1.00  0.00     0.050 A 
ATOM     20  C   UNL     1     124.051 131.643 113.039  1.00  0.00     0.157 A 
BRANCH  18  21
ATOM     21  O   UNL     1     121.718 131.610 112.427  1.00  0.00    -0.493 OA
ATOM     22  C   UNL     1     120.498 132.325 112.598  1.00  0.00     0.278 C 
ENDBRANCH  18  21
BRANCH  20  23
ATOM     23  O   UNL     1     123.834 130.506 113.817  1.00  0.00    -0.504 OA
ATOM     24  H   UNL     1     124.004 130.507 114.816  1.00  0.00     0.293 HD
ENDBRANCH  20  23
ENDBRANCH  14  15
ENDBRANCH  12  14
ENDBRANCH   9  10
ENDBRANCH   1   9
TORSDOF 10
ENDMDL
