MODEL 1
REMARK VINA RESULT:    -6.007      0.000      0.000
REMARK INTER + INTRA:         -16.278
REMARK INTER:                 -13.031
REMARK INTRA:                  -3.247
REMARK UNBOUND:                -3.247
REMARK SMILES CCCCCCCCCCCCCCCCCCCCCC(=O)[O-]
REMARK SMILES IDX 12 1 11 2 10 3 9 4 8 5 7 6 6 7 5 8 4 9 3 10 2 11 1 12 13 13
REMARK SMILES IDX 14 14 15 15 16 16 17 17 18 18 19 19 20 20 21 21 22 22 23 23
REMARK SMILES IDX 24 24
REMARK H PARENT
REMARK Flexibility Score: inf
ROOT
ATOM      1  C   UNL     1      15.809   1.226  15.950  1.00  0.00     0.000 C 
ENDROOT
BRANCH   1   2
ATOM      2  C   UNL     1      14.456   1.421  15.249  1.00  0.00     0.000 C 
BRANCH   2   3
ATOM      3  C   UNL     1      14.632   1.477  13.725  1.00  0.00     0.000 C 
BRANCH   3   4
ATOM      4  C   UNL     1      15.370   2.744  13.257  1.00  0.00    -0.000 C 
BRANCH   4   5
ATOM      5  C   UNL     1      15.865   2.707  11.796  1.00  0.00    -0.000 C 
BRANCH   5   6
ATOM      6  C   UNL     1      16.303   1.319  11.286  1.00  0.00    -0.000 C 
BRANCH   6   7
ATOM      7  C   UNL     1      17.721   0.890  11.704  1.00  0.00    -0.000 C 
BRANCH   7   8
ATOM      8  C   UNL     1      17.737  -0.430  12.493  1.00  0.00    -0.000 C 
BRANCH   8   9
ATOM      9  C   UNL     1      18.143  -0.227  13.969  1.00  0.00    -0.000 C 
BRANCH   9  10
ATOM     10  C   UNL     1      19.240  -1.195  14.454  1.00  0.00    -0.000 C 
BRANCH  10  11
ATOM     11  C   UNL     1      20.025  -0.715  15.684  1.00  0.00    -0.003 C 
ATOM     12  C   UNL     1      19.435   0.549  16.311  1.00  0.00     0.004 C 
ENDBRANCH  10  11
ENDBRANCH   9  10
ENDBRANCH   8   9
ENDBRANCH   7   8
ENDBRANCH   6   7
ENDBRANCH   5   6
ENDBRANCH   4   5
ENDBRANCH   3   4
ENDBRANCH   2   3
ENDBRANCH   1   2
BRANCH   1  13
ATOM     13  C   UNL     1      16.182   2.404  16.867  1.00  0.00     0.000 C 
BRANCH  13  14
ATOM     14  C   UNL     1      15.084   3.475  17.032  1.00  0.00     0.000 C 
BRANCH  14  15
ATOM     15  C   UNL     1      14.319   3.425  18.367  1.00  0.00     0.000 C 
BRANCH  15  16
ATOM     16  C   UNL     1      13.249   2.323  18.400  1.00  0.00     0.000 C 
BRANCH  16  17
ATOM     17  C   UNL     1      13.715   1.125  19.241  1.00  0.00     0.000 C 
BRANCH  17  18
ATOM     18  C   UNL     1      14.910   1.479  20.151  1.00  0.00     0.000 C 
BRANCH  18  19
ATOM     19  C   UNL     1      16.012   0.406  20.166  1.00  0.00     0.000 C 
BRANCH  19  20
ATOM     20  C   UNL     1      15.776  -0.709  19.135  1.00  0.00     0.006 C 
BRANCH  20  21
ATOM     21  C   UNL     1      17.090  -1.313  18.622  1.00  0.00     0.053 C 
BRANCH  21  22
ATOM     22  C   UNL     1      16.863  -2.219  17.450  1.00  0.00     0.041 C 
ATOM     23  O   UNL     1      15.735  -2.260  16.890  1.00  0.00    -0.550 OA
ATOM     24  O   UNL     1      17.905  -2.994  16.958  1.00  0.00    -0.550 OA
ENDBRANCH  21  22
ENDBRANCH  20  21
ENDBRANCH  19  20
ENDBRANCH  18  19
ENDBRANCH  17  18
ENDBRANCH  16  17
ENDBRANCH  15  16
ENDBRANCH  14  15
ENDBRANCH  13  14
ENDBRANCH   1  13
TORSDOF 20
ENDMDL
MODEL 2
REMARK VINA RESULT:    -5.917      2.092      4.895
REMARK INTER + INTRA:         -16.082
REMARK INTER:                 -13.052
REMARK INTRA:                  -3.030
REMARK UNBOUND:                -3.247
REMARK SMILES CCCCCCCCCCCCCCCCCCCCCC(=O)[O-]
REMARK SMILES IDX 12 1 11 2 10 3 9 4 8 5 7 6 6 7 5 8 4 9 3 10 2 11 1 12 13 13
REMARK SMILES IDX 14 14 15 15 16 16 17 17 18 18 19 19 20 20 21 21 22 22 23 23
REMARK SMILES IDX 24 24
REMARK H PARENT
REMARK Flexibility Score: inf
ROOT
ATOM      1  C   UNL     1      18.876  -2.593  16.211  1.00  0.00     0.000 C 
ENDROOT
BRANCH   1   2
ATOM      2  C   UNL     1      19.946  -1.648  15.646  1.00  0.00     0.000 C 
BRANCH   2   3
ATOM      3  C   UNL     1      19.331  -0.296  15.258  1.00  0.00     0.000 C 
BRANCH   3   4
ATOM      4  C   UNL     1      18.685  -0.314  13.861  1.00  0.00    -0.000 C 
BRANCH   4   5
ATOM      5  C   UNL     1      17.148  -0.446  13.856  1.00  0.00    -0.000 C 
BRANCH   5   6
ATOM      6  C   UNL     1      16.391   0.660  14.619  1.00  0.00    -0.000 C 
BRANCH   6   7
ATOM      7  C   UNL     1      15.109   1.164  13.931  1.00  0.00    -0.000 C 
BRANCH   7   8
ATOM      8  C   UNL     1      15.080   2.693  13.771  1.00  0.00    -0.000 C 
BRANCH   8   9
ATOM      9  C   UNL     1      15.493   3.143  12.353  1.00  0.00    -0.000 C 
BRANCH   9  10
ATOM     10  C   UNL     1      15.780   1.977  11.387  1.00  0.00    -0.000 C 
BRANCH  10  11
ATOM     11  C   UNL     1      17.248   1.849  10.950  1.00  0.00    -0.003 C 
ATOM     12  C   UNL     1      17.530   0.558  10.180  1.00  0.00     0.004 C 
ENDBRANCH  10  11
ENDBRANCH   9  10
ENDBRANCH   8   9
ENDBRANCH   7   8
ENDBRANCH   6   7
ENDBRANCH   5   6
ENDBRANCH   4   5
ENDBRANCH   3   4
ENDBRANCH   2   3
ENDBRANCH   1   2
BRANCH   1  13
ATOM     13  C   UNL     1      17.960  -1.910  17.242  1.00  0.00     0.000 C 
BRANCH  13  14
ATOM     14  C   UNL     1      16.455  -2.199  17.070  1.00  0.00     0.000 C 
BRANCH  14  15
ATOM     15  C   UNL     1      15.514  -1.179  17.736  1.00  0.00     0.000 C 
BRANCH  15  16
ATOM     16  C   UNL     1      16.250  -0.213  18.676  1.00  0.00     0.000 C 
BRANCH  16  17
ATOM     17  C   UNL     1      15.835  -0.441  20.137  1.00  0.00     0.000 C 
BRANCH  17  18
ATOM     18  C   UNL     1      14.662   0.469  20.561  1.00  0.00     0.000 C 
BRANCH  18  19
ATOM     19  C   UNL     1      14.562   1.768  19.743  1.00  0.00     0.000 C 
BRANCH  19  20
ATOM     20  C   UNL     1      13.326   1.808  18.830  1.00  0.00     0.006 C 
BRANCH  20  21
ATOM     21  C   UNL     1      13.663   2.299  17.416  1.00  0.00     0.053 C 
BRANCH  21  22
ATOM     22  C   UNL     1      14.648   3.428  17.443  1.00  0.00     0.041 C 
ATOM     23  O   UNL     1      14.298   4.565  17.856  1.00  0.00    -0.550 OA
ATOM     24  O   UNL     1      15.961   3.215  17.042  1.00  0.00    -0.550 OA
ENDBRANCH  21  22
ENDBRANCH  20  21
ENDBRANCH  19  20
ENDBRANCH  18  19
ENDBRANCH  17  18
ENDBRANCH  16  17
ENDBRANCH  15  16
ENDBRANCH  14  15
ENDBRANCH  13  14
ENDBRANCH   1  13
TORSDOF 20
ENDMDL
MODEL 3
REMARK VINA RESULT:    -5.847      1.562      4.854
REMARK INTER + INTRA:         -15.930
REMARK INTER:                 -12.761
REMARK INTRA:                  -3.169
REMARK UNBOUND:                -3.247
REMARK SMILES CCCCCCCCCCCCCCCCCCCCCC(=O)[O-]
REMARK SMILES IDX 12 1 11 2 10 3 9 4 8 5 7 6 6 7 5 8 4 9 3 10 2 11 1 12 13 13
REMARK SMILES IDX 14 14 15 15 16 16 17 17 18 18 19 19 20 20 21 21 22 22 23 23
REMARK SMILES IDX 24 24
REMARK H PARENT
REMARK Flexibility Score: inf
ROOT
ATOM      1  C   UNL     1      14.983   1.289  20.002  1.00  0.00     0.000 C 
ENDROOT
BRANCH   1   2
ATOM      2  C   UNL     1      13.831   0.487  19.379  1.00  0.00     0.000 C 
BRANCH   2   3
ATOM      3  C   UNL     1      13.636   0.865  17.904  1.00  0.00     0.000 C 
BRANCH   3   4
ATOM      4  C   UNL     1      14.462   2.096  17.489  1.00  0.00    -0.000 C 
BRANCH   4   5
ATOM      5  C   UNL     1      13.658   3.218  16.801  1.00  0.00    -0.000 C 
BRANCH   5   6
ATOM      6  C   UNL     1      13.216   2.918  15.355  1.00  0.00    -0.000 C 
BRANCH   6   7
ATOM      7  C   UNL     1      14.193   2.047  14.544  1.00  0.00    -0.000 C 
BRANCH   7   8
ATOM      8  C   UNL     1      15.176   2.877  13.702  1.00  0.00    -0.000 C 
BRANCH   8   9
ATOM      9  C   UNL     1      15.384   2.286  12.290  1.00  0.00    -0.000 C 
BRANCH   9  10
ATOM     10  C   UNL     1      16.864   2.087  11.908  1.00  0.00    -0.000 C 
BRANCH  10  11
ATOM     11  C   UNL     1      17.208   0.689  11.372  1.00  0.00    -0.003 C 
ATOM     12  C   UNL     1      17.571   0.693   9.887  1.00  0.00     0.004 C 
ENDBRANCH  10  11
ENDBRANCH   9  10
ENDBRANCH   8   9
ENDBRANCH   7   8
ENDBRANCH   6   7
ENDBRANCH   5   6
ENDBRANCH   4   5
ENDBRANCH   3   4
ENDBRANCH   2   3
ENDBRANCH   1   2
BRANCH   1  13
ATOM     13  C   UNL     1      16.203   0.415  20.344  1.00  0.00     0.000 C 
BRANCH  13  14
ATOM     14  C   UNL     1      17.000  -0.096  19.127  1.00  0.00     0.000 C 
BRANCH  14  15
ATOM     15  C   UNL     1      16.908  -1.612  18.876  1.00  0.00     0.000 C 
BRANCH  15  16
ATOM     16  C   UNL     1      17.087  -1.985  17.397  1.00  0.00     0.000 C 
BRANCH  16  17
ATOM     17  C   UNL     1      15.900  -1.494  16.556  1.00  0.00     0.000 C 
BRANCH  17  18
ATOM     18  C   UNL     1      16.353  -0.777  15.266  1.00  0.00     0.000 C 
BRANCH  18  19
ATOM     19  C   UNL     1      17.416   0.309  15.505  1.00  0.00     0.000 C 
BRANCH  19  20
ATOM     20  C   UNL     1      18.753   0.001  14.811  1.00  0.00     0.006 C 
BRANCH  20  21
ATOM     21  C   UNL     1      19.922  -0.056  15.803  1.00  0.00     0.053 C 
BRANCH  21  22
ATOM     22  C   UNL     1      20.604  -1.390  15.778  1.00  0.00     0.041 C 
ATOM     23  O   UNL     1      19.958  -2.427  15.472  1.00  0.00    -0.550 OA
ATOM     24  O   UNL     1      21.961  -1.482  16.061  1.00  0.00    -0.550 OA
ENDBRANCH  21  22
ENDBRANCH  20  21
ENDBRANCH  19  20
ENDBRANCH  18  19
ENDBRANCH  17  18
ENDBRANCH  16  17
ENDBRANCH  15  16
ENDBRANCH  14  15
ENDBRANCH  13  14
ENDBRANCH   1  13
TORSDOF 20
ENDMDL
MODEL 4
REMARK VINA RESULT:    -5.812      1.273      6.005
REMARK INTER + INTRA:         -15.854
REMARK INTER:                 -13.496
REMARK INTRA:                  -2.358
REMARK UNBOUND:                -3.247
REMARK SMILES CCCCCCCCCCCCCCCCCCCCCC(=O)[O-]
REMARK SMILES IDX 12 1 11 2 10 3 9 4 8 5 7 6 6 7 5 8 4 9 3 10 2 11 1 12 13 13
REMARK SMILES IDX 14 14 15 15 16 16 17 17 18 18 19 19 20 20 21 21 22 22 23 23
REMARK SMILES IDX 24 24
REMARK H PARENT
REMARK Flexibility Score: inf
ROOT
ATOM      1  C   UNL     1      14.480   1.868  15.032  1.00  0.00     0.000 C 
ENDROOT
BRANCH   1   2
ATOM      2  C   UNL     1      13.256   2.767  15.259  1.00  0.00     0.000 C 
BRANCH   2   3
ATOM      3  C   UNL     1      12.875   2.810  16.746  1.00  0.00     0.000 C 
BRANCH   3   4
ATOM      4  C   UNL     1      13.658   3.877  17.531  1.00  0.00    -0.000 C 
BRANCH   4   5
ATOM      5  C   UNL     1      13.847   3.574  19.032  1.00  0.00    -0.000 C 
BRANCH   5   6
ATOM      6  C   UNL     1      14.014   2.083  19.385  1.00  0.00    -0.000 C 
BRANCH   6   7
ATOM      7  C   UNL     1      14.690   1.806  20.740  1.00  0.00    -0.000 C 
BRANCH   7   8
ATOM      8  C   UNL     1      15.196   0.361  20.872  1.00  0.00    -0.000 C 
BRANCH   8   9
ATOM      9  C   UNL     1      15.238  -0.373  19.514  1.00  0.00    -0.000 C 
BRANCH   9  10
ATOM     10  C   UNL     1      16.561  -1.117  19.246  1.00  0.00    -0.000 C 
BRANCH  10  11
ATOM     11  C   UNL     1      17.735  -0.215  18.831  1.00  0.00    -0.003 C 
ATOM     12  C   UNL     1      17.281   1.068  18.134  1.00  0.00     0.004 C 
ENDBRANCH  10  11
ENDBRANCH   9  10
ENDBRANCH   8   9
ENDBRANCH   7   8
ENDBRANCH   6   7
ENDBRANCH   5   6
ENDBRANCH   4   5
ENDBRANCH   3   4
ENDBRANCH   2   3
ENDBRANCH   1   2
BRANCH   1  13
ATOM     13  C   UNL     1      14.724   1.555  13.545  1.00  0.00     0.000 C 
BRANCH  13  14
ATOM     14  C   UNL     1      15.531   2.621  12.778  1.00  0.00     0.000 C 
BRANCH  14  15
ATOM     15  C   UNL     1      15.684   2.362  11.268  1.00  0.00     0.000 C 
BRANCH  15  16
ATOM     16  C   UNL     1      17.134   2.062  10.858  1.00  0.00     0.000 C 
BRANCH  16  17
ATOM     17  C   UNL     1      17.492   0.593  11.127  1.00  0.00     0.000 C 
BRANCH  17  18
ATOM     18  C   UNL     1      18.194   0.403  12.489  1.00  0.00     0.000 C 
BRANCH  18  19
ATOM     19  C   UNL     1      17.584  -0.719  13.346  1.00  0.00     0.000 C 
BRANCH  19  20
ATOM     20  C   UNL     1      17.669  -0.435  14.854  1.00  0.00     0.006 C 
BRANCH  20  21
ATOM     21  C   UNL     1      19.101  -0.559  15.389  1.00  0.00     0.053 C 
BRANCH  21  22
ATOM     22  C   UNL     1      19.433  -1.972  15.760  1.00  0.00     0.041 C 
ATOM     23  O   UNL     1      20.522  -2.485  15.392  1.00  0.00    -0.550 OA
ATOM     24  O   UNL     1      18.553  -2.711  16.541  1.00  0.00    -0.550 OA
ENDBRANCH  21  22
ENDBRANCH  20  21
ENDBRANCH  19  20
ENDBRANCH  18  19
ENDBRANCH  17  18
ENDBRANCH  16  17
ENDBRANCH  15  16
ENDBRANCH  14  15
ENDBRANCH  13  14
ENDBRANCH   1  13
TORSDOF 20
ENDMDL
MODEL 5
REMARK VINA RESULT:    -5.798      2.273      4.685
REMARK INTER + INTRA:         -15.825
REMARK INTER:                 -12.611
REMARK INTRA:                  -3.214
REMARK UNBOUND:                -3.247
REMARK SMILES CCCCCCCCCCCCCCCCCCCCCC(=O)[O-]
REMARK SMILES IDX 12 1 11 2 10 3 9 4 8 5 7 6 6 7 5 8 4 9 3 10 2 11 1 12 13 13
REMARK SMILES IDX 14 14 15 15 16 16 17 17 18 18 19 19 20 20 21 21 22 22 23 23
REMARK SMILES IDX 24 24
REMARK H PARENT
REMARK Flexibility Score: inf
ROOT
ATOM      1  C   UNL     1      18.988  -0.833  16.172  1.00  0.00     0.000 C 
ENDROOT
BRANCH   1   2
ATOM      2  C   UNL     1      19.083  -0.860  14.640  1.00  0.00     0.000 C 
BRANCH   2   3
ATOM      3  C   UNL     1      17.907  -0.105  14.004  1.00  0.00     0.000 C 
BRANCH   3   4
ATOM      4  C   UNL     1      16.539  -0.670  14.425  1.00  0.00    -0.000 C 
BRANCH   4   5
ATOM      5  C   UNL     1      15.474   0.392  14.770  1.00  0.00    -0.000 C 
BRANCH   5   6
ATOM      6  C   UNL     1      15.893   1.852  14.509  1.00  0.00    -0.000 C 
BRANCH   6   7
ATOM      7  C   UNL     1      15.004   2.616  13.512  1.00  0.00    -0.000 C 
BRANCH   7   8
ATOM      8  C   UNL     1      15.682   2.830  12.148  1.00  0.00    -0.000 C 
BRANCH   8   9
ATOM      9  C   UNL     1      15.880   1.507  11.377  1.00  0.00    -0.000 C 
BRANCH   9  10
ATOM     10  C   UNL     1      17.311   1.306  10.840  1.00  0.00    -0.000 C 
BRANCH  10  11
ATOM     11  C   UNL     1      17.458   0.176   9.808  1.00  0.00    -0.003 C 
ATOM     12  C   UNL     1      18.189   0.619   8.541  1.00  0.00     0.004 C 
ENDBRANCH  10  11
ENDBRANCH   9  10
ENDBRANCH   8   9
ENDBRANCH   7   8
ENDBRANCH   6   7
ENDBRANCH   5   6
ENDBRANCH   4   5
ENDBRANCH   3   4
ENDBRANCH   2   3
ENDBRANCH   1   2
BRANCH   1  13
ATOM     13  C   UNL     1      18.887   0.595  16.739  1.00  0.00     0.000 C 
BRANCH  13  14
ATOM     14  C   UNL     1      17.659   0.855  17.636  1.00  0.00     0.000 C 
BRANCH  14  15
ATOM     15  C   UNL     1      17.748   0.260  19.052  1.00  0.00     0.000 C 
BRANCH  15  16
ATOM     16  C   UNL     1      16.636  -0.760  19.342  1.00  0.00     0.000 C 
BRANCH  16  17
ATOM     17  C   UNL     1      16.060  -1.335  18.040  1.00  0.00     0.000 C 
BRANCH  17  18
ATOM     18  C   UNL     1      14.542  -1.596  18.137  1.00  0.00     0.000 C 
BRANCH  18  19
ATOM     19  C   UNL     1      13.765  -0.467  18.834  1.00  0.00     0.000 C 
BRANCH  19  20
ATOM     20  C   UNL     1      13.565   0.765  17.936  1.00  0.00     0.006 C 
BRANCH  20  21
ATOM     21  C   UNL     1      14.121   2.045  18.572  1.00  0.00     0.053 C 
BRANCH  21  22
ATOM     22  C   UNL     1      14.140   3.184  17.599  1.00  0.00     0.041 C 
ATOM     23  O   UNL     1      13.060   3.674  17.176  1.00  0.00    -0.550 OA
ATOM     24  O   UNL     1      15.350   3.725  17.185  1.00  0.00    -0.550 OA
ENDBRANCH  21  22
ENDBRANCH  20  21
ENDBRANCH  19  20
ENDBRANCH  18  19
ENDBRANCH  17  18
ENDBRANCH  16  17
ENDBRANCH  15  16
ENDBRANCH  14  15
ENDBRANCH  13  14
ENDBRANCH   1  13
TORSDOF 20
ENDMDL
MODEL 6
REMARK VINA RESULT:    -5.796      2.407      6.685
REMARK INTER + INTRA:         -15.819
REMARK INTER:                 -12.722
REMARK INTRA:                  -3.097
REMARK UNBOUND:                -3.247
REMARK SMILES CCCCCCCCCCCCCCCCCCCCCC(=O)[O-]
REMARK SMILES IDX 12 1 11 2 10 3 9 4 8 5 7 6 6 7 5 8 4 9 3 10 2 11 1 12 13 13
REMARK SMILES IDX 14 14 15 15 16 16 17 17 18 18 19 19 20 20 21 21 22 22 23 23
REMARK SMILES IDX 24 24
REMARK H PARENT
REMARK Flexibility Score: inf
ROOT
ATOM      1  C   UNL     1      16.374  -1.512  19.156  1.00  0.00     0.000 C 
ENDROOT
BRANCH   1   2
ATOM      2  C   UNL     1      16.505  -0.012  19.457  1.00  0.00     0.000 C 
BRANCH   2   3
ATOM      3  C   UNL     1      15.546   0.406  20.581  1.00  0.00     0.000 C 
BRANCH   3   4
ATOM      4  C   UNL     1      14.066   0.294  20.175  1.00  0.00    -0.000 C 
BRANCH   4   5
ATOM      5  C   UNL     1      13.617   1.271  19.070  1.00  0.00    -0.000 C 
BRANCH   5   6
ATOM      6  C   UNL     1      14.129   2.717  19.224  1.00  0.00    -0.000 C 
BRANCH   6   7
ATOM      7  C   UNL     1      13.307   3.782  18.476  1.00  0.00    -0.000 C 
BRANCH   7   8
ATOM      8  C   UNL     1      12.930   3.352  17.048  1.00  0.00    -0.000 C 
BRANCH   8   9
ATOM      9  C   UNL     1      14.164   3.221  16.130  1.00  0.00    -0.000 C 
BRANCH   9  10
ATOM     10  C   UNL     1      14.249   1.872  15.388  1.00  0.00    -0.000 C 
BRANCH  10  11
ATOM     11  C   UNL     1      15.524   1.061  15.669  1.00  0.00    -0.003 C 
ATOM     12  C   UNL     1      16.523   1.811  16.551  1.00  0.00     0.004 C 
ENDBRANCH  10  11
ENDBRANCH   9  10
ENDBRANCH   8   9
ENDBRANCH   7   8
ENDBRANCH   6   7
ENDBRANCH   5   6
ENDBRANCH   4   5
ENDBRANCH   3   4
ENDBRANCH   2   3
ENDBRANCH   1   2
BRANCH   1  13
ATOM     13  C   UNL     1      15.593  -1.795  17.859  1.00  0.00     0.000 C 
BRANCH  13  14
ATOM     14  C   UNL     1      16.456  -2.248  16.664  1.00  0.00     0.000 C 
BRANCH  14  15
ATOM     15  C   UNL     1      17.883  -2.698  17.024  1.00  0.00     0.000 C 
BRANCH  15  16
ATOM     16  C   UNL     1      18.929  -2.251  15.991  1.00  0.00     0.000 C 
BRANCH  16  17
ATOM     17  C   UNL     1      19.290  -0.770  16.177  1.00  0.00     0.000 C 
BRANCH  17  18
ATOM     18  C   UNL     1      19.283   0.006  14.842  1.00  0.00     0.000 C 
BRANCH  18  19
ATOM     19  C   UNL     1      18.341  -0.595  13.785  1.00  0.00     0.000 C 
BRANCH  19  20
ATOM     20  C   UNL     1      18.054   0.368  12.621  1.00  0.00     0.006 C 
BRANCH  20  21
ATOM     21  C   UNL     1      16.590   0.825  12.592  1.00  0.00     0.053 C 
BRANCH  21  22
ATOM     22  C   UNL     1      16.421   2.088  11.803  1.00  0.00     0.041 C 
ATOM     23  O   UNL     1      15.463   2.868  12.053  1.00  0.00    -0.550 OA
ATOM     24  O   UNL     1      17.338   2.418  10.814  1.00  0.00    -0.550 OA
ENDBRANCH  21  22
ENDBRANCH  20  21
ENDBRANCH  19  20
ENDBRANCH  18  19
ENDBRANCH  17  18
ENDBRANCH  16  17
ENDBRANCH  15  16
ENDBRANCH  14  15
ENDBRANCH  13  14
ENDBRANCH   1  13
TORSDOF 20
ENDMDL
MODEL 7
REMARK VINA RESULT:    -5.769      2.026      6.528
REMARK INTER + INTRA:         -15.761
REMARK INTER:                 -12.551
REMARK INTRA:                  -3.210
REMARK UNBOUND:                -3.247
REMARK SMILES CCCCCCCCCCCCCCCCCCCCCC(=O)[O-]
REMARK SMILES IDX 12 1 11 2 10 3 9 4 8 5 7 6 6 7 5 8 4 9 3 10 2 11 1 12 13 13
REMARK SMILES IDX 14 14 15 15 16 16 17 17 18 18 19 19 20 20 21 21 22 22 23 23
REMARK SMILES IDX 24 24
REMARK H PARENT
REMARK Flexibility Score: inf
ROOT
ATOM      1  C   UNL     1      16.196   1.667  16.168  1.00  0.00     0.000 C 
ENDROOT
BRANCH   1   2
ATOM      2  C   UNL     1      14.785   2.196  16.462  1.00  0.00     0.000 C 
BRANCH   2   3
ATOM      3  C   UNL     1      14.845   3.595  17.091  1.00  0.00     0.000 C 
BRANCH   3   4
ATOM      4  C   UNL     1      14.081   3.682  18.425  1.00  0.00    -0.000 C 
BRANCH   4   5
ATOM      5  C   UNL     1      13.720   2.323  19.059  1.00  0.00    -0.000 C 
BRANCH   5   6
ATOM      6  C   UNL     1      14.680   1.839  20.164  1.00  0.00    -0.000 C 
BRANCH   6   7
ATOM      7  C   UNL     1      14.563   0.345  20.519  1.00  0.00    -0.000 C 
BRANCH   7   8
ATOM      8  C   UNL     1      13.318  -0.318  19.908  1.00  0.00    -0.000 C 
BRANCH   8   9
ATOM      9  C   UNL     1      13.680  -1.430  18.900  1.00  0.00    -0.000 C 
BRANCH   9  10
ATOM     10  C   UNL     1      14.810  -1.046  17.925  1.00  0.00    -0.000 C 
BRANCH  10  11
ATOM     11  C   UNL     1      15.952  -2.069  17.826  1.00  0.00    -0.003 C 
ATOM     12  C   UNL     1      16.953  -1.956  18.976  1.00  0.00     0.004 C 
ENDBRANCH  10  11
ENDBRANCH   9  10
ENDBRANCH   8   9
ENDBRANCH   7   8
ENDBRANCH   6   7
ENDBRANCH   5   6
ENDBRANCH   4   5
ENDBRANCH   3   4
ENDBRANCH   2   3
ENDBRANCH   1   2
BRANCH   1  13
ATOM     13  C   UNL     1      17.152   1.817  17.365  1.00  0.00     0.000 C 
BRANCH  13  14
ATOM     14  C   UNL     1      18.314   0.805  17.402  1.00  0.00     0.000 C 
BRANCH  14  15
ATOM     15  C   UNL     1      18.929   0.467  16.031  1.00  0.00     0.000 C 
BRANCH  15  16
ATOM     16  C   UNL     1      18.677  -0.986  15.605  1.00  0.00     0.000 C 
BRANCH  16  17
ATOM     17  C   UNL     1      18.651  -1.117  14.075  1.00  0.00     0.000 C 
BRANCH  17  18
ATOM     18  C   UNL     1      18.534   0.252  13.373  1.00  0.00     0.000 C 
BRANCH  18  19
ATOM     19  C   UNL     1      17.729   0.207  12.063  1.00  0.00     0.000 C 
BRANCH  19  20
ATOM     20  C   UNL     1      17.446   1.603  11.485  1.00  0.00     0.006 C 
BRANCH  20  21
ATOM     21  C   UNL     1      15.946   1.857  11.287  1.00  0.00     0.053 C 
BRANCH  21  22
ATOM     22  C   UNL     1      15.256   2.143  12.586  1.00  0.00     0.041 C 
ATOM     23  O   UNL     1      15.338   3.287  13.109  1.00  0.00    -0.550 OA
ATOM     24  O   UNL     1      14.497   1.157  13.203  1.00  0.00    -0.550 OA
ENDBRANCH  21  22
ENDBRANCH  20  21
ENDBRANCH  19  20
ENDBRANCH  18  19
ENDBRANCH  17  18
ENDBRANCH  16  17
ENDBRANCH  15  16
ENDBRANCH  14  15
ENDBRANCH  13  14
ENDBRANCH   1  13
TORSDOF 20
ENDMDL
MODEL 8
REMARK VINA RESULT:    -5.762      1.523      6.068
REMARK INTER + INTRA:         -15.747
REMARK INTER:                 -12.957
REMARK INTRA:                  -2.790
REMARK UNBOUND:                -3.247
REMARK SMILES CCCCCCCCCCCCCCCCCCCCCC(=O)[O-]
REMARK SMILES IDX 12 1 11 2 10 3 9 4 8 5 7 6 6 7 5 8 4 9 3 10 2 11 1 12 13 13
REMARK SMILES IDX 14 14 15 15 16 16 17 17 18 18 19 19 20 20 21 21 22 22 23 23
REMARK SMILES IDX 24 24
REMARK H PARENT
REMARK Flexibility Score: inf
ROOT
ATOM      1  C   UNL     1      15.454   3.350  16.881  1.00  0.00     0.000 C 
ENDROOT
BRANCH   1   2
ATOM      2  C   UNL     1      14.342   3.859  17.808  1.00  0.00     0.000 C 
BRANCH   2   3
ATOM      3  C   UNL     1      13.719   2.703  18.603  1.00  0.00     0.000 C 
BRANCH   3   4
ATOM      4  C   UNL     1      14.405   2.476  19.962  1.00  0.00    -0.000 C 
BRANCH   4   5
ATOM      5  C   UNL     1      15.170   1.143  20.092  1.00  0.00    -0.000 C 
BRANCH   5   6
ATOM      6  C   UNL     1      14.412   0.019  20.827  1.00  0.00    -0.000 C 
BRANCH   6   7
ATOM      7  C   UNL     1      13.313  -0.673  20.000  1.00  0.00    -0.000 C 
BRANCH   7   8
ATOM      8  C   UNL     1      13.655  -0.759  18.504  1.00  0.00    -0.000 C 
BRANCH   8   9
ATOM      9  C   UNL     1      14.517  -1.996  18.169  1.00  0.00    -0.000 C 
BRANCH   9  10
ATOM     10  C   UNL     1      15.722  -1.689  17.258  1.00  0.00    -0.000 C 
BRANCH  10  11
ATOM     11  C   UNL     1      17.093  -2.009  17.875  1.00  0.00    -0.003 C 
ATOM     12  C   UNL     1      17.777  -0.780  18.475  1.00  0.00     0.004 C 
ENDBRANCH  10  11
ENDBRANCH   9  10
ENDBRANCH   8   9
ENDBRANCH   7   8
ENDBRANCH   6   7
ENDBRANCH   5   6
ENDBRANCH   4   5
ENDBRANCH   3   4
ENDBRANCH   2   3
ENDBRANCH   1   2
BRANCH   1  13
ATOM     13  C   UNL     1      15.357   1.839  16.605  1.00  0.00     0.000 C 
BRANCH  13  14
ATOM     14  C   UNL     1      15.033   1.462  15.145  1.00  0.00     0.000 C 
BRANCH  14  15
ATOM     15  C   UNL     1      14.155   2.475  14.389  1.00  0.00     0.000 C 
BRANCH  15  16
ATOM     16  C   UNL     1      14.937   3.273  13.335  1.00  0.00     0.000 C 
BRANCH  16  17
ATOM     17  C   UNL     1      16.158   2.486  12.839  1.00  0.00     0.000 C 
BRANCH  17  18
ATOM     18  C   UNL     1      15.904   1.812  11.473  1.00  0.00     0.000 C 
BRANCH  18  19
ATOM     19  C   UNL     1      17.032   0.865  11.033  1.00  0.00     0.000 C 
BRANCH  19  20
ATOM     20  C   UNL     1      18.068   0.612  12.141  1.00  0.00     0.006 C 
BRANCH  20  21
ATOM     21  C   UNL     1      17.824  -0.715  12.872  1.00  0.00     0.053 C 
BRANCH  21  22
ATOM     22  C   UNL     1      18.523  -0.753  14.197  1.00  0.00     0.041 C 
ATOM     23  O   UNL     1      19.380  -1.645  14.436  1.00  0.00    -0.550 OA
ATOM     24  O   UNL     1      18.251   0.215  15.155  1.00  0.00    -0.550 OA
ENDBRANCH  21  22
ENDBRANCH  20  21
ENDBRANCH  19  20
ENDBRANCH  18  19
ENDBRANCH  17  18
ENDBRANCH  16  17
ENDBRANCH  15  16
ENDBRANCH  14  15
ENDBRANCH  13  14
ENDBRANCH   1  13
TORSDOF 20
ENDMDL
MODEL 9
REMARK VINA RESULT:    -5.713      2.071      7.136
REMARK INTER + INTRA:         -15.639
REMARK INTER:                 -12.840
REMARK INTRA:                  -2.800
REMARK UNBOUND:                -3.247
REMARK SMILES CCCCCCCCCCCCCCCCCCCCCC(=O)[O-]
REMARK SMILES IDX 12 1 11 2 10 3 9 4 8 5 7 6 6 7 5 8 4 9 3 10 2 11 1 12 13 13
REMARK SMILES IDX 14 14 15 15 16 16 17 17 18 18 19 19 20 20 21 21 22 22 23 23
REMARK SMILES IDX 24 24
REMARK H PARENT
REMARK Flexibility Score: inf
ROOT
ATOM      1  C   UNL     1      15.946  -1.674  16.954  1.00  0.00     0.000 C 
ENDROOT
BRANCH   1   2
ATOM      2  C   UNL     1      17.282  -2.062  17.605  1.00  0.00     0.000 C 
BRANCH   2   3
ATOM      3  C   UNL     1      17.328  -1.611  19.072  1.00  0.00     0.000 C 
BRANCH   3   4
ATOM      4  C   UNL     1      17.415  -0.082  19.223  1.00  0.00    -0.000 C 
BRANCH   4   5
ATOM      5  C   UNL     1      16.237   0.567  19.978  1.00  0.00    -0.000 C 
BRANCH   5   6
ATOM      6  C   UNL     1      15.107  -0.400  20.387  1.00  0.00    -0.000 C 
BRANCH   6   7
ATOM      7  C   UNL     1      13.815  -0.278  19.559  1.00  0.00    -0.000 C 
BRANCH   7   8
ATOM      8  C   UNL     1      13.598   1.136  18.995  1.00  0.00    -0.000 C 
BRANCH   8   9
ATOM      9  C   UNL     1      13.635   1.165  17.452  1.00  0.00    -0.000 C 
BRANCH   9  10
ATOM     10  C   UNL     1      13.151   2.495  16.840  1.00  0.00    -0.000 C 
BRANCH  10  11
ATOM     11  C   UNL     1      13.029   3.656  17.839  1.00  0.00    -0.003 C 
ATOM     12  C   UNL     1      14.329   4.445  17.997  1.00  0.00     0.004 C 
ENDBRANCH  10  11
ENDBRANCH   9  10
ENDBRANCH   8   9
ENDBRANCH   7   8
ENDBRANCH   6   7
ENDBRANCH   5   6
ENDBRANCH   4   5
ENDBRANCH   3   4
ENDBRANCH   2   3
ENDBRANCH   1   2
BRANCH   1  13
ATOM     13  C   UNL     1      16.125  -0.856  15.663  1.00  0.00     0.000 C 
BRANCH  13  14
ATOM     14  C   UNL     1      16.911   0.461  15.829  1.00  0.00     0.000 C 
BRANCH  14  15
ATOM     15  C   UNL     1      18.223   0.544  15.029  1.00  0.00     0.000 C 
BRANCH  15  16
ATOM     16  C   UNL     1      18.536  -0.748  14.259  1.00  0.00     0.000 C 
BRANCH  16  17
ATOM     17  C   UNL     1      17.935  -0.709  12.847  1.00  0.00     0.000 C 
BRANCH  17  18
ATOM     18  C   UNL     1      18.020   0.696  12.214  1.00  0.00     0.000 C 
BRANCH  18  19
ATOM     19  C   UNL     1      17.218   0.834  10.908  1.00  0.00     0.000 C 
BRANCH  19  20
ATOM     20  C   UNL     1      15.911   1.624  11.089  1.00  0.00     0.006 C 
BRANCH  20  21
ATOM     21  C   UNL     1      16.011   2.663  12.213  1.00  0.00     0.053 C 
BRANCH  21  22
ATOM     22  C   UNL     1      15.073   2.352  13.339  1.00  0.00     0.041 C 
ATOM     23  O   UNL     1      14.894   3.189  14.264  1.00  0.00    -0.550 OA
ATOM     24  O   UNL     1      14.371   1.154  13.349  1.00  0.00    -0.550 OA
ENDBRANCH  21  22
ENDBRANCH  20  21
ENDBRANCH  19  20
ENDBRANCH  18  19
ENDBRANCH  17  18
ENDBRANCH  16  17
ENDBRANCH  15  16
ENDBRANCH  14  15
ENDBRANCH  13  14
ENDBRANCH   1  13
TORSDOF 20
ENDMDL
