MODEL 1
REMARK VINA RESULT:    -4.295      0.000      0.000
REMARK INTER + INTRA:          -4.670
REMARK INTER:                  -4.546
REMARK INTRA:                  -0.124
REMARK UNBOUND:                -0.124
REMARK SMILES C=C(C)[C@H]1CC=C(C)CC1
REMARK SMILES IDX 8 1 7 2 6 3 5 4 4 5 10 6 9 7 2 8 1 9 3 10
REMARK H PARENT
REMARK Flexibility Score: inf
ROOT
ATOM      1  C   UNL     1      -4.105   9.566  -6.149  1.00  0.00     0.039 C 
ATOM      2  C   UNL     1      -4.648   8.164  -6.137  1.00  0.00    -0.077 C 
ATOM      3  C   UNL     1      -3.838   7.152  -5.760  1.00  0.00    -0.027 C 
ATOM      4  C   UNL     1      -4.271   5.707  -5.765  1.00  0.00     0.035 C 
ATOM      5  C   UNL     1      -5.802   5.558  -5.689  1.00  0.00     0.018 C 
ATOM      6  C   UNL     1      -6.466   6.483  -6.719  1.00  0.00     0.013 C 
ATOM      7  C   UNL     1      -6.122   7.947  -6.418  1.00  0.00     0.031 C 
ENDROOT
BRANCH   5   8
ATOM      8  C   UNL     1      -6.234   4.109  -5.869  1.00  0.00    -0.077 C 
ATOM      9  C   UNL     1      -6.221   3.521  -7.078  1.00  0.00     0.008 C 
ATOM     10  C   UNL     1      -6.693   3.304  -4.682  1.00  0.00     0.039 C 
ENDBRANCH   5   8
TORSDOF 1
ENDMDL
MODEL 2
REMARK VINA RESULT:    -4.272      3.842      5.876
REMARK INTER + INTRA:          -4.646
REMARK INTER:                  -4.523
REMARK INTRA:                  -0.123
REMARK UNBOUND:                -0.124
REMARK SMILES C=C(C)[C@H]1CC=C(C)CC1
REMARK SMILES IDX 8 1 7 2 6 3 5 4 4 5 10 6 9 7 2 8 1 9 3 10
REMARK H PARENT
REMARK Flexibility Score: inf
ROOT
ATOM      1  C   UNL     1      -6.138   5.748  -4.143  1.00  0.00     0.039 C 
ATOM      2  C   UNL     1      -6.443   4.726  -3.084  1.00  0.00    -0.077 C 
ATOM      3  C   UNL     1      -6.478   3.419  -3.425  1.00  0.00    -0.027 C 
ATOM      4  C   UNL     1      -6.826   2.323  -2.449  1.00  0.00     0.035 C 
ATOM      5  C   UNL     1      -6.586   2.748  -0.988  1.00  0.00     0.018 C 
ATOM      6  C   UNL     1      -7.216   4.126  -0.736  1.00  0.00     0.013 C 
ATOM      7  C   UNL     1      -6.568   5.180  -1.643  1.00  0.00     0.031 C 
ENDROOT
BRANCH   5   8
ATOM      8  C   UNL     1      -7.101   1.703  -0.008  1.00  0.00    -0.077 C 
ATOM      9  C   UNL     1      -6.324   1.229   0.982  1.00  0.00     0.008 C 
ATOM     10  C   UNL     1      -8.506   1.174  -0.135  1.00  0.00     0.039 C 
ENDBRANCH   5   8
TORSDOF 1
ENDMDL
MODEL 3
REMARK VINA RESULT:    -4.150      4.135      7.444
REMARK INTER + INTRA:          -4.517
REMARK INTER:                  -4.389
REMARK INTRA:                  -0.128
REMARK UNBOUND:                -0.124
REMARK SMILES C=C(C)[C@H]1CC=C(C)CC1
REMARK SMILES IDX 8 1 7 2 6 3 5 4 4 5 10 6 9 7 2 8 1 9 3 10
REMARK H PARENT
REMARK Flexibility Score: inf
ROOT
ATOM      1  C   UNL     1      -8.619   0.617   1.581  1.00  0.00     0.039 C 
ATOM      2  C   UNL     1      -8.199   1.216   0.268  1.00  0.00    -0.077 C 
ATOM      3  C   UNL     1      -6.928   1.649   0.121  1.00  0.00    -0.027 C 
ATOM      4  C   UNL     1      -6.425   2.313  -1.136  1.00  0.00     0.035 C 
ATOM      5  C   UNL     1      -7.278   1.949  -2.366  1.00  0.00     0.018 C 
ATOM      6  C   UNL     1      -8.768   2.128  -2.038  1.00  0.00     0.013 C 
ATOM      7  C   UNL     1      -9.175   1.192  -0.893  1.00  0.00     0.031 C 
ENDROOT
BRANCH   5   8
ATOM      8  C   UNL     1      -6.869   2.757  -3.591  1.00  0.00    -0.077 C 
ATOM      9  C   UNL     1      -6.304   3.970  -3.471  1.00  0.00     0.008 C 
ATOM     10  C   UNL     1      -7.098   2.202  -4.973  1.00  0.00     0.039 C 
ENDBRANCH   5   8
TORSDOF 1
ENDMDL
MODEL 4
REMARK VINA RESULT:    -4.128      1.175      4.481
REMARK INTER + INTRA:          -4.493
REMARK INTER:                  -4.367
REMARK INTRA:                  -0.127
REMARK UNBOUND:                -0.124
REMARK SMILES C=C(C)[C@H]1CC=C(C)CC1
REMARK SMILES IDX 8 1 7 2 6 3 5 4 4 5 10 6 9 7 2 8 1 9 3 10
REMARK H PARENT
REMARK Flexibility Score: inf
ROOT
ATOM      1  C   UNL     1      -7.055   2.469  -4.519  1.00  0.00     0.039 C 
ATOM      2  C   UNL     1      -6.440   3.719  -5.085  1.00  0.00    -0.077 C 
ATOM      3  C   UNL     1      -6.199   4.762  -4.261  1.00  0.00    -0.027 C 
ATOM      4  C   UNL     1      -5.636   6.076  -4.741  1.00  0.00     0.035 C 
ATOM      5  C   UNL     1      -4.869   5.930  -6.068  1.00  0.00     0.018 C 
ATOM      6  C   UNL     1      -5.713   5.131  -7.072  1.00  0.00     0.013 C 
ATOM      7  C   UNL     1      -5.987   3.722  -6.532  1.00  0.00     0.031 C 
ENDROOT
BRANCH   5   8
ATOM      8  C   UNL     1      -4.456   7.284  -6.629  1.00  0.00    -0.077 C 
ATOM      9  C   UNL     1      -3.823   8.192  -5.867  1.00  0.00     0.008 C 
ATOM     10  C   UNL     1      -4.757   7.632  -8.064  1.00  0.00     0.039 C 
ENDBRANCH   5   8
TORSDOF 1
ENDMDL
MODEL 5
REMARK VINA RESULT:    -4.109      5.443      7.862
REMARK INTER + INTRA:          -4.473
REMARK INTER:                  -4.344
REMARK INTRA:                  -0.129
REMARK UNBOUND:                -0.124
REMARK SMILES C=C(C)[C@H]1CC=C(C)CC1
REMARK SMILES IDX 8 1 7 2 6 3 5 4 4 5 10 6 9 7 2 8 1 9 3 10
REMARK H PARENT
REMARK Flexibility Score: inf
ROOT
ATOM      1  C   UNL     1      -6.031  15.125  -0.500  1.00  0.00     0.039 C 
ATOM      2  C   UNL     1      -5.972  14.244  -1.717  1.00  0.00    -0.077 C 
ATOM      3  C   UNL     1      -7.080  14.100  -2.475  1.00  0.00    -0.027 C 
ATOM      4  C   UNL     1      -7.139  13.198  -3.683  1.00  0.00     0.035 C 
ATOM      5  C   UNL     1      -5.743  12.924  -4.271  1.00  0.00     0.018 C 
ATOM      6  C   UNL     1      -4.775  12.517  -3.150  1.00  0.00     0.013 C 
ATOM      7  C   UNL     1      -4.638  13.653  -2.129  1.00  0.00     0.031 C 
ENDROOT
BRANCH   5   8
ATOM      8  C   UNL     1      -5.796  11.879  -5.379  1.00  0.00    -0.077 C 
ATOM      9  C   UNL     1      -6.889  11.730  -6.147  1.00  0.00     0.008 C 
ATOM     10  C   UNL     1      -4.612  10.983  -5.630  1.00  0.00     0.039 C 
ENDBRANCH   5   8
TORSDOF 1
ENDMDL
MODEL 6
REMARK VINA RESULT:    -4.061      3.940      7.449
REMARK INTER + INTRA:          -4.423
REMARK INTER:                  -4.298
REMARK INTRA:                  -0.125
REMARK UNBOUND:                -0.124
REMARK SMILES C=C(C)[C@H]1CC=C(C)CC1
REMARK SMILES IDX 8 1 7 2 6 3 5 4 4 5 10 6 9 7 2 8 1 9 3 10
REMARK H PARENT
REMARK Flexibility Score: inf
ROOT
ATOM      1  C   UNL     1      -9.167   0.611   1.091  1.00  0.00     0.039 C 
ATOM      2  C   UNL     1      -8.555   1.214  -0.142  1.00  0.00    -0.077 C 
ATOM      3  C   UNL     1      -9.319   1.369  -1.245  1.00  0.00    -0.027 C 
ATOM      4  C   UNL     1      -8.785   1.912  -2.547  1.00  0.00     0.035 C 
ATOM      5  C   UNL     1      -7.516   2.761  -2.345  1.00  0.00     0.018 C 
ATOM      6  C   UNL     1      -6.521   2.006  -1.450  1.00  0.00     0.013 C 
ATOM      7  C   UNL     1      -7.138   1.751  -0.069  1.00  0.00     0.031 C 
ENDROOT
BRANCH   5   8
ATOM      8  C   UNL     1      -6.889   3.158  -3.675  1.00  0.00    -0.077 C 
ATOM      9  C   UNL     1      -6.239   4.326  -3.820  1.00  0.00     0.008 C 
ATOM     10  C   UNL     1      -6.994   2.240  -4.865  1.00  0.00     0.039 C 
ENDBRANCH   5   8
TORSDOF 1
ENDMDL
MODEL 7
REMARK VINA RESULT:    -4.060      2.421      5.329
REMARK INTER + INTRA:          -4.422
REMARK INTER:                  -4.297
REMARK INTRA:                  -0.124
REMARK UNBOUND:                -0.124
REMARK SMILES C=C(C)[C@H]1CC=C(C)CC1
REMARK SMILES IDX 8 1 7 2 6 3 5 4 4 5 10 6 9 7 2 8 1 9 3 10
REMARK H PARENT
REMARK Flexibility Score: inf
ROOT
ATOM      1  C   UNL     1      -6.877   2.007  -0.747  1.00  0.00     0.039 C 
ATOM      2  C   UNL     1      -6.727   3.054  -1.815  1.00  0.00    -0.077 C 
ATOM      3  C   UNL     1      -6.621   4.350  -1.452  1.00  0.00    -0.027 C 
ATOM      4  C   UNL     1      -6.521   5.479  -2.448  1.00  0.00     0.035 C 
ATOM      5  C   UNL     1      -6.001   5.002  -3.816  1.00  0.00     0.018 C 
ATOM      6  C   UNL     1      -6.775   3.752  -4.261  1.00  0.00     0.013 C 
ATOM      7  C   UNL     1      -6.565   2.612  -3.257  1.00  0.00     0.031 C 
ENDROOT
BRANCH   5   8
ATOM      8  C   UNL     1      -6.068   6.109  -4.859  1.00  0.00    -0.077 C 
ATOM      9  C   UNL     1      -7.245   6.622  -5.260  1.00  0.00     0.008 C 
ATOM     10  C   UNL     1      -4.802   6.652  -5.469  1.00  0.00     0.039 C 
ENDBRANCH   5   8
TORSDOF 1
ENDMDL
MODEL 8
REMARK VINA RESULT:    -4.046      4.135      6.358
REMARK INTER + INTRA:          -4.406
REMARK INTER:                  -4.285
REMARK INTRA:                  -0.121
REMARK UNBOUND:                -0.124
REMARK SMILES C=C(C)[C@H]1CC=C(C)CC1
REMARK SMILES IDX 8 1 7 2 6 3 5 4 4 5 10 6 9 7 2 8 1 9 3 10
REMARK H PARENT
REMARK Flexibility Score: inf
ROOT
ATOM      1  C   UNL     1      -6.777   2.043  -4.127  1.00  0.00     0.039 C 
ATOM      2  C   UNL     1      -6.799   3.112  -3.071  1.00  0.00    -0.077 C 
ATOM      3  C   UNL     1      -7.071   2.767  -1.794  1.00  0.00    -0.027 C 
ATOM      4  C   UNL     1      -7.169   3.771  -0.672  1.00  0.00     0.035 C 
ATOM      5  C   UNL     1      -6.407   5.072  -0.989  1.00  0.00     0.018 C 
ATOM      6  C   UNL     1      -6.780   5.565  -2.395  1.00  0.00     0.013 C 
ATOM      7  C   UNL     1      -6.383   4.522  -3.446  1.00  0.00     0.031 C 
ENDROOT
BRANCH   5   8
ATOM      8  C   UNL     1      -6.655   6.139   0.069  1.00  0.00    -0.077 C 
ATOM      9  C   UNL     1      -5.690   6.508   0.929  1.00  0.00     0.008 C 
ATOM     10  C   UNL     1      -8.004   6.803   0.171  1.00  0.00     0.039 C 
ENDBRANCH   5   8
TORSDOF 1
ENDMDL
MODEL 9
REMARK VINA RESULT:    -3.973      2.889      5.317
REMARK INTER + INTRA:          -4.330
REMARK INTER:                  -4.202
REMARK INTRA:                  -0.128
REMARK UNBOUND:                -0.124
REMARK SMILES C=C(C)[C@H]1CC=C(C)CC1
REMARK SMILES IDX 8 1 7 2 6 3 5 4 4 5 10 6 9 7 2 8 1 9 3 10
REMARK H PARENT
REMARK Flexibility Score: inf
ROOT
ATOM      1  C   UNL     1      -5.958   4.559  -6.044  1.00  0.00     0.039 C 
ATOM      2  C   UNL     1      -6.334   3.851  -4.773  1.00  0.00    -0.077 C 
ATOM      3  C   UNL     1      -6.209   4.504  -3.597  1.00  0.00    -0.027 C 
ATOM      4  C   UNL     1      -6.509   3.864  -2.265  1.00  0.00     0.035 C 
ATOM      5  C   UNL     1      -7.463   2.662  -2.399  1.00  0.00     0.018 C 
ATOM      6  C   UNL     1      -6.974   1.732  -3.519  1.00  0.00     0.013 C 
ATOM      7  C   UNL     1      -6.967   2.476  -4.860  1.00  0.00     0.031 C 
ENDROOT
BRANCH   5   8
ATOM      8  C   UNL     1      -7.620   1.921  -1.078  1.00  0.00    -0.077 C 
ATOM      9  C   UNL     1      -6.612   1.851  -0.191  1.00  0.00     0.008 C 
ATOM     10  C   UNL     1      -8.923   1.244  -0.741  1.00  0.00     0.039 C 
ENDBRANCH   5   8
TORSDOF 1
ENDMDL
