MODEL 1
REMARK VINA RESULT:    -3.338      0.000      0.000
REMARK INTER + INTRA:          -3.554
REMARK INTER:                  -3.533
REMARK INTRA:                  -0.021
REMARK UNBOUND:                -0.021
REMARK SMILES O=C([O-])c1cccnc1
REMARK SMILES IDX 4 1 5 2 9 3 6 4 8 5 7 6 2 7 1 8 3 9
REMARK H PARENT
REMARK Flexibility Score: inf
ROOT
ATOM      1  C   UNL     1      63.800  34.855  60.877  1.00  0.00     0.016 A 
ATOM      2  C   UNL     1      62.477  35.283  60.677  1.00  0.00     0.013 A 
ATOM      3  C   UNL     1      64.096  33.494  60.692  1.00  0.00     0.120 A 
ATOM      4  C   UNL     1      61.492  34.367  60.303  1.00  0.00     0.021 A 
ATOM      5  N   UNL     1      63.118  32.622  60.329  1.00  0.00    -0.264 NA
ATOM      6  C   UNL     1      61.835  33.026  60.133  1.00  0.00     0.111 A 
ENDROOT
BRANCH   1   7
ATOM      7  C   UNL     1      64.857  35.809  61.273  1.00  0.00     0.073 C 
ATOM      8  O   UNL     1      66.041  35.656  60.871  1.00  0.00    -0.545 OA
ATOM      9  O   UNL     1      64.559  36.890  62.096  1.00  0.00    -0.545 OA
ENDBRANCH   1   7
TORSDOF 1
ENDMDL
MODEL 2
REMARK VINA RESULT:    -3.283     15.326     16.512
REMARK INTER + INTRA:          -3.496
REMARK INTER:                  -3.475
REMARK INTRA:                  -0.021
REMARK UNBOUND:                -0.021
REMARK SMILES O=C([O-])c1cccnc1
REMARK SMILES IDX 4 1 5 2 9 3 6 4 8 5 7 6 2 7 1 8 3 9
REMARK H PARENT
REMARK Flexibility Score: inf
ROOT
ATOM      1  C   UNL     1      54.820  26.589  49.572  1.00  0.00     0.016 A 
ATOM      2  C   UNL     1      54.381  27.904  49.806  1.00  0.00     0.013 A 
ATOM      3  C   UNL     1      56.170  26.284  49.812  1.00  0.00     0.120 A 
ATOM      4  C   UNL     1      55.277  28.871  50.266  1.00  0.00     0.021 A 
ATOM      5  N   UNL     1      57.022  27.245  50.260  1.00  0.00    -0.264 NA
ATOM      6  C   UNL     1      56.608  28.519  50.488  1.00  0.00     0.111 A 
ENDROOT
BRANCH   1   7
ATOM      7  C   UNL     1      53.888  25.551  49.084  1.00  0.00     0.073 C 
ATOM      8  O   UNL     1      53.998  24.358  49.473  1.00  0.00    -0.545 OA
ATOM      9  O   UNL     1      52.875  25.877  48.189  1.00  0.00    -0.545 OA
ENDBRANCH   1   7
TORSDOF 1
ENDMDL
MODEL 3
REMARK VINA RESULT:    -3.178     14.790     15.939
REMARK INTER + INTRA:          -3.385
REMARK INTER:                  -3.361
REMARK INTRA:                  -0.024
REMARK UNBOUND:                -0.021
REMARK SMILES O=C([O-])c1cccnc1
REMARK SMILES IDX 4 1 5 2 9 3 6 4 8 5 7 6 2 7 1 8 3 9
REMARK H PARENT
REMARK Flexibility Score: inf
ROOT
ATOM      1  C   UNL     1      55.441  27.192  49.751  1.00  0.00     0.016 A 
ATOM      2  C   UNL     1      54.360  28.090  49.785  1.00  0.00     0.013 A 
ATOM      3  C   UNL     1      55.209  25.886  49.287  1.00  0.00     0.120 A 
ATOM      4  C   UNL     1      53.094  27.680  49.363  1.00  0.00     0.021 A 
ATOM      5  N   UNL     1      53.966  25.512  48.883  1.00  0.00    -0.264 NA
ATOM      6  C   UNL     1      52.914  26.373  48.911  1.00  0.00     0.111 A 
ENDROOT
BRANCH   1   7
ATOM      7  C   UNL     1      56.788  27.607  50.194  1.00  0.00     0.073 C 
ATOM      8  O   UNL     1      56.996  28.781  50.600  1.00  0.00    -0.545 OA
ATOM      9  O   UNL     1      57.847  26.706  50.167  1.00  0.00    -0.545 OA
ENDBRANCH   1   7
TORSDOF 1
ENDMDL
MODEL 4
REMARK VINA RESULT:    -3.172      2.841      3.507
REMARK INTER + INTRA:          -3.379
REMARK INTER:                  -3.358
REMARK INTRA:                  -0.020
REMARK UNBOUND:                -0.021
REMARK SMILES O=C([O-])c1cccnc1
REMARK SMILES IDX 4 1 5 2 9 3 6 4 8 5 7 6 2 7 1 8 3 9
REMARK H PARENT
REMARK Flexibility Score: inf
ROOT
ATOM      1  C   UNL     1      63.146  34.179  60.655  1.00  0.00     0.016 A 
ATOM      2  C   UNL     1      62.299  35.297  60.565  1.00  0.00     0.013 A 
ATOM      3  C   UNL     1      64.455  34.370  61.130  1.00  0.00     0.120 A 
ATOM      4  C   UNL     1      62.762  36.560  60.943  1.00  0.00     0.021 A 
ATOM      5  N   UNL     1      64.880  35.611  61.490  1.00  0.00    -0.264 NA
ATOM      6  C   UNL     1      64.069  36.698  61.407  1.00  0.00     0.111 A 
ENDROOT
BRANCH   1   7
ATOM      7  C   UNL     1      62.676  32.835  60.260  1.00  0.00     0.073 C 
ATOM      8  O   UNL     1      63.441  32.044  59.646  1.00  0.00    -0.545 OA
ATOM      9  O   UNL     1      61.382  32.424  60.561  1.00  0.00    -0.545 OA
ENDBRANCH   1   7
TORSDOF 1
ENDMDL
MODEL 5
REMARK VINA RESULT:    -3.160      2.856      3.817
REMARK INTER + INTRA:          -3.366
REMARK INTER:                  -3.345
REMARK INTRA:                  -0.021
REMARK UNBOUND:                -0.021
REMARK SMILES O=C([O-])c1cccnc1
REMARK SMILES IDX 4 1 5 2 9 3 6 4 8 5 7 6 2 7 1 8 3 9
REMARK H PARENT
REMARK Flexibility Score: inf
ROOT
ATOM      1  C   UNL     1      63.156  34.171  60.662  1.00  0.00     0.016 A 
ATOM      2  C   UNL     1      64.476  34.369  61.103  1.00  0.00     0.013 A 
ATOM      3  C   UNL     1      62.298  35.283  60.601  1.00  0.00     0.120 A 
ATOM      4  C   UNL     1      64.909  35.646  61.468  1.00  0.00     0.021 A 
ATOM      5  N   UNL     1      62.746  36.515  60.962  1.00  0.00    -0.264 NA
ATOM      6  C   UNL     1      64.020  36.717  61.391  1.00  0.00     0.111 A 
ENDROOT
BRANCH   1   7
ATOM      7  C   UNL     1      62.678  32.828  60.271  1.00  0.00     0.073 C 
ATOM      8  O   UNL     1      63.428  32.041  59.635  1.00  0.00    -0.545 OA
ATOM      9  O   UNL     1      61.391  32.415  60.600  1.00  0.00    -0.545 OA
ENDBRANCH   1   7
TORSDOF 1
ENDMDL
MODEL 6
REMARK VINA RESULT:    -3.128     13.813     14.921
REMARK INTER + INTRA:          -3.332
REMARK INTER:                  -3.316
REMARK INTRA:                  -0.017
REMARK UNBOUND:                -0.021
REMARK SMILES O=C([O-])c1cccnc1
REMARK SMILES IDX 4 1 5 2 9 3 6 4 8 5 7 6 2 7 1 8 3 9
REMARK H PARENT
REMARK Flexibility Score: inf
ROOT
ATOM      1  C   UNL     1      56.326  27.719  50.140  1.00  0.00     0.016 A 
ATOM      2  C   UNL     1      55.148  28.484  50.086  1.00  0.00     0.013 A 
ATOM      3  C   UNL     1      56.257  26.361  49.787  1.00  0.00     0.120 A 
ATOM      4  C   UNL     1      53.946  27.893  49.689  1.00  0.00     0.021 A 
ATOM      5  N   UNL     1      55.074  25.811  49.403  1.00  0.00    -0.264 NA
ATOM      6  C   UNL     1      53.929  26.541  49.348  1.00  0.00     0.111 A 
ENDROOT
BRANCH   1   7
ATOM      7  C   UNL     1      57.608  28.325  50.559  1.00  0.00     0.073 C 
ATOM      8  O   UNL     1      58.225  29.111  49.792  1.00  0.00    -0.545 OA
ATOM      9  O   UNL     1      58.151  28.034  51.805  1.00  0.00    -0.545 OA
ENDBRANCH   1   7
TORSDOF 1
ENDMDL
MODEL 7
REMARK VINA RESULT:    -3.124      3.670      4.374
REMARK INTER + INTRA:          -3.328
REMARK INTER:                  -3.312
REMARK INTRA:                  -0.016
REMARK UNBOUND:                -0.021
REMARK SMILES O=C([O-])c1cccnc1
REMARK SMILES IDX 4 1 5 2 9 3 6 4 8 5 7 6 2 7 1 8 3 9
REMARK H PARENT
REMARK Flexibility Score: inf
ROOT
ATOM      1  C   UNL     1      62.060  32.287  60.432  1.00  0.00     0.016 A 
ATOM      2  C   UNL     1      61.818  33.669  60.355  1.00  0.00     0.013 A 
ATOM      3  C   UNL     1      63.391  31.838  60.376  1.00  0.00     0.120 A 
ATOM      4  C   UNL     1      62.884  34.562  60.226  1.00  0.00     0.021 A 
ATOM      5  N   UNL     1      64.411  32.729  60.251  1.00  0.00    -0.264 NA
ATOM      6  C   UNL     1      64.187  34.068  60.175  1.00  0.00     0.111 A 
ENDROOT
BRANCH   1   7
ATOM      7  C   UNL     1      60.946  31.326  60.567  1.00  0.00     0.073 C 
ATOM      8  O   UNL     1      60.271  30.981  59.561  1.00  0.00    -0.545 OA
ATOM      9  O   UNL     1      60.626  30.788  61.809  1.00  0.00    -0.545 OA
ENDBRANCH   1   7
TORSDOF 1
ENDMDL
MODEL 8
REMARK VINA RESULT:    -3.112      1.345      1.752
REMARK INTER + INTRA:          -3.315
REMARK INTER:                  -3.292
REMARK INTRA:                  -0.023
REMARK UNBOUND:                -0.021
REMARK SMILES O=C([O-])c1cccnc1
REMARK SMILES IDX 4 1 5 2 9 3 6 4 8 5 7 6 2 7 1 8 3 9
REMARK H PARENT
REMARK Flexibility Score: inf
ROOT
ATOM      1  C   UNL     1      62.937  34.884  60.661  1.00  0.00     0.016 A 
ATOM      2  C   UNL     1      61.754  34.209  60.313  1.00  0.00     0.013 A 
ATOM      3  C   UNL     1      64.114  34.131  60.815  1.00  0.00     0.120 A 
ATOM      4  C   UNL     1      61.764  32.825  60.129  1.00  0.00     0.021 A 
ATOM      5  N   UNL     1      64.096  32.784  60.630  1.00  0.00    -0.264 NA
ATOM      6  C   UNL     1      62.957  32.122  60.295  1.00  0.00     0.111 A 
ENDROOT
BRANCH   1   7
ATOM      7  C   UNL     1      62.948  36.348  60.860  1.00  0.00     0.073 C 
ATOM      8  O   UNL     1      64.036  36.982  60.892  1.00  0.00    -0.545 OA
ATOM      9  O   UNL     1      61.756  37.047  61.017  1.00  0.00    -0.545 OA
ENDBRANCH   1   7
TORSDOF 1
ENDMDL
MODEL 9
REMARK VINA RESULT:    -3.061      2.542      3.219
REMARK INTER + INTRA:          -3.261
REMARK INTER:                  -3.244
REMARK INTRA:                  -0.017
REMARK UNBOUND:                -0.021
REMARK SMILES O=C([O-])c1cccnc1
REMARK SMILES IDX 4 1 5 2 9 3 6 4 8 5 7 6 2 7 1 8 3 9
REMARK H PARENT
REMARK Flexibility Score: inf
ROOT
ATOM      1  C   UNL     1      63.241  31.880  60.555  1.00  0.00     0.016 A 
ATOM      2  C   UNL     1      61.858  32.130  60.576  1.00  0.00     0.013 A 
ATOM      3  C   UNL     1      63.696  30.610  60.948  1.00  0.00     0.120 A 
ATOM      4  C   UNL     1      60.971  31.129  60.980  1.00  0.00     0.021 A 
ATOM      5  N   UNL     1      62.811  29.654  61.337  1.00  0.00    -0.264 NA
ATOM      6  C   UNL     1      61.472  29.885  61.361  1.00  0.00     0.111 A 
ENDROOT
BRANCH   1   7
ATOM      7  C   UNL     1      64.197  32.925  60.132  1.00  0.00     0.073 C 
ATOM      8  O   UNL     1      64.801  32.832  59.031  1.00  0.00    -0.545 OA
ATOM      9  O   UNL     1      64.443  34.027  60.945  1.00  0.00    -0.545 OA
ENDBRANCH   1   7
TORSDOF 1
ENDMDL
