MODEL 1
REMARK VINA RESULT:    -4.466      0.000      0.000
REMARK INTER + INTRA:          -4.750
REMARK INTER:                  -4.727
REMARK INTRA:                  -0.023
REMARK UNBOUND:                -0.023
REMARK SMILES O=C([O-])c1cccnc1
REMARK SMILES IDX 4 1 5 2 9 3 6 4 8 5 7 6 2 7 1 8 3 9
REMARK H PARENT
REMARK Flexibility Score: inf
ROOT
ATOM      1  C   UNL     1     105.610 104.422 227.789  1.00  0.00     0.016 A 
ATOM      2  C   UNL     1     104.746 104.794 226.745  1.00  0.00     0.013 A 
ATOM      3  C   UNL     1     105.185 104.625 229.112  1.00  0.00     0.120 A 
ATOM      4  C   UNL     1     103.497 105.350 227.033  1.00  0.00     0.021 A 
ATOM      5  N   UNL     1     103.964 105.169 229.365  1.00  0.00    -0.264 NA
ATOM      6  C   UNL     1     103.121 105.531 228.364  1.00  0.00     0.111 A 
ENDROOT
BRANCH   1   7
ATOM      7  C   UNL     1     106.936 103.833 227.505  1.00  0.00     0.073 C 
ATOM      8  O   UNL     1     107.627 103.334 228.433  1.00  0.00    -0.545 OA
ATOM      9  O   UNL     1     107.439 103.821 226.209  1.00  0.00    -0.545 OA
ENDBRANCH   1   7
TORSDOF 1
ENDMDL
MODEL 2
REMARK VINA RESULT:    -4.427      5.662      6.807
REMARK INTER + INTRA:          -4.709
REMARK INTER:                  -4.685
REMARK INTRA:                  -0.024
REMARK UNBOUND:                -0.023
REMARK SMILES O=C([O-])c1cccnc1
REMARK SMILES IDX 4 1 5 2 9 3 6 4 8 5 7 6 2 7 1 8 3 9
REMARK H PARENT
REMARK Flexibility Score: inf
ROOT
ATOM      1  C   UNL     1     102.940 105.791 232.970  1.00  0.00     0.016 A 
ATOM      2  C   UNL     1     104.001 106.160 233.814  1.00  0.00     0.013 A 
ATOM      3  C   UNL     1     103.238 105.094 231.787  1.00  0.00     0.120 A 
ATOM      4  C   UNL     1     105.315 105.834 233.471  1.00  0.00     0.021 A 
ATOM      5  N   UNL     1     104.527 104.791 231.476  1.00  0.00    -0.264 NA
ATOM      6  C   UNL     1     105.560 105.143 232.284  1.00  0.00     0.111 A 
ENDROOT
BRANCH   1   7
ATOM      7  C   UNL     1     101.541 106.126 233.315  1.00  0.00     0.073 C 
ATOM      8  O   UNL     1     101.262 106.636 234.433  1.00  0.00    -0.545 OA
ATOM      9  O   UNL     1     100.515 105.881 232.411  1.00  0.00    -0.545 OA
ENDBRANCH   1   7
TORSDOF 1
ENDMDL
MODEL 3
REMARK VINA RESULT:    -4.295      4.841      5.866
REMARK INTER + INTRA:          -4.569
REMARK INTER:                  -4.545
REMARK INTRA:                  -0.024
REMARK UNBOUND:                -0.023
REMARK SMILES O=C([O-])c1cccnc1
REMARK SMILES IDX 4 1 5 2 9 3 6 4 8 5 7 6 2 7 1 8 3 9
REMARK H PARENT
REMARK Flexibility Score: inf
ROOT
ATOM      1  C   UNL     1     103.654 106.142 232.838  1.00  0.00     0.016 A 
ATOM      2  C   UNL     1     102.966 106.060 234.060  1.00  0.00     0.013 A 
ATOM      3  C   UNL     1     102.920 106.439 231.676  1.00  0.00     0.120 A 
ATOM      4  C   UNL     1     101.586 106.273 234.103  1.00  0.00     0.021 A 
ATOM      5  N   UNL     1     101.577 106.641 231.747  1.00  0.00    -0.264 NA
ATOM      6  C   UNL     1     100.902 106.565 232.923  1.00  0.00     0.111 A 
ENDROOT
BRANCH   1   7
ATOM      7  C   UNL     1     105.114 105.920 232.770  1.00  0.00     0.073 C 
ATOM      8  O   UNL     1     105.812 105.923 233.820  1.00  0.00    -0.545 OA
ATOM      9  O   UNL     1     105.738 105.704 231.547  1.00  0.00    -0.545 OA
ENDBRANCH   1   7
TORSDOF 1
ENDMDL
MODEL 4
REMARK VINA RESULT:    -4.165      5.822      6.878
REMARK INTER + INTRA:          -4.432
REMARK INTER:                  -4.413
REMARK INTRA:                  -0.019
REMARK UNBOUND:                -0.023
REMARK SMILES O=C([O-])c1cccnc1
REMARK SMILES IDX 4 1 5 2 9 3 6 4 8 5 7 6 2 7 1 8 3 9
REMARK H PARENT
REMARK Flexibility Score: inf
ROOT
ATOM      1  C   UNL     1     102.233 106.540 232.502  1.00  0.00     0.016 A 
ATOM      2  C   UNL     1     103.291 106.082 233.305  1.00  0.00     0.013 A 
ATOM      3  C   UNL     1     102.538 107.103 231.251  1.00  0.00     0.120 A 
ATOM      4  C   UNL     1     104.609 106.191 232.857  1.00  0.00     0.021 A 
ATOM      5  N   UNL     1     103.831 107.198 230.839  1.00  0.00    -0.264 NA
ATOM      6  C   UNL     1     104.861 106.759 231.607  1.00  0.00     0.111 A 
ENDROOT
BRANCH   1   7
ATOM      7  C   UNL     1     100.830 106.434 232.958  1.00  0.00     0.073 C 
ATOM      8  O   UNL     1     100.494 106.855 234.097  1.00  0.00    -0.545 OA
ATOM      9  O   UNL     1      99.863 105.869 232.135  1.00  0.00    -0.545 OA
ENDBRANCH   1   7
TORSDOF 1
ENDMDL
MODEL 5
REMARK VINA RESULT:    -4.123      2.746      3.286
REMARK INTER + INTRA:          -4.387
REMARK INTER:                  -4.371
REMARK INTRA:                  -0.017
REMARK UNBOUND:                -0.023
REMARK SMILES O=C([O-])c1cccnc1
REMARK SMILES IDX 4 1 5 2 9 3 6 4 8 5 7 6 2 7 1 8 3 9
REMARK H PARENT
REMARK Flexibility Score: inf
ROOT
ATOM      1  C   UNL     1     104.599 106.164 228.584  1.00  0.00     0.016 A 
ATOM      2  C   UNL     1     104.901 107.536 228.605  1.00  0.00     0.013 A 
ATOM      3  C   UNL     1     104.555 105.469 229.804  1.00  0.00     0.120 A 
ATOM      4  C   UNL     1     105.149 108.179 229.820  1.00  0.00     0.021 A 
ATOM      5  N   UNL     1     104.802 106.121 230.973  1.00  0.00    -0.264 NA
ATOM      6  C   UNL     1     105.095 107.446 231.005  1.00  0.00     0.111 A 
ENDROOT
BRANCH   1   7
ATOM      7  C   UNL     1     104.333 105.464 227.308  1.00  0.00     0.073 C 
ATOM      8  O   UNL     1     103.260 105.664 226.679  1.00  0.00    -0.545 OA
ATOM      9  O   UNL     1     105.264 104.574 226.787  1.00  0.00    -0.545 OA
ENDBRANCH   1   7
TORSDOF 1
ENDMDL
MODEL 6
REMARK VINA RESULT:    -4.102      4.925      6.451
REMARK INTER + INTRA:          -4.365
REMARK INTER:                  -4.342
REMARK INTRA:                  -0.023
REMARK UNBOUND:                -0.023
REMARK SMILES O=C([O-])c1cccnc1
REMARK SMILES IDX 4 1 5 2 9 3 6 4 8 5 7 6 2 7 1 8 3 9
REMARK H PARENT
REMARK Flexibility Score: inf
ROOT
ATOM      1  C   UNL     1     109.565 103.804 230.356  1.00  0.00     0.016 A 
ATOM      2  C   UNL     1     110.378 104.720 231.045  1.00  0.00     0.013 A 
ATOM      3  C   UNL     1     110.138 103.052 229.316  1.00  0.00     0.120 A 
ATOM      4  C   UNL     1     111.722 104.867 230.693  1.00  0.00     0.021 A 
ATOM      5  N   UNL     1     111.449 103.216 228.993  1.00  0.00    -0.264 NA
ATOM      6  C   UNL     1     112.244 104.098 229.652  1.00  0.00     0.111 A 
ENDROOT
BRANCH   1   7
ATOM      7  C   UNL     1     108.140 103.633 230.713  1.00  0.00     0.073 C 
ATOM      8  O   UNL     1     107.376 102.943 229.986  1.00  0.00    -0.545 OA
ATOM      9  O   UNL     1     107.624 104.233 231.855  1.00  0.00    -0.545 OA
ENDBRANCH   1   7
TORSDOF 1
ENDMDL
MODEL 7
REMARK VINA RESULT:    -4.096      5.011      6.235
REMARK INTER + INTRA:          -4.359
REMARK INTER:                  -4.340
REMARK INTRA:                  -0.019
REMARK UNBOUND:                -0.023
REMARK SMILES O=C([O-])c1cccnc1
REMARK SMILES IDX 4 1 5 2 9 3 6 4 8 5 7 6 2 7 1 8 3 9
REMARK H PARENT
REMARK Flexibility Score: inf
ROOT
ATOM      1  C   UNL     1     103.535 105.767 232.377  1.00  0.00     0.016 A 
ATOM      2  C   UNL     1     104.330 106.181 233.459  1.00  0.00     0.013 A 
ATOM      3  C   UNL     1     104.113 104.935 231.403  1.00  0.00     0.120 A 
ATOM      4  C   UNL     1     105.660 105.768 233.550  1.00  0.00     0.021 A 
ATOM      5  N   UNL     1     105.412 104.548 231.516  1.00  0.00    -0.264 NA
ATOM      6  C   UNL     1     106.189 104.943 232.557  1.00  0.00     0.111 A 
ENDROOT
BRANCH   1   7
ATOM      7  C   UNL     1     102.124 106.193 232.262  1.00  0.00     0.073 C 
ATOM      8  O   UNL     1     101.334 106.066 233.236  1.00  0.00    -0.545 OA
ATOM      9  O   UNL     1     101.648 106.742 231.077  1.00  0.00    -0.545 OA
ENDBRANCH   1   7
TORSDOF 1
ENDMDL
MODEL 8
REMARK VINA RESULT:    -4.079      2.909      3.527
REMARK INTER + INTRA:          -4.341
REMARK INTER:                  -4.317
REMARK INTRA:                  -0.024
REMARK UNBOUND:                -0.023
REMARK SMILES O=C([O-])c1cccnc1
REMARK SMILES IDX 4 1 5 2 9 3 6 4 8 5 7 6 2 7 1 8 3 9
REMARK H PARENT
REMARK Flexibility Score: inf
ROOT
ATOM      1  C   UNL     1     104.933 104.951 228.829  1.00  0.00     0.016 A 
ATOM      2  C   UNL     1     104.541 105.082 227.486  1.00  0.00     0.013 A 
ATOM      3  C   UNL     1     106.088 104.205 229.119  1.00  0.00     0.120 A 
ATOM      4  C   UNL     1     105.293 104.480 226.475  1.00  0.00     0.021 A 
ATOM      5  N   UNL     1     106.801 103.627 228.114  1.00  0.00    -0.264 NA
ATOM      6  C   UNL     1     106.431 103.748 226.813  1.00  0.00     0.111 A 
ENDROOT
BRANCH   1   7
ATOM      7  C   UNL     1     104.151 105.581 229.915  1.00  0.00     0.073 C 
ATOM      8  O   UNL     1     104.546 105.515 231.110  1.00  0.00    -0.545 OA
ATOM      9  O   UNL     1     102.969 106.255 229.631  1.00  0.00    -0.545 OA
ENDBRANCH   1   7
TORSDOF 1
ENDMDL
MODEL 9
REMARK VINA RESULT:    -4.016      4.162      5.116
REMARK INTER + INTRA:          -4.274
REMARK INTER:                  -4.258
REMARK INTRA:                  -0.016
REMARK UNBOUND:                -0.023
REMARK SMILES O=C([O-])c1cccnc1
REMARK SMILES IDX 4 1 5 2 9 3 6 4 8 5 7 6 2 7 1 8 3 9
REMARK H PARENT
REMARK Flexibility Score: inf
ROOT
ATOM      1  C   UNL     1     105.019 106.455 231.778  1.00  0.00     0.016 A 
ATOM      2  C   UNL     1     105.066 107.822 231.456  1.00  0.00     0.013 A 
ATOM      3  C   UNL     1     104.883 105.526 230.733  1.00  0.00     0.120 A 
ATOM      4  C   UNL     1     104.979 108.231 230.124  1.00  0.00     0.021 A 
ATOM      5  N   UNL     1     104.800 105.952 229.444  1.00  0.00    -0.264 NA
ATOM      6  C   UNL     1     104.844 107.270 229.121  1.00  0.00     0.111 A 
ENDROOT
BRANCH   1   7
ATOM      7  C   UNL     1     105.109 106.000 233.183  1.00  0.00     0.073 C 
ATOM      8  O   UNL     1     106.169 105.477 233.620  1.00  0.00    -0.545 OA
ATOM      9  O   UNL     1     104.025 106.145 234.040  1.00  0.00    -0.545 OA
ENDBRANCH   1   7
TORSDOF 1
ENDMDL
