MODEL 1
REMARK VINA RESULT:    -6.608      0.000      0.000
REMARK INTER + INTRA:          -8.031
REMARK INTER:                  -7.766
REMARK INTRA:                  -0.265
REMARK UNBOUND:                -0.265
REMARK SMILES O=c1cc(-c2ccc(O)c(O)c2)oc2cc(O)cc(O)c12
REMARK SMILES IDX 4 1 3 2 2 3 1 4 21 5 19 6 18 7 16 8 15 9 14 10 13 11 5 12
REMARK SMILES IDX 6 13 7 14 8 15 12 16 10 17 9 18 11 20 20 22 17 24
REMARK H PARENT 9 19 11 21 20 23 17 25
REMARK Flexibility Score: inf
ROOT
ATOM      1  C   UNL     1      -7.256  28.157  56.045  1.00  0.00     0.138 A 
ATOM      2  C   UNL     1      -8.421  28.941  56.059  1.00  0.00     0.100 A 
ATOM      3  C   UNL     1      -8.489  30.053  56.899  1.00  0.00     0.197 A 
ATOM      4  O   UNL     1      -9.539  30.751  56.905  1.00  0.00    -0.289 OA
ATOM      5  C   UNL     1      -7.391  30.370  57.724  1.00  0.00     0.107 A 
ATOM      6  C   UNL     1      -7.378  31.480  58.603  1.00  0.00     0.134 A 
ATOM      7  C   UNL     1      -6.246  31.724  59.395  1.00  0.00     0.093 A 
ATOM      8  C   UNL     1      -5.133  30.883  59.326  1.00  0.00     0.123 A 
ATOM      9  C   UNL     1      -5.140  29.787  58.459  1.00  0.00     0.094 A 
ATOM     10  C   UNL     1      -6.257  29.525  57.660  1.00  0.00     0.146 A 
ATOM     11  O   UNL     1      -6.240  28.478  56.843  1.00  0.00    -0.456 OA
ENDROOT
BRANCH   1  12
ATOM     12  C   UNL     1      -7.127  26.962  55.172  1.00  0.00     0.021 A 
ATOM     13  C   UNL     1      -6.649  27.113  53.859  1.00  0.00     0.016 A 
ATOM     14  C   UNL     1      -6.526  26.007  53.015  1.00  0.00     0.051 A 
ATOM     15  C   UNL     1      -6.886  24.731  53.465  1.00  0.00     0.157 A 
ATOM     16  C   UNL     1      -7.500  25.678  55.614  1.00  0.00     0.062 A 
ATOM     17  C   UNL     1      -7.379  24.567  54.769  1.00  0.00     0.158 A 
BRANCH  15  18
ATOM     18  O   UNL     1      -6.760  23.628  52.621  1.00  0.00    -0.504 OA
ATOM     19  H   UNL     1      -6.842  22.681  52.970  1.00  0.00     0.293 HD
ENDBRANCH  15  18
BRANCH  17  20
ATOM     20  O   UNL     1      -7.757  23.312  55.244  1.00  0.00    -0.504 OA
ATOM     21  H   UNL     1      -7.873  22.517  54.628  1.00  0.00     0.293 HD
ENDBRANCH  17  20
ENDBRANCH   1  12
BRANCH   6  22
ATOM     22  O   UNL     1      -8.475  32.336  58.694  1.00  0.00    -0.507 OA
ATOM     23  H   UNL     1      -8.392  33.271  59.076  1.00  0.00     0.293 HD
ENDBRANCH   6  22
BRANCH   8  24
ATOM     24  O   UNL     1      -4.022  31.149  60.125  1.00  0.00    -0.508 OA
ATOM     25  H   UNL     1      -3.790  32.092  60.413  1.00  0.00     0.293 HD
ENDBRANCH   8  24
TORSDOF 5
ENDMDL
MODEL 2
REMARK VINA RESULT:    -5.843      1.253      2.833
REMARK INTER + INTRA:          -7.132
REMARK INTER:                  -6.869
REMARK INTRA:                  -0.264
REMARK UNBOUND:                -0.265
REMARK SMILES O=c1cc(-c2ccc(O)c(O)c2)oc2cc(O)cc(O)c12
REMARK SMILES IDX 4 1 3 2 2 3 1 4 21 5 19 6 18 7 16 8 15 9 14 10 13 11 5 12
REMARK SMILES IDX 6 13 7 14 8 15 12 16 10 17 9 18 11 20 20 22 17 24
REMARK H PARENT 9 19 11 21 20 23 17 25
REMARK Flexibility Score: inf
ROOT
ATOM      1  C   UNL     1      -7.234  28.136  56.082  1.00  0.00     0.138 A 
ATOM      2  C   UNL     1      -6.247  28.445  57.032  1.00  0.00     0.100 A 
ATOM      3  C   UNL     1      -6.405  29.566  57.847  1.00  0.00     0.197 A 
ATOM      4  O   UNL     1      -5.513  29.834  58.697  1.00  0.00    -0.289 OA
ATOM      5  C   UNL     1      -7.551  30.374  57.704  1.00  0.00     0.107 A 
ATOM      6  C   UNL     1      -7.789  31.526  58.491  1.00  0.00     0.134 A 
ATOM      7  C   UNL     1      -8.953  32.281  58.282  1.00  0.00     0.093 A 
ATOM      8  C   UNL     1      -9.878  31.908  57.304  1.00  0.00     0.123 A 
ATOM      9  C   UNL     1      -9.648  30.770  56.525  1.00  0.00     0.094 A 
ATOM     10  C   UNL     1      -8.495  30.003  56.717  1.00  0.00     0.146 A 
ATOM     11  O   UNL     1      -8.300  28.925  55.965  1.00  0.00    -0.456 OA
ENDROOT
BRANCH   1  12
ATOM     12  C   UNL     1      -7.118  26.957  55.187  1.00  0.00     0.021 A 
ATOM     13  C   UNL     1      -6.618  27.124  53.884  1.00  0.00     0.016 A 
ATOM     14  C   UNL     1      -6.507  26.033  53.020  1.00  0.00     0.051 A 
ATOM     15  C   UNL     1      -6.900  24.757  53.438  1.00  0.00     0.157 A 
ATOM     16  C   UNL     1      -7.525  25.672  55.597  1.00  0.00     0.062 A 
ATOM     17  C   UNL     1      -7.416  24.577  54.731  1.00  0.00     0.158 A 
BRANCH  15  18
ATOM     18  O   UNL     1      -6.786  23.669  52.573  1.00  0.00    -0.504 OA
ATOM     19  H   UNL     1      -6.418  23.773  51.635  1.00  0.00     0.293 HD
ENDBRANCH  15  18
BRANCH  17  20
ATOM     20  O   UNL     1      -7.827  23.320  55.175  1.00  0.00    -0.504 OA
ATOM     21  H   UNL     1      -7.166  22.604  55.451  1.00  0.00     0.293 HD
ENDBRANCH  17  20
ENDBRANCH   1  12
BRANCH   6  22
ATOM     22  O   UNL     1      -6.882  31.924  59.473  1.00  0.00    -0.507 OA
ATOM     23  H   UNL     1      -6.928  32.841  59.902  1.00  0.00     0.293 HD
ENDBRANCH   6  22
BRANCH   8  24
ATOM     24  O   UNL     1     -11.026  32.676  57.117  1.00  0.00    -0.508 OA
ATOM     25  H   UNL     1     -11.629  32.923  57.892  1.00  0.00     0.293 HD
ENDBRANCH   8  24
TORSDOF 5
ENDMDL
MODEL 3
REMARK VINA RESULT:    -5.828     10.970     13.107
REMARK INTER + INTRA:          -7.115
REMARK INTER:                  -6.834
REMARK INTRA:                  -0.281
REMARK UNBOUND:                -0.265
REMARK SMILES O=c1cc(-c2ccc(O)c(O)c2)oc2cc(O)cc(O)c12
REMARK SMILES IDX 4 1 3 2 2 3 1 4 21 5 19 6 18 7 16 8 15 9 14 10 13 11 5 12
REMARK SMILES IDX 6 13 7 14 8 15 12 16 10 17 9 18 11 20 20 22 17 24
REMARK H PARENT 9 19 11 21 20 23 17 25
REMARK Flexibility Score: inf
ROOT
ATOM      1  C   UNL     1       3.908  29.041  53.501  1.00  0.00     0.138 A 
ATOM      2  C   UNL     1       3.795  30.400  53.165  1.00  0.00     0.100 A 
ATOM      3  C   UNL     1       4.017  30.803  51.848  1.00  0.00     0.197 A 
ATOM      4  O   UNL     1       3.913  32.026  51.557  1.00  0.00    -0.289 OA
ATOM      5  C   UNL     1       4.354  29.842  50.874  1.00  0.00     0.107 A 
ATOM      6  C   UNL     1       4.594  30.166  49.517  1.00  0.00     0.134 A 
ATOM      7  C   UNL     1       4.931  29.150  48.610  1.00  0.00     0.093 A 
ATOM      8  C   UNL     1       5.034  27.823  49.033  1.00  0.00     0.123 A 
ATOM      9  C   UNL     1       4.798  27.497  50.372  1.00  0.00     0.094 A 
ATOM     10  C   UNL     1       4.460  28.494  51.292  1.00  0.00     0.146 A 
ATOM     11  O   UNL     1       4.239  28.160  52.559  1.00  0.00    -0.456 OA
ENDROOT
BRANCH   1  12
ATOM     12  C   UNL     1       3.685  28.555  54.886  1.00  0.00     0.021 A 
ATOM     13  C   UNL     1       2.464  28.828  55.527  1.00  0.00     0.016 A 
ATOM     14  C   UNL     1       2.232  28.390  56.831  1.00  0.00     0.051 A 
ATOM     15  C   UNL     1       3.218  27.676  57.523  1.00  0.00     0.157 A 
ATOM     16  C   UNL     1       4.678  27.848  55.593  1.00  0.00     0.062 A 
ATOM     17  C   UNL     1       4.448  27.408  56.902  1.00  0.00     0.158 A 
BRANCH  15  18
ATOM     18  O   UNL     1       2.982  27.237  58.826  1.00  0.00    -0.504 OA
ATOM     19  H   UNL     1       2.430  26.410  59.015  1.00  0.00     0.293 HD
ENDBRANCH  15  18
BRANCH  17  20
ATOM     20  O   UNL     1       5.455  26.710  57.567  1.00  0.00    -0.504 OA
ATOM     21  H   UNL     1       6.347  26.508  57.133  1.00  0.00     0.293 HD
ENDBRANCH  17  20
ENDBRANCH   1  12
BRANCH   6  22
ATOM     22  O   UNL     1       4.500  31.482  49.067  1.00  0.00    -0.507 OA
ATOM     23  H   UNL     1       5.146  31.860  48.382  1.00  0.00     0.293 HD
ENDBRANCH   6  22
BRANCH   8  24
ATOM     24  O   UNL     1       5.371  26.833  48.111  1.00  0.00    -0.508 OA
ATOM     25  H   UNL     1       6.336  26.644  47.866  1.00  0.00     0.293 HD
ENDBRANCH   8  24
TORSDOF 5
ENDMDL
MODEL 4
REMARK VINA RESULT:    -5.746      1.535      2.909
REMARK INTER + INTRA:          -7.019
REMARK INTER:                  -6.722
REMARK INTRA:                  -0.296
REMARK UNBOUND:                -0.265
REMARK SMILES O=c1cc(-c2ccc(O)c(O)c2)oc2cc(O)cc(O)c12
REMARK SMILES IDX 4 1 3 2 2 3 1 4 21 5 19 6 18 7 16 8 15 9 14 10 13 11 5 12
REMARK SMILES IDX 6 13 7 14 8 15 12 16 10 17 9 18 11 20 20 22 17 24
REMARK H PARENT 9 19 11 21 20 23 17 25
REMARK Flexibility Score: inf
ROOT
ATOM      1  C   UNL     1      -7.604  27.872  56.444  1.00  0.00     0.138 A 
ATOM      2  C   UNL     1      -6.310  27.795  56.984  1.00  0.00     0.100 A 
ATOM      3  C   UNL     1      -5.800  28.877  57.703  1.00  0.00     0.197 A 
ATOM      4  O   UNL     1      -4.637  28.798  58.184  1.00  0.00    -0.289 OA
ATOM      5  C   UNL     1      -6.589  30.033  57.873  1.00  0.00     0.107 A 
ATOM      6  C   UNL     1      -6.149  31.172  58.588  1.00  0.00     0.134 A 
ATOM      7  C   UNL     1      -6.994  32.286  58.706  1.00  0.00     0.093 A 
ATOM      8  C   UNL     1      -8.264  32.282  58.125  1.00  0.00     0.123 A 
ATOM      9  C   UNL     1      -8.704  31.159  57.419  1.00  0.00     0.094 A 
ATOM     10  C   UNL     1      -7.878  30.038  57.289  1.00  0.00     0.146 A 
ATOM     11  O   UNL     1      -8.319  28.982  56.614  1.00  0.00    -0.456 OA
ENDROOT
BRANCH   1  12
ATOM     12  C   UNL     1      -8.197  26.752  55.670  1.00  0.00     0.021 A 
ATOM     13  C   UNL     1      -9.433  26.936  55.026  1.00  0.00     0.016 A 
ATOM     14  C   UNL     1     -10.017  25.897  54.298  1.00  0.00     0.051 A 
ATOM     15  C   UNL     1      -9.381  24.653  54.207  1.00  0.00     0.157 A 
ATOM     16  C   UNL     1      -7.569  25.494  55.586  1.00  0.00     0.062 A 
ATOM     17  C   UNL     1      -8.153  24.451  54.858  1.00  0.00     0.158 A 
BRANCH  15  18
ATOM     18  O   UNL     1      -9.965  23.618  53.478  1.00  0.00    -0.504 OA
ATOM     19  H   UNL     1     -10.122  23.694  52.481  1.00  0.00     0.293 HD
ENDBRANCH  15  18
BRANCH  17  20
ATOM     20  O   UNL     1      -7.499  23.220  54.797  1.00  0.00    -0.504 OA
ATOM     21  H   UNL     1      -7.756  22.445  55.396  1.00  0.00     0.293 HD
ENDBRANCH  17  20
ENDBRANCH   1  12
BRANCH   6  22
ATOM     22  O   UNL     1      -4.885  31.205  59.177  1.00  0.00    -0.507 OA
ATOM     23  H   UNL     1      -4.390  30.356  59.425  1.00  0.00     0.293 HD
ENDBRANCH   6  22
BRANCH   8  24
ATOM     24  O   UNL     1      -9.082  33.402  58.259  1.00  0.00    -0.508 OA
ATOM     25  H   UNL     1      -9.901  33.532  57.676  1.00  0.00     0.293 HD
ENDBRANCH   8  24
TORSDOF 5
ENDMDL
MODEL 5
REMARK VINA RESULT:    -5.692      1.763      6.933
REMARK INTER + INTRA:          -6.955
REMARK INTER:                  -6.667
REMARK INTRA:                  -0.288
REMARK UNBOUND:                -0.265
REMARK SMILES O=c1cc(-c2ccc(O)c(O)c2)oc2cc(O)cc(O)c12
REMARK SMILES IDX 4 1 3 2 2 3 1 4 21 5 19 6 18 7 16 8 15 9 14 10 13 11 5 12
REMARK SMILES IDX 6 13 7 14 8 15 12 16 10 17 9 18 11 20 20 22 17 24
REMARK H PARENT 9 19 11 21 20 23 17 25
REMARK Flexibility Score: inf
ROOT
ATOM      1  C   UNL     1      -7.773  28.233  56.354  1.00  0.00     0.138 A 
ATOM      2  C   UNL     1      -9.171  28.270  56.232  1.00  0.00     0.100 A 
ATOM      3  C   UNL     1      -9.810  27.370  55.379  1.00  0.00     0.197 A 
ATOM      4  O   UNL     1     -11.067  27.412  55.276  1.00  0.00    -0.289 OA
ATOM      5  C   UNL     1      -9.044  26.438  54.650  1.00  0.00     0.107 A 
ATOM      6  C   UNL     1      -9.612  25.490  53.766  1.00  0.00     0.134 A 
ATOM      7  C   UNL     1      -8.778  24.600  53.073  1.00  0.00     0.093 A 
ATOM      8  C   UNL     1      -7.393  24.641  53.246  1.00  0.00     0.123 A 
ATOM      9  C   UNL     1      -6.826  25.574  54.119  1.00  0.00     0.094 A 
ATOM     10  C   UNL     1      -7.639  26.470  54.820  1.00  0.00     0.146 A 
ATOM     11  O   UNL     1      -7.077  27.347  55.645  1.00  0.00    -0.456 OA
ENDROOT
BRANCH   1  12
ATOM     12  C   UNL     1      -7.040  29.167  57.245  1.00  0.00     0.021 A 
ATOM     13  C   UNL     1      -5.827  28.759  57.828  1.00  0.00     0.016 A 
ATOM     14  C   UNL     1      -5.122  29.615  58.676  1.00  0.00     0.051 A 
ATOM     15  C   UNL     1      -5.618  30.892  58.964  1.00  0.00     0.157 A 
ATOM     16  C   UNL     1      -7.540  30.448  57.550  1.00  0.00     0.062 A 
ATOM     17  C   UNL     1      -6.836  31.307  58.401  1.00  0.00     0.158 A 
BRANCH  15  18
ATOM     18  O   UNL     1      -4.911  31.745  59.810  1.00  0.00    -0.504 OA
ATOM     19  H   UNL     1      -5.319  32.104  60.664  1.00  0.00     0.293 HD
ENDBRANCH  15  18
BRANCH  17  20
ATOM     20  O   UNL     1      -7.364  32.569  58.677  1.00  0.00    -0.504 OA
ATOM     21  H   UNL     1      -6.774  33.380  58.813  1.00  0.00     0.293 HD
ENDBRANCH  17  20
ENDBRANCH   1  12
BRANCH   6  22
ATOM     22  O   UNL     1     -10.992  25.428  53.572  1.00  0.00    -0.507 OA
ATOM     23  H   UNL     1     -11.530  26.244  53.302  1.00  0.00     0.293 HD
ENDBRANCH   6  22
BRANCH   8  24
ATOM     24  O   UNL     1      -6.588  23.745  52.544  1.00  0.00    -0.508 OA
ATOM     25  H   UNL     1      -6.527  22.769  52.809  1.00  0.00     0.293 HD
ENDBRANCH   8  24
TORSDOF 5
ENDMDL
MODEL 6
REMARK VINA RESULT:    -5.646     10.546     11.818
REMARK INTER + INTRA:          -6.902
REMARK INTER:                  -6.627
REMARK INTRA:                  -0.275
REMARK UNBOUND:                -0.265
REMARK SMILES O=c1cc(-c2ccc(O)c(O)c2)oc2cc(O)cc(O)c12
REMARK SMILES IDX 4 1 3 2 2 3 1 4 21 5 19 6 18 7 16 8 15 9 14 10 13 11 5 12
REMARK SMILES IDX 6 13 7 14 8 15 12 16 10 17 9 18 11 20 20 22 17 24
REMARK H PARENT 9 19 11 21 20 23 17 25
REMARK Flexibility Score: inf
ROOT
ATOM      1  C   UNL     1       3.796  28.995  53.813  1.00  0.00     0.138 A 
ATOM      2  C   UNL     1       2.473  29.363  54.108  1.00  0.00     0.100 A 
ATOM      3  C   UNL     1       1.943  29.068  55.364  1.00  0.00     0.197 A 
ATOM      4  O   UNL     1       0.754  29.402  55.620  1.00  0.00    -0.289 OA
ATOM      5  C   UNL     1       2.740  28.402  56.317  1.00  0.00     0.107 A 
ATOM      6  C   UNL     1       2.280  28.068  57.613  1.00  0.00     0.134 A 
ATOM      7  C   UNL     1       3.135  27.399  58.502  1.00  0.00     0.093 A 
ATOM      8  C   UNL     1       4.435  27.059  58.120  1.00  0.00     0.123 A 
ATOM      9  C   UNL     1       4.895  27.388  56.841  1.00  0.00     0.094 A 
ATOM     10  C   UNL     1       4.059  28.055  55.941  1.00  0.00     0.146 A 
ATOM     11  O   UNL     1       4.519  28.358  54.731  1.00  0.00    -0.456 OA
ENDROOT
BRANCH   1  12
ATOM     12  C   UNL     1       4.412  29.282  52.493  1.00  0.00     0.021 A 
ATOM     13  C   UNL     1       4.572  30.615  52.079  1.00  0.00     0.016 A 
ATOM     14  C   UNL     1       5.141  30.912  50.839  1.00  0.00     0.051 A 
ATOM     15  C   UNL     1       5.555  29.882  49.986  1.00  0.00     0.157 A 
ATOM     16  C   UNL     1       4.818  28.250  51.624  1.00  0.00     0.062 A 
ATOM     17  C   UNL     1       5.388  28.545  50.379  1.00  0.00     0.158 A 
BRANCH  15  18
ATOM     18  O   UNL     1       6.125  30.182  48.749  1.00  0.00    -0.504 OA
ATOM     19  H   UNL     1       6.343  29.457  48.076  1.00  0.00     0.293 HD
ENDBRANCH  15  18
BRANCH  17  20
ATOM     20  O   UNL     1       5.779  27.495  49.548  1.00  0.00    -0.504 OA
ATOM     21  H   UNL     1       5.182  27.144  48.809  1.00  0.00     0.293 HD
ENDBRANCH  17  20
ENDBRANCH   1  12
BRANCH   6  22
ATOM     22  O   UNL     1       0.987  28.393  58.022  1.00  0.00    -0.507 OA
ATOM     23  H   UNL     1       0.261  28.632  57.355  1.00  0.00     0.293 HD
ENDBRANCH   6  22
BRANCH   8  24
ATOM     24  O   UNL     1       5.264  26.394  59.023  1.00  0.00    -0.508 OA
ATOM     25  H   UNL     1       4.970  26.210  59.975  1.00  0.00     0.293 HD
ENDBRANCH   8  24
TORSDOF 5
ENDMDL
MODEL 7
REMARK VINA RESULT:    -5.489     10.638     12.454
REMARK INTER + INTRA:          -6.717
REMARK INTER:                  -6.434
REMARK INTRA:                  -0.283
REMARK UNBOUND:                -0.265
REMARK SMILES O=c1cc(-c2ccc(O)c(O)c2)oc2cc(O)cc(O)c12
REMARK SMILES IDX 4 1 3 2 2 3 1 4 21 5 19 6 18 7 16 8 15 9 14 10 13 11 5 12
REMARK SMILES IDX 6 13 7 14 8 15 12 16 10 17 9 18 11 20 20 22 17 24
REMARK H PARENT 9 19 11 21 20 23 17 25
REMARK Flexibility Score: inf
ROOT
ATOM      1  C   UNL     1       3.709  29.235  53.779  1.00  0.00     0.138 A 
ATOM      2  C   UNL     1       4.348  28.562  52.725  1.00  0.00     0.100 A 
ATOM      3  C   UNL     1       4.434  29.172  51.473  1.00  0.00     0.197 A 
ATOM      4  O   UNL     1       5.009  28.559  50.533  1.00  0.00    -0.289 OA
ATOM      5  C   UNL     1       3.875  30.452  51.283  1.00  0.00     0.107 A 
ATOM      6  C   UNL     1       3.920  31.141  50.047  1.00  0.00     0.134 A 
ATOM      7  C   UNL     1       3.334  32.411  49.939  1.00  0.00     0.093 A 
ATOM      8  C   UNL     1       2.707  33.002  51.038  1.00  0.00     0.123 A 
ATOM      9  C   UNL     1       2.661  32.327  52.261  1.00  0.00     0.094 A 
ATOM     10  C   UNL     1       3.239  31.061  52.391  1.00  0.00     0.146 A 
ATOM     11  O   UNL     1       3.183  30.439  53.564  1.00  0.00    -0.456 OA
ENDROOT
BRANCH   1  12
ATOM     12  C   UNL     1       3.587  28.635  55.132  1.00  0.00     0.021 A 
ATOM     13  C   UNL     1       2.405  28.825  55.869  1.00  0.00     0.016 A 
ATOM     14  C   UNL     1       2.268  28.278  57.146  1.00  0.00     0.051 A 
ATOM     15  C   UNL     1       3.312  27.538  57.714  1.00  0.00     0.157 A 
ATOM     16  C   UNL     1       4.639  27.902  55.715  1.00  0.00     0.062 A 
ATOM     17  C   UNL     1       4.504  27.354  56.996  1.00  0.00     0.158 A 
BRANCH  15  18
ATOM     18  O   UNL     1       3.171  26.992  58.989  1.00  0.00    -0.504 OA
ATOM     19  H   UNL     1       3.961  26.603  59.490  1.00  0.00     0.293 HD
ENDBRANCH  15  18
BRANCH  17  20
ATOM     20  O   UNL     1       5.568  26.632  57.538  1.00  0.00    -0.504 OA
ATOM     21  H   UNL     1       5.732  26.585  58.536  1.00  0.00     0.293 HD
ENDBRANCH  17  20
ENDBRANCH   1  12
BRANCH   6  22
ATOM     22  O   UNL     1       4.538  30.574  48.932  1.00  0.00    -0.507 OA
ATOM     23  H   UNL     1       4.002  30.168  48.174  1.00  0.00     0.293 HD
ENDBRANCH   6  22
BRANCH   8  24
ATOM     24  O   UNL     1       2.133  34.265  50.902  1.00  0.00    -0.508 OA
ATOM     25  H   UNL     1       1.697  34.736  51.687  1.00  0.00     0.293 HD
ENDBRANCH   8  24
TORSDOF 5
ENDMDL
MODEL 8
REMARK VINA RESULT:    -5.476      1.448      7.188
REMARK INTER + INTRA:          -6.701
REMARK INTER:                  -6.437
REMARK INTRA:                  -0.264
REMARK UNBOUND:                -0.265
REMARK SMILES O=c1cc(-c2ccc(O)c(O)c2)oc2cc(O)cc(O)c12
REMARK SMILES IDX 4 1 3 2 2 3 1 4 21 5 19 6 18 7 16 8 15 9 14 10 13 11 5 12
REMARK SMILES IDX 6 13 7 14 8 15 12 16 10 17 9 18 11 20 20 22 17 24
REMARK H PARENT 9 19 11 21 20 23 17 25
REMARK Flexibility Score: inf
ROOT
ATOM      1  C   UNL     1      -7.049  27.830  55.911  1.00  0.00     0.138 A 
ATOM      2  C   UNL     1      -7.447  26.541  56.303  1.00  0.00     0.100 A 
ATOM      3  C   UNL     1      -7.474  25.514  55.358  1.00  0.00     0.197 A 
ATOM      4  O   UNL     1      -7.834  24.361  55.721  1.00  0.00    -0.289 OA
ATOM      5  C   UNL     1      -7.106  25.785  54.025  1.00  0.00     0.107 A 
ATOM      6  C   UNL     1      -7.105  24.801  53.008  1.00  0.00     0.134 A 
ATOM      7  C   UNL     1      -6.731  25.154  51.702  1.00  0.00     0.093 A 
ATOM      8  C   UNL     1      -6.360  26.465  51.397  1.00  0.00     0.123 A 
ATOM      9  C   UNL     1      -6.358  27.440  52.399  1.00  0.00     0.094 A 
ATOM     10  C   UNL     1      -6.727  27.111  53.706  1.00  0.00     0.146 A 
ATOM     11  O   UNL     1      -6.716  28.055  54.641  1.00  0.00    -0.456 OA
ENDROOT
BRANCH   1  12
ATOM     12  C   UNL     1      -7.001  28.961  56.871  1.00  0.00     0.021 A 
ATOM     13  C   UNL     1      -8.018  29.931  56.849  1.00  0.00     0.016 A 
ATOM     14  C   UNL     1      -7.993  31.009  57.736  1.00  0.00     0.051 A 
ATOM     15  C   UNL     1      -6.947  31.142  58.657  1.00  0.00     0.157 A 
ATOM     16  C   UNL     1      -5.945  29.108  57.792  1.00  0.00     0.062 A 
ATOM     17  C   UNL     1      -5.916  30.189  58.681  1.00  0.00     0.158 A 
BRANCH  15  18
ATOM     18  O   UNL     1      -6.925  32.219  59.543  1.00  0.00    -0.504 OA
ATOM     19  H   UNL     1      -7.768  32.730  59.777  1.00  0.00     0.293 HD
ENDBRANCH  15  18
BRANCH  17  20
ATOM     20  O   UNL     1      -4.854  30.299  59.579  1.00  0.00    -0.504 OA
ATOM     21  H   UNL     1      -3.959  30.686  59.307  1.00  0.00     0.293 HD
ENDBRANCH  17  20
ENDBRANCH   1  12
BRANCH   6  22
ATOM     22  O   UNL     1      -7.472  23.484  53.283  1.00  0.00    -0.507 OA
ATOM     23  H   UNL     1      -7.523  22.781  52.554  1.00  0.00     0.293 HD
ENDBRANCH   6  22
BRANCH   8  24
ATOM     24  O   UNL     1      -5.992  26.788  50.092  1.00  0.00    -0.508 OA
ATOM     25  H   UNL     1      -5.086  27.189  49.881  1.00  0.00     0.293 HD
ENDBRANCH   8  24
TORSDOF 5
ENDMDL
MODEL 9
REMARK VINA RESULT:    -3.861      3.782      6.682
REMARK INTER + INTRA:          -4.803
REMARK INTER:                  -4.537
REMARK INTRA:                  -0.266
REMARK UNBOUND:                -0.265
REMARK SMILES O=c1cc(-c2ccc(O)c(O)c2)oc2cc(O)cc(O)c12
REMARK SMILES IDX 4 1 3 2 2 3 1 4 21 5 19 6 18 7 16 8 15 9 14 10 13 11 5 12
REMARK SMILES IDX 6 13 7 14 8 15 12 16 10 17 9 18 11 20 20 22 17 24
REMARK H PARENT 9 19 11 21 20 23 17 25
REMARK Flexibility Score: inf
ROOT
ATOM      1  C   UNL     1      -8.819  32.457  58.363  1.00  0.00     0.138 A 
ATOM      2  C   UNL     1      -9.986  32.223  59.108  1.00  0.00     0.100 A 
ATOM      3  C   UNL     1     -11.026  33.152  59.065  1.00  0.00     0.197 A 
ATOM      4  O   UNL     1     -12.070  32.933  59.737  1.00  0.00    -0.289 OA
ATOM      5  C   UNL     1     -10.890  34.313  58.277  1.00  0.00     0.107 A 
ATOM      6  C   UNL     1     -11.896  35.303  58.177  1.00  0.00     0.134 A 
ATOM      7  C   UNL     1     -11.679  36.434  57.375  1.00  0.00     0.093 A 
ATOM      8  C   UNL     1     -10.480  36.593  56.676  1.00  0.00     0.123 A 
ATOM      9  C   UNL     1      -9.483  35.617  56.771  1.00  0.00     0.094 A 
ATOM     10  C   UNL     1      -9.679  34.482  57.564  1.00  0.00     0.146 A 
ATOM     11  O   UNL     1      -8.717  33.568  57.637  1.00  0.00    -0.456 OA
ENDROOT
BRANCH   1  12
ATOM     12  C   UNL     1      -7.680  31.504  58.372  1.00  0.00     0.021 A 
ATOM     13  C   UNL     1      -7.699  30.396  57.508  1.00  0.00     0.016 A 
ATOM     14  C   UNL     1      -6.645  29.480  57.502  1.00  0.00     0.051 A 
ATOM     15  C   UNL     1      -5.556  29.651  58.365  1.00  0.00     0.157 A 
ATOM     16  C   UNL     1      -6.588  31.662  59.247  1.00  0.00     0.062 A 
ATOM     17  C   UNL     1      -5.530  30.745  59.245  1.00  0.00     0.158 A 
BRANCH  15  18
ATOM     18  O   UNL     1      -4.503  28.736  58.356  1.00  0.00    -0.504 OA
ATOM     19  H   UNL     1      -3.607  28.955  58.775  1.00  0.00     0.293 HD
ENDBRANCH  15  18
BRANCH  17  20
ATOM     20  O   UNL     1      -4.466  30.938  60.125  1.00  0.00    -0.504 OA
ATOM     21  H   UNL     1      -4.463  30.545  61.059  1.00  0.00     0.293 HD
ENDBRANCH  17  20
ENDBRANCH   1  12
BRANCH   6  22
ATOM     22  O   UNL     1     -13.102  35.173  58.864  1.00  0.00    -0.507 OA
ATOM     23  H   UNL     1     -13.745  35.950  58.966  1.00  0.00     0.293 HD
ENDBRANCH   6  22
BRANCH   8  24
ATOM     24  O   UNL     1     -10.291  37.726  55.887  1.00  0.00    -0.508 OA
ATOM     25  H   UNL     1      -9.962  38.598  56.283  1.00  0.00     0.293 HD
ENDBRANCH   8  24
TORSDOF 5
ENDMDL
