MODEL 1
REMARK VINA RESULT:    -3.522      0.000      0.000
REMARK INTER + INTRA:          -5.961
REMARK INTER:                  -5.067
REMARK INTRA:                  -0.895
REMARK UNBOUND:                -0.895
REMARK SMILES O=C(CO)[C@H](O)[C@H](O)[C@H](O)CO
REMARK SMILES IDX 7 1 9 2 11 3 12 4 10 6 5 8 2 9 1 10 3 11 4 12 6 14 8 16
REMARK H PARENT 12 5 10 7 4 13 6 15 8 17
REMARK Flexibility Score: inf
ROOT
ATOM      1  C   UNL     1      71.722  31.467  59.913  1.00  0.00     0.181 C 
ENDROOT
BRANCH   1   2
ATOM      2  C   UNL     1      71.767  30.658  61.238  1.00  0.00     0.171 C 
BRANCH   2   3
ATOM      3  C   UNL     1      73.125  30.697  61.959  1.00  0.00     0.190 C 
BRANCH   3   4
ATOM      4  O   UNL     1      73.122  31.637  63.001  1.00  0.00    -0.394 OA
ATOM      5  H   UNL     1      73.193  32.535  62.582  1.00  0.00     0.210 HD
ENDBRANCH   3   4
ENDBRANCH   2   3
BRANCH   2   6
ATOM      6  O   UNL     1      70.776  31.132  62.114  1.00  0.00    -0.388 OA
ATOM      7  H   UNL     1      71.111  31.986  62.495  1.00  0.00     0.211 HD
ENDBRANCH   2   6
ENDBRANCH   1   2
BRANCH   1   8
ATOM      8  C   UNL     1      71.269  32.940  60.110  1.00  0.00     0.214 C 
BRANCH   8   9
ATOM      9  C   UNL     1      71.168  33.685  58.793  1.00  0.00     0.189 C 
ATOM     10  O   UNL     1      71.642  33.179  57.786  1.00  0.00    -0.294 OA
BRANCH   9  11
ATOM     11  C   UNL     1      70.498  35.027  58.679  1.00  0.00     0.234 C 
BRANCH  11  12
ATOM     12  O   UNL     1      70.066  35.438  59.946  1.00  0.00    -0.388 OA
ATOM     13  H   UNL     1      69.737  34.621  60.404  1.00  0.00     0.211 HD
ENDBRANCH  11  12
ENDBRANCH   9  11
ENDBRANCH   8   9
BRANCH   8  14
ATOM     14  O   UNL     1      72.109  33.636  60.998  1.00  0.00    -0.382 OA
ATOM     15  H   UNL     1      71.733  34.545  61.128  1.00  0.00     0.211 HD
ENDBRANCH   8  14
ENDBRANCH   1   8
BRANCH   1  16
ATOM     16  O   UNL     1      70.874  30.821  58.996  1.00  0.00    -0.387 OA
ATOM     17  H   UNL     1      70.312  31.521  58.571  1.00  0.00     0.211 HD
ENDBRANCH   1  16
TORSDOF 10
ENDMDL
MODEL 2
REMARK VINA RESULT:    -3.505     21.247     22.658
REMARK INTER + INTRA:          -5.936
REMARK INTER:                  -5.245
REMARK INTRA:                  -0.691
REMARK UNBOUND:                -0.895
REMARK SMILES O=C(CO)[C@H](O)[C@H](O)[C@H](O)CO
REMARK SMILES IDX 7 1 9 2 11 3 12 4 10 6 5 8 2 9 1 10 3 11 4 12 6 14 8 16
REMARK H PARENT 12 5 10 7 4 13 6 15 8 17
REMARK Flexibility Score: inf
ROOT
ATOM      1  C   UNL     1      56.446  19.171  50.676  1.00  0.00     0.181 C 
ENDROOT
BRANCH   1   2
ATOM      2  C   UNL     1      57.820  18.705  50.124  1.00  0.00     0.171 C 
BRANCH   2   3
ATOM      3  C   UNL     1      57.872  17.221  49.722  1.00  0.00     0.190 C 
BRANCH   3   4
ATOM      4  O   UNL     1      57.335  17.021  48.442  1.00  0.00    -0.394 OA
ATOM      5  H   UNL     1      56.731  16.235  48.500  1.00  0.00     0.210 HD
ENDBRANCH   3   4
ENDBRANCH   2   3
BRANCH   2   6
ATOM      6  O   UNL     1      58.172  19.487  49.011  1.00  0.00    -0.388 OA
ATOM      7  H   UNL     1      59.117  19.762  49.136  1.00  0.00     0.211 HD
ENDBRANCH   2   6
ENDBRANCH   1   2
BRANCH   1   8
ATOM      8  C   UNL     1      56.492  19.572  52.177  1.00  0.00     0.214 C 
BRANCH   8   9
ATOM      9  C   UNL     1      55.137  19.436  52.844  1.00  0.00     0.189 C 
ATOM     10  O   UNL     1      54.953  18.522  53.634  1.00  0.00    -0.294 OA
BRANCH   9  11
ATOM     11  C   UNL     1      54.008  20.392  52.569  1.00  0.00     0.234 C 
BRANCH  11  12
ATOM     12  O   UNL     1      53.129  19.817  51.643  1.00  0.00    -0.388 OA
ATOM     13  H   UNL     1      53.629  19.078  51.210  1.00  0.00     0.211 HD
ENDBRANCH  11  12
ENDBRANCH   9  11
ENDBRANCH   8   9
BRANCH   8  14
ATOM     14  O   UNL     1      56.994  20.873  52.360  1.00  0.00    -0.382 OA
ATOM     15  H   UNL     1      57.808  20.970  51.801  1.00  0.00     0.211 HD
ENDBRANCH   8  14
ENDBRANCH   1   8
BRANCH   1  16
ATOM     16  O   UNL     1      55.491  18.158  50.477  1.00  0.00    -0.387 OA
ATOM     17  H   UNL     1      54.833  18.500  49.815  1.00  0.00     0.211 HD
ENDBRANCH   1  16
TORSDOF 10
ENDMDL
MODEL 3
REMARK VINA RESULT:    -3.475     21.282     22.765
REMARK INTER + INTRA:          -5.894
REMARK INTER:                  -4.955
REMARK INTRA:                  -0.939
REMARK UNBOUND:                -0.895
REMARK SMILES O=C(CO)[C@H](O)[C@H](O)[C@H](O)CO
REMARK SMILES IDX 7 1 9 2 11 3 12 4 10 6 5 8 2 9 1 10 3 11 4 12 6 14 8 16
REMARK H PARENT 12 5 10 7 4 13 6 15 8 17
REMARK Flexibility Score: inf
ROOT
ATOM      1  C   UNL     1      56.260  19.772  51.859  1.00  0.00     0.181 C 
ENDROOT
BRANCH   1   2
ATOM      2  C   UNL     1      55.131  19.752  52.924  1.00  0.00     0.171 C 
BRANCH   2   3
ATOM      3  C   UNL     1      53.923  20.643  52.585  1.00  0.00     0.190 C 
BRANCH   3   4
ATOM      4  O   UNL     1      53.697  20.690  51.201  1.00  0.00    -0.394 OA
ATOM      5  H   UNL     1      52.734  20.497  51.058  1.00  0.00     0.210 HD
ENDBRANCH   3   4
ENDBRANCH   2   3
BRANCH   2   6
ATOM      6  O   UNL     1      54.681  18.434  53.110  1.00  0.00    -0.388 OA
ATOM      7  H   UNL     1      54.180  18.416  53.968  1.00  0.00     0.211 HD
ENDBRANCH   2   6
ENDBRANCH   1   2
BRANCH   1   8
ATOM      8  C   UNL     1      56.322  18.474  51.006  1.00  0.00     0.214 C 
BRANCH   8   9
ATOM      9  C   UNL     1      57.550  18.436  50.118  1.00  0.00     0.189 C 
ATOM     10  O   UNL     1      58.179  19.466  49.928  1.00  0.00    -0.294 OA
BRANCH   9  11
ATOM     11  C   UNL     1      58.027  17.168  49.463  1.00  0.00     0.234 C 
BRANCH  11  12
ATOM     12  O   UNL     1      57.275  16.933  48.305  1.00  0.00    -0.388 OA
ATOM     13  H   UNL     1      57.911  17.003  47.545  1.00  0.00     0.211 HD
ENDBRANCH  11  12
ENDBRANCH   9  11
ENDBRANCH   8   9
BRANCH   8  14
ATOM     14  O   UNL     1      55.160  18.294  50.236  1.00  0.00    -0.382 OA
ATOM     15  H   UNL     1      55.184  18.942  49.486  1.00  0.00     0.211 HD
ENDBRANCH   8  14
ENDBRANCH   1   8
BRANCH   1  16
ATOM     16  O   UNL     1      57.498  19.993  52.489  1.00  0.00    -0.387 OA
ATOM     17  H   UNL     1      58.175  20.116  51.773  1.00  0.00     0.211 HD
ENDBRANCH   1  16
TORSDOF 10
ENDMDL
MODEL 4
REMARK VINA RESULT:    -3.472     21.156     22.492
REMARK INTER + INTRA:          -5.888
REMARK INTER:                  -4.911
REMARK INTRA:                  -0.977
REMARK UNBOUND:                -0.895
REMARK SMILES O=C(CO)[C@H](O)[C@H](O)[C@H](O)CO
REMARK SMILES IDX 7 1 9 2 11 3 12 4 10 6 5 8 2 9 1 10 3 11 4 12 6 14 8 16
REMARK H PARENT 12 5 10 7 4 13 6 15 8 17
REMARK Flexibility Score: inf
ROOT
ATOM      1  C   UNL     1      57.167  18.488  51.120  1.00  0.00     0.181 C 
ENDROOT
BRANCH   1   2
ATOM      2  C   UNL     1      57.831  18.140  49.761  1.00  0.00     0.171 C 
BRANCH   2   3
ATOM      3  C   UNL     1      59.370  18.146  49.786  1.00  0.00     0.190 C 
BRANCH   3   4
ATOM      4  O   UNL     1      59.876  19.448  49.655  1.00  0.00    -0.394 OA
ATOM      5  H   UNL     1      60.664  19.393  49.052  1.00  0.00     0.210 HD
ENDBRANCH   3   4
ENDBRANCH   2   3
BRANCH   2   6
ATOM      6  O   UNL     1      57.392  16.877  49.330  1.00  0.00    -0.388 OA
ATOM      7  H   UNL     1      57.255  16.324  50.144  1.00  0.00     0.211 HD
ENDBRANCH   2   6
ENDBRANCH   1   2
BRANCH   1   8
ATOM      8  C   UNL     1      55.772  19.157  50.967  1.00  0.00     0.214 C 
BRANCH   8   9
ATOM      9  C   UNL     1      55.108  19.400  52.309  1.00  0.00     0.189 C 
ATOM     10  O   UNL     1      55.552  18.842  53.301  1.00  0.00    -0.294 OA
BRANCH   9  11
ATOM     11  C   UNL     1      53.920  20.309  52.462  1.00  0.00     0.234 C 
BRANCH  11  12
ATOM     12  O   UNL     1      53.572  20.834  51.211  1.00  0.00    -0.388 OA
ATOM     13  H   UNL     1      52.593  20.997  51.243  1.00  0.00     0.211 HD
ENDBRANCH  11  12
ENDBRANCH   9  11
ENDBRANCH   8   9
BRANCH   8  14
ATOM     14  O   UNL     1      54.920  18.415  50.130  1.00  0.00    -0.382 OA
ATOM     15  H   UNL     1      54.522  17.683  50.669  1.00  0.00     0.211 HD
ENDBRANCH   8  14
ENDBRANCH   1   8
BRANCH   1  16
ATOM     16  O   UNL     1      58.022  19.321  51.862  1.00  0.00    -0.387 OA
ATOM     17  H   UNL     1      58.814  19.512  51.293  1.00  0.00     0.211 HD
ENDBRANCH   1  16
TORSDOF 10
ENDMDL
MODEL 5
REMARK VINA RESULT:    -3.445      1.065      1.521
REMARK INTER + INTRA:          -5.850
REMARK INTER:                  -4.927
REMARK INTRA:                  -0.924
REMARK UNBOUND:                -0.895
REMARK SMILES O=C(CO)[C@H](O)[C@H](O)[C@H](O)CO
REMARK SMILES IDX 7 1 9 2 11 3 12 4 10 6 5 8 2 9 1 10 3 11 4 12 6 14 8 16
REMARK H PARENT 12 5 10 7 4 13 6 15 8 17
REMARK Flexibility Score: inf
ROOT
ATOM      1  C   UNL     1      71.792  32.088  60.007  1.00  0.00     0.181 C 
ENDROOT
BRANCH   1   2
ATOM      2  C   UNL     1      71.912  31.365  61.375  1.00  0.00     0.171 C 
BRANCH   2   3
ATOM      3  C   UNL     1      72.137  29.846  61.272  1.00  0.00     0.190 C 
BRANCH   3   4
ATOM      4  O   UNL     1      70.924  29.162  61.098  1.00  0.00    -0.394 OA
ATOM      5  H   UNL     1      70.757  29.110  60.121  1.00  0.00     0.210 HD
ENDBRANCH   3   4
ENDBRANCH   2   3
BRANCH   2   6
ATOM      6  O   UNL     1      72.965  31.927  62.116  1.00  0.00    -0.388 OA
ATOM      7  H   UNL     1      73.389  32.616  61.540  1.00  0.00     0.211 HD
ENDBRANCH   2   6
ENDBRANCH   1   2
BRANCH   1   8
ATOM      8  C   UNL     1      71.211  33.525  60.122  1.00  0.00     0.214 C 
BRANCH   8   9
ATOM      9  C   UNL     1      70.991  34.160  58.763  1.00  0.00     0.189 C 
ATOM     10  O   UNL     1      71.517  33.659  57.780  1.00  0.00    -0.294 OA
BRANCH   9  11
ATOM     11  C   UNL     1      70.142  35.389  58.580  1.00  0.00     0.234 C 
BRANCH  11  12
ATOM     12  O   UNL     1      70.865  36.517  58.984  1.00  0.00    -0.388 OA
ATOM     13  H   UNL     1      70.351  37.304  58.662  1.00  0.00     0.211 HD
ENDBRANCH  11  12
ENDBRANCH   9  11
ENDBRANCH   8   9
BRANCH   8  14
ATOM     14  O   UNL     1      72.016  34.356  60.922  1.00  0.00    -0.382 OA
ATOM     15  H   UNL     1      72.950  34.028  60.863  1.00  0.00     0.211 HD
ENDBRANCH   8  14
ENDBRANCH   1   8
BRANCH   1  16
ATOM     16  O   UNL     1      71.002  31.318  59.134  1.00  0.00    -0.387 OA
ATOM     17  H   UNL     1      70.255  30.940  59.670  1.00  0.00     0.211 HD
ENDBRANCH   1  16
TORSDOF 10
ENDMDL
MODEL 6
REMARK VINA RESULT:    -3.368     13.710     14.500
REMARK INTER + INTRA:          -5.739
REMARK INTER:                  -4.787
REMARK INTRA:                  -0.951
REMARK UNBOUND:                -0.895
REMARK SMILES O=C(CO)[C@H](O)[C@H](O)[C@H](O)CO
REMARK SMILES IDX 7 1 9 2 11 3 12 4 10 6 5 8 2 9 1 10 3 11 4 12 6 14 8 16
REMARK H PARENT 12 5 10 7 4 13 6 15 8 17
REMARK Flexibility Score: inf
ROOT
ATOM      1  C   UNL     1      57.627  28.226  61.756  1.00  0.00     0.181 C 
ENDROOT
BRANCH   1   2
ATOM      2  C   UNL     1      56.109  28.116  61.452  1.00  0.00     0.171 C 
BRANCH   2   3
ATOM      3  C   UNL     1      55.341  27.165  62.387  1.00  0.00     0.190 C 
BRANCH   3   4
ATOM      4  O   UNL     1      55.412  27.594  63.720  1.00  0.00    -0.394 OA
ATOM      5  H   UNL     1      56.086  28.323  63.755  1.00  0.00     0.210 HD
ENDBRANCH   3   4
ENDBRANCH   2   3
BRANCH   2   6
ATOM      6  O   UNL     1      55.520  29.390  61.522  1.00  0.00    -0.388 OA
ATOM      7  H   UNL     1      54.557  29.276  61.306  1.00  0.00     0.211 HD
ENDBRANCH   2   6
ENDBRANCH   1   2
BRANCH   1   8
ATOM      8  C   UNL     1      58.493  28.447  60.484  1.00  0.00     0.214 C 
BRANCH   8   9
ATOM      9  C   UNL     1      59.961  28.617  60.819  1.00  0.00     0.189 C 
ATOM     10  O   UNL     1      60.634  27.628  61.068  1.00  0.00    -0.294 OA
BRANCH   9  11
ATOM     11  C   UNL     1      60.625  29.968  60.850  1.00  0.00     0.234 C 
BRANCH  11  12
ATOM     12  O   UNL     1      59.945  30.797  61.750  1.00  0.00    -0.388 OA
ATOM     13  H   UNL     1      59.073  30.356  61.928  1.00  0.00     0.211 HD
ENDBRANCH  11  12
ENDBRANCH   9  11
ENDBRANCH   8   9
BRANCH   8  14
ATOM     14  O   UNL     1      58.038  29.537  59.720  1.00  0.00    -0.382 OA
ATOM     15  H   UNL     1      58.818  29.925  59.244  1.00  0.00     0.211 HD
ENDBRANCH   8  14
ENDBRANCH   1   8
BRANCH   1  16
ATOM     16  O   UNL     1      58.055  27.071  62.435  1.00  0.00    -0.387 OA
ATOM     17  H   UNL     1      57.276  26.723  62.943  1.00  0.00     0.211 HD
ENDBRANCH   1  16
TORSDOF 10
ENDMDL
MODEL 7
REMARK VINA RESULT:    -3.356      1.047      4.218
REMARK INTER + INTRA:          -5.721
REMARK INTER:                  -4.809
REMARK INTRA:                  -0.912
REMARK UNBOUND:                -0.895
REMARK SMILES O=C(CO)[C@H](O)[C@H](O)[C@H](O)CO
REMARK SMILES IDX 7 1 9 2 11 3 12 4 10 6 5 8 2 9 1 10 3 11 4 12 6 14 8 16
REMARK H PARENT 12 5 10 7 4 13 6 15 8 17
REMARK Flexibility Score: inf
ROOT
ATOM      1  C   UNL     1      70.566  32.310  59.629  1.00  0.00     0.181 C 
ENDROOT
BRANCH   1   2
ATOM      2  C   UNL     1      71.364  33.628  59.444  1.00  0.00     0.171 C 
BRANCH   2   3
ATOM      3  C   UNL     1      70.511  34.830  59.003  1.00  0.00     0.190 C 
BRANCH   3   4
ATOM      4  O   UNL     1      69.995  35.522  60.109  1.00  0.00    -0.394 OA
ATOM      5  H   UNL     1      69.006  35.504  60.027  1.00  0.00     0.210 HD
ENDBRANCH   3   4
ENDBRANCH   2   3
BRANCH   2   6
ATOM      6  O   UNL     1      72.019  33.956  60.644  1.00  0.00    -0.388 OA
ATOM      7  H   UNL     1      72.343  34.890  60.551  1.00  0.00     0.211 HD
ENDBRANCH   2   6
ENDBRANCH   1   2
BRANCH   1   8
ATOM      8  C   UNL     1      71.475  31.064  59.823  1.00  0.00     0.214 C 
BRANCH   8   9
ATOM      9  C   UNL     1      71.407  30.525  61.238  1.00  0.00     0.189 C 
ATOM     10  O   UNL     1      70.350  30.070  61.651  1.00  0.00    -0.294 OA
BRANCH   9  11
ATOM     11  C   UNL     1      72.600  30.526  62.155  1.00  0.00     0.234 C 
BRANCH  11  12
ATOM     12  O   UNL     1      73.025  31.844  62.362  1.00  0.00    -0.388 OA
ATOM     13  H   UNL     1      73.198  31.928  63.336  1.00  0.00     0.211 HD
ENDBRANCH  11  12
ENDBRANCH   9  11
ENDBRANCH   8   9
BRANCH   8  14
ATOM     14  O   UNL     1      72.811  31.326  59.467  1.00  0.00    -0.382 OA
ATOM     15  H   UNL     1      73.167  30.526  59.002  1.00  0.00     0.211 HD
ENDBRANCH   8  14
ENDBRANCH   1   8
BRANCH   1  16
ATOM     16  O   UNL     1      69.714  32.117  58.527  1.00  0.00    -0.387 OA
ATOM     17  H   UNL     1      69.202  32.958  58.400  1.00  0.00     0.211 HD
ENDBRANCH   1  16
TORSDOF 10
ENDMDL
MODEL 8
REMARK VINA RESULT:    -3.353     16.604     17.237
REMARK INTER + INTRA:          -5.717
REMARK INTER:                  -4.865
REMARK INTRA:                  -0.852
REMARK UNBOUND:                -0.895
REMARK SMILES O=C(CO)[C@H](O)[C@H](O)[C@H](O)CO
REMARK SMILES IDX 7 1 9 2 11 3 12 4 10 6 5 8 2 9 1 10 3 11 4 12 6 14 8 16
REMARK H PARENT 12 5 10 7 4 13 6 15 8 17
REMARK Flexibility Score: inf
ROOT
ATOM      1  C   UNL     1      55.478  26.602  62.478  1.00  0.00     0.181 C 
ENDROOT
BRANCH   1   2
ATOM      2  C   UNL     1      54.691  25.963  63.653  1.00  0.00     0.171 C 
BRANCH   2   3
ATOM      3  C   UNL     1      55.233  24.598  64.112  1.00  0.00     0.190 C 
BRANCH   3   4
ATOM      4  O   UNL     1      56.594  24.459  63.800  1.00  0.00    -0.394 OA
ATOM      5  H   UNL     1      56.647  24.188  62.847  1.00  0.00     0.210 HD
ENDBRANCH   3   4
ENDBRANCH   2   3
BRANCH   2   6
ATOM      6  O   UNL     1      54.688  26.839  64.751  1.00  0.00    -0.388 OA
ATOM      7  H   UNL     1      53.978  27.512  64.584  1.00  0.00     0.211 HD
ENDBRANCH   2   6
ENDBRANCH   1   2
BRANCH   1   8
ATOM      8  C   UNL     1      55.127  28.098  62.246  1.00  0.00     0.214 C 
BRANCH   8   9
ATOM      9  C   UNL     1      55.365  28.522  60.810  1.00  0.00     0.189 C 
ATOM     10  O   UNL     1      56.341  28.088  60.216  1.00  0.00    -0.294 OA
BRANCH   9  11
ATOM     11  C   UNL     1      54.436  29.459  60.086  1.00  0.00     0.234 C 
BRANCH  11  12
ATOM     12  O   UNL     1      53.885  30.364  61.001  1.00  0.00    -0.388 OA
ATOM     13  H   UNL     1      54.500  31.143  61.023  1.00  0.00     0.211 HD
ENDBRANCH  11  12
ENDBRANCH   9  11
ENDBRANCH   8   9
BRANCH   8  14
ATOM     14  O   UNL     1      55.825  28.946  63.125  1.00  0.00    -0.382 OA
ATOM     15  H   UNL     1      56.403  29.542  62.583  1.00  0.00     0.211 HD
ENDBRANCH   8  14
ENDBRANCH   1   8
BRANCH   1  16
ATOM     16  O   UNL     1      55.249  25.866  61.302  1.00  0.00    -0.387 OA
ATOM     17  H   UNL     1      55.839  25.067  61.335  1.00  0.00     0.211 HD
ENDBRANCH   1  16
TORSDOF 10
ENDMDL
MODEL 9
REMARK VINA RESULT:    -3.313     16.504     17.690
REMARK INTER + INTRA:          -5.660
REMARK INTER:                  -4.679
REMARK INTRA:                  -0.981
REMARK UNBOUND:                -0.895
REMARK SMILES O=C(CO)[C@H](O)[C@H](O)[C@H](O)CO
REMARK SMILES IDX 7 1 9 2 11 3 12 4 10 6 5 8 2 9 1 10 3 11 4 12 6 14 8 16
REMARK H PARENT 12 5 10 7 4 13 6 15 8 17
REMARK Flexibility Score: inf
ROOT
ATOM      1  C   UNL     1      55.048  27.100  62.561  1.00  0.00     0.181 C 
ENDROOT
BRANCH   1   2
ATOM      2  C   UNL     1      56.088  28.252  62.524  1.00  0.00     0.171 C 
BRANCH   2   3
ATOM      3  C   UNL     1      57.395  27.904  61.791  1.00  0.00     0.190 C 
BRANCH   3   4
ATOM      4  O   UNL     1      58.152  26.970  62.514  1.00  0.00    -0.394 OA
ATOM      5  H   UNL     1      57.863  27.034  63.462  1.00  0.00     0.210 HD
ENDBRANCH   3   4
ENDBRANCH   2   3
BRANCH   2   6
ATOM      6  O   UNL     1      55.517  29.383  61.917  1.00  0.00    -0.388 OA
ATOM      7  H   UNL     1      55.170  29.094  61.033  1.00  0.00     0.211 HD
ENDBRANCH   2   6
ENDBRANCH   1   2
BRANCH   1   8
ATOM      8  C   UNL     1      54.947  26.410  63.950  1.00  0.00     0.214 C 
BRANCH   8   9
ATOM      9  C   UNL     1      54.713  24.917  63.828  1.00  0.00     0.189 C 
ATOM     10  O   UNL     1      53.608  24.513  63.496  1.00  0.00    -0.294 OA
BRANCH   9  11
ATOM     11  C   UNL     1      55.798  23.910  64.096  1.00  0.00     0.234 C 
BRANCH  11  12
ATOM     12  O   UNL     1      57.029  24.435  63.684  1.00  0.00    -0.388 OA
ATOM     13  H   UNL     1      57.376  23.814  62.992  1.00  0.00     0.211 HD
ENDBRANCH  11  12
ENDBRANCH   9  11
ENDBRANCH   8   9
BRANCH   8  14
ATOM     14  O   UNL     1      53.953  26.993  64.757  1.00  0.00    -0.382 OA
ATOM     15  H   UNL     1      53.490  26.266  65.248  1.00  0.00     0.211 HD
ENDBRANCH   8  14
ENDBRANCH   1   8
BRANCH   1  16
ATOM     16  O   UNL     1      55.364  26.149  61.573  1.00  0.00    -0.387 OA
ATOM     17  H   UNL     1      55.279  26.601  60.693  1.00  0.00     0.211 HD
ENDBRANCH   1  16
TORSDOF 10
ENDMDL
