MODEL 1
REMARK VINA RESULT:    -5.077      0.000      0.000
REMARK INTER + INTRA:         -11.523
REMARK INTER:                  -9.529
REMARK INTRA:                  -1.995
REMARK UNBOUND:                -1.995
REMARK SMILES O=C([O-])CCCCCCCCCCCCCCC(=O)[O-]
REMARK SMILES IDX 10 1 9 2 8 3 7 4 6 5 5 6 4 7 2 8 1 9 3 10 11 11 12 12 13 13
REMARK SMILES IDX 14 14 15 15 16 16 17 17 18 18 19 19 20 20
REMARK H PARENT
REMARK Flexibility Score: inf
ROOT
ATOM      1  C   UNL     1       5.019   7.487   9.636  1.00  0.00     0.000 C 
ENDROOT
BRANCH   1   2
ATOM      2  C   UNL     1       5.061   9.023   9.701  1.00  0.00     0.000 C 
BRANCH   2   3
ATOM      3  C   UNL     1       6.144   9.543  10.660  1.00  0.00     0.000 C 
BRANCH   3   4
ATOM      4  C   UNL     1       7.533   8.957  10.351  1.00  0.00     0.000 C 
BRANCH   4   5
ATOM      5  C   UNL     1       8.226   8.391  11.601  1.00  0.00     0.000 C 
BRANCH   5   6
ATOM      6  C   UNL     1       7.930   6.899  11.815  1.00  0.00     0.006 C 
BRANCH   6   7
ATOM      7  C   UNL     1       9.149   6.042  11.460  1.00  0.00     0.053 C 
BRANCH   7   8
ATOM      8  C   UNL     1       9.120   5.664  10.013  1.00  0.00     0.041 C 
ATOM      9  O   UNL     1      10.182   5.665   9.336  1.00  0.00    -0.550 OA
ATOM     10  O   UNL     1       7.913   5.358   9.398  1.00  0.00    -0.550 OA
ENDBRANCH   7   8
ENDBRANCH   6   7
ENDBRANCH   5   6
ENDBRANCH   4   5
ENDBRANCH   3   4
ENDBRANCH   2   3
ENDBRANCH   1   2
BRANCH   1  11
ATOM     11  C   UNL     1       4.342   6.857  10.866  1.00  0.00     0.000 C 
BRANCH  11  12
ATOM     12  C   UNL     1       2.805   6.763  10.781  1.00  0.00     0.000 C 
BRANCH  12  13
ATOM     13  C   UNL     1       2.035   7.842  11.570  1.00  0.00     0.000 C 
BRANCH  13  14
ATOM     14  C   UNL     1       2.864   8.596  12.625  1.00  0.00     0.000 C 
BRANCH  14  15
ATOM     15  C   UNL     1       2.820   7.924  14.008  1.00  0.00     0.000 C 
BRANCH  15  16
ATOM     16  C   UNL     1       4.060   8.242  14.859  1.00  0.00     0.006 C 
BRANCH  16  17
ATOM     17  C   UNL     1       5.337   7.582  14.323  1.00  0.00     0.053 C 
BRANCH  17  18
ATOM     18  C   UNL     1       5.655   6.348  15.106  1.00  0.00     0.041 C 
ATOM     19  O   UNL     1       5.337   6.270  16.322  1.00  0.00    -0.550 OA
ATOM     20  O   UNL     1       6.264   5.266  14.482  1.00  0.00    -0.550 OA
ENDBRANCH  17  18
ENDBRANCH  16  17
ENDBRANCH  15  16
ENDBRANCH  14  15
ENDBRANCH  13  14
ENDBRANCH  12  13
ENDBRANCH  11  12
ENDBRANCH   1  11
TORSDOF 15
ENDMDL
MODEL 2
REMARK VINA RESULT:    -5.065      1.594      2.523
REMARK INTER + INTRA:         -11.500
REMARK INTER:                  -9.706
REMARK INTRA:                  -1.794
REMARK UNBOUND:                -1.995
REMARK SMILES O=C([O-])CCCCCCCCCCCCCCC(=O)[O-]
REMARK SMILES IDX 10 1 9 2 8 3 7 4 6 5 5 6 4 7 2 8 1 9 3 10 11 11 12 12 13 13
REMARK SMILES IDX 14 14 15 15 16 16 17 17 18 18 19 19 20 20
REMARK H PARENT
REMARK Flexibility Score: inf
ROOT
ATOM      1  C   UNL     1       4.723   7.481   9.936  1.00  0.00     0.000 C 
ENDROOT
BRANCH   1   2
ATOM      2  C   UNL     1       4.263   8.936   9.744  1.00  0.00     0.000 C 
BRANCH   2   3
ATOM      3  C   UNL     1       5.401   9.946   9.955  1.00  0.00     0.000 C 
BRANCH   3   4
ATOM      4  C   UNL     1       6.783   9.352   9.633  1.00  0.00     0.000 C 
BRANCH   4   5
ATOM      5  C   UNL     1       7.801   9.579  10.763  1.00  0.00     0.000 C 
BRANCH   5   6
ATOM      6  C   UNL     1       8.233   8.270  11.441  1.00  0.00     0.006 C 
BRANCH   6   7
ATOM      7  C   UNL     1       7.970   7.068  10.529  1.00  0.00     0.053 C 
BRANCH   7   8
ATOM      8  C   UNL     1       9.063   6.056  10.670  1.00  0.00     0.041 C 
ATOM      9  O   UNL     1       9.343   5.579  11.802  1.00  0.00    -0.550 OA
ATOM     10  O   UNL     1       9.806   5.676   9.560  1.00  0.00    -0.550 OA
ENDBRANCH   7   8
ENDBRANCH   6   7
ENDBRANCH   5   6
ENDBRANCH   4   5
ENDBRANCH   3   4
ENDBRANCH   2   3
ENDBRANCH   1   2
BRANCH   1  11
ATOM     11  C   UNL     1       3.999   6.776  11.097  1.00  0.00     0.000 C 
BRANCH  11  12
ATOM     12  C   UNL     1       3.860   7.621  12.380  1.00  0.00     0.000 C 
BRANCH  12  13
ATOM     13  C   UNL     1       5.114   7.663  13.278  1.00  0.00     0.000 C 
BRANCH  13  14
ATOM     14  C   UNL     1       5.809   6.306  13.495  1.00  0.00     0.000 C 
BRANCH  14  15
ATOM     15  C   UNL     1       6.500   6.205  14.866  1.00  0.00     0.000 C 
BRANCH  15  16
ATOM     16  C   UNL     1       5.573   6.602  16.026  1.00  0.00     0.006 C 
BRANCH  16  17
ATOM     17  C   UNL     1       4.503   5.543  16.322  1.00  0.00     0.053 C 
BRANCH  17  18
ATOM     18  C   UNL     1       3.545   6.044  17.357  1.00  0.00     0.041 C 
ATOM     19  O   UNL     1       3.326   7.278  17.472  1.00  0.00    -0.550 OA
ATOM     20  O   UNL     1       2.862   5.143  18.165  1.00  0.00    -0.550 OA
ENDBRANCH  17  18
ENDBRANCH  16  17
ENDBRANCH  15  16
ENDBRANCH  14  15
ENDBRANCH  13  14
ENDBRANCH  12  13
ENDBRANCH  11  12
ENDBRANCH   1  11
TORSDOF 15
ENDMDL
MODEL 3
REMARK VINA RESULT:    -5.049      2.073      5.341
REMARK INTER + INTRA:         -11.472
REMARK INTER:                  -9.222
REMARK INTRA:                  -2.250
REMARK UNBOUND:                -1.995
REMARK SMILES O=C([O-])CCCCCCCCCCCCCCC(=O)[O-]
REMARK SMILES IDX 10 1 9 2 8 3 7 4 6 5 5 6 4 7 2 8 1 9 3 10 11 11 12 12 13 13
REMARK SMILES IDX 14 14 15 15 16 16 17 17 18 18 19 19 20 20
REMARK H PARENT
REMARK Flexibility Score: inf
ROOT
ATOM      1  C   UNL     1       4.927   7.450   9.604  1.00  0.00     0.000 C 
ENDROOT
BRANCH   1   2
ATOM      2  C   UNL     1       4.271   6.778  10.823  1.00  0.00     0.000 C 
BRANCH   2   3
ATOM      3  C   UNL     1       2.751   7.001  10.871  1.00  0.00     0.000 C 
BRANCH   3   4
ATOM      4  C   UNL     1       2.305   7.736  12.147  1.00  0.00     0.000 C 
BRANCH   4   5
ATOM      5  C   UNL     1       3.492   8.206  13.003  1.00  0.00     0.000 C 
BRANCH   5   6
ATOM      6  C   UNL     1       3.079   8.566  14.438  1.00  0.00     0.006 C 
BRANCH   6   7
ATOM      7  C   UNL     1       3.247   7.366  15.375  1.00  0.00     0.053 C 
BRANCH   7   8
ATOM      8  C   UNL     1       4.269   7.662  16.427  1.00  0.00     0.041 C 
ATOM      9  O   UNL     1       4.561   8.854  16.709  1.00  0.00    -0.550 OA
ATOM     10  O   UNL     1       4.936   6.621  17.060  1.00  0.00    -0.550 OA
ENDBRANCH   7   8
ENDBRANCH   6   7
ENDBRANCH   5   6
ENDBRANCH   4   5
ENDBRANCH   3   4
ENDBRANCH   2   3
ENDBRANCH   1   2
BRANCH   1  11
ATOM     11  C   UNL     1       4.622   8.956   9.520  1.00  0.00     0.000 C 
BRANCH  11  12
ATOM     12  C   UNL     1       5.571   9.854  10.340  1.00  0.00     0.000 C 
BRANCH  12  13
ATOM     13  C   UNL     1       7.059   9.775   9.941  1.00  0.00     0.000 C 
BRANCH  13  14
ATOM     14  C   UNL     1       7.989   9.161  11.003  1.00  0.00     0.000 C 
BRANCH  14  15
ATOM     15  C   UNL     1       8.377   7.706  10.685  1.00  0.00     0.000 C 
BRANCH  15  16
ATOM     16  C   UNL     1       7.946   6.726  11.788  1.00  0.00     0.006 C 
BRANCH  16  17
ATOM     17  C   UNL     1       7.444   7.435  13.052  1.00  0.00     0.053 C 
BRANCH  17  18
ATOM     18  C   UNL     1       7.036   6.433  14.086  1.00  0.00     0.041 C 
ATOM     19  O   UNL     1       7.730   6.276  15.124  1.00  0.00    -0.550 OA
ATOM     20  O   UNL     1       5.865   5.703  13.922  1.00  0.00    -0.550 OA
ENDBRANCH  17  18
ENDBRANCH  16  17
ENDBRANCH  15  16
ENDBRANCH  14  15
ENDBRANCH  13  14
ENDBRANCH  12  13
ENDBRANCH  11  12
ENDBRANCH   1  11
TORSDOF 15
ENDMDL
MODEL 4
REMARK VINA RESULT:    -5.001      1.636      5.865
REMARK INTER + INTRA:         -11.381
REMARK INTER:                  -9.597
REMARK INTRA:                  -1.784
REMARK UNBOUND:                -1.995
REMARK SMILES O=C([O-])CCCCCCCCCCCCCCC(=O)[O-]
REMARK SMILES IDX 10 1 9 2 8 3 7 4 6 5 5 6 4 7 2 8 1 9 3 10 11 11 12 12 13 13
REMARK SMILES IDX 14 14 15 15 16 16 17 17 18 18 19 19 20 20
REMARK H PARENT
REMARK Flexibility Score: inf
ROOT
ATOM      1  C   UNL     1       4.393   6.798  10.971  1.00  0.00     0.000 C 
ENDROOT
BRANCH   1   2
ATOM      2  C   UNL     1       3.891   7.754  12.067  1.00  0.00     0.000 C 
BRANCH   2   3
ATOM      3  C   UNL     1       4.590   7.522  13.416  1.00  0.00     0.000 C 
BRANCH   3   4
ATOM      4  C   UNL     1       5.650   6.409  13.345  1.00  0.00     0.000 C 
BRANCH   4   5
ATOM      5  C   UNL     1       6.198   6.027  14.730  1.00  0.00     0.000 C 
BRANCH   5   6
ATOM      6  C   UNL     1       5.373   6.630  15.877  1.00  0.00     0.006 C 
BRANCH   6   7
ATOM      7  C   UNL     1       4.518   5.558  16.560  1.00  0.00     0.053 C 
BRANCH   7   8
ATOM      8  C   UNL     1       3.260   6.160  17.104  1.00  0.00     0.041 C 
ATOM      9  O   UNL     1       3.316   7.145  17.886  1.00  0.00    -0.550 OA
ATOM     10  O   UNL     1       2.029   5.602  16.787  1.00  0.00    -0.550 OA
ENDBRANCH   7   8
ENDBRANCH   6   7
ENDBRANCH   5   6
ENDBRANCH   4   5
ENDBRANCH   3   4
ENDBRANCH   2   3
ENDBRANCH   1   2
BRANCH   1  11
ATOM     11  C   UNL     1       4.675   7.515   9.639  1.00  0.00     0.000 C 
BRANCH  11  12
ATOM     12  C   UNL     1       4.278   9.006   9.610  1.00  0.00     0.000 C 
BRANCH  12  13
ATOM     13  C   UNL     1       5.452  10.000   9.712  1.00  0.00     0.000 C 
BRANCH  13  14
ATOM     14  C   UNL     1       6.853   9.375   9.584  1.00  0.00     0.000 C 
BRANCH  14  15
ATOM     15  C   UNL     1       7.700   9.548  10.856  1.00  0.00     0.000 C 
BRANCH  15  16
ATOM     16  C   UNL     1       8.218   8.210  11.408  1.00  0.00     0.006 C 
BRANCH  16  17
ATOM     17  C   UNL     1       7.990   7.040  10.442  1.00  0.00     0.053 C 
BRANCH  17  18
ATOM     18  C   UNL     1       9.057   6.005  10.613  1.00  0.00     0.041 C 
ATOM     19  O   UNL     1       9.753   5.645   9.628  1.00  0.00    -0.550 OA
ATOM     20  O   UNL     1       9.312   5.471  11.870  1.00  0.00    -0.550 OA
ENDBRANCH  17  18
ENDBRANCH  16  17
ENDBRANCH  15  16
ENDBRANCH  14  15
ENDBRANCH  13  14
ENDBRANCH  12  13
ENDBRANCH  11  12
ENDBRANCH   1  11
TORSDOF 15
ENDMDL
MODEL 5
REMARK VINA RESULT:    -4.905      2.751      6.267
REMARK INTER + INTRA:         -11.201
REMARK INTER:                  -9.463
REMARK INTRA:                  -1.738
REMARK UNBOUND:                -1.995
REMARK SMILES O=C([O-])CCCCCCCCCCCCCCC(=O)[O-]
REMARK SMILES IDX 10 1 9 2 8 3 7 4 6 5 5 6 4 7 2 8 1 9 3 10 11 11 12 12 13 13
REMARK SMILES IDX 14 14 15 15 16 16 17 17 18 18 19 19 20 20
REMARK H PARENT
REMARK Flexibility Score: inf
ROOT
ATOM      1  C   UNL     1       8.251   6.399  12.078  1.00  0.00     0.000 C 
ENDROOT
BRANCH   1   2
ATOM      2  C   UNL     1       7.486   7.054  13.241  1.00  0.00     0.000 C 
BRANCH   2   3
ATOM      3  C   UNL     1       7.210   6.072  14.391  1.00  0.00     0.000 C 
BRANCH   3   4
ATOM      4  C   UNL     1       5.709   5.931  14.696  1.00  0.00     0.000 C 
BRANCH   4   5
ATOM      5  C   UNL     1       4.998   7.290  14.807  1.00  0.00     0.000 C 
BRANCH   5   6
ATOM      6  C   UNL     1       4.504   7.582  16.232  1.00  0.00     0.006 C 
BRANCH   6   7
ATOM      7  C   UNL     1       3.247   6.770  16.554  1.00  0.00     0.053 C 
BRANCH   7   8
ATOM      8  C   UNL     1       3.498   5.851  17.708  1.00  0.00     0.041 C 
ATOM      9  O   UNL     1       4.677   5.602  18.074  1.00  0.00    -0.550 OA
ATOM     10  O   UNL     1       2.433   5.230  18.346  1.00  0.00    -0.550 OA
ENDBRANCH   7   8
ENDBRANCH   6   7
ENDBRANCH   5   6
ENDBRANCH   4   5
ENDBRANCH   3   4
ENDBRANCH   2   3
ENDBRANCH   1   2
BRANCH   1  11
ATOM     11  C   UNL     1       8.581   7.391  10.950  1.00  0.00     0.000 C 
BRANCH  11  12
ATOM     12  C   UNL     1       8.109   8.838  11.202  1.00  0.00     0.000 C 
BRANCH  12  13
ATOM     13  C   UNL     1       7.720   9.632   9.939  1.00  0.00     0.000 C 
BRANCH  13  14
ATOM     14  C   UNL     1       6.217   9.638   9.606  1.00  0.00     0.000 C 
BRANCH  14  15
ATOM     15  C   UNL     1       5.374   8.883  10.648  1.00  0.00     0.000 C 
BRANCH  15  16
ATOM     16  C   UNL     1       4.948   7.487  10.163  1.00  0.00     0.006 C 
BRANCH  16  17
ATOM     17  C   UNL     1       4.122   6.722  11.205  1.00  0.00     0.053 C 
BRANCH  17  18
ATOM     18  C   UNL     1       2.725   7.256  11.259  1.00  0.00     0.041 C 
ATOM     19  O   UNL     1       2.033   7.325  10.210  1.00  0.00    -0.550 OA
ATOM     20  O   UNL     1       2.173   7.637  12.476  1.00  0.00    -0.550 OA
ENDBRANCH  17  18
ENDBRANCH  16  17
ENDBRANCH  15  16
ENDBRANCH  14  15
ENDBRANCH  13  14
ENDBRANCH  12  13
ENDBRANCH  11  12
ENDBRANCH   1  11
TORSDOF 15
ENDMDL
MODEL 6
REMARK VINA RESULT:    -4.896      1.028      5.065
REMARK INTER + INTRA:         -11.184
REMARK INTER:                  -9.124
REMARK INTRA:                  -2.060
REMARK UNBOUND:                -1.995
REMARK SMILES O=C([O-])CCCCCCCCCCCCCCC(=O)[O-]
REMARK SMILES IDX 10 1 9 2 8 3 7 4 6 5 5 6 4 7 2 8 1 9 3 10 11 11 12 12 13 13
REMARK SMILES IDX 14 14 15 15 16 16 17 17 18 18 19 19 20 20
REMARK H PARENT
REMARK Flexibility Score: inf
ROOT
ATOM      1  C   UNL     1       3.042   6.739  10.714  1.00  0.00     0.000 C 
ENDROOT
BRANCH   1   2
ATOM      2  C   UNL     1       2.057   7.899  10.936  1.00  0.00     0.000 C 
BRANCH   2   3
ATOM      3  C   UNL     1       2.386   8.719  12.194  1.00  0.00     0.000 C 
BRANCH   3   4
ATOM      4  C   UNL     1       2.462   7.848  13.460  1.00  0.00     0.000 C 
BRANCH   4   5
ATOM      5  C   UNL     1       3.586   8.288  14.412  1.00  0.00     0.000 C 
BRANCH   5   6
ATOM      6  C   UNL     1       4.984   8.103  13.801  1.00  0.00     0.006 C 
BRANCH   6   7
ATOM      7  C   UNL     1       5.404   6.631  13.832  1.00  0.00     0.053 C 
BRANCH   7   8
ATOM      8  C   UNL     1       6.344   6.379  14.970  1.00  0.00     0.041 C 
ATOM      9  O   UNL     1       5.927   6.425  16.157  1.00  0.00    -0.550 OA
ATOM     10  O   UNL     1       7.689   6.143  14.721  1.00  0.00    -0.550 OA
ENDBRANCH   7   8
ENDBRANCH   6   7
ENDBRANCH   5   6
ENDBRANCH   4   5
ENDBRANCH   3   4
ENDBRANCH   2   3
ENDBRANCH   1   2
BRANCH   1  11
ATOM     11  C   UNL     1       4.440   7.219  10.284  1.00  0.00     0.000 C 
BRANCH  11  12
ATOM     12  C   UNL     1       4.444   8.471   9.383  1.00  0.00     0.000 C 
BRANCH  12  13
ATOM     13  C   UNL     1       5.339   9.628   9.872  1.00  0.00     0.000 C 
BRANCH  13  14
ATOM     14  C   UNL     1       6.839   9.470   9.565  1.00  0.00     0.000 C 
BRANCH  14  15
ATOM     15  C   UNL     1       7.711   9.487  10.833  1.00  0.00     0.000 C 
BRANCH  15  16
ATOM     16  C   UNL     1       7.948   8.080  11.404  1.00  0.00     0.006 C 
BRANCH  16  17
ATOM     17  C   UNL     1       7.941   6.990  10.325  1.00  0.00     0.053 C 
BRANCH  17  18
ATOM     18  C   UNL     1       9.052   6.016  10.559  1.00  0.00     0.041 C 
ATOM     19  O   UNL     1       9.828   5.703   9.617  1.00  0.00    -0.550 OA
ATOM     20  O   UNL     1       9.258   5.487  11.827  1.00  0.00    -0.550 OA
ENDBRANCH  17  18
ENDBRANCH  16  17
ENDBRANCH  15  16
ENDBRANCH  14  15
ENDBRANCH  13  14
ENDBRANCH  12  13
ENDBRANCH  11  12
ENDBRANCH   1  11
TORSDOF 15
ENDMDL
MODEL 7
REMARK VINA RESULT:    -4.840      2.469      6.723
REMARK INTER + INTRA:         -11.079
REMARK INTER:                  -9.388
REMARK INTRA:                  -1.691
REMARK UNBOUND:                -1.995
REMARK SMILES O=C([O-])CCCCCCCCCCCCCCC(=O)[O-]
REMARK SMILES IDX 10 1 9 2 8 3 7 4 6 5 5 6 4 7 2 8 1 9 3 10 11 11 12 12 13 13
REMARK SMILES IDX 14 14 15 15 16 16 17 17 18 18 19 19 20 20
REMARK H PARENT
REMARK Flexibility Score: inf
ROOT
ATOM      1  C   UNL     1       5.846   5.988  14.497  1.00  0.00     0.000 C 
ENDROOT
BRANCH   1   2
ATOM      2  C   UNL     1       5.156   7.044  13.617  1.00  0.00     0.000 C 
BRANCH   2   3
ATOM      3  C   UNL     1       4.044   7.798  14.364  1.00  0.00     0.000 C 
BRANCH   3   4
ATOM      4  C   UNL     1       4.552   8.465  15.654  1.00  0.00     0.000 C 
BRANCH   4   5
ATOM      5  C   UNL     1       3.466   8.553  16.739  1.00  0.00     0.000 C 
BRANCH   5   6
ATOM      6  C   UNL     1       2.535   7.331  16.743  1.00  0.00     0.006 C 
BRANCH   6   7
ATOM      7  C   UNL     1       2.813   6.433  17.951  1.00  0.00     0.053 C 
BRANCH   7   8
ATOM      8  C   UNL     1       3.920   5.473  17.646  1.00  0.00     0.041 C 
ATOM      9  O   UNL     1       3.725   4.512  16.855  1.00  0.00    -0.550 OA
ATOM     10  O   UNL     1       5.152   5.609  18.273  1.00  0.00    -0.550 OA
ENDBRANCH   7   8
ENDBRANCH   6   7
ENDBRANCH   5   6
ENDBRANCH   4   5
ENDBRANCH   3   4
ENDBRANCH   2   3
ENDBRANCH   1   2
BRANCH   1  11
ATOM     11  C   UNL     1       7.367   5.929  14.272  1.00  0.00     0.000 C 
BRANCH  11  12
ATOM     12  C   UNL     1       7.896   6.874  13.174  1.00  0.00     0.000 C 
BRANCH  12  13
ATOM     13  C   UNL     1       8.604   6.178  11.994  1.00  0.00     0.000 C 
BRANCH  13  14
ATOM     14  C   UNL     1       8.318   6.785  10.608  1.00  0.00     0.000 C 
BRANCH  14  15
ATOM     15  C   UNL     1       7.984   8.285  10.673  1.00  0.00     0.000 C 
BRANCH  15  16
ATOM     16  C   UNL     1       6.505   8.574  10.368  1.00  0.00     0.006 C 
BRANCH  16  17
ATOM     17  C   UNL     1       5.749   7.338   9.864  1.00  0.00     0.053 C 
BRANCH  17  18
ATOM     18  C   UNL     1       4.291   7.641   9.716  1.00  0.00     0.041 C 
ATOM     19  O   UNL     1       3.902   8.474   8.856  1.00  0.00    -0.550 OA
ATOM     20  O   UNL     1       3.359   6.972  10.500  1.00  0.00    -0.550 OA
ENDBRANCH  17  18
ENDBRANCH  16  17
ENDBRANCH  15  16
ENDBRANCH  14  15
ENDBRANCH  13  14
ENDBRANCH  12  13
ENDBRANCH  11  12
ENDBRANCH   1  11
TORSDOF 15
ENDMDL
MODEL 8
REMARK VINA RESULT:    -4.754      2.063      3.046
REMARK INTER + INTRA:         -10.917
REMARK INTER:                  -9.034
REMARK INTRA:                  -1.883
REMARK UNBOUND:                -1.995
REMARK SMILES O=C([O-])CCCCCCCCCCCCCCC(=O)[O-]
REMARK SMILES IDX 10 1 9 2 8 3 7 4 6 5 5 6 4 7 2 8 1 9 3 10 11 11 12 12 13 13
REMARK SMILES IDX 14 14 15 15 16 16 17 17 18 18 19 19 20 20
REMARK H PARENT
REMARK Flexibility Score: inf
ROOT
ATOM      1  C   UNL     1       4.506   6.743  10.858  1.00  0.00     0.000 C 
ENDROOT
BRANCH   1   2
ATOM      2  C   UNL     1       5.265   7.303   9.643  1.00  0.00     0.000 C 
BRANCH   2   3
ATOM      3  C   UNL     1       5.780   8.732   9.878  1.00  0.00     0.000 C 
BRANCH   3   4
ATOM      4  C   UNL     1       6.855   8.796  10.978  1.00  0.00     0.000 C 
BRANCH   4   5
ATOM      5  C   UNL     1       8.015   7.819  10.726  1.00  0.00     0.000 C 
BRANCH   5   6
ATOM      6  C   UNL     1       8.190   6.805  11.866  1.00  0.00     0.006 C 
BRANCH   6   7
ATOM      7  C   UNL     1       7.436   7.255  13.121  1.00  0.00     0.053 C 
BRANCH   7   8
ATOM      8  C   UNL     1       7.199   6.093  14.034  1.00  0.00     0.041 C 
ATOM      9  O   UNL     1       6.052   5.581  14.124  1.00  0.00    -0.550 OA
ATOM     10  O   UNL     1       8.233   5.607  14.824  1.00  0.00    -0.550 OA
ENDBRANCH   7   8
ENDBRANCH   6   7
ENDBRANCH   5   6
ENDBRANCH   4   5
ENDBRANCH   3   4
ENDBRANCH   2   3
ENDBRANCH   1   2
BRANCH   1  11
ATOM     11  C   UNL     1       3.026   7.165  10.882  1.00  0.00     0.000 C 
BRANCH  11  12
ATOM     12  C   UNL     1       2.631   8.073  12.065  1.00  0.00     0.000 C 
BRANCH  12  13
ATOM     13  C   UNL     1       3.754   8.345  13.087  1.00  0.00     0.000 C 
BRANCH  13  14
ATOM     14  C   UNL     1       3.382   8.070  14.556  1.00  0.00     0.000 C 
BRANCH  14  15
ATOM     15  C   UNL     1       4.527   8.396  15.531  1.00  0.00     0.000 C 
BRANCH  15  16
ATOM     16  C   UNL     1       4.595   7.414  16.711  1.00  0.00     0.006 C 
BRANCH  16  17
ATOM     17  C   UNL     1       3.217   7.110  17.314  1.00  0.00     0.053 C 
BRANCH  17  18
ATOM     18  C   UNL     1       3.109   5.660  17.666  1.00  0.00     0.041 C 
ATOM     19  O   UNL     1       2.135   5.245  18.348  1.00  0.00    -0.550 OA
ATOM     20  O   UNL     1       4.061   4.760  17.204  1.00  0.00    -0.550 OA
ENDBRANCH  17  18
ENDBRANCH  16  17
ENDBRANCH  15  16
ENDBRANCH  14  15
ENDBRANCH  13  14
ENDBRANCH  12  13
ENDBRANCH  11  12
ENDBRANCH   1  11
TORSDOF 15
ENDMDL
MODEL 9
REMARK VINA RESULT:    -4.729      2.484      4.099
REMARK INTER + INTRA:         -10.871
REMARK INTER:                  -9.363
REMARK INTRA:                  -1.508
REMARK UNBOUND:                -1.995
REMARK SMILES O=C([O-])CCCCCCCCCCCCCCC(=O)[O-]
REMARK SMILES IDX 10 1 9 2 8 3 7 4 6 5 5 6 4 7 2 8 1 9 3 10 11 11 12 12 13 13
REMARK SMILES IDX 14 14 15 15 16 16 17 17 18 18 19 19 20 20
REMARK H PARENT
REMARK Flexibility Score: inf
ROOT
ATOM      1  C   UNL     1       7.552   6.082  14.423  1.00  0.00     0.000 C 
ENDROOT
BRANCH   1   2
ATOM      2  C   UNL     1       7.868   6.975  13.211  1.00  0.00     0.000 C 
BRANCH   2   3
ATOM      3  C   UNL     1       8.594   6.213  12.091  1.00  0.00     0.000 C 
BRANCH   3   4
ATOM      4  C   UNL     1       8.496   6.929  10.733  1.00  0.00     0.000 C 
BRANCH   4   5
ATOM      5  C   UNL     1       7.760   8.275  10.828  1.00  0.00     0.000 C 
BRANCH   5   6
ATOM      6  C   UNL     1       6.507   8.327   9.940  1.00  0.00     0.006 C 
BRANCH   6   7
ATOM      7  C   UNL     1       5.646   7.077  10.135  1.00  0.00     0.053 C 
BRANCH   7   8
ATOM      8  C   UNL     1       4.192   7.429  10.081  1.00  0.00     0.041 C 
ATOM      9  O   UNL     1       3.812   8.459   9.465  1.00  0.00    -0.550 OA
ATOM     10  O   UNL     1       3.262   6.648  10.755  1.00  0.00    -0.550 OA
ENDBRANCH   7   8
ENDBRANCH   6   7
ENDBRANCH   5   6
ENDBRANCH   4   5
ENDBRANCH   3   4
ENDBRANCH   2   3
ENDBRANCH   1   2
BRANCH   1  11
ATOM     11  C   UNL     1       6.082   6.177  14.865  1.00  0.00     0.000 C 
BRANCH  11  12
ATOM     12  C   UNL     1       5.118   6.724  13.792  1.00  0.00     0.000 C 
BRANCH  12  13
ATOM     13  C   UNL     1       4.285   7.950  14.221  1.00  0.00     0.000 C 
BRANCH  13  14
ATOM     14  C   UNL     1       4.496   8.408  15.676  1.00  0.00     0.000 C 
BRANCH  14  15
ATOM     15  C   UNL     1       3.270   8.142  16.567  1.00  0.00     0.000 C 
BRANCH  15  16
ATOM     16  C   UNL     1       2.269   7.171  15.920  1.00  0.00     0.006 C 
BRANCH  16  17
ATOM     17  C   UNL     1       1.881   6.012  16.846  1.00  0.00     0.053 C 
BRANCH  17  18
ATOM     18  C   UNL     1       3.006   5.689  17.778  1.00  0.00     0.041 C 
ATOM     19  O   UNL     1       3.020   6.168  18.943  1.00  0.00    -0.550 OA
ATOM     20  O   UNL     1       4.016   4.824  17.376  1.00  0.00    -0.550 OA
ENDBRANCH  17  18
ENDBRANCH  16  17
ENDBRANCH  15  16
ENDBRANCH  14  15
ENDBRANCH  13  14
ENDBRANCH  12  13
ENDBRANCH  11  12
ENDBRANCH   1  11
TORSDOF 15
ENDMDL
