MODEL 1
REMARK VINA RESULT:    -4.219      0.000      0.000
REMARK INTER + INTRA:          -4.929
REMARK INTER:                  -4.712
REMARK INTRA:                  -0.217
REMARK UNBOUND:                -0.217
REMARK SMILES CC(C)c1ccc(C(=O)[O-])cc1
REMARK SMILES IDX 7 1 6 2 11 3 5 4 12 5 4 6 8 7 9 8 10 9 2 10 1 11 3 12
REMARK H PARENT
REMARK Flexibility Score: inf
ROOT
ATOM      1  C   UNL     1      62.360  30.953  60.757  1.00  0.00    -0.003 A 
ATOM      2  C   UNL     1      61.434  32.002  60.629  1.00  0.00     0.010 A 
ATOM      3  C   UNL     1      63.727  31.260  60.844  1.00  0.00     0.010 A 
ATOM      4  C   UNL     1      61.866  33.330  60.587  1.00  0.00     0.004 A 
ATOM      5  C   UNL     1      64.161  32.588  60.804  1.00  0.00     0.004 A 
ATOM      6  C   UNL     1      63.234  33.639  60.674  1.00  0.00    -0.045 A 
ENDROOT
BRANCH   1   7
ATOM      7  C   UNL     1      61.905  29.545  60.801  1.00  0.00     0.071 C 
ATOM      8  O   UNL     1      62.434  28.726  61.599  1.00  0.00    -0.545 OA
ATOM      9  O   UNL     1      60.886  29.107  59.963  1.00  0.00    -0.545 OA
ENDBRANCH   1   7
BRANCH   6  10
ATOM     10  C   UNL     1      63.691  35.085  60.628  1.00  0.00     0.013 C 
ATOM     11  C   UNL     1      64.931  35.301  61.502  1.00  0.00     0.012 C 
ATOM     12  C   UNL     1      62.558  36.035  61.032  1.00  0.00     0.012 C 
ENDBRANCH   6  10
TORSDOF 2
ENDMDL
MODEL 2
REMARK VINA RESULT:    -4.213      0.119      1.403
REMARK INTER + INTRA:          -4.923
REMARK INTER:                  -4.706
REMARK INTRA:                  -0.217
REMARK UNBOUND:                -0.217
REMARK SMILES CC(C)c1ccc(C(=O)[O-])cc1
REMARK SMILES IDX 7 1 6 2 11 3 5 4 12 5 4 6 8 7 9 8 10 9 2 10 1 11 3 12
REMARK H PARENT
REMARK Flexibility Score: inf
ROOT
ATOM      1  C   UNL     1      62.399  30.839  60.762  1.00  0.00    -0.003 A 
ATOM      2  C   UNL     1      63.766  31.159  60.839  1.00  0.00     0.010 A 
ATOM      3  C   UNL     1      61.464  31.879  60.635  1.00  0.00     0.010 A 
ATOM      4  C   UNL     1      64.187  32.490  60.792  1.00  0.00     0.004 A 
ATOM      5  C   UNL     1      61.885  33.211  60.587  1.00  0.00     0.004 A 
ATOM      6  C   UNL     1      63.253  33.532  60.665  1.00  0.00    -0.045 A 
ENDROOT
BRANCH   1   7
ATOM      7  C   UNL     1      61.949  29.430  60.812  1.00  0.00     0.071 C 
ATOM      8  O   UNL     1      62.453  28.626  61.640  1.00  0.00    -0.545 OA
ATOM      9  O   UNL     1      60.961  28.975  59.946  1.00  0.00    -0.545 OA
ENDBRANCH   1   7
BRANCH   6  10
ATOM     10  C   UNL     1      63.724  34.973  60.614  1.00  0.00     0.013 C 
ATOM     11  C   UNL     1      64.945  35.187  61.515  1.00  0.00     0.012 C 
ATOM     12  C   UNL     1      62.591  35.938  60.981  1.00  0.00     0.012 C 
ENDBRANCH   6  10
TORSDOF 2
ENDMDL
MODEL 3
REMARK VINA RESULT:    -4.202      1.112      2.096
REMARK INTER + INTRA:          -4.911
REMARK INTER:                  -4.698
REMARK INTRA:                  -0.213
REMARK UNBOUND:                -0.217
REMARK SMILES CC(C)c1ccc(C(=O)[O-])cc1
REMARK SMILES IDX 7 1 6 2 11 3 5 4 12 5 4 6 8 7 9 8 10 9 2 10 1 11 3 12
REMARK H PARENT
REMARK Flexibility Score: inf
ROOT
ATOM      1  C   UNL     1      62.868  32.082  60.552  1.00  0.00    -0.003 A 
ATOM      2  C   UNL     1      64.146  32.610  60.804  1.00  0.00     0.010 A 
ATOM      3  C   UNL     1      61.789  32.965  60.385  1.00  0.00     0.010 A 
ATOM      4  C   UNL     1      64.340  33.991  60.887  1.00  0.00     0.004 A 
ATOM      5  C   UNL     1      61.983  34.347  60.467  1.00  0.00     0.004 A 
ATOM      6  C   UNL     1      63.261  34.876  60.720  1.00  0.00    -0.045 A 
ENDROOT
BRANCH   1   7
ATOM      7  C   UNL     1      62.659  30.619  60.464  1.00  0.00     0.071 C 
ATOM      8  O   UNL     1      62.461  30.067  59.350  1.00  0.00    -0.545 OA
ATOM      9  O   UNL     1      62.678  29.835  61.612  1.00  0.00    -0.545 OA
ENDBRANCH   1   7
BRANCH   6  10
ATOM     10  C   UNL     1      63.486  36.373  60.812  1.00  0.00     0.013 C 
ATOM     11  C   UNL     1      64.588  36.706  61.824  1.00  0.00     0.012 C 
ATOM     12  C   UNL     1      62.183  37.107  61.152  1.00  0.00     0.012 C 
ENDBRANCH   6  10
TORSDOF 2
ENDMDL
MODEL 4
REMARK VINA RESULT:    -4.158     12.314     13.656
REMARK INTER + INTRA:          -4.861
REMARK INTER:                  -4.654
REMARK INTRA:                  -0.207
REMARK UNBOUND:                -0.217
REMARK SMILES CC(C)c1ccc(C(=O)[O-])cc1
REMARK SMILES IDX 7 1 6 2 11 3 5 4 12 5 4 6 8 7 9 8 10 9 2 10 1 11 3 12
REMARK H PARENT
REMARK Flexibility Score: inf
ROOT
ATOM      1  C   UNL     1      54.891  26.128  50.152  1.00  0.00    -0.003 A 
ATOM      2  C   UNL     1      54.654  27.500  50.342  1.00  0.00     0.010 A 
ATOM      3  C   UNL     1      56.209  25.648  50.233  1.00  0.00     0.010 A 
ATOM      4  C   UNL     1      55.711  28.374  50.607  1.00  0.00     0.004 A 
ATOM      5  C   UNL     1      57.267  26.522  50.500  1.00  0.00     0.004 A 
ATOM      6  C   UNL     1      57.030  27.895  50.689  1.00  0.00    -0.045 A 
ENDROOT
BRANCH   1   7
ATOM      7  C   UNL     1      53.773  25.199  49.870  1.00  0.00     0.071 C 
ATOM      8  O   UNL     1      53.621  24.154  50.556  1.00  0.00    -0.545 OA
ATOM      9  O   UNL     1      52.875  25.469  48.844  1.00  0.00    -0.545 OA
ENDBRANCH   1   7
BRANCH   6  10
ATOM     10  C   UNL     1      58.169  28.855  50.978  1.00  0.00     0.013 C 
ATOM     11  C   UNL     1      57.694  30.037  51.830  1.00  0.00     0.012 C 
ATOM     12  C   UNL     1      58.827  29.338  49.680  1.00  0.00     0.012 C 
ENDBRANCH   6  10
TORSDOF 2
ENDMDL
MODEL 5
REMARK VINA RESULT:    -4.150      3.398      5.184
REMARK INTER + INTRA:          -4.852
REMARK INTER:                  -4.635
REMARK INTRA:                  -0.217
REMARK UNBOUND:                -0.217
REMARK SMILES CC(C)c1ccc(C(=O)[O-])cc1
REMARK SMILES IDX 7 1 6 2 11 3 5 4 12 5 4 6 8 7 9 8 10 9 2 10 1 11 3 12
REMARK H PARENT
REMARK Flexibility Score: inf
ROOT
ATOM      1  C   UNL     1      62.628  34.838  60.745  1.00  0.00    -0.003 A 
ATOM      2  C   UNL     1      63.945  34.366  60.882  1.00  0.00     0.010 A 
ATOM      3  C   UNL     1      61.595  33.914  60.519  1.00  0.00     0.010 A 
ATOM      4  C   UNL     1      64.222  32.999  60.793  1.00  0.00     0.004 A 
ATOM      5  C   UNL     1      61.872  32.547  60.432  1.00  0.00     0.004 A 
ATOM      6  C   UNL     1      63.190  32.074  60.567  1.00  0.00    -0.045 A 
ENDROOT
BRANCH   1   7
ATOM      7  C   UNL     1      62.331  36.285  60.838  1.00  0.00     0.071 C 
ATOM      8  O   UNL     1      63.264  37.125  60.939  1.00  0.00    -0.545 OA
ATOM      9  O   UNL     1      61.016  36.736  60.815  1.00  0.00    -0.545 OA
ENDBRANCH   1   7
BRANCH   6  10
ATOM     10  C   UNL     1      63.504  30.593  60.474  1.00  0.00     0.013 C 
ATOM     11  C   UNL     1      62.766  29.801  61.559  1.00  0.00     0.012 C 
ATOM     12  C   UNL     1      65.016  30.343  60.541  1.00  0.00     0.012 C 
ENDBRANCH   6  10
TORSDOF 2
ENDMDL
MODEL 6
REMARK VINA RESULT:    -4.131     11.832     13.627
REMARK INTER + INTRA:          -4.831
REMARK INTER:                  -4.614
REMARK INTRA:                  -0.218
REMARK UNBOUND:                -0.217
REMARK SMILES CC(C)c1ccc(C(=O)[O-])cc1
REMARK SMILES IDX 7 1 6 2 11 3 5 4 12 5 4 6 8 7 9 8 10 9 2 10 1 11 3 12
REMARK H PARENT
REMARK Flexibility Score: inf
ROOT
ATOM      1  C   UNL     1      58.744  27.669  50.343  1.00  0.00    -0.003 A 
ATOM      2  C   UNL     1      58.359  26.318  50.297  1.00  0.00     0.010 A 
ATOM      3  C   UNL     1      57.750  28.657  50.429  1.00  0.00     0.010 A 
ATOM      4  C   UNL     1      57.008  25.963  50.336  1.00  0.00     0.004 A 
ATOM      5  C   UNL     1      56.398  28.302  50.469  1.00  0.00     0.004 A 
ATOM      6  C   UNL     1      56.012  26.950  50.423  1.00  0.00    -0.045 A 
ENDROOT
BRANCH   1   7
ATOM      7  C   UNL     1      60.174  28.048  50.302  1.00  0.00     0.071 C 
ATOM      8  O   UNL     1      60.992  27.389  49.606  1.00  0.00    -0.545 OA
ATOM      9  O   UNL     1      60.634  29.139  51.030  1.00  0.00    -0.545 OA
ENDBRANCH   1   7
BRANCH   6  10
ATOM     10  C   UNL     1      54.549  26.551  50.465  1.00  0.00     0.013 C 
ATOM     11  C   UNL     1      54.284  25.329  49.579  1.00  0.00     0.012 C 
ATOM     12  C   UNL     1      53.645  27.725  50.072  1.00  0.00     0.012 C 
ENDBRANCH   6  10
TORSDOF 2
ENDMDL
MODEL 7
REMARK VINA RESULT:    -4.111     11.935     13.703
REMARK INTER + INTRA:          -4.809
REMARK INTER:                  -4.589
REMARK INTRA:                  -0.220
REMARK UNBOUND:                -0.217
REMARK SMILES CC(C)c1ccc(C(=O)[O-])cc1
REMARK SMILES IDX 7 1 6 2 11 3 5 4 12 5 4 6 8 7 9 8 10 9 2 10 1 11 3 12
REMARK H PARENT
REMARK Flexibility Score: inf
ROOT
ATOM      1  C   UNL     1      58.577  27.555  50.334  1.00  0.00    -0.003 A 
ATOM      2  C   UNL     1      57.575  28.534  50.448  1.00  0.00     0.010 A 
ATOM      3  C   UNL     1      58.201  26.204  50.260  1.00  0.00     0.010 A 
ATOM      4  C   UNL     1      56.227  28.170  50.488  1.00  0.00     0.004 A 
ATOM      5  C   UNL     1      56.852  25.839  50.299  1.00  0.00     0.004 A 
ATOM      6  C   UNL     1      55.849  26.819  50.415  1.00  0.00    -0.045 A 
ENDROOT
BRANCH   1   7
ATOM      7  C   UNL     1      60.006  27.937  50.291  1.00  0.00     0.071 C 
ATOM      8  O   UNL     1      60.862  27.159  49.792  1.00  0.00    -0.545 OA
ATOM      9  O   UNL     1      60.423  29.160  50.802  1.00  0.00    -0.545 OA
ENDBRANCH   1   7
BRANCH   6  10
ATOM     10  C   UNL     1      54.382  26.437  50.459  1.00  0.00     0.013 C 
ATOM     11  C   UNL     1      54.096  25.232  49.555  1.00  0.00     0.012 C 
ATOM     12  C   UNL     1      53.489  27.628  50.090  1.00  0.00     0.012 C 
ENDBRANCH   6  10
TORSDOF 2
ENDMDL
MODEL 8
REMARK VINA RESULT:    -3.951     12.333     13.260
REMARK INTER + INTRA:          -4.630
REMARK INTER:                  -4.416
REMARK INTRA:                  -0.213
REMARK UNBOUND:                -0.217
REMARK SMILES CC(C)c1ccc(C(=O)[O-])cc1
REMARK SMILES IDX 7 1 6 2 11 3 5 4 12 5 4 6 8 7 9 8 10 9 2 10 1 11 3 12
REMARK H PARENT
REMARK Flexibility Score: inf
ROOT
ATOM      1  C   UNL     1      58.034  27.401  50.251  1.00  0.00    -0.003 A 
ATOM      2  C   UNL     1      56.957  26.505  50.377  1.00  0.00     0.010 A 
ATOM      3  C   UNL     1      57.801  28.774  50.431  1.00  0.00     0.010 A 
ATOM      4  C   UNL     1      55.676  26.974  50.676  1.00  0.00     0.004 A 
ATOM      5  C   UNL     1      56.519  29.243  50.732  1.00  0.00     0.004 A 
ATOM      6  C   UNL     1      55.441  28.347  50.857  1.00  0.00    -0.045 A 
ENDROOT
BRANCH   1   7
ATOM      7  C   UNL     1      59.393  26.908  49.933  1.00  0.00     0.071 C 
ATOM      8  O   UNL     1      60.188  27.614  49.259  1.00  0.00    -0.545 OA
ATOM      9  O   UNL     1      59.810  25.658  50.375  1.00  0.00    -0.545 OA
ENDBRANCH   1   7
BRANCH   6  10
ATOM     10  C   UNL     1      54.045  28.843  51.183  1.00  0.00     0.013 C 
ATOM     11  C   UNL     1      53.062  28.509  50.055  1.00  0.00     0.012 C 
ATOM     12  C   UNL     1      54.048  30.346  51.485  1.00  0.00     0.012 C 
ENDBRANCH   6  10
TORSDOF 2
ENDMDL
