MODEL 1
REMARK VINA RESULT:    -4.108      0.000      0.000
REMARK INTER + INTRA:          -6.003
REMARK INTER:                  -6.269
REMARK INTRA:                   0.266
REMARK UNBOUND:                 0.266
REMARK SMILES CC1=CCC[C@@H](C)C(=O)C[C@@H](C(C)C)C(=O)C1
REMARK SMILES IDX 8 1 9 2 6 3 7 4 5 5 4 6 3 7 2 8 1 9 10 11 11 12 15 13 16 14
REMARK SMILES IDX 17 15 12 17 13 18 14 19
REMARK H PARENT
REMARK Flexibility Score: 70.00
ROOT
ATOM      1  C   UNL     1     -16.260  12.561 -28.575  1.00  0.00     0.136 C 
ATOM      2  O   UNL     1     -16.613  12.373 -27.419  1.00  0.00    -0.299 OA
ENDROOT
BRANCH   1   3
ATOM      3  C   UNL     1     -17.227  13.283 -29.507  1.00  0.00     0.053 C 
ATOM      4  C   UNL     1     -18.675  13.370 -28.999  1.00  0.00     0.016 C 
BRANCH   3   5
ATOM      5  C   UNL     1     -17.151  12.729 -30.955  1.00  0.00     0.015 C 
BRANCH   5   6
ATOM      6  C   UNL     1     -16.748  13.748 -32.034  1.00  0.00     0.028 C 
BRANCH   6   7
ATOM      7  C   UNL     1     -16.075  14.964 -31.445  1.00  0.00    -0.028 C 
ATOM      8  C   UNL     1     -14.740  15.137 -31.313  1.00  0.00    -0.070 CG0
ATOM      9  C   UNL     1     -14.252  16.417 -30.684  1.00  0.00     0.039 C 
ATOM     10  G   UNL     1     -13.717  14.136 -31.812  1.00  0.00     0.000 G0
ENDBRANCH   6   7
ENDBRANCH   5   6
ENDBRANCH   3   5
ENDBRANCH   1   3
BRANCH   1  11
ATOM     11  C   UNL     1     -14.903  12.028 -28.987  1.00  0.00     0.087 C 
BRANCH  11  12
ATOM     12  C   UNL     1     -13.913  13.174 -29.342  1.00  0.00     0.066 C 
BRANCH  12  13
ATOM     13  C   UNL     1     -13.493  13.035 -30.797  1.00  0.00     0.140 C 
ATOM     14  O   UNL     1     -12.914  12.020 -31.160  1.00  0.00    -0.299 OA
BRANCH  13  15
ATOM     15  C   UNL     1     -13.700  14.147 -31.792  1.00  0.00     0.106 CG0
ATOM     16  G   UNL     1     -14.740  15.130 -31.290  1.00  0.00     0.000 G0
ENDBRANCH  13  15
ENDBRANCH  12  13
BRANCH  12  17
ATOM     17  C   UNL     1     -12.666  13.190 -28.396  1.00  0.00    -0.006 C 
ATOM     18  C   UNL     1     -11.809  14.458 -28.591  1.00  0.00     0.008 C 
ATOM     19  C   UNL     1     -13.076  13.113 -26.911  1.00  0.00     0.008 C 
ENDBRANCH  12  17
ENDBRANCH  11  12
ENDBRANCH   1  11
TORSDOF 1
ENDMDL
MODEL 2
REMARK VINA RESULT:    -4.042      1.924      4.324
REMARK INTER + INTRA:          -5.903
REMARK INTER:                  -6.278
REMARK INTRA:                   0.375
REMARK UNBOUND:                 0.266
REMARK SMILES CC1=CCC[C@@H](C)C(=O)C[C@@H](C(C)C)C(=O)C1
REMARK SMILES IDX 8 1 9 2 6 3 7 4 5 5 4 6 3 7 2 8 1 9 10 11 11 12 15 13 16 14
REMARK SMILES IDX 17 15 12 17 13 18 14 19
REMARK H PARENT
REMARK Flexibility Score: 70.00
ROOT
ATOM      1  C   UNL     1     -15.191  14.301 -31.560  1.00  0.00     0.136 C 
ATOM      2  O   UNL     1     -15.195  14.394 -32.780  1.00  0.00    -0.299 OA
ENDROOT
BRANCH   1   3
ATOM      3  C   UNL     1     -14.204  15.166 -30.783  1.00  0.00     0.053 C 
ATOM      4  C   UNL     1     -14.523  16.670 -30.779  1.00  0.00     0.016 C 
BRANCH   3   5
ATOM      5  C   UNL     1     -12.737  14.885 -31.204  1.00  0.00     0.015 C 
BRANCH   5   6
ATOM      6  C   UNL     1     -12.029  13.761 -30.427  1.00  0.00     0.028 C 
BRANCH   6   7
ATOM      7  C   UNL     1     -12.253  13.871 -28.938  1.00  0.00    -0.028 C 
ATOM      8  C   UNL     1     -12.881  12.954 -28.168  1.00  0.00    -0.070 CG0
ATOM      9  C   UNL     1     -13.025  13.246 -26.697  1.00  0.00     0.039 C 
ATOM     10  G   UNL     1     -13.397  11.631 -28.701  1.00  0.00     0.000 G0
ENDBRANCH   6   7
ENDBRANCH   5   6
ENDBRANCH   3   5
ENDBRANCH   1   3
BRANCH   1  11
ATOM     11  C   UNL     1     -16.145  13.307 -30.931  1.00  0.00     0.087 C 
BRANCH  11  12
ATOM     12  C   UNL     1     -15.636  12.810 -29.547  1.00  0.00     0.066 C 
BRANCH  12  13
ATOM     13  C   UNL     1     -14.461  11.868 -29.758  1.00  0.00     0.140 C 
ATOM     14  O   UNL     1     -14.381  11.234 -30.802  1.00  0.00    -0.299 OA
BRANCH  13  15
ATOM     15  C   UNL     1     -13.430  11.632 -28.685  1.00  0.00     0.106 CG0
ATOM     16  G   UNL     1     -12.877  12.948 -28.173  1.00  0.00     0.000 G0
ENDBRANCH  13  15
ENDBRANCH  12  13
BRANCH  12  17
ATOM     17  C   UNL     1     -16.768  12.121 -28.715  1.00  0.00    -0.006 C 
ATOM     18  C   UNL     1     -16.609  12.372 -27.202  1.00  0.00     0.008 C 
ATOM     19  C   UNL     1     -18.167  12.612 -29.138  1.00  0.00     0.008 C 
ENDBRANCH  12  17
ENDBRANCH  11  12
ENDBRANCH   1  11
TORSDOF 1
ENDMDL
MODEL 3
REMARK VINA RESULT:    -3.736      2.193      4.471
REMARK INTER + INTRA:          -5.436
REMARK INTER:                  -5.860
REMARK INTRA:                   0.424
REMARK UNBOUND:                 0.266
REMARK SMILES CC1=CCC[C@@H](C)C(=O)C[C@@H](C(C)C)C(=O)C1
REMARK SMILES IDX 8 1 9 2 6 3 7 4 5 5 4 6 3 7 2 8 1 9 10 11 11 12 15 13 16 14
REMARK SMILES IDX 17 15 12 17 13 18 14 19
REMARK H PARENT
REMARK Flexibility Score: 70.00
ROOT
ATOM      1  C   UNL     1     -12.482  13.309 -27.836  1.00  0.00     0.136 C 
ATOM      2  O   UNL     1     -12.138  14.470 -27.666  1.00  0.00    -0.299 OA
ENDROOT
BRANCH   1   3
ATOM      3  C   UNL     1     -12.789  12.468 -26.602  1.00  0.00     0.053 C 
ATOM      4  C   UNL     1     -11.598  12.245 -25.656  1.00  0.00     0.016 C 
BRANCH   3   5
ATOM      5  C   UNL     1     -13.492  11.135 -26.975  1.00  0.00     0.015 C 
BRANCH   5   6
ATOM      6  C   UNL     1     -14.941  10.990 -26.479  1.00  0.00     0.028 C 
BRANCH   6   7
ATOM      7  C   UNL     1     -15.859  12.019 -27.094  1.00  0.00    -0.028 C 
ATOM      8  C   UNL     1     -16.053  12.207 -28.419  1.00  0.00    -0.070 CG0
ATOM      9  C   UNL     1     -17.000  13.299 -28.847  1.00  0.00     0.039 C 
ATOM     10  G   UNL     1     -15.410  11.343 -29.486  1.00  0.00     0.000 G0
ENDBRANCH   6   7
ENDBRANCH   5   6
ENDBRANCH   3   5
ENDBRANCH   1   3
BRANCH   1  11
ATOM     11  C   UNL     1     -12.539  12.799 -29.261  1.00  0.00     0.087 C 
BRANCH  11  12
ATOM     12  C   UNL     1     -13.767  13.364 -30.032  1.00  0.00     0.066 C 
BRANCH  12  13
ATOM     13  C   UNL     1     -14.647  12.208 -30.480  1.00  0.00     0.140 C 
ATOM     14  O   UNL     1     -14.802  12.000 -31.676  1.00  0.00    -0.299 OA
BRANCH  13  15
ATOM     15  C   UNL     1     -15.400  11.354 -29.493  1.00  0.00     0.106 CG0
ATOM     16  G   UNL     1     -16.052  12.214 -28.428  1.00  0.00     0.000 G0
ENDBRANCH  13  15
ENDBRANCH  12  13
BRANCH  12  17
ATOM     17  C   UNL     1     -13.342  14.252 -31.248  1.00  0.00    -0.006 C 
ATOM     18  C   UNL     1     -13.757  15.726 -31.060  1.00  0.00     0.008 C 
ATOM     19  C   UNL     1     -11.819  14.210 -31.481  1.00  0.00     0.008 C 
ENDBRANCH  12  17
ENDBRANCH  11  12
ENDBRANCH   1  11
TORSDOF 1
ENDMDL
MODEL 4
REMARK VINA RESULT:    -3.194      2.348      3.965
REMARK INTER + INTRA:          -4.609
REMARK INTER:                  -5.609
REMARK INTRA:                   1.000
REMARK UNBOUND:                 0.266
REMARK SMILES CC1=CCC[C@@H](C)C(=O)C[C@@H](C(C)C)C(=O)C1
REMARK SMILES IDX 8 1 9 2 6 3 7 4 5 5 4 6 3 7 2 8 1 9 10 11 11 12 15 13 16 14
REMARK SMILES IDX 17 15 12 17 13 18 14 19
REMARK H PARENT
REMARK Flexibility Score: 70.00
ROOT
ATOM      1  C   UNL     1     -15.423  14.734 -30.810  1.00  0.00     0.136 C 
ATOM      2  O   UNL     1     -16.191  15.563 -30.340  1.00  0.00    -0.299 OA
ENDROOT
BRANCH   1   3
ATOM      3  C   UNL     1     -15.998  13.383 -31.220  1.00  0.00     0.053 C 
ATOM      4  C   UNL     1     -17.401  13.080 -30.669  1.00  0.00     0.016 C 
BRANCH   3   5
ATOM      5  C   UNL     1     -15.002  12.226 -30.942  1.00  0.00     0.015 C 
BRANCH   5   6
ATOM      6  C   UNL     1     -15.349  11.327 -29.742  1.00  0.00     0.028 C 
BRANCH   6   7
ATOM      7  C   UNL     1     -14.117  10.875 -28.996  1.00  0.00    -0.028 C 
ATOM      8  C   UNL     1     -13.313  11.668 -28.252  1.00  0.00    -0.070 CG0
ATOM      9  C   UNL     1     -12.114  11.038 -27.591  1.00  0.00     0.039 C 
ATOM     10  G   UNL     1     -13.587  13.140 -28.010  1.00  0.00     0.000 G0
ENDBRANCH   6   7
ENDBRANCH   5   6
ENDBRANCH   3   5
ENDBRANCH   1   3
BRANCH   1  11
ATOM     11  C   UNL     1     -13.961  15.114 -30.910  1.00  0.00     0.087 C 
BRANCH  11  12
ATOM     12  C   UNL     1     -13.027  13.946 -30.479  1.00  0.00     0.066 C 
BRANCH  12  13
ATOM     13  C   UNL     1     -12.800  14.021 -28.976  1.00  0.00     0.140 C 
ATOM     14  O   UNL     1     -11.915  14.744 -28.539  1.00  0.00    -0.299 OA
BRANCH  13  15
ATOM     15  C   UNL     1     -13.583  13.169 -28.012  1.00  0.00     0.106 CG0
ATOM     16  G   UNL     1     -13.305  11.697 -28.248  1.00  0.00     0.000 G0
ENDBRANCH  13  15
ENDBRANCH  12  13
BRANCH  12  17
ATOM     17  C   UNL     1     -11.668  13.960 -31.255  1.00  0.00    -0.006 C 
ATOM     18  C   UNL     1     -11.089  12.541 -31.432  1.00  0.00     0.008 C 
ATOM     19  C   UNL     1     -11.815  14.595 -32.652  1.00  0.00     0.008 C 
ENDBRANCH  12  17
ENDBRANCH  11  12
ENDBRANCH   1  11
TORSDOF 1
ENDMDL
MODEL 5
REMARK VINA RESULT:    -3.037      1.564      2.007
REMARK INTER + INTRA:          -4.368
REMARK INTER:                  -4.585
REMARK INTRA:                   0.217
REMARK UNBOUND:                 0.266
REMARK SMILES CC1=CCC[C@@H](C)C(=O)C[C@@H](C(C)C)C(=O)C1
REMARK SMILES IDX 8 1 9 2 6 3 7 4 5 5 4 6 3 7 2 8 1 9 10 11 11 12 15 13 16 14
REMARK SMILES IDX 17 15 12 17 13 18 14 19
REMARK H PARENT
REMARK Flexibility Score: 70.00
ROOT
ATOM      1  C   UNL     1     -16.267  12.283 -29.890  1.00  0.00     0.136 C 
ATOM      2  O   UNL     1     -16.796  11.865 -30.911  1.00  0.00    -0.299 OA
ENDROOT
BRANCH   1   3
ATOM      3  C   UNL     1     -16.765  13.607 -29.321  1.00  0.00     0.053 C 
ATOM      4  C   UNL     1     -18.289  13.704 -29.141  1.00  0.00     0.016 C 
BRANCH   3   5
ATOM      5  C   UNL     1     -16.194  14.820 -30.103  1.00  0.00     0.015 C 
BRANCH   5   6
ATOM      6  C   UNL     1     -15.330  14.472 -31.327  1.00  0.00     0.028 C 
BRANCH   6   7
ATOM      7  C   UNL     1     -13.926  15.013 -31.206  1.00  0.00    -0.028 C 
ATOM      8  C   UNL     1     -12.802  14.268 -31.106  1.00  0.00    -0.070 CG0
ATOM      9  C   UNL     1     -11.485  14.990 -30.976  1.00  0.00     0.039 C 
ATOM     10  G   UNL     1     -12.798  12.753 -31.173  1.00  0.00     0.000 G0
ENDBRANCH   6   7
ENDBRANCH   5   6
ENDBRANCH   3   5
ENDBRANCH   1   3
BRANCH   1  11
ATOM     11  C   UNL     1     -15.139  11.463 -29.301  1.00  0.00     0.087 C 
BRANCH  11  12
ATOM     12  C   UNL     1     -13.955  12.357 -28.831  1.00  0.00     0.066 C 
BRANCH  12  13
ATOM     13  C   UNL     1     -12.780  12.162 -29.776  1.00  0.00     0.140 C 
ATOM     14  O   UNL     1     -11.786  11.567 -29.383  1.00  0.00    -0.299 OA
BRANCH  13  15
ATOM     15  C   UNL     1     -12.772  12.750 -31.164  1.00  0.00     0.106 CG0
ATOM     16  G   UNL     1     -12.802  14.265 -31.105  1.00  0.00     0.000 G0
ENDBRANCH  13  15
ENDBRANCH  12  13
BRANCH  12  17
ATOM     17  C   UNL     1     -13.543  12.059 -27.351  1.00  0.00    -0.006 C 
ATOM     18  C   UNL     1     -12.839  13.263 -26.693  1.00  0.00     0.008 C 
ATOM     19  C   UNL     1     -14.761  11.683 -26.484  1.00  0.00     0.008 C 
ENDBRANCH  12  17
ENDBRANCH  11  12
ENDBRANCH   1  11
TORSDOF 1
ENDMDL
MODEL 6
REMARK VINA RESULT:    -2.878      1.922      3.831
REMARK INTER + INTRA:          -4.127
REMARK INTER:                  -5.359
REMARK INTRA:                   1.232
REMARK UNBOUND:                 0.266
REMARK SMILES CC1=CCC[C@@H](C)C(=O)C[C@@H](C(C)C)C(=O)C1
REMARK SMILES IDX 8 1 9 2 6 3 7 4 5 5 4 6 3 7 2 8 1 9 10 11 11 12 15 13 16 14
REMARK SMILES IDX 17 15 12 17 13 18 14 19
REMARK H PARENT
REMARK Flexibility Score: 70.00
ROOT
ATOM      1  C   UNL     1     -14.137  14.724 -31.766  1.00  0.00     0.136 C 
ATOM      2  O   UNL     1     -13.142  15.183 -32.309  1.00  0.00    -0.299 OA
ENDROOT
BRANCH   1   3
ATOM      3  C   UNL     1     -15.178  15.707 -31.239  1.00  0.00     0.053 C 
ATOM      4  C   UNL     1     -14.624  17.082 -30.833  1.00  0.00     0.016 C 
BRANCH   3   5
ATOM      5  C   UNL     1     -16.049  15.076 -30.120  1.00  0.00     0.015 C 
BRANCH   5   6
ATOM      6  C   UNL     1     -16.900  13.867 -30.545  1.00  0.00     0.028 C 
BRANCH   6   7
ATOM      7  C   UNL     1     -17.147  12.915 -29.400  1.00  0.00    -0.028 C 
ATOM      8  C   UNL     1     -16.547  11.714 -29.232  1.00  0.00    -0.070 CG0
ATOM      9  C   UNL     1     -16.935  10.892 -28.030  1.00  0.00     0.039 C 
ATOM     10  G   UNL     1     -15.472  11.183 -30.160  1.00  0.00     0.000 G0
ENDBRANCH   6   7
ENDBRANCH   5   6
ENDBRANCH   3   5
ENDBRANCH   1   3
BRANCH   1  11
ATOM     11  C   UNL     1     -14.231  13.218 -31.635  1.00  0.00     0.087 C 
BRANCH  11  12
ATOM     12  C   UNL     1     -13.344  12.680 -30.475  1.00  0.00     0.066 C 
BRANCH  12  13
ATOM     13  C   UNL     1     -14.086  11.561 -29.761  1.00  0.00     0.140 C 
ATOM     14  O   UNL     1     -13.521  10.941 -28.870  1.00  0.00    -0.299 OA
BRANCH  13  15
ATOM     15  C   UNL     1     -15.473  11.140 -30.171  1.00  0.00     0.106 CG0
ATOM     16  G   UNL     1     -16.510  11.713 -29.225  1.00  0.00     0.000 G0
ENDBRANCH  13  15
ENDBRANCH  12  13
BRANCH  12  17
ATOM     17  C   UNL     1     -12.933  13.811 -29.474  1.00  0.00    -0.006 C 
ATOM     18  C   UNL     1     -13.169  13.398 -28.007  1.00  0.00     0.008 C 
ATOM     19  C   UNL     1     -11.448  14.197 -29.630  1.00  0.00     0.008 C 
ENDBRANCH  12  17
ENDBRANCH  11  12
ENDBRANCH   1  11
TORSDOF 1
ENDMDL
MODEL 7
REMARK VINA RESULT:    -2.680      2.059      3.386
REMARK INTER + INTRA:          -3.824
REMARK INTER:                  -5.272
REMARK INTRA:                   1.448
REMARK UNBOUND:                 0.266
REMARK SMILES CC1=CCC[C@@H](C)C(=O)C[C@@H](C(C)C)C(=O)C1
REMARK SMILES IDX 8 1 9 2 6 3 7 4 5 5 4 6 3 7 2 8 1 9 10 11 11 12 15 13 16 14
REMARK SMILES IDX 17 15 12 17 13 18 14 19
REMARK H PARENT
REMARK Flexibility Score: 70.00
ROOT
ATOM      1  C   UNL     1     -13.781  12.651 -28.130  1.00  0.00     0.136 C 
ATOM      2  O   UNL     1     -13.016  13.452 -27.611  1.00  0.00    -0.299 OA
ENDROOT
BRANCH   1   3
ATOM      3  C   UNL     1     -14.964  12.157 -27.304  1.00  0.00     0.053 C 
ATOM      4  C   UNL     1     -14.625  11.076 -26.266  1.00  0.00     0.016 C 
BRANCH   3   5
ATOM      5  C   UNL     1     -16.160  11.745 -28.203  1.00  0.00     0.015 C 
BRANCH   5   6
ATOM      6  C   UNL     1     -17.449  12.562 -28.007  1.00  0.00     0.028 C 
BRANCH   6   7
ATOM      7  C   UNL     1     -17.886  13.250 -29.277  1.00  0.00    -0.028 C 
ATOM      8  C   UNL     1     -17.289  13.125 -30.485  1.00  0.00    -0.070 CG0
ATOM      9  C   UNL     1     -17.860  13.907 -31.640  1.00  0.00     0.039 C 
ATOM     10  G   UNL     1     -16.116  12.200 -30.742  1.00  0.00     0.000 G0
ENDBRANCH   6   7
ENDBRANCH   5   6
ENDBRANCH   3   5
ENDBRANCH   1   3
BRANCH   1  11
ATOM     11  C   UNL     1     -13.463  12.193 -29.538  1.00  0.00     0.087 C 
BRANCH  11  12
ATOM     12  C   UNL     1     -13.752  13.305 -30.589  1.00  0.00     0.066 C 
BRANCH  12  13
ATOM     13  C   UNL     1     -14.977  12.914 -31.402  1.00  0.00     0.140 C 
ATOM     14  O   UNL     1     -15.052  13.254 -32.575  1.00  0.00    -0.299 OA
BRANCH  13  15
ATOM     15  C   UNL     1     -16.140  12.184 -30.782  1.00  0.00     0.106 CG0
ATOM     16  G   UNL     1     -17.279  13.140 -30.487  1.00  0.00     0.000 G0
ENDBRANCH  13  15
ENDBRANCH  12  13
BRANCH  12  17
ATOM     17  C   UNL     1     -12.522  13.572 -31.518  1.00  0.00    -0.006 C 
ATOM     18  C   UNL     1     -12.085  15.051 -31.488  1.00  0.00     0.008 C 
ATOM     19  C   UNL     1     -11.310  12.706 -31.122  1.00  0.00     0.008 C 
ENDBRANCH  12  17
ENDBRANCH  11  12
ENDBRANCH   1  11
TORSDOF 1
ENDMDL
MODEL 8
REMARK VINA RESULT:    -2.606      2.102      3.626
REMARK INTER + INTRA:          -3.711
REMARK INTER:                  -5.695
REMARK INTRA:                   1.984
REMARK UNBOUND:                 0.266
REMARK SMILES CC1=CCC[C@@H](C)C(=O)C[C@@H](C(C)C)C(=O)C1
REMARK SMILES IDX 8 1 9 2 6 3 7 4 5 5 4 6 3 7 2 8 1 9 10 11 11 12 15 13 16 14
REMARK SMILES IDX 17 15 12 17 13 18 14 19
REMARK H PARENT
REMARK Flexibility Score: 70.00
ROOT
ATOM      1  C   UNL     1     -16.581  13.676 -31.632  1.00  0.00     0.136 C 
ATOM      2  O   UNL     1     -16.795  14.687 -32.288  1.00  0.00    -0.299 OA
ENDROOT
BRANCH   1   3
ATOM      3  C   UNL     1     -17.432  13.440 -30.389  1.00  0.00     0.053 C 
ATOM      4  C   UNL     1     -17.296  14.514 -29.296  1.00  0.00     0.016 C 
BRANCH   3   5
ATOM      5  C   UNL     1     -17.239  12.008 -29.823  1.00  0.00     0.015 C 
BRANCH   5   6
ATOM      6  C   UNL     1     -17.302  11.887 -28.291  1.00  0.00     0.028 C 
BRANCH   6   7
ATOM      7  C   UNL     1     -15.931  11.913 -27.661  1.00  0.00    -0.028 C 
ATOM      8  C   UNL     1     -14.776  11.572 -28.276  1.00  0.00    -0.070 CG0
ATOM      9  C   UNL     1     -13.500  11.647 -27.477  1.00  0.00     0.039 C 
ATOM     10  G   UNL     1     -14.697  11.173 -29.737  1.00  0.00     0.000 G0
ENDBRANCH   6   7
ENDBRANCH   5   6
ENDBRANCH   3   5
ENDBRANCH   1   3
BRANCH   1  11
ATOM     11  C   UNL     1     -15.465  12.765 -32.097  1.00  0.00     0.087 C 
BRANCH  11  12
ATOM     12  C   UNL     1     -14.105  13.127 -31.433  1.00  0.00     0.066 C 
BRANCH  12  13
ATOM     13  C   UNL     1     -13.694  12.001 -30.496  1.00  0.00     0.140 C 
ATOM     14  O   UNL     1     -12.509  11.715 -30.387  1.00  0.00    -0.299 OA
BRANCH  13  15
ATOM     15  C   UNL     1     -14.711  11.173 -29.756  1.00  0.00     0.106 CG0
ATOM     16  G   UNL     1     -14.772  11.576 -28.296  1.00  0.00     0.000 G0
ENDBRANCH  13  15
ENDBRANCH  12  13
BRANCH  12  17
ATOM     17  C   UNL     1     -14.165  14.495 -30.675  1.00  0.00    -0.006 C 
ATOM     18  C   UNL     1     -13.340  14.471 -29.371  1.00  0.00     0.008 C 
ATOM     19  C   UNL     1     -13.646  15.655 -31.548  1.00  0.00     0.008 C 
ENDBRANCH  12  17
ENDBRANCH  11  12
ENDBRANCH   1  11
TORSDOF 1
ENDMDL
MODEL 9
REMARK VINA RESULT:    -2.153     11.369     13.220
REMARK INTER + INTRA:          -3.020
REMARK INTER:                  -3.051
REMARK INTRA:                   0.031
REMARK UNBOUND:                 0.266
REMARK SMILES CC1=CCC[C@@H](C)C(=O)C[C@@H](C(C)C)C(=O)C1
REMARK SMILES IDX 8 1 9 2 6 3 7 4 5 5 4 6 3 7 2 8 1 9 10 11 11 12 15 13 16 14
REMARK SMILES IDX 17 15 12 17 13 18 14 19
REMARK H PARENT
REMARK Flexibility Score: 70.00
ROOT
ATOM      1  C   UNL     1     -23.986  19.017 -32.096  1.00  0.00     0.136 C 
ATOM      2  O   UNL     1     -23.483  17.912 -32.243  1.00  0.00    -0.299 OA
ENDROOT
BRANCH   1   3
ATOM      3  C   UNL     1     -23.300  20.206 -32.758  1.00  0.00     0.053 C 
ATOM      4  C   UNL     1     -23.570  21.565 -32.092  1.00  0.00     0.016 C 
BRANCH   3   5
ATOM      5  C   UNL     1     -23.565  20.245 -34.286  1.00  0.00     0.015 C 
BRANCH   5   6
ATOM      6  C   UNL     1     -24.979  19.824 -34.725  1.00  0.00     0.028 C 
BRANCH   6   7
ATOM      7  C   UNL     1     -26.024  20.838 -34.326  1.00  0.00    -0.028 C 
ATOM      8  C   UNL     1     -27.257  20.551 -33.850  1.00  0.00    -0.070 CG0
ATOM      9  C   UNL     1     -28.173  21.701 -33.520  1.00  0.00     0.039 C 
ATOM     10  G   UNL     1     -27.738  19.138 -33.583  1.00  0.00     0.000 G0
ENDBRANCH   6   7
ENDBRANCH   5   6
ENDBRANCH   3   5
ENDBRANCH   1   3
BRANCH   1  11
ATOM     11  C   UNL     1     -25.231  19.109 -31.238  1.00  0.00     0.087 C 
BRANCH  11  12
ATOM     12  C   UNL     1     -26.292  18.044 -31.637  1.00  0.00     0.066 C 
BRANCH  12  13
ATOM     13  C   UNL     1     -27.546  18.751 -32.128  1.00  0.00     0.140 C 
ATOM     14  O   UNL     1     -28.461  18.964 -31.343  1.00  0.00    -0.299 OA
BRANCH  13  15
ATOM     15  C   UNL     1     -27.729  19.130 -33.575  1.00  0.00     0.106 CG0
ATOM     16  G   UNL     1     -27.266  20.553 -33.820  1.00  0.00     0.000 G0
ENDBRANCH  13  15
ENDBRANCH  12  13
BRANCH  12  17
ATOM     17  C   UNL     1     -26.621  17.068 -30.459  1.00  0.00    -0.006 C 
ATOM     18  C   UNL     1     -25.902  15.712 -30.613  1.00  0.00     0.008 C 
ATOM     19  C   UNL     1     -26.226  17.668 -29.095  1.00  0.00     0.008 C 
ENDBRANCH  12  17
ENDBRANCH  11  12
ENDBRANCH   1  11
TORSDOF 1
ENDMDL
