MODEL 1
REMARK VINA RESULT:    -5.190      0.000      0.000
REMARK INTER + INTRA:          -5.895
REMARK INTER:                  -5.645
REMARK INTRA:                  -0.250
REMARK UNBOUND:                -0.250
REMARK SMILES O=C([O-])c1ccccc1O
REMARK SMILES IDX 4 1 9 2 5 3 8 4 6 5 7 6 2 7 1 8 3 9 10 10
REMARK H PARENT 10 11
REMARK Flexibility Score: inf
ROOT
ATOM      1  C   UNL     1     -19.217  14.575 -28.200  1.00  0.00     0.039 A 
ATOM      2  C   UNL     1     -19.925  13.348 -28.217  1.00  0.00     0.124 A 
ATOM      3  C   UNL     1     -17.986  14.639 -27.518  1.00  0.00     0.014 A 
ATOM      4  C   UNL     1     -19.395  12.227 -27.560  1.00  0.00     0.047 A 
ATOM      5  C   UNL     1     -17.471  13.514 -26.868  1.00  0.00     0.001 A 
ATOM      6  C   UNL     1     -18.175  12.310 -26.890  1.00  0.00     0.004 A 
ENDROOT
BRANCH   1   7
ATOM      7  C   UNL     1     -19.734  15.790 -28.879  1.00  0.00     0.075 C 
ATOM      8  O   UNL     1     -20.111  15.754 -30.079  1.00  0.00    -0.545 OA
ATOM      9  O   UNL     1     -19.810  16.998 -28.193  1.00  0.00    -0.545 OA
ENDBRANCH   1   7
BRANCH   2  10
ATOM     10  O   UNL     1     -21.147  13.239 -28.880  1.00  0.00    -0.507 OA
ATOM     11  H   UNL     1     -21.356  12.454 -29.486  1.00  0.00     0.293 HD
ENDBRANCH   2  10
TORSDOF 2
ENDMDL
MODEL 2
REMARK VINA RESULT:    -4.925      1.984      3.592
REMARK INTER + INTRA:          -5.607
REMARK INTER:                  -5.367
REMARK INTRA:                  -0.240
REMARK UNBOUND:                -0.250
REMARK SMILES O=C([O-])c1ccccc1O
REMARK SMILES IDX 4 1 9 2 5 3 8 4 6 5 7 6 2 7 1 8 3 9 10 10
REMARK H PARENT 10 11
REMARK Flexibility Score: inf
ROOT
ATOM      1  C   UNL     1     -19.124  14.782 -28.179  1.00  0.00     0.039 A 
ATOM      2  C   UNL     1     -19.865  14.456 -29.342  1.00  0.00     0.124 A 
ATOM      3  C   UNL     1     -18.965  16.138 -27.835  1.00  0.00     0.014 A 
ATOM      4  C   UNL     1     -20.422  15.479 -30.125  1.00  0.00     0.047 A 
ATOM      5  C   UNL     1     -19.526  17.146 -28.623  1.00  0.00     0.001 A 
ATOM      6  C   UNL     1     -20.253  16.816 -29.767  1.00  0.00     0.004 A 
ENDROOT
BRANCH   1   7
ATOM      7  C   UNL     1     -18.514  13.737 -27.318  1.00  0.00     0.075 C 
ATOM      8  O   UNL     1     -17.277  13.726 -27.087  1.00  0.00    -0.545 OA
ATOM      9  O   UNL     1     -19.308  12.747 -26.749  1.00  0.00    -0.545 OA
ENDBRANCH   1   7
BRANCH   2  10
ATOM     10  O   UNL     1     -20.049  13.127 -29.722  1.00  0.00    -0.507 OA
ATOM     11  H   UNL     1     -20.817  12.571 -29.362  1.00  0.00     0.293 HD
ENDBRANCH   2  10
TORSDOF 2
ENDMDL
MODEL 3
REMARK VINA RESULT:    -4.547      1.485      3.206
REMARK INTER + INTRA:          -5.196
REMARK INTER:                  -4.970
REMARK INTRA:                  -0.226
REMARK UNBOUND:                -0.250
REMARK SMILES O=C([O-])c1ccccc1O
REMARK SMILES IDX 4 1 9 2 5 3 8 4 6 5 7 6 2 7 1 8 3 9 10 10
REMARK H PARENT 10 11
REMARK Flexibility Score: inf
ROOT
ATOM      1  C   UNL     1     -20.100  14.222 -29.017  1.00  0.00     0.039 A 
ATOM      2  C   UNL     1     -20.292  15.616 -29.175  1.00  0.00     0.124 A 
ATOM      3  C   UNL     1     -19.116  13.771 -28.116  1.00  0.00     0.014 A 
ATOM      4  C   UNL     1     -19.507  16.518 -28.441  1.00  0.00     0.047 A 
ATOM      5  C   UNL     1     -18.341  14.680 -27.391  1.00  0.00     0.001 A 
ATOM      6  C   UNL     1     -18.536  16.051 -27.554  1.00  0.00     0.004 A 
ENDROOT
BRANCH   1   7
ATOM      7  C   UNL     1     -20.904  13.227 -29.771  1.00  0.00     0.075 C 
ATOM      8  O   UNL     1     -22.086  13.480 -30.125  1.00  0.00    -0.545 OA
ATOM      9  O   UNL     1     -20.361  11.990 -30.099  1.00  0.00    -0.545 OA
ENDBRANCH   1   7
BRANCH   2  10
ATOM     10  O   UNL     1     -21.256  16.108 -30.056  1.00  0.00    -0.507 OA
ATOM     11  H   UNL     1     -22.199  16.318 -29.750  1.00  0.00     0.293 HD
ENDBRANCH   2  10
TORSDOF 2
ENDMDL
MODEL 4
REMARK VINA RESULT:    -4.314      1.997      2.886
REMARK INTER + INTRA:          -4.943
REMARK INTER:                  -4.692
REMARK INTRA:                  -0.251
REMARK UNBOUND:                -0.250
REMARK SMILES O=C([O-])c1ccccc1O
REMARK SMILES IDX 4 1 9 2 5 3 8 4 6 5 7 6 2 7 1 8 3 9 10 10
REMARK H PARENT 10 11
REMARK Flexibility Score: inf
ROOT
ATOM      1  C   UNL     1     -19.504  13.957 -28.323  1.00  0.00     0.039 A 
ATOM      2  C   UNL     1     -19.461  12.598 -27.925  1.00  0.00     0.124 A 
ATOM      3  C   UNL     1     -20.298  14.316 -29.429  1.00  0.00     0.014 A 
ATOM      4  C   UNL     1     -20.203  11.640 -28.633  1.00  0.00     0.047 A 
ATOM      5  C   UNL     1     -21.032  13.351 -30.123  1.00  0.00     0.001 A 
ATOM      6  C   UNL     1     -20.984  12.015 -29.725  1.00  0.00     0.004 A 
ENDROOT
BRANCH   1   7
ATOM      7  C   UNL     1     -18.737  15.009 -27.608  1.00  0.00     0.075 C 
ATOM      8  O   UNL     1     -17.516  14.856 -27.340  1.00  0.00    -0.545 OA
ATOM      9  O   UNL     1     -19.361  16.190 -27.221  1.00  0.00    -0.545 OA
ENDBRANCH   1   7
BRANCH   2  10
ATOM     10  O   UNL     1     -18.687  12.198 -26.836  1.00  0.00    -0.507 OA
ATOM     11  H   UNL     1     -18.980  11.446 -26.222  1.00  0.00     0.293 HD
ENDBRANCH   2  10
TORSDOF 2
ENDMDL
MODEL 5
REMARK VINA RESULT:    -4.275      2.196      3.781
REMARK INTER + INTRA:          -4.900
REMARK INTER:                  -4.800
REMARK INTRA:                  -0.100
REMARK UNBOUND:                -0.250
REMARK SMILES O=C([O-])c1ccccc1O
REMARK SMILES IDX 4 1 9 2 5 3 8 4 6 5 7 6 2 7 1 8 3 9 10 10
REMARK H PARENT 10 11
REMARK Flexibility Score: inf
ROOT
ATOM      1  C   UNL     1     -19.843  14.216 -28.929  1.00  0.00     0.039 A 
ATOM      2  C   UNL     1     -19.123  14.771 -27.842  1.00  0.00     0.124 A 
ATOM      3  C   UNL     1     -20.440  15.086 -29.862  1.00  0.00     0.014 A 
ATOM      4  C   UNL     1     -19.018  16.164 -27.712  1.00  0.00     0.047 A 
ATOM      5  C   UNL     1     -20.327  16.471 -29.720  1.00  0.00     0.001 A 
ATOM      6  C   UNL     1     -19.617  17.009 -28.647  1.00  0.00     0.004 A 
ENDROOT
BRANCH   1   7
ATOM      7  C   UNL     1     -19.984  12.749 -29.111  1.00  0.00     0.075 C 
ATOM      8  O   UNL     1     -20.561  12.272 -30.123  1.00  0.00    -0.545 OA
ATOM      9  O   UNL     1     -19.477  11.873 -28.158  1.00  0.00    -0.545 OA
ENDBRANCH   1   7
BRANCH   2  10
ATOM     10  O   UNL     1     -18.516  13.947 -26.895  1.00  0.00    -0.507 OA
ATOM     11  H   UNL     1     -17.515  13.971 -26.731  1.00  0.00     0.293 HD
ENDBRANCH   2  10
TORSDOF 2
ENDMDL
MODEL 6
REMARK VINA RESULT:    -4.203      2.101      3.995
REMARK INTER + INTRA:          -4.821
REMARK INTER:                  -4.579
REMARK INTRA:                  -0.243
REMARK UNBOUND:                -0.250
REMARK SMILES O=C([O-])c1ccccc1O
REMARK SMILES IDX 4 1 9 2 5 3 8 4 6 5 7 6 2 7 1 8 3 9 10 10
REMARK H PARENT 10 11
REMARK Flexibility Score: inf
ROOT
ATOM      1  C   UNL     1     -19.467  13.550 -28.174  1.00  0.00     0.039 A 
ATOM      2  C   UNL     1     -19.453  14.961 -28.297  1.00  0.00     0.124 A 
ATOM      3  C   UNL     1     -20.283  12.801 -29.044  1.00  0.00     0.014 A 
ATOM      4  C   UNL     1     -20.244  15.585 -29.273  1.00  0.00     0.047 A 
ATOM      5  C   UNL     1     -21.066  13.436 -30.011  1.00  0.00     0.001 A 
ATOM      6  C   UNL     1     -21.046  14.826 -30.125  1.00  0.00     0.004 A 
ENDROOT
BRANCH   1   7
ATOM      7  C   UNL     1     -18.649  12.841 -27.157  1.00  0.00     0.075 C 
ATOM      8  O   UNL     1     -17.482  13.225 -26.878  1.00  0.00    -0.545 OA
ATOM      9  O   UNL     1     -19.162  11.732 -26.493  1.00  0.00    -0.545 OA
ENDBRANCH   1   7
BRANCH   2  10
ATOM     10  O   UNL     1     -18.659  15.742 -27.457  1.00  0.00    -0.507 OA
ATOM     11  H   UNL     1     -18.443  15.454 -26.509  1.00  0.00     0.293 HD
ENDBRANCH   2  10
TORSDOF 2
ENDMDL
MODEL 7
REMARK VINA RESULT:    -4.190     10.120     11.036
REMARK INTER + INTRA:          -4.807
REMARK INTER:                  -4.560
REMARK INTRA:                  -0.248
REMARK UNBOUND:                -0.250
REMARK SMILES O=C([O-])c1ccccc1O
REMARK SMILES IDX 4 1 9 2 5 3 8 4 6 5 7 6 2 7 1 8 3 9 10 10
REMARK H PARENT 10 11
REMARK Flexibility Score: inf
ROOT
ATOM      1  C   UNL     1     -13.132  15.319 -19.014  1.00  0.00     0.039 A 
ATOM      2  C   UNL     1     -13.701  14.061 -19.330  1.00  0.00     0.124 A 
ATOM      3  C   UNL     1     -12.255  15.411 -17.917  1.00  0.00     0.014 A 
ATOM      4  C   UNL     1     -13.386  12.937 -18.552  1.00  0.00     0.047 A 
ATOM      5  C   UNL     1     -11.949  14.283 -17.151  1.00  0.00     0.001 A 
ATOM      6  C   UNL     1     -12.514  13.048 -17.469  1.00  0.00     0.004 A 
ENDROOT
BRANCH   1   7
ATOM      7  C   UNL     1     -13.435  16.539 -19.806  1.00  0.00     0.075 C 
ATOM      8  O   UNL     1     -14.623  16.901 -20.016  1.00  0.00    -0.545 OA
ATOM      9  O   UNL     1     -12.402  17.307 -20.332  1.00  0.00    -0.545 OA
ENDBRANCH   1   7
BRANCH   2  10
ATOM     10  O   UNL     1     -14.576  13.924 -20.408  1.00  0.00    -0.507 OA
ATOM     11  H   UNL     1     -14.375  13.299 -21.181  1.00  0.00     0.293 HD
ENDBRANCH   2  10
TORSDOF 2
ENDMDL
