MODEL 1
REMARK VINA RESULT:    -4.305      0.000      0.000
REMARK INTER + INTRA:         -14.429
REMARK INTER:                  -9.841
REMARK INTRA:                  -4.588
REMARK UNBOUND:                -4.588
REMARK SMILES CCCCCCCCCCCCCCCCCCCCCCCC(=O)[O-]
REMARK SMILES IDX 13 1 14 2 15 3 16 4 17 5 18 6 19 7 20 8 21 9 22 10 23 11
REMARK SMILES IDX 24 12 25 13 26 14 12 15 11 16 10 17 9 18 8 19 7 20 6 21 5 22
REMARK SMILES IDX 4 23 3 24 2 25 1 26
REMARK H PARENT
REMARK Flexibility Score: inf
ROOT
ATOM      1  C   UNL     1      63.379  13.731  39.633  1.00  0.00     0.000 C 
ENDROOT
BRANCH   1   2
ATOM      2  C   UNL     1      63.229  12.203  39.575  1.00  0.00     0.000 C 
BRANCH   2   3
ATOM      3  C   UNL     1      62.179  11.671  40.567  1.00  0.00     0.000 C 
BRANCH   3   4
ATOM      4  C   UNL     1      60.825  12.386  40.428  1.00  0.00     0.000 C 
BRANCH   4   5
ATOM      5  C   UNL     1      59.647  11.400  40.333  1.00  0.00     0.000 C 
BRANCH   5   6
ATOM      6  C   UNL     1      58.925  11.463  38.974  1.00  0.00     0.000 C 
BRANCH   6   7
ATOM      7  C   UNL     1      59.622  12.332  37.905  1.00  0.00     0.000 C 
BRANCH   7   8
ATOM      8  C   UNL     1      60.489  11.557  36.895  1.00  0.00     0.000 C 
BRANCH   8   9
ATOM      9  C   UNL     1      60.393  10.024  36.998  1.00  0.00     0.000 C 
BRANCH   9  10
ATOM     10  C   UNL     1      61.611   9.368  37.684  1.00  0.00     0.006 C 
BRANCH  10  11
ATOM     11  C   UNL     1      61.208   8.347  38.755  1.00  0.00     0.053 C 
BRANCH  11  12
ATOM     12  C   UNL     1      62.418   7.835  39.472  1.00  0.00     0.041 C 
ATOM     13  O   UNL     1      63.513   8.448  39.381  1.00  0.00    -0.550 OA
ATOM     14  O   UNL     1      62.325   6.707  40.277  1.00  0.00    -0.550 OA
ENDBRANCH  11  12
ENDBRANCH  10  11
ENDBRANCH   9  10
ENDBRANCH   8   9
ENDBRANCH   7   8
ENDBRANCH   6   7
ENDBRANCH   5   6
ENDBRANCH   4   5
ENDBRANCH   3   4
ENDBRANCH   2   3
ENDBRANCH   1   2
BRANCH   1  15
ATOM     15  C   UNL     1      63.648  14.351  38.251  1.00  0.00     0.000 C 
BRANCH  15  16
ATOM     16  C   UNL     1      62.372  14.492  37.406  1.00  0.00     0.000 C 
BRANCH  16  17
ATOM     17  C   UNL     1      61.680  15.852  37.600  1.00  0.00     0.000 C 
BRANCH  17  18
ATOM     18  C   UNL     1      60.435  15.758  38.497  1.00  0.00    -0.000 C 
BRANCH  18  19
ATOM     19  C   UNL     1      60.738  16.090  39.970  1.00  0.00    -0.000 C 
BRANCH  19  20
ATOM     20  C   UNL     1      61.495  17.418  40.132  1.00  0.00    -0.000 C 
BRANCH  20  21
ATOM     21  C   UNL     1      62.901  17.230  40.719  1.00  0.00    -0.000 C 
BRANCH  21  22
ATOM     22  C   UNL     1      63.969  17.788  39.766  1.00  0.00    -0.000 C 
BRANCH  22  23
ATOM     23  C   UNL     1      63.413  18.847  38.798  1.00  0.00    -0.000 C 
BRANCH  23  24
ATOM     24  C   UNL     1      63.864  18.694  37.331  1.00  0.00    -0.000 C 
BRANCH  24  25
ATOM     25  C   UNL     1      64.993  17.674  37.101  1.00  0.00    -0.003 C 
ATOM     26  C   UNL     1      64.827  16.885  35.803  1.00  0.00     0.004 C 
ENDBRANCH  24  25
ENDBRANCH  23  24
ENDBRANCH  22  23
ENDBRANCH  21  22
ENDBRANCH  20  21
ENDBRANCH  19  20
ENDBRANCH  18  19
ENDBRANCH  17  18
ENDBRANCH  16  17
ENDBRANCH  15  16
ENDBRANCH   1  15
TORSDOF 22
ENDMDL
MODEL 2
REMARK VINA RESULT:    -4.303      1.270      2.791
REMARK INTER + INTRA:         -14.424
REMARK INTER:                 -10.626
REMARK INTRA:                  -3.799
REMARK UNBOUND:                -4.588
REMARK SMILES CCCCCCCCCCCCCCCCCCCCCCCC(=O)[O-]
REMARK SMILES IDX 13 1 14 2 15 3 16 4 17 5 18 6 19 7 20 8 21 9 22 10 23 11
REMARK SMILES IDX 24 12 25 13 26 14 12 15 11 16 10 17 9 18 8 19 7 20 6 21 5 22
REMARK SMILES IDX 4 23 3 24 2 25 1 26
REMARK H PARENT
REMARK Flexibility Score: inf
ROOT
ATOM      1  C   UNL     1      63.972  13.159  38.917  1.00  0.00     0.000 C 
ENDROOT
BRANCH   1   2
ATOM      2  C   UNL     1      62.892  13.813  39.793  1.00  0.00     0.000 C 
BRANCH   2   3
ATOM      3  C   UNL     1      61.900  12.791  40.375  1.00  0.00     0.000 C 
BRANCH   3   4
ATOM      4  C   UNL     1      60.450  13.074  39.952  1.00  0.00     0.000 C 
BRANCH   4   5
ATOM      5  C   UNL     1      60.366  13.951  38.691  1.00  0.00     0.000 C 
BRANCH   5   6
ATOM      6  C   UNL     1      59.861  13.178  37.459  1.00  0.00     0.000 C 
BRANCH   6   7
ATOM      7  C   UNL     1      60.900  12.242  36.806  1.00  0.00     0.000 C 
BRANCH   7   8
ATOM      8  C   UNL     1      60.503  10.755  36.758  1.00  0.00     0.000 C 
BRANCH   8   9
ATOM      9  C   UNL     1      60.874   9.943  38.014  1.00  0.00     0.000 C 
BRANCH   9  10
ATOM     10  C   UNL     1      62.395   9.784  38.226  1.00  0.00     0.006 C 
BRANCH  10  11
ATOM     11  C   UNL     1      62.741   9.201  39.602  1.00  0.00     0.053 C 
BRANCH  11  12
ATOM     12  C   UNL     1      63.135   7.762  39.476  1.00  0.00     0.041 C 
ATOM     13  O   UNL     1      62.293   6.906  39.101  1.00  0.00    -0.550 OA
ATOM     14  O   UNL     1      64.445   7.375  39.729  1.00  0.00    -0.550 OA
ENDBRANCH  11  12
ENDBRANCH  10  11
ENDBRANCH   9  10
ENDBRANCH   8   9
ENDBRANCH   7   8
ENDBRANCH   6   7
ENDBRANCH   5   6
ENDBRANCH   4   5
ENDBRANCH   3   4
ENDBRANCH   2   3
ENDBRANCH   1   2
BRANCH   1  15
ATOM     15  C   UNL     1      64.645  14.161  37.963  1.00  0.00     0.000 C 
BRANCH  15  16
ATOM     16  C   UNL     1      63.654  14.798  36.975  1.00  0.00     0.000 C 
BRANCH  16  17
ATOM     17  C   UNL     1      64.349  15.373  35.729  1.00  0.00     0.000 C 
BRANCH  17  18
ATOM     18  C   UNL     1      64.277  16.908  35.670  1.00  0.00    -0.000 C 
BRANCH  18  19
ATOM     19  C   UNL     1      65.116  17.583  36.771  1.00  0.00    -0.000 C 
BRANCH  19  20
ATOM     20  C   UNL     1      64.246  18.264  37.839  1.00  0.00    -0.000 C 
BRANCH  20  21
ATOM     21  C   UNL     1      64.500  17.711  39.249  1.00  0.00    -0.000 C 
BRANCH  21  22
ATOM     22  C   UNL     1      63.505  18.305  40.257  1.00  0.00    -0.000 C 
BRANCH  22  23
ATOM     23  C   UNL     1      62.411  17.308  40.677  1.00  0.00    -0.000 C 
BRANCH  23  24
ATOM     24  C   UNL     1      61.106  17.386  39.859  1.00  0.00    -0.000 C 
BRANCH  24  25
ATOM     25  C   UNL     1      60.830  18.750  39.202  1.00  0.00    -0.003 C 
ATOM     26  C   UNL     1      60.350  18.629  37.757  1.00  0.00     0.004 C 
ENDBRANCH  24  25
ENDBRANCH  23  24
ENDBRANCH  22  23
ENDBRANCH  21  22
ENDBRANCH  20  21
ENDBRANCH  19  20
ENDBRANCH  18  19
ENDBRANCH  17  18
ENDBRANCH  16  17
ENDBRANCH  15  16
ENDBRANCH   1  15
TORSDOF 22
ENDMDL
MODEL 3
REMARK VINA RESULT:    -4.294      3.483      7.720
REMARK INTER + INTRA:         -14.405
REMARK INTER:                 -10.210
REMARK INTRA:                  -4.195
REMARK UNBOUND:                -4.588
REMARK SMILES CCCCCCCCCCCCCCCCCCCCCCCC(=O)[O-]
REMARK SMILES IDX 13 1 14 2 15 3 16 4 17 5 18 6 19 7 20 8 21 9 22 10 23 11
REMARK SMILES IDX 24 12 25 13 26 14 12 15 11 16 10 17 9 18 8 19 7 20 6 21 5 22
REMARK SMILES IDX 4 23 3 24 2 25 1 26
REMARK H PARENT
REMARK Flexibility Score: inf
ROOT
ATOM      1  C   UNL     1      64.221  14.196  38.418  1.00  0.00     0.000 C 
ENDROOT
BRANCH   1   2
ATOM      2  C   UNL     1      63.337  14.643  37.243  1.00  0.00     0.000 C 
BRANCH   2   3
ATOM      3  C   UNL     1      64.146  14.938  35.968  1.00  0.00     0.000 C 
BRANCH   3   4
ATOM      4  C   UNL     1      64.779  16.339  35.985  1.00  0.00     0.000 C 
BRANCH   4   5
ATOM      5  C   UNL     1      63.748  17.446  36.271  1.00  0.00     0.000 C 
BRANCH   5   6
ATOM      6  C   UNL     1      64.217  18.430  37.359  1.00  0.00     0.000 C 
BRANCH   6   7
ATOM      7  C   UNL     1      64.598  17.780  38.706  1.00  0.00     0.000 C 
BRANCH   7   8
ATOM      8  C   UNL     1      63.737  18.212  39.908  1.00  0.00     0.000 C 
BRANCH   8   9
ATOM      9  C   UNL     1      62.997  17.066  40.622  1.00  0.00     0.000 C 
BRANCH   9  10
ATOM     10  C   UNL     1      61.471  17.070  40.390  1.00  0.00     0.006 C 
BRANCH  10  11
ATOM     11  C   UNL     1      61.100  17.149  38.903  1.00  0.00     0.053 C 
BRANCH  11  12
ATOM     12  C   UNL     1      60.503  18.484  38.584  1.00  0.00     0.041 C 
ATOM     13  O   UNL     1      60.409  19.365  39.477  1.00  0.00    -0.550 OA
ATOM     14  O   UNL     1      60.093  18.770  37.288  1.00  0.00    -0.550 OA
ENDBRANCH  11  12
ENDBRANCH  10  11
ENDBRANCH   9  10
ENDBRANCH   8   9
ENDBRANCH   7   8
ENDBRANCH   6   7
ENDBRANCH   5   6
ENDBRANCH   4   5
ENDBRANCH   3   4
ENDBRANCH   2   3
ENDBRANCH   1   2
BRANCH   1  15
ATOM     15  C   UNL     1      63.589  13.055  39.233  1.00  0.00     0.000 C 
BRANCH  15  16
ATOM     16  C   UNL     1      62.308  13.488  39.964  1.00  0.00     0.000 C 
BRANCH  16  17
ATOM     17  C   UNL     1      61.550  12.301  40.583  1.00  0.00     0.000 C 
BRANCH  17  18
ATOM     18  C   UNL     1      62.425  11.043  40.707  1.00  0.00    -0.000 C 
BRANCH  18  19
ATOM     19  C   UNL     1      61.838   9.836  39.952  1.00  0.00    -0.000 C 
BRANCH  19  20
ATOM     20  C   UNL     1      60.314   9.725  40.111  1.00  0.00    -0.000 C 
BRANCH  20  21
ATOM     21  C   UNL     1      59.608   9.358  38.798  1.00  0.00    -0.000 C 
BRANCH  21  22
ATOM     22  C   UNL     1      60.530   9.606  37.594  1.00  0.00    -0.000 C 
BRANCH  22  23
ATOM     23  C   UNL     1      60.029  10.739  36.680  1.00  0.00    -0.000 C 
BRANCH  23  24
ATOM     24  C   UNL     1      60.788  12.074  36.817  1.00  0.00    -0.000 C 
BRANCH  24  25
ATOM     25  C   UNL     1      59.909  13.289  37.162  1.00  0.00    -0.003 C 
ATOM     26  C   UNL     1      58.804  12.960  38.164  1.00  0.00     0.004 C 
ENDBRANCH  24  25
ENDBRANCH  23  24
ENDBRANCH  22  23
ENDBRANCH  21  22
ENDBRANCH  20  21
ENDBRANCH  19  20
ENDBRANCH  18  19
ENDBRANCH  17  18
ENDBRANCH  16  17
ENDBRANCH  15  16
ENDBRANCH   1  15
TORSDOF 22
ENDMDL
MODEL 4
REMARK VINA RESULT:    -4.264      1.713      4.172
REMARK INTER + INTRA:         -14.337
REMARK INTER:                 -11.064
REMARK INTRA:                  -3.272
REMARK UNBOUND:                -4.588
REMARK SMILES CCCCCCCCCCCCCCCCCCCCCCCC(=O)[O-]
REMARK SMILES IDX 13 1 14 2 15 3 16 4 17 5 18 6 19 7 20 8 21 9 22 10 23 11
REMARK SMILES IDX 24 12 25 13 26 14 12 15 11 16 10 17 9 18 8 19 7 20 6 21 5 22
REMARK SMILES IDX 4 23 3 24 2 25 1 26
REMARK H PARENT
REMARK Flexibility Score: inf
ROOT
ATOM      1  C   UNL     1      61.760  18.740  38.789  1.00  0.00     0.000 C 
ENDROOT
BRANCH   1   2
ATOM      2  C   UNL     1      60.577  19.271  39.615  1.00  0.00     0.000 C 
BRANCH   2   3
ATOM      3  C   UNL     1      59.329  18.379  39.507  1.00  0.00     0.000 C 
BRANCH   3   4
ATOM      4  C   UNL     1      59.101  17.533  40.770  1.00  0.00     0.000 C 
BRANCH   4   5
ATOM      5  C   UNL     1      59.321  16.030  40.519  1.00  0.00     0.000 C 
BRANCH   5   6
ATOM      6  C   UNL     1      59.191  15.648  39.034  1.00  0.00     0.000 C 
BRANCH   6   7
ATOM      7  C   UNL     1      59.670  14.224  38.682  1.00  0.00     0.000 C 
BRANCH   7   8
ATOM      8  C   UNL     1      59.463  13.172  39.788  1.00  0.00     0.000 C 
BRANCH   8   9
ATOM      9  C   UNL     1      60.712  12.342  40.137  1.00  0.00     0.000 C 
BRANCH   9  10
ATOM     10  C   UNL     1      61.480  11.822  38.902  1.00  0.00     0.006 C 
BRANCH  10  11
ATOM     11  C   UNL     1      62.812  11.157  39.272  1.00  0.00     0.053 C 
BRANCH  11  12
ATOM     12  C   UNL     1      62.728   9.675  39.077  1.00  0.00     0.041 C 
ATOM     13  O   UNL     1      63.326   9.129  38.115  1.00  0.00    -0.550 OA
ATOM     14  O   UNL     1      62.027   8.893  39.986  1.00  0.00    -0.550 OA
ENDBRANCH  11  12
ENDBRANCH  10  11
ENDBRANCH   9  10
ENDBRANCH   8   9
ENDBRANCH   7   8
ENDBRANCH   6   7
ENDBRANCH   5   6
ENDBRANCH   4   5
ENDBRANCH   3   4
ENDBRANCH   2   3
ENDBRANCH   1   2
BRANCH   1  15
ATOM     15  C   UNL     1      63.120  19.053  39.435  1.00  0.00     0.000 C 
BRANCH  15  16
ATOM     16  C   UNL     1      63.764  17.820  40.089  1.00  0.00     0.000 C 
BRANCH  16  17
ATOM     17  C   UNL     1      62.733  16.742  40.465  1.00  0.00     0.000 C 
BRANCH  17  18
ATOM     18  C   UNL     1      63.105  15.353  39.922  1.00  0.00    -0.000 C 
BRANCH  18  19
ATOM     19  C   UNL     1      62.995  15.267  38.388  1.00  0.00    -0.000 C 
BRANCH  19  20
ATOM     20  C   UNL     1      64.059  14.344  37.772  1.00  0.00    -0.000 C 
BRANCH  20  21
ATOM     21  C   UNL     1      64.560  14.848  36.410  1.00  0.00    -0.000 C 
BRANCH  21  22
ATOM     22  C   UNL     1      64.150  16.310  36.184  1.00  0.00    -0.000 C 
BRANCH  22  23
ATOM     23  C   UNL     1      65.077  17.048  35.202  1.00  0.00    -0.000 C 
BRANCH  23  24
ATOM     24  C   UNL     1      66.067  18.035  35.853  1.00  0.00    -0.000 C 
BRANCH  24  25
ATOM     25  C   UNL     1      67.147  18.591  34.908  1.00  0.00    -0.003 C 
ATOM     26  C   UNL     1      67.105  17.959  33.517  1.00  0.00     0.004 C 
ENDBRANCH  24  25
ENDBRANCH  23  24
ENDBRANCH  22  23
ENDBRANCH  21  22
ENDBRANCH  20  21
ENDBRANCH  19  20
ENDBRANCH  18  19
ENDBRANCH  17  18
ENDBRANCH  16  17
ENDBRANCH  15  16
ENDBRANCH   1  15
TORSDOF 22
ENDMDL
MODEL 5
REMARK VINA RESULT:    -4.220      1.460      4.402
REMARK INTER + INTRA:         -14.236
REMARK INTER:                  -9.893
REMARK INTRA:                  -4.343
REMARK UNBOUND:                -4.588
REMARK SMILES CCCCCCCCCCCCCCCCCCCCCCCC(=O)[O-]
REMARK SMILES IDX 13 1 14 2 15 3 16 4 17 5 18 6 19 7 20 8 21 9 22 10 23 11
REMARK SMILES IDX 24 12 25 13 26 14 12 15 11 16 10 17 9 18 8 19 7 20 6 21 5 22
REMARK SMILES IDX 4 23 3 24 2 25 1 26
REMARK H PARENT
REMARK Flexibility Score: inf
ROOT
ATOM      1  C   UNL     1      64.671  16.791  35.531  1.00  0.00     0.000 C 
ENDROOT
BRANCH   1   2
ATOM      2  C   UNL     1      64.642  15.299  35.899  1.00  0.00     0.000 C 
BRANCH   2   3
ATOM      3  C   UNL     1      63.214  14.728  35.949  1.00  0.00     0.000 C 
BRANCH   3   4
ATOM      4  C   UNL     1      62.757  14.414  37.382  1.00  0.00     0.000 C 
BRANCH   4   5
ATOM      5  C   UNL     1      63.939  14.135  38.328  1.00  0.00     0.000 C 
BRANCH   5   6
ATOM      6  C   UNL     1      63.494  13.887  39.781  1.00  0.00     0.000 C 
BRANCH   6   7
ATOM      7  C   UNL     1      61.967  13.788  39.988  1.00  0.00     0.000 C 
BRANCH   7   8
ATOM      8  C   UNL     1      61.465  12.433  40.518  1.00  0.00     0.000 C 
BRANCH   8   9
ATOM      9  C   UNL     1      62.562  11.378  40.749  1.00  0.00     0.000 C 
BRANCH   9  10
ATOM     10  C   UNL     1      62.469  10.164  39.801  1.00  0.00     0.006 C 
BRANCH  10  11
ATOM     11  C   UNL     1      61.933  10.538  38.413  1.00  0.00     0.053 C 
BRANCH  11  12
ATOM     12  C   UNL     1      61.358   9.335  37.733  1.00  0.00     0.041 C 
ATOM     13  O   UNL     1      60.115   9.138  37.740  1.00  0.00    -0.550 OA
ATOM     14  O   UNL     1      62.191   8.456  37.053  1.00  0.00    -0.550 OA
ENDBRANCH  11  12
ENDBRANCH  10  11
ENDBRANCH   9  10
ENDBRANCH   8   9
ENDBRANCH   7   8
ENDBRANCH   6   7
ENDBRANCH   5   6
ENDBRANCH   4   5
ENDBRANCH   3   4
ENDBRANCH   2   3
ENDBRANCH   1   2
BRANCH   1  15
ATOM     15  C   UNL     1      64.741  17.703  36.768  1.00  0.00     0.000 C 
BRANCH  15  16
ATOM     16  C   UNL     1      63.429  18.464  37.019  1.00  0.00     0.000 C 
BRANCH  16  17
ATOM     17  C   UNL     1      63.238  18.843  38.498  1.00  0.00     0.000 C 
BRANCH  17  18
ATOM     18  C   UNL     1      63.680  17.724  39.455  1.00  0.00    -0.000 C 
BRANCH  18  19
ATOM     19  C   UNL     1      62.579  17.331  40.458  1.00  0.00    -0.000 C 
BRANCH  19  20
ATOM     20  C   UNL     1      61.175  17.729  39.976  1.00  0.00    -0.000 C 
BRANCH  20  21
ATOM     21  C   UNL     1      60.066  16.894  40.633  1.00  0.00    -0.000 C 
BRANCH  21  22
ATOM     22  C   UNL     1      59.127  16.301  39.572  1.00  0.00    -0.000 C 
BRANCH  22  23
ATOM     23  C   UNL     1      59.734  16.321  38.158  1.00  0.00    -0.000 C 
BRANCH  23  24
ATOM     24  C   UNL     1      59.216  15.222  37.208  1.00  0.00    -0.000 C 
BRANCH  24  25
ATOM     25  C   UNL     1      59.086  13.824  37.839  1.00  0.00    -0.003 C 
ATOM     26  C   UNL     1      59.345  12.695  36.844  1.00  0.00     0.004 C 
ENDBRANCH  24  25
ENDBRANCH  23  24
ENDBRANCH  22  23
ENDBRANCH  21  22
ENDBRANCH  20  21
ENDBRANCH  19  20
ENDBRANCH  18  19
ENDBRANCH  17  18
ENDBRANCH  16  17
ENDBRANCH  15  16
ENDBRANCH   1  15
TORSDOF 22
ENDMDL
MODEL 6
REMARK VINA RESULT:    -4.203      2.696      7.346
REMARK INTER + INTRA:         -14.197
REMARK INTER:                 -10.069
REMARK INTRA:                  -4.128
REMARK UNBOUND:                -4.588
REMARK SMILES CCCCCCCCCCCCCCCCCCCCCCCC(=O)[O-]
REMARK SMILES IDX 13 1 14 2 15 3 16 4 17 5 18 6 19 7 20 8 21 9 22 10 23 11
REMARK SMILES IDX 24 12 25 13 26 14 12 15 11 16 10 17 9 18 8 19 7 20 6 21 5 22
REMARK SMILES IDX 4 23 3 24 2 25 1 26
REMARK H PARENT
REMARK Flexibility Score: inf
ROOT
ATOM      1  C   UNL     1      60.745  14.843  38.199  1.00  0.00     0.000 C 
ENDROOT
BRANCH   1   2
ATOM      2  C   UNL     1      60.126  15.264  39.542  1.00  0.00     0.000 C 
BRANCH   2   3
ATOM      3  C   UNL     1      59.576  16.701  39.518  1.00  0.00     0.000 C 
BRANCH   3   4
ATOM      4  C   UNL     1      59.553  17.297  38.102  1.00  0.00     0.000 C 
BRANCH   4   5
ATOM      5  C   UNL     1      60.509  18.494  37.952  1.00  0.00     0.000 C 
BRANCH   5   6
ATOM      6  C   UNL     1      60.805  19.192  39.292  1.00  0.00     0.000 C 
BRANCH   6   7
ATOM      7  C   UNL     1      62.299  19.269  39.672  1.00  0.00     0.000 C 
BRANCH   7   8
ATOM      8  C   UNL     1      62.912  17.955  40.189  1.00  0.00     0.000 C 
BRANCH   8   9
ATOM      9  C   UNL     1      64.267  17.579  39.562  1.00  0.00     0.000 C 
BRANCH   9  10
ATOM     10  C   UNL     1      64.291  17.686  38.022  1.00  0.00     0.006 C 
BRANCH  10  11
ATOM     11  C   UNL     1      65.256  16.684  37.375  1.00  0.00     0.053 C 
BRANCH  11  12
ATOM     12  C   UNL     1      64.747  16.261  36.032  1.00  0.00     0.041 C 
ATOM     13  O   UNL     1      64.489  17.124  35.153  1.00  0.00    -0.550 OA
ATOM     14  O   UNL     1      64.602  14.912  35.736  1.00  0.00    -0.550 OA
ENDBRANCH  11  12
ENDBRANCH  10  11
ENDBRANCH   9  10
ENDBRANCH   8   9
ENDBRANCH   7   8
ENDBRANCH   6   7
ENDBRANCH   5   6
ENDBRANCH   4   5
ENDBRANCH   3   4
ENDBRANCH   2   3
ENDBRANCH   1   2
BRANCH   1  15
ATOM     15  C   UNL     1      62.262  14.610  38.295  1.00  0.00     0.000 C 
BRANCH  15  16
ATOM     16  C   UNL     1      62.693  14.065  39.667  1.00  0.00     0.000 C 
BRANCH  16  17
ATOM     17  C   UNL     1      63.441  12.725  39.562  1.00  0.00     0.000 C 
BRANCH  17  18
ATOM     18  C   UNL     1      62.741  11.596  40.337  1.00  0.00    -0.000 C 
BRANCH  18  19
ATOM     19  C   UNL     1      61.284  11.940  40.698  1.00  0.00    -0.000 C 
BRANCH  19  20
ATOM     20  C   UNL     1      60.334  10.746  40.516  1.00  0.00    -0.000 C 
BRANCH  20  21
ATOM     21  C   UNL     1      60.997   9.569  39.786  1.00  0.00    -0.000 C 
BRANCH  21  22
ATOM     22  C   UNL     1      60.439   9.426  38.362  1.00  0.00    -0.000 C 
BRANCH  22  23
ATOM     23  C   UNL     1      61.193  10.290  37.334  1.00  0.00    -0.000 C 
BRANCH  23  24
ATOM     24  C   UNL     1      60.356  11.409  36.680  1.00  0.00    -0.000 C 
BRANCH  24  25
ATOM     25  C   UNL     1      58.832  11.249  36.822  1.00  0.00    -0.003 C 
ATOM     26  C   UNL     1      58.190  12.365  37.644  1.00  0.00     0.004 C 
ENDBRANCH  24  25
ENDBRANCH  23  24
ENDBRANCH  22  23
ENDBRANCH  21  22
ENDBRANCH  20  21
ENDBRANCH  19  20
ENDBRANCH  18  19
ENDBRANCH  17  18
ENDBRANCH  16  17
ENDBRANCH  15  16
ENDBRANCH   1  15
TORSDOF 22
ENDMDL
MODEL 7
REMARK VINA RESULT:    -4.175      1.418      3.358
REMARK INTER + INTRA:         -14.133
REMARK INTER:                 -10.329
REMARK INTRA:                  -3.804
REMARK UNBOUND:                -4.588
REMARK SMILES CCCCCCCCCCCCCCCCCCCCCCCC(=O)[O-]
REMARK SMILES IDX 13 1 14 2 15 3 16 4 17 5 18 6 19 7 20 8 21 9 22 10 23 11
REMARK SMILES IDX 24 12 25 13 26 14 12 15 11 16 10 17 9 18 8 19 7 20 6 21 5 22
REMARK SMILES IDX 4 23 3 24 2 25 1 26
REMARK H PARENT
REMARK Flexibility Score: inf
ROOT
ATOM      1  C   UNL     1      63.862  14.218  38.208  1.00  0.00     0.000 C 
ENDROOT
BRANCH   1   2
ATOM      2  C   UNL     1      62.461  14.498  37.641  1.00  0.00     0.000 C 
BRANCH   2   3
ATOM      3  C   UNL     1      61.336  14.102  38.613  1.00  0.00     0.000 C 
BRANCH   3   4
ATOM      4  C   UNL     1      61.857  13.822  40.032  1.00  0.00     0.000 C 
BRANCH   4   5
ATOM      5  C   UNL     1      61.530  12.396  40.508  1.00  0.00     0.000 C 
BRANCH   5   6
ATOM      6  C   UNL     1      62.743  11.450  40.437  1.00  0.00     0.000 C 
BRANCH   6   7
ATOM      7  C   UNL     1      62.799  10.555  39.181  1.00  0.00     0.000 C 
BRANCH   7   8
ATOM      8  C   UNL     1      61.539  10.587  38.297  1.00  0.00     0.000 C 
BRANCH   8   9
ATOM      9  C   UNL     1      61.358   9.363  37.380  1.00  0.00     0.000 C 
BRANCH   9  10
ATOM     10  C   UNL     1      61.812   8.033  38.020  1.00  0.00     0.006 C 
BRANCH  10  11
ATOM     11  C   UNL     1      62.879   7.311  37.186  1.00  0.00     0.053 C 
BRANCH  11  12
ATOM     12  C   UNL     1      64.159   7.205  37.954  1.00  0.00     0.041 C 
ATOM     13  O   UNL     1      65.261   7.181  37.348  1.00  0.00    -0.550 OA
ATOM     14  O   UNL     1      64.136   7.178  39.343  1.00  0.00    -0.550 OA
ENDBRANCH  11  12
ENDBRANCH  10  11
ENDBRANCH   9  10
ENDBRANCH   8   9
ENDBRANCH   7   8
ENDBRANCH   6   7
ENDBRANCH   5   6
ENDBRANCH   4   5
ENDBRANCH   3   4
ENDBRANCH   2   3
ENDBRANCH   1   2
BRANCH   1  15
ATOM     15  C   UNL     1      64.980  14.833  37.350  1.00  0.00     0.000 C 
BRANCH  15  16
ATOM     16  C   UNL     1      64.527  15.133  35.912  1.00  0.00     0.000 C 
BRANCH  16  17
ATOM     17  C   UNL     1      64.589  16.632  35.572  1.00  0.00     0.000 C 
BRANCH  17  18
ATOM     18  C   UNL     1      65.242  17.463  36.689  1.00  0.00    -0.000 C 
BRANCH  18  19
ATOM     19  C   UNL     1      64.331  18.596  37.196  1.00  0.00    -0.000 C 
BRANCH  19  20
ATOM     20  C   UNL     1      63.250  18.093  38.167  1.00  0.00    -0.000 C 
BRANCH  20  21
ATOM     21  C   UNL     1      63.829  17.657  39.521  1.00  0.00    -0.000 C 
BRANCH  21  22
ATOM     22  C   UNL     1      62.707  17.412  40.541  1.00  0.00    -0.000 C 
BRANCH  22  23
ATOM     23  C   UNL     1      61.347  17.968  40.080  1.00  0.00    -0.000 C 
BRANCH  23  24
ATOM     24  C   UNL     1      60.125  17.113  40.472  1.00  0.00    -0.000 C 
BRANCH  24  25
ATOM     25  C   UNL     1      59.091  16.904  39.351  1.00  0.00    -0.003 C 
ATOM     26  C   UNL     1      59.525  17.516  38.020  1.00  0.00     0.004 C 
ENDBRANCH  24  25
ENDBRANCH  23  24
ENDBRANCH  22  23
ENDBRANCH  21  22
ENDBRANCH  20  21
ENDBRANCH  19  20
ENDBRANCH  18  19
ENDBRANCH  17  18
ENDBRANCH  16  17
ENDBRANCH  15  16
ENDBRANCH   1  15
TORSDOF 22
ENDMDL
MODEL 8
REMARK VINA RESULT:    -4.159      1.374      3.474
REMARK INTER + INTRA:         -14.096
REMARK INTER:                 -10.108
REMARK INTRA:                  -3.987
REMARK UNBOUND:                -4.588
REMARK SMILES CCCCCCCCCCCCCCCCCCCCCCCC(=O)[O-]
REMARK SMILES IDX 13 1 14 2 15 3 16 4 17 5 18 6 19 7 20 8 21 9 22 10 23 11
REMARK SMILES IDX 24 12 25 13 26 14 12 15 11 16 10 17 9 18 8 19 7 20 6 21 5 22
REMARK SMILES IDX 4 23 3 24 2 25 1 26
REMARK H PARENT
REMARK Flexibility Score: inf
ROOT
ATOM      1  C   UNL     1      64.975  14.529  37.230  1.00  0.00     0.000 C 
ENDROOT
BRANCH   1   2
ATOM      2  C   UNL     1      64.227  14.028  38.475  1.00  0.00     0.000 C 
BRANCH   2   3
ATOM      3  C   UNL     1      62.790  14.571  38.564  1.00  0.00     0.000 C 
BRANCH   3   4
ATOM      4  C   UNL     1      62.147  14.307  39.934  1.00  0.00     0.000 C 
BRANCH   4   5
ATOM      5  C   UNL     1      62.104  12.809  40.285  1.00  0.00     0.000 C 
BRANCH   5   6
ATOM      6  C   UNL     1      60.680  12.307  40.586  1.00  0.00     0.000 C 
BRANCH   6   7
ATOM      7  C   UNL     1      59.551  13.084  39.875  1.00  0.00     0.000 C 
BRANCH   7   8
ATOM      8  C   UNL     1      59.023  12.434  38.583  1.00  0.00     0.000 C 
BRANCH   8   9
ATOM      9  C   UNL     1      59.773  12.838  37.300  1.00  0.00     0.000 C 
BRANCH   9  10
ATOM     10  C   UNL     1      60.833  11.809  36.849  1.00  0.00     0.006 C 
BRANCH  10  11
ATOM     11  C   UNL     1      60.338  10.361  36.963  1.00  0.00     0.053 C 
BRANCH  11  12
ATOM     12  C   UNL     1      61.328   9.528  37.715  1.00  0.00     0.041 C 
ATOM     13  O   UNL     1      62.315  10.071  38.276  1.00  0.00    -0.550 OA
ATOM     14  O   UNL     1      61.137   8.158  37.834  1.00  0.00    -0.550 OA
ENDBRANCH  11  12
ENDBRANCH  10  11
ENDBRANCH   9  10
ENDBRANCH   8   9
ENDBRANCH   7   8
ENDBRANCH   6   7
ENDBRANCH   5   6
ENDBRANCH   4   5
ENDBRANCH   3   4
ENDBRANCH   2   3
ENDBRANCH   1   2
BRANCH   1  15
ATOM     15  C   UNL     1      64.050  15.252  36.236  1.00  0.00     0.000 C 
BRANCH  15  16
ATOM     16  C   UNL     1      64.639  16.580  35.735  1.00  0.00     0.000 C 
BRANCH  16  17
ATOM     17  C   UNL     1      65.288  17.403  36.861  1.00  0.00     0.000 C 
BRANCH  17  18
ATOM     18  C   UNL     1      64.250  18.032  37.805  1.00  0.00    -0.000 C 
BRANCH  18  19
ATOM     19  C   UNL     1      64.536  17.730  39.287  1.00  0.00    -0.000 C 
BRANCH  19  20
ATOM     20  C   UNL     1      63.351  18.085  40.200  1.00  0.00    -0.000 C 
BRANCH  20  21
ATOM     21  C   UNL     1      62.544  19.284  39.681  1.00  0.00    -0.000 C 
BRANCH  21  22
ATOM     22  C   UNL     1      61.063  18.913  39.513  1.00  0.00    -0.000 C 
BRANCH  22  23
ATOM     23  C   UNL     1      60.732  17.509  40.051  1.00  0.00    -0.000 C 
BRANCH  23  24
ATOM     24  C   UNL     1      59.312  17.002  39.728  1.00  0.00    -0.000 C 
BRANCH  24  25
ATOM     25  C   UNL     1      59.161  16.322  38.355  1.00  0.00    -0.003 C 
ATOM     26  C   UNL     1      58.451  17.204  37.329  1.00  0.00     0.004 C 
ENDBRANCH  24  25
ENDBRANCH  23  24
ENDBRANCH  22  23
ENDBRANCH  21  22
ENDBRANCH  20  21
ENDBRANCH  19  20
ENDBRANCH  18  19
ENDBRANCH  17  18
ENDBRANCH  16  17
ENDBRANCH  15  16
ENDBRANCH   1  15
TORSDOF 22
ENDMDL
MODEL 9
REMARK VINA RESULT:    -4.152      1.045      2.823
REMARK INTER + INTRA:         -14.079
REMARK INTER:                 -10.195
REMARK INTRA:                  -3.884
REMARK UNBOUND:                -4.588
REMARK SMILES CCCCCCCCCCCCCCCCCCCCCCCC(=O)[O-]
REMARK SMILES IDX 13 1 14 2 15 3 16 4 17 5 18 6 19 7 20 8 21 9 22 10 23 11
REMARK SMILES IDX 24 12 25 13 26 14 12 15 11 16 10 17 9 18 8 19 7 20 6 21 5 22
REMARK SMILES IDX 4 23 3 24 2 25 1 26
REMARK H PARENT
REMARK Flexibility Score: inf
ROOT
ATOM      1  C   UNL     1      62.022  13.405  40.184  1.00  0.00     0.000 C 
ENDROOT
BRANCH   1   2
ATOM      2  C   UNL     1      61.319  12.247  40.909  1.00  0.00     0.000 C 
BRANCH   2   3
ATOM      3  C   UNL     1      59.788  12.403  40.935  1.00  0.00     0.000 C 
BRANCH   3   4
ATOM      4  C   UNL     1      59.308  13.614  40.119  1.00  0.00     0.000 C 
BRANCH   4   5
ATOM      5  C   UNL     1      58.476  13.203  38.892  1.00  0.00     0.000 C 
BRANCH   5   6
ATOM      6  C   UNL     1      59.239  13.382  37.567  1.00  0.00     0.000 C 
BRANCH   6   7
ATOM      7  C   UNL     1      59.386  12.099  36.721  1.00  0.00     0.000 C 
BRANCH   7   8
ATOM      8  C   UNL     1      60.815  11.533  36.631  1.00  0.00     0.000 C 
BRANCH   8   9
ATOM      9  C   UNL     1      61.234  10.637  37.810  1.00  0.00     0.000 C 
BRANCH   9  10
ATOM     10  C   UNL     1      61.222   9.128  37.481  1.00  0.00     0.006 C 
BRANCH  10  11
ATOM     11  C   UNL     1      62.585   8.462  37.710  1.00  0.00     0.053 C 
BRANCH  11  12
ATOM     12  C   UNL     1      62.716   8.016  39.133  1.00  0.00     0.041 C 
ATOM     13  O   UNL     1      61.688   7.817  39.831  1.00  0.00    -0.550 OA
ATOM     14  O   UNL     1      63.973   7.776  39.674  1.00  0.00    -0.550 OA
ENDBRANCH  11  12
ENDBRANCH  10  11
ENDBRANCH   9  10
ENDBRANCH   8   9
ENDBRANCH   7   8
ENDBRANCH   6   7
ENDBRANCH   5   6
ENDBRANCH   4   5
ENDBRANCH   3   4
ENDBRANCH   2   3
ENDBRANCH   1   2
BRANCH   1  15
ATOM     15  C   UNL     1      63.384  12.995  39.598  1.00  0.00     0.000 C 
BRANCH  15  16
ATOM     16  C   UNL     1      63.876  13.962  38.509  1.00  0.00     0.000 C 
BRANCH  16  17
ATOM     17  C   UNL     1      62.727  14.533  37.660  1.00  0.00     0.000 C 
BRANCH  17  18
ATOM     18  C   UNL     1      63.171  14.897  36.234  1.00  0.00    -0.000 C 
BRANCH  18  19
ATOM     19  C   UNL     1      64.581  15.515  36.191  1.00  0.00    -0.000 C 
BRANCH  19  20
ATOM     20  C   UNL     1      64.567  16.982  35.731  1.00  0.00    -0.000 C 
BRANCH  20  21
ATOM     21  C   UNL     1      64.589  17.970  36.906  1.00  0.00    -0.000 C 
BRANCH  21  22
ATOM     22  C   UNL     1      63.163  18.385  37.298  1.00  0.00    -0.000 C 
BRANCH  22  23
ATOM     23  C   UNL     1      63.047  18.810  38.772  1.00  0.00    -0.000 C 
BRANCH  23  24
ATOM     24  C   UNL     1      63.833  17.935  39.770  1.00  0.00    -0.000 C 
BRANCH  24  25
ATOM     25  C   UNL     1      62.977  16.945  40.580  1.00  0.00    -0.003 C 
ATOM     26  C   UNL     1      61.484  17.066  40.283  1.00  0.00     0.004 C 
ENDBRANCH  24  25
ENDBRANCH  23  24
ENDBRANCH  22  23
ENDBRANCH  21  22
ENDBRANCH  20  21
ENDBRANCH  19  20
ENDBRANCH  18  19
ENDBRANCH  17  18
ENDBRANCH  16  17
ENDBRANCH  15  16
ENDBRANCH   1  15
TORSDOF 22
ENDMDL
