MODEL 1
REMARK VINA RESULT:    -4.828      0.000      0.000
REMARK INTER + INTRA:          -6.666
REMARK INTER:                  -6.522
REMARK INTRA:                  -0.144
REMARK UNBOUND:                -0.144
REMARK SMILES [NH3+]CCCC[C@H]([NH3+])C(=O)[O-]
REMARK SMILES IDX 4 1 3 2 2 3 1 4 5 8 6 9 7 10 8 14 9 15 10 16
REMARK H PARENT 1 5 1 6 1 7 7 11 7 12 7 13
REMARK Flexibility Score: inf
ROOT
ATOM      1  C   UNL     1     -21.984  68.849  -0.212  1.00  0.00     0.012 C 
ENDROOT
BRANCH   1   2
ATOM      2  C   UNL     1     -21.646  69.594   1.091  1.00  0.00     0.061 C 
BRANCH   2   3
ATOM      3  C   UNL     1     -21.520  71.113   0.884  1.00  0.00     0.258 C 
BRANCH   3   4
ATOM      4  N   UNL     1     -21.606  71.854   2.144  1.00  0.00    -0.358 N 
ATOM      5  H   UNL     1     -22.518  71.662   2.618  1.00  0.00     0.344 HD
ATOM      6  H   UNL     1     -20.836  71.537   2.776  1.00  0.00     0.344 HD
ATOM      7  H   UNL     1     -21.499  72.880   1.974  1.00  0.00     0.344 HD
ENDBRANCH   3   4
ENDBRANCH   2   3
ENDBRANCH   1   2
BRANCH   1   8
ATOM      8  C   UNL     1     -20.769  68.709  -1.152  1.00  0.00     0.072 C 
BRANCH   8   9
ATOM      9  C   UNL     1     -19.419  68.503  -0.424  1.00  0.00     0.227 C 
BRANCH   9  10
ATOM     10  N   UNL     1     -18.347  69.206  -1.138  1.00  0.00    -0.350 N 
ATOM     11  H   UNL     1     -17.470  69.188  -0.568  1.00  0.00     0.345 HD
ATOM     12  H   UNL     1     -18.153  68.728  -2.049  1.00  0.00     0.345 HD
ATOM     13  H   UNL     1     -18.614  70.201  -1.323  1.00  0.00     0.345 HD
ENDBRANCH   9  10
BRANCH   9  14
ATOM     14  C   UNL     1     -19.081  67.040  -0.307  1.00  0.00     0.099 C 
ATOM     15  O   UNL     1     -18.648  66.576   0.781  1.00  0.00    -0.544 OA
ATOM     16  O   UNL     1     -19.251  66.191  -1.394  1.00  0.00    -0.544 OA
ENDBRANCH   9  14
ENDBRANCH   8   9
ENDBRANCH   1   8
TORSDOF 7
ENDMDL
MODEL 2
REMARK VINA RESULT:    -4.712      1.632      1.770
REMARK INTER + INTRA:          -6.509
REMARK INTER:                  -6.271
REMARK INTRA:                  -0.238
REMARK UNBOUND:                -0.144
REMARK SMILES [NH3+]CCCC[C@H]([NH3+])C(=O)[O-]
REMARK SMILES IDX 4 1 3 2 2 3 1 4 5 8 6 9 7 10 8 14 9 15 10 16
REMARK H PARENT 1 5 1 6 1 7 7 11 7 12 7 13
REMARK Flexibility Score: inf
ROOT
ATOM      1  C   UNL     1     -21.748  68.398   0.262  1.00  0.00     0.012 C 
ENDROOT
BRANCH   1   2
ATOM      2  C   UNL     1     -21.640  69.597   1.220  1.00  0.00     0.061 C 
BRANCH   2   3
ATOM      3  C   UNL     1     -21.227  70.891   0.497  1.00  0.00     0.258 C 
BRANCH   3   4
ATOM      4  N   UNL     1     -21.495  72.085   1.302  1.00  0.00    -0.358 N 
ATOM      5  H   UNL     1     -21.355  72.949   0.730  1.00  0.00     0.344 HD
ATOM      6  H   UNL     1     -22.491  72.062   1.620  1.00  0.00     0.344 HD
ATOM      7  H   UNL     1     -20.875  72.107   2.143  1.00  0.00     0.344 HD
ENDBRANCH   3   4
ENDBRANCH   2   3
ENDBRANCH   1   2
BRANCH   1   8
ATOM      8  C   UNL     1     -21.427  68.770  -1.199  1.00  0.00     0.072 C 
BRANCH   8   9
ATOM      9  C   UNL     1     -20.180  68.061  -1.779  1.00  0.00     0.227 C 
BRANCH   9  10
ATOM     10  N   UNL     1     -20.460  66.636  -1.992  1.00  0.00    -0.350 N 
ATOM     11  H   UNL     1     -20.414  66.414  -3.013  1.00  0.00     0.345 HD
ATOM     12  H   UNL     1     -19.742  66.055  -1.499  1.00  0.00     0.345 HD
ATOM     13  H   UNL     1     -21.411  66.386  -1.631  1.00  0.00     0.345 HD
ENDBRANCH   9  10
BRANCH   9  14
ATOM     14  C   UNL     1     -18.991  68.217  -0.867  1.00  0.00     0.099 C 
ATOM     15  O   UNL     1     -18.383  69.318  -0.805  1.00  0.00    -0.544 OA
ATOM     16  O   UNL     1     -18.561  67.152  -0.086  1.00  0.00    -0.544 OA
ENDBRANCH   9  14
ENDBRANCH   8   9
ENDBRANCH   1   8
TORSDOF 7
ENDMDL
MODEL 3
REMARK VINA RESULT:    -4.708      2.908      4.679
REMARK INTER + INTRA:          -6.503
REMARK INTER:                  -6.426
REMARK INTRA:                  -0.077
REMARK UNBOUND:                -0.144
REMARK SMILES [NH3+]CCCC[C@H]([NH3+])C(=O)[O-]
REMARK SMILES IDX 4 1 3 2 2 3 1 4 5 8 6 9 7 10 8 14 9 15 10 16
REMARK H PARENT 1 5 1 6 1 7 7 11 7 12 7 13
REMARK Flexibility Score: inf
ROOT
ATOM      1  C   UNL     1     -19.272  68.422  -1.019  1.00  0.00     0.012 C 
ENDROOT
BRANCH   1   2
ATOM      2  C   UNL     1     -18.915  66.931  -0.886  1.00  0.00     0.061 C 
BRANCH   2   3
ATOM      3  C   UNL     1     -19.668  66.054  -1.902  1.00  0.00     0.258 C 
BRANCH   3   4
ATOM      4  N   UNL     1     -19.172  64.676  -1.920  1.00  0.00    -0.358 N 
ATOM      5  H   UNL     1     -19.804  64.055  -1.366  1.00  0.00     0.344 HD
ATOM      6  H   UNL     1     -19.159  64.334  -2.907  1.00  0.00     0.344 HD
ATOM      7  H   UNL     1     -18.200  64.632  -1.537  1.00  0.00     0.344 HD
ENDBRANCH   3   4
ENDBRANCH   2   3
ENDBRANCH   1   2
BRANCH   1   8
ATOM      8  C   UNL     1     -20.775  68.656  -1.271  1.00  0.00     0.072 C 
BRANCH   8   9
ATOM      9  C   UNL     1     -21.698  68.164  -0.131  1.00  0.00     0.227 C 
BRANCH   9  10
ATOM     10  N   UNL     1     -23.104  68.258  -0.542  1.00  0.00    -0.350 N 
ATOM     11  H   UNL     1     -23.727  68.060   0.275  1.00  0.00     0.345 HD
ATOM     12  H   UNL     1     -23.312  69.226  -0.881  1.00  0.00     0.345 HD
ATOM     13  H   UNL     1     -23.315  67.574  -1.306  1.00  0.00     0.345 HD
ENDBRANCH   9  10
BRANCH   9  14
ATOM     14  C   UNL     1     -21.480  68.962   1.129  1.00  0.00     0.099 C 
ATOM     15  O   UNL     1     -21.159  68.379   2.198  1.00  0.00    -0.544 OA
ATOM     16  O   UNL     1     -21.623  70.344   1.118  1.00  0.00    -0.544 OA
ENDBRANCH   9  14
ENDBRANCH   8   9
ENDBRANCH   1   8
TORSDOF 7
ENDMDL
MODEL 4
REMARK VINA RESULT:    -4.683      2.080      2.396
REMARK INTER + INTRA:          -6.470
REMARK INTER:                  -5.969
REMARK INTRA:                  -0.500
REMARK UNBOUND:                -0.144
REMARK SMILES [NH3+]CCCC[C@H]([NH3+])C(=O)[O-]
REMARK SMILES IDX 4 1 3 2 2 3 1 4 5 8 6 9 7 10 8 14 9 15 10 16
REMARK H PARENT 1 5 1 6 1 7 7 11 7 12 7 13
REMARK Flexibility Score: inf
ROOT
ATOM      1  C   UNL     1     -20.807  69.759  -0.016  1.00  0.00     0.012 C 
ENDROOT
BRANCH   1   2
ATOM      2  C   UNL     1     -21.329  68.834   1.097  1.00  0.00     0.061 C 
BRANCH   2   3
ATOM      3  C   UNL     1     -22.767  68.354   0.836  1.00  0.00     0.258 C 
BRANCH   3   4
ATOM      4  N   UNL     1     -23.031  68.142  -0.589  1.00  0.00    -0.358 N 
ATOM      5  H   UNL     1     -23.961  67.684  -0.723  1.00  0.00     0.344 HD
ATOM      6  H   UNL     1     -23.051  69.070  -1.070  1.00  0.00     0.344 HD
ATOM      7  H   UNL     1     -22.278  67.559  -1.018  1.00  0.00     0.344 HD
ENDBRANCH   3   4
ENDBRANCH   2   3
ENDBRANCH   1   2
BRANCH   1   8
ATOM      8  C   UNL     1     -19.698  69.105  -0.864  1.00  0.00     0.072 C 
BRANCH   8   9
ATOM      9  C   UNL     1     -19.338  67.661  -0.440  1.00  0.00     0.227 C 
BRANCH   9  10
ATOM     10  N   UNL     1     -17.888  67.536  -0.246  1.00  0.00    -0.350 N 
ATOM     11  H   UNL     1     -17.656  67.634   0.769  1.00  0.00     0.345 HD
ATOM     12  H   UNL     1     -17.567  66.592  -0.565  1.00  0.00     0.345 HD
ATOM     13  H   UNL     1     -17.377  68.273  -0.786  1.00  0.00     0.345 HD
ENDBRANCH   9  10
BRANCH   9  14
ATOM     14  C   UNL     1     -19.804  66.660  -1.465  1.00  0.00     0.099 C 
ATOM     15  O   UNL     1     -20.817  66.905  -2.172  1.00  0.00    -0.544 OA
ATOM     16  O   UNL     1     -19.118  65.464  -1.642  1.00  0.00    -0.544 OA
ENDBRANCH   9  14
ENDBRANCH   8   9
ENDBRANCH   1   8
TORSDOF 7
ENDMDL
MODEL 5
REMARK VINA RESULT:    -4.641      2.708      4.255
REMARK INTER + INTRA:          -6.413
REMARK INTER:                  -5.998
REMARK INTRA:                  -0.415
REMARK UNBOUND:                -0.144
REMARK SMILES [NH3+]CCCC[C@H]([NH3+])C(=O)[O-]
REMARK SMILES IDX 4 1 3 2 2 3 1 4 5 8 6 9 7 10 8 14 9 15 10 16
REMARK H PARENT 1 5 1 6 1 7 7 11 7 12 7 13
REMARK Flexibility Score: inf
ROOT
ATOM      1  C   UNL     1     -20.457  67.802  -1.656  1.00  0.00     0.012 C 
ENDROOT
BRANCH   1   2
ATOM      2  C   UNL     1     -19.544  67.118  -0.624  1.00  0.00     0.061 C 
BRANCH   2   3
ATOM      3  C   UNL     1     -18.292  67.952  -0.302  1.00  0.00     0.258 C 
BRANCH   3   4
ATOM      4  N   UNL     1     -18.272  69.224  -1.026  1.00  0.00    -0.358 N 
ATOM      5  H   UNL     1     -17.411  69.295  -1.615  1.00  0.00     0.344 HD
ATOM      6  H   UNL     1     -19.105  69.268  -1.656  1.00  0.00     0.344 HD
ATOM      7  H   UNL     1     -18.315  70.027  -0.358  1.00  0.00     0.344 HD
ENDBRANCH   3   4
ENDBRANCH   2   3
ENDBRANCH   1   2
BRANCH   1   8
ATOM      8  C   UNL     1     -21.754  68.355  -1.032  1.00  0.00     0.072 C 
BRANCH   8   9
ATOM      9  C   UNL     1     -21.635  68.724   0.466  1.00  0.00     0.227 C 
BRANCH   9  10
ATOM     10  N   UNL     1     -22.854  68.332   1.183  1.00  0.00    -0.350 N 
ATOM     11  H   UNL     1     -22.700  68.411   2.215  1.00  0.00     0.345 HD
ATOM     12  H   UNL     1     -23.641  68.970   0.922  1.00  0.00     0.345 HD
ATOM     13  H   UNL     1     -23.120  67.346   0.952  1.00  0.00     0.345 HD
ENDBRANCH   9  10
BRANCH   9  14
ATOM     14  C   UNL     1     -21.389  70.200   0.646  1.00  0.00     0.099 C 
ATOM     15  O   UNL     1     -20.862  70.870  -0.282  1.00  0.00    -0.544 OA
ATOM     16  O   UNL     1     -21.746  70.832   1.831  1.00  0.00    -0.544 OA
ENDBRANCH   9  14
ENDBRANCH   8   9
ENDBRANCH   1   8
TORSDOF 7
ENDMDL
MODEL 6
REMARK VINA RESULT:    -4.546      1.939      2.373
REMARK INTER + INTRA:          -6.285
REMARK INTER:                  -6.179
REMARK INTRA:                  -0.105
REMARK UNBOUND:                -0.144
REMARK SMILES [NH3+]CCCC[C@H]([NH3+])C(=O)[O-]
REMARK SMILES IDX 4 1 3 2 2 3 1 4 5 8 6 9 7 10 8 14 9 15 10 16
REMARK H PARENT 1 5 1 6 1 7 7 11 7 12 7 13
REMARK Flexibility Score: inf
ROOT
ATOM      1  C   UNL     1     -21.634  70.531   1.194  1.00  0.00     0.012 C 
ENDROOT
BRANCH   1   2
ATOM      2  C   UNL     1     -21.620  72.060   1.363  1.00  0.00     0.061 C 
BRANCH   2   3
ATOM      3  C   UNL     1     -22.386  72.520   2.615  1.00  0.00     0.258 C 
BRANCH   3   4
ATOM      4  N   UNL     1     -21.488  72.854   3.723  1.00  0.00    -0.358 N 
ATOM      5  H   UNL     1     -21.564  72.139   4.482  1.00  0.00     0.344 HD
ATOM      6  H   UNL     1     -20.503  72.856   3.372  1.00  0.00     0.344 HD
ATOM      7  H   UNL     1     -21.710  73.803   4.101  1.00  0.00     0.344 HD
ENDBRANCH   3   4
ENDBRANCH   2   3
ENDBRANCH   1   2
BRANCH   1   8
ATOM      8  C   UNL     1     -20.884  70.064  -0.070  1.00  0.00     0.072 C 
BRANCH   8   9
ATOM      9  C   UNL     1     -21.502  68.822  -0.756  1.00  0.00     0.227 C 
BRANCH   9  10
ATOM     10  N   UNL     1     -22.658  68.342   0.010  1.00  0.00    -0.350 N 
ATOM     11  H   UNL     1     -23.041  67.475  -0.432  1.00  0.00     0.345 HD
ATOM     12  H   UNL     1     -22.365  68.108   0.987  1.00  0.00     0.345 HD
ATOM     13  H   UNL     1     -23.410  69.070   0.042  1.00  0.00     0.345 HD
ENDBRANCH   9  10
BRANCH   9  14
ATOM     14  C   UNL     1     -20.488  67.717  -0.897  1.00  0.00     0.099 C 
ATOM     15  O   UNL     1     -19.581  67.578  -0.035  1.00  0.00    -0.544 OA
ATOM     16  O   UNL     1     -20.550  66.840  -1.974  1.00  0.00    -0.544 OA
ENDBRANCH   9  14
ENDBRANCH   8   9
ENDBRANCH   1   8
TORSDOF 7
ENDMDL
MODEL 7
REMARK VINA RESULT:    -4.498      2.298      4.257
REMARK INTER + INTRA:          -6.220
REMARK INTER:                  -5.783
REMARK INTRA:                  -0.437
REMARK UNBOUND:                -0.144
REMARK SMILES [NH3+]CCCC[C@H]([NH3+])C(=O)[O-]
REMARK SMILES IDX 4 1 3 2 2 3 1 4 5 8 6 9 7 10 8 14 9 15 10 16
REMARK H PARENT 1 5 1 6 1 7 7 11 7 12 7 13
REMARK Flexibility Score: inf
ROOT
ATOM      1  C   UNL     1     -19.183  68.622  -1.469  1.00  0.00     0.012 C 
ENDROOT
BRANCH   1   2
ATOM      2  C   UNL     1     -18.761  67.304  -0.797  1.00  0.00     0.061 C 
BRANCH   2   3
ATOM      3  C   UNL     1     -19.462  66.080  -1.411  1.00  0.00     0.258 C 
BRANCH   3   4
ATOM      4  N   UNL     1     -20.640  66.452  -2.198  1.00  0.00    -0.358 N 
ATOM      5  H   UNL     1     -21.174  67.212  -1.717  1.00  0.00     0.344 HD
ATOM      6  H   UNL     1     -20.326  66.812  -3.128  1.00  0.00     0.344 HD
ATOM      7  H   UNL     1     -21.257  65.622  -2.351  1.00  0.00     0.344 HD
ENDBRANCH   3   4
ENDBRANCH   2   3
ENDBRANCH   1   2
BRANCH   1   8
ATOM      8  C   UNL     1     -19.483  69.742  -0.452  1.00  0.00     0.072 C 
BRANCH   8   9
ATOM      9  C   UNL     1     -20.989  69.995  -0.207  1.00  0.00     0.227 C 
BRANCH   9  10
ATOM     10  N   UNL     1     -21.174  71.204   0.606  1.00  0.00    -0.350 N 
ATOM     11  H   UNL     1     -22.161  71.540   0.523  1.00  0.00     0.345 HD
ATOM     12  H   UNL     1     -20.987  70.987   1.613  1.00  0.00     0.345 HD
ATOM     13  H   UNL     1     -20.526  71.965   0.292  1.00  0.00     0.345 HD
ENDBRANCH   9  10
BRANCH   9  14
ATOM     14  C   UNL     1     -21.635  68.817   0.475  1.00  0.00     0.099 C 
ATOM     15  O   UNL     1     -22.473  68.110  -0.144  1.00  0.00    -0.544 OA
ATOM     16  O   UNL     1     -21.308  68.500   1.788  1.00  0.00    -0.544 OA
ENDBRANCH   9  14
ENDBRANCH   8   9
ENDBRANCH   1   8
TORSDOF 7
ENDMDL
MODEL 8
REMARK VINA RESULT:    -3.796     11.538     12.781
REMARK INTER + INTRA:          -5.271
REMARK INTER:                  -5.208
REMARK INTRA:                  -0.063
REMARK UNBOUND:                -0.144
REMARK SMILES [NH3+]CCCC[C@H]([NH3+])C(=O)[O-]
REMARK SMILES IDX 4 1 3 2 2 3 1 4 5 8 6 9 7 10 8 14 9 15 10 16
REMARK H PARENT 1 5 1 6 1 7 7 11 7 12 7 13
REMARK Flexibility Score: inf
ROOT
ATOM      1  C   UNL     1     -17.854  60.776   8.082  1.00  0.00     0.012 C 
ENDROOT
BRANCH   1   2
ATOM      2  C   UNL     1     -17.108  60.956   6.748  1.00  0.00     0.061 C 
BRANCH   2   3
ATOM      3  C   UNL     1     -16.310  59.703   6.348  1.00  0.00     0.258 C 
BRANCH   3   4
ATOM      4  N   UNL     1     -16.360  59.450   4.907  1.00  0.00    -0.358 N 
ATOM      5  H   UNL     1     -16.995  58.645   4.700  1.00  0.00     0.344 HD
ATOM      6  H   UNL     1     -16.741  60.298   4.427  1.00  0.00     0.344 HD
ATOM      7  H   UNL     1     -15.403  59.257   4.534  1.00  0.00     0.344 HD
ENDBRANCH   3   4
ENDBRANCH   2   3
ENDBRANCH   1   2
BRANCH   1   8
ATOM      8  C   UNL     1     -17.878  62.064   8.930  1.00  0.00     0.072 C 
BRANCH   8   9
ATOM      9  C   UNL     1     -17.579  61.845  10.432  1.00  0.00     0.227 C 
BRANCH   9  10
ATOM     10  N   UNL     1     -18.659  61.071  11.056  1.00  0.00    -0.350 N 
ATOM     11  H   UNL     1     -19.347  61.718  11.504  1.00  0.00     0.345 HD
ATOM     12  H   UNL     1     -19.163  60.513  10.327  1.00  0.00     0.345 HD
ATOM     13  H   UNL     1     -18.277  60.420  11.783  1.00  0.00     0.345 HD
ENDBRANCH   9  10
BRANCH   9  14
ATOM     14  C   UNL     1     -17.411  63.159  11.151  1.00  0.00     0.099 C 
ATOM     15  O   UNL     1     -17.039  63.178  12.354  1.00  0.00    -0.544 OA
ATOM     16  O   UNL     1     -17.659  64.356  10.491  1.00  0.00    -0.544 OA
ENDBRANCH   9  14
ENDBRANCH   8   9
ENDBRANCH   1   8
TORSDOF 7
ENDMDL
MODEL 9
REMARK VINA RESULT:    -3.757      2.604      4.373
REMARK INTER + INTRA:          -5.219
REMARK INTER:                  -4.957
REMARK INTRA:                  -0.262
REMARK UNBOUND:                -0.144
REMARK SMILES [NH3+]CCCC[C@H]([NH3+])C(=O)[O-]
REMARK SMILES IDX 4 1 3 2 2 3 1 4 5 8 6 9 7 10 8 14 9 15 10 16
REMARK H PARENT 1 5 1 6 1 7 7 11 7 12 7 13
REMARK Flexibility Score: inf
ROOT
ATOM      1  C   UNL     1     -20.078  69.521  -0.299  1.00  0.00     0.012 C 
ENDROOT
BRANCH   1   2
ATOM      2  C   UNL     1     -18.959  68.783  -1.055  1.00  0.00     0.061 C 
BRANCH   2   3
ATOM      3  C   UNL     1     -18.666  67.394  -0.463  1.00  0.00     0.258 C 
BRANCH   3   4
ATOM      4  N   UNL     1     -19.138  66.311  -1.329  1.00  0.00    -0.358 N 
ATOM      5  H   UNL     1     -19.964  65.836  -0.900  1.00  0.00     0.344 HD
ATOM      6  H   UNL     1     -19.433  66.716  -2.246  1.00  0.00     0.344 HD
ATOM      7  H   UNL     1     -18.374  65.619  -1.499  1.00  0.00     0.344 HD
ENDBRANCH   3   4
ENDBRANCH   2   3
ENDBRANCH   1   2
BRANCH   1   8
ATOM      8  C   UNL     1     -20.923  68.579   0.582  1.00  0.00     0.072 C 
BRANCH   8   9
ATOM      9  C   UNL     1     -22.444  68.640   0.306  1.00  0.00     0.227 C 
BRANCH   9  10
ATOM     10  N   UNL     1     -23.189  68.099   1.449  1.00  0.00    -0.350 N 
ATOM     11  H   UNL     1     -23.728  67.252   1.153  1.00  0.00     0.345 HD
ATOM     12  H   UNL     1     -22.523  67.813   2.204  1.00  0.00     0.345 HD
ATOM     13  H   UNL     1     -23.855  68.811   1.830  1.00  0.00     0.345 HD
ENDBRANCH   9  10
BRANCH   9  14
ATOM     14  C   UNL     1     -22.802  67.879  -0.944  1.00  0.00     0.099 C 
ATOM     15  O   UNL     1     -21.937  67.168  -1.520  1.00  0.00    -0.544 OA
ATOM     16  O   UNL     1     -24.088  67.951  -1.466  1.00  0.00    -0.544 OA
ENDBRANCH   9  14
ENDBRANCH   8   9
ENDBRANCH   1   8
TORSDOF 7
ENDMDL
