MODEL 1
REMARK VINA RESULT:    -3.264      0.000      0.000
REMARK INTER + INTRA:          -4.999
REMARK INTER:                  -4.600
REMARK INTRA:                  -0.399
REMARK UNBOUND:                -0.399
REMARK SMILES CC1=CCC(=C(C)C)CCC(C)=CCC1
REMARK SMILES IDX 5 1 6 2 7 3 8 4 9 5 10 6 11 7 12 8 13 9 4 11 3 12 2 13 1 14
REMARK SMILES IDX 15 15 14 16
REMARK H PARENT
REMARK Flexibility Score: 60.00
ROOT
ATOM      1  C   UNL     1      12.906   4.808  17.477  1.00  0.00    -0.067 C 
ATOM      2  C   UNL     1      11.885   5.699  17.273  1.00  0.00    -0.077 C 
ATOM      3  C   UNL     1      10.875   6.002  18.359  1.00  0.00     0.039 C 
ATOM      4  C   UNL     1      11.727   6.435  15.960  1.00  0.00     0.039 C 
ENDROOT
BRANCH   1   5
ATOM      5  C   UNL     1      12.980   3.943  18.737  1.00  0.00     0.035 C 
BRANCH   5   6
ATOM      6  C   UNL     1      13.874   4.528  19.846  1.00  0.00     0.035 C 
BRANCH   6   7
ATOM      7  C   UNL     1      14.728   3.464  20.510  1.00  0.00    -0.077 C 
ATOM      8  C   UNL     1      14.100   2.605  21.580  1.00  0.00     0.039 C 
ATOM      9  C   UNL     1      16.012   3.213  20.169  1.00  0.00    -0.028 CG0
ATOM     10  G   UNL     1      16.854   4.051  19.240  1.00  0.00     0.000 G0
ENDBRANCH   6   7
ENDBRANCH   5   6
ENDBRANCH   1   5
BRANCH   1  11
ATOM     11  C   UNL     1      13.943   4.514  16.399  1.00  0.00     0.058 C 
BRANCH  11  12
ATOM     12  C   UNL     1      15.232   5.318  16.410  1.00  0.00    -0.024 C 
ATOM     13  C   UNL     1      16.452   4.974  16.896  1.00  0.00    -0.077 C 
ATOM     14  C   UNL     1      17.599   5.916  16.622  1.00  0.00     0.039 C 
BRANCH  13  15
ATOM     15  C   UNL     1      16.735   3.752  17.751  1.00  0.00     0.034 C 
BRANCH  15  16
ATOM     16  C   UNL     1      16.871   4.061  19.247  1.00  0.00     0.032 CG0
ATOM     17  G   UNL     1      16.028   3.198  20.152  1.00  0.00     0.000 G0
ENDBRANCH  15  16
ENDBRANCH  13  15
ENDBRANCH  11  12
ENDBRANCH   1  11
TORSDOF 0
ENDMDL
MODEL 2
REMARK VINA RESULT:    -3.028      2.710      4.437
REMARK INTER + INTRA:          -4.665
REMARK INTER:                  -4.436
REMARK INTRA:                  -0.230
REMARK UNBOUND:                -0.399
REMARK SMILES CC1=CCC(=C(C)C)CCC(C)=CCC1
REMARK SMILES IDX 5 1 6 2 7 3 8 4 9 5 10 6 11 7 12 8 13 9 4 11 3 12 2 13 1 14
REMARK SMILES IDX 15 15 14 16
REMARK H PARENT
REMARK Flexibility Score: 60.00
ROOT
ATOM      1  C   UNL     1      13.423   3.760  18.755  1.00  0.00    -0.067 C 
ATOM      2  C   UNL     1      14.611   3.427  18.157  1.00  0.00    -0.077 C 
ATOM      3  C   UNL     1      15.710   2.727  18.925  1.00  0.00     0.039 C 
ATOM      4  C   UNL     1      14.873   3.730  16.697  1.00  0.00     0.039 C 
ENDROOT
BRANCH   1   5
ATOM      5  C   UNL     1      13.210   3.605  20.262  1.00  0.00     0.035 C 
BRANCH   5   6
ATOM      6  C   UNL     1      13.647   4.832  21.085  1.00  0.00     0.035 C 
BRANCH   6   7
ATOM      7  C   UNL     1      12.512   5.388  21.924  1.00  0.00    -0.077 C 
ATOM      8  C   UNL     1      11.998   4.560  23.076  1.00  0.00     0.039 C 
ATOM      9  C   UNL     1      11.960   6.607  21.725  1.00  0.00    -0.028 CG0
ATOM     10  G   UNL     1      12.229   7.510  20.548  1.00  0.00     0.000 G0
ENDBRANCH   6   7
ENDBRANCH   5   6
ENDBRANCH   1   5
BRANCH   1  11
ATOM     11  C   UNL     1      12.300   4.443  17.985  1.00  0.00     0.058 C 
BRANCH  11  12
ATOM     12  C   UNL     1      12.545   5.847  17.460  1.00  0.00    -0.024 C 
ATOM     13  C   UNL     1      12.258   7.042  18.040  1.00  0.00    -0.077 C 
ATOM     14  C   UNL     1      12.766   8.286  17.353  1.00  0.00     0.039 C 
BRANCH  13  15
ATOM     15  C   UNL     1      11.410   7.222  19.285  1.00  0.00     0.034 C 
BRANCH  15  16
ATOM     16  C   UNL     1      12.222   7.530  20.549  1.00  0.00     0.032 CG0
ATOM     17  G   UNL     1      11.940   6.623  21.721  1.00  0.00     0.000 G0
ENDBRANCH  15  16
ENDBRANCH  13  15
ENDBRANCH  11  12
ENDBRANCH   1  11
TORSDOF 0
ENDMDL
MODEL 3
REMARK VINA RESULT:    -2.983      1.986      4.812
REMARK INTER + INTRA:          -4.602
REMARK INTER:                  -4.311
REMARK INTRA:                  -0.290
REMARK UNBOUND:                -0.399
REMARK SMILES CC1=CCC(=C(C)C)CCC(C)=CCC1
REMARK SMILES IDX 5 1 6 2 7 3 8 4 9 5 10 6 11 7 12 8 13 9 4 11 3 12 2 13 1 14
REMARK SMILES IDX 15 15 14 16
REMARK H PARENT
REMARK Flexibility Score: 60.00
ROOT
ATOM      1  C   UNL     1      13.890   3.488  19.260  1.00  0.00    -0.067 C 
ATOM      2  C   UNL     1      14.099   3.002  20.524  1.00  0.00    -0.077 C 
ATOM      3  C   UNL     1      15.489   2.675  21.023  1.00  0.00     0.039 C 
ATOM      4  C   UNL     1      12.951   2.784  21.487  1.00  0.00     0.039 C 
ENDROOT
BRANCH   1   5
ATOM      5  C   UNL     1      15.018   3.559  18.229  1.00  0.00     0.035 C 
BRANCH   5   6
ATOM      6  C   UNL     1      15.712   4.932  18.154  1.00  0.00     0.035 C 
BRANCH   6   7
ATOM      7  C   UNL     1      16.171   5.262  16.745  1.00  0.00    -0.077 C 
ATOM      8  C   UNL     1      17.485   4.697  16.268  1.00  0.00     0.039 C 
ATOM      9  C   UNL     1      15.447   6.003  15.876  1.00  0.00    -0.028 CG0
ATOM     10  G   UNL     1      14.194   6.773  16.210  1.00  0.00     0.000 G0
ENDBRANCH   6   7
ENDBRANCH   5   6
ENDBRANCH   1   5
BRANCH   1  11
ATOM     11  C   UNL     1      12.497   3.843  18.756  1.00  0.00     0.058 C 
BRANCH  11  12
ATOM     12  C   UNL     1      12.107   5.310  18.707  1.00  0.00    -0.024 C 
ATOM     13  C   UNL     1      12.196   6.187  17.674  1.00  0.00    -0.077 C 
ATOM     14  C   UNL     1      11.579   7.551  17.866  1.00  0.00     0.039 C 
BRANCH  13  15
ATOM     15  C   UNL     1      12.927   5.924  16.370  1.00  0.00     0.034 C 
BRANCH  15  16
ATOM     16  C   UNL     1      14.189   6.776  16.184  1.00  0.00     0.032 CG0
ATOM     17  G   UNL     1      15.439   5.996  15.862  1.00  0.00     0.000 G0
ENDBRANCH  15  16
ENDBRANCH  13  15
ENDBRANCH  11  12
ENDBRANCH   1  11
TORSDOF 0
ENDMDL
MODEL 4
REMARK VINA RESULT:    -2.909      0.906      3.554
REMARK INTER + INTRA:          -4.498
REMARK INTER:                  -4.212
REMARK INTRA:                  -0.287
REMARK UNBOUND:                -0.399
REMARK SMILES CC1=CCC(=C(C)C)CCC(C)=CCC1
REMARK SMILES IDX 5 1 6 2 7 3 8 4 9 5 10 6 11 7 12 8 13 9 4 11 3 12 2 13 1 14
REMARK SMILES IDX 15 15 14 16
REMARK H PARENT
REMARK Flexibility Score: 60.00
ROOT
ATOM      1  C   UNL     1      13.048   5.465  17.988  1.00  0.00    -0.067 C 
ATOM      2  C   UNL     1      11.851   6.034  17.639  1.00  0.00    -0.077 C 
ATOM      3  C   UNL     1      11.393   6.085  16.198  1.00  0.00     0.039 C 
ATOM      4  C   UNL     1      10.923   6.625  18.679  1.00  0.00     0.039 C 
ENDROOT
BRANCH   1   5
ATOM      5  C   UNL     1      14.061   5.013  16.934  1.00  0.00     0.035 C 
BRANCH   5   6
ATOM      6  C   UNL     1      14.750   3.675  17.263  1.00  0.00     0.035 C 
BRANCH   6   7
ATOM      7  C   UNL     1      16.216   3.860  17.608  1.00  0.00    -0.077 C 
ATOM      8  C   UNL     1      17.104   4.566  16.614  1.00  0.00     0.039 C 
ATOM      9  C   UNL     1      16.767   3.462  18.777  1.00  0.00    -0.028 CG0
ATOM     10  G   UNL     1      16.088   2.613  19.823  1.00  0.00     0.000 G0
ENDBRANCH   6   7
ENDBRANCH   5   6
ENDBRANCH   1   5
BRANCH   1  11
ATOM     11  C   UNL     1      13.508   5.388  19.438  1.00  0.00     0.058 C 
BRANCH  11  12
ATOM     12  C   UNL     1      13.136   4.152  20.241  1.00  0.00    -0.024 C 
ATOM     13  C   UNL     1      13.933   3.341  20.984  1.00  0.00    -0.077 C 
ATOM     14  C   UNL     1      13.258   2.273  21.809  1.00  0.00     0.039 C 
BRANCH  13  15
ATOM     15  C   UNL     1      15.450   3.384  20.993  1.00  0.00     0.034 C 
BRANCH  15  16
ATOM     16  C   UNL     1      16.099   2.607  19.840  1.00  0.00     0.032 CG0
ATOM     17  G   UNL     1      16.769   3.464  18.795  1.00  0.00     0.000 G0
ENDBRANCH  15  16
ENDBRANCH  13  15
ENDBRANCH  11  12
ENDBRANCH   1  11
TORSDOF 0
ENDMDL
MODEL 5
REMARK VINA RESULT:    -2.906      2.009      4.502
REMARK INTER + INTRA:          -4.494
REMARK INTER:                  -4.093
REMARK INTRA:                  -0.401
REMARK UNBOUND:                -0.399
REMARK SMILES CC1=CCC(=C(C)C)CCC(C)=CCC1
REMARK SMILES IDX 5 1 6 2 7 3 8 4 9 5 10 6 11 7 12 8 13 9 4 11 3 12 2 13 1 14
REMARK SMILES IDX 15 15 14 16
REMARK H PARENT
REMARK Flexibility Score: 60.00
ROOT
ATOM      1  C   UNL     1      15.824   6.581  16.704  1.00  0.00    -0.067 C 
ATOM      2  C   UNL     1      16.606   7.705  16.777  1.00  0.00    -0.077 C 
ATOM      3  C   UNL     1      16.024   9.084  16.555  1.00  0.00     0.039 C 
ATOM      4  C   UNL     1      18.083   7.621  17.097  1.00  0.00     0.039 C 
ENDROOT
BRANCH   1   5
ATOM      5  C   UNL     1      14.372   6.640  16.224  1.00  0.00     0.035 C 
BRANCH   5   6
ATOM      6  C   UNL     1      13.343   6.784  17.361  1.00  0.00     0.035 C 
BRANCH   6   7
ATOM      7  C   UNL     1      12.186   5.814  17.208  1.00  0.00    -0.077 C 
ATOM      8  C   UNL     1      11.059   6.183  16.275  1.00  0.00     0.039 C 
ATOM      9  C   UNL     1      12.127   4.615  17.830  1.00  0.00    -0.028 CG0
ATOM     10  G   UNL     1      13.070   4.135  18.904  1.00  0.00     0.000 G0
ENDBRANCH   6   7
ENDBRANCH   5   6
ENDBRANCH   1   5
BRANCH   1  11
ATOM     11  C   UNL     1      16.394   5.189  16.948  1.00  0.00     0.058 C 
BRANCH  11  12
ATOM     12  C   UNL     1      16.432   4.674  18.377  1.00  0.00    -0.024 C 
ATOM     13  C   UNL     1      15.592   3.806  18.998  1.00  0.00    -0.077 C 
ATOM     14  C   UNL     1      15.970   3.347  20.385  1.00  0.00     0.039 C 
BRANCH  13  15
ATOM     15  C   UNL     1      14.271   3.318  18.432  1.00  0.00     0.034 C 
BRANCH  15  16
ATOM     16  C   UNL     1      13.056   4.118  18.918  1.00  0.00     0.032 CG0
ATOM     17  G   UNL     1      12.142   4.611  17.825  1.00  0.00     0.000 G0
ENDBRANCH  15  16
ENDBRANCH  13  15
ENDBRANCH  11  12
ENDBRANCH   1  11
TORSDOF 0
ENDMDL
MODEL 6
REMARK VINA RESULT:    -2.886      2.337      4.185
REMARK INTER + INTRA:          -4.466
REMARK INTER:                  -4.237
REMARK INTRA:                  -0.228
REMARK UNBOUND:                -0.399
REMARK SMILES CC1=CCC(=C(C)C)CCC(C)=CCC1
REMARK SMILES IDX 5 1 6 2 7 3 8 4 9 5 10 6 11 7 12 8 13 9 4 11 3 12 2 13 1 14
REMARK SMILES IDX 15 15 14 16
REMARK H PARENT
REMARK Flexibility Score: 60.00
ROOT
ATOM      1  C   UNL     1      13.592   5.482  17.868  1.00  0.00    -0.067 C 
ATOM      2  C   UNL     1      14.397   5.635  16.770  1.00  0.00    -0.077 C 
ATOM      3  C   UNL     1      14.874   7.001  16.327  1.00  0.00     0.039 C 
ATOM      4  C   UNL     1      14.861   4.445  15.957  1.00  0.00     0.039 C 
ENDROOT
BRANCH   1   5
ATOM      5  C   UNL     1      12.988   6.684  18.597  1.00  0.00     0.035 C 
BRANCH   5   6
ATOM      6  C   UNL     1      11.799   6.331  19.509  1.00  0.00     0.035 C 
BRANCH   6   7
ATOM      7  C   UNL     1      11.992   6.847  20.923  1.00  0.00    -0.077 C 
ATOM      8  C   UNL     1      11.630   8.281  21.219  1.00  0.00     0.039 C 
ATOM      9  C   UNL     1      12.434   6.081  21.946  1.00  0.00    -0.028 CG0
ATOM     10  G   UNL     1      12.985   4.683  21.823  1.00  0.00     0.000 G0
ENDBRANCH   6   7
ENDBRANCH   5   6
ENDBRANCH   1   5
BRANCH   1  11
ATOM     11  C   UNL     1      13.125   4.109  18.337  1.00  0.00     0.058 C 
BRANCH  11  12
ATOM     12  C   UNL     1      14.118   3.234  19.083  1.00  0.00    -0.024 C 
ATOM     13  C   UNL     1      14.600   3.369  20.346  1.00  0.00    -0.077 C 
ATOM     14  C   UNL     1      15.458   2.251  20.884  1.00  0.00     0.039 C 
BRANCH  13  15
ATOM     15  C   UNL     1      14.398   4.587  21.228  1.00  0.00     0.034 C 
BRANCH  15  16
ATOM     16  C   UNL     1      12.997   4.680  21.847  1.00  0.00     0.032 CG0
ATOM     17  G   UNL     1      12.434   6.076  21.937  1.00  0.00     0.000 G0
ENDBRANCH  15  16
ENDBRANCH  13  15
ENDBRANCH  11  12
ENDBRANCH   1  11
TORSDOF 0
ENDMDL
MODEL 7
REMARK VINA RESULT:    -2.885      1.488      3.657
REMARK INTER + INTRA:          -4.465
REMARK INTER:                  -4.201
REMARK INTRA:                  -0.264
REMARK UNBOUND:                -0.399
REMARK SMILES CC1=CCC(=C(C)C)CCC(C)=CCC1
REMARK SMILES IDX 5 1 6 2 7 3 8 4 9 5 10 6 11 7 12 8 13 9 4 11 3 12 2 13 1 14
REMARK SMILES IDX 15 15 14 16
REMARK H PARENT
REMARK Flexibility Score: 60.00
ROOT
ATOM      1  C   UNL     1      14.694   5.660  16.556  1.00  0.00    -0.067 C 
ATOM      2  C   UNL     1      13.953   6.794  16.765  1.00  0.00    -0.077 C 
ATOM      3  C   UNL     1      14.536   8.171  16.531  1.00  0.00     0.039 C 
ATOM      4  C   UNL     1      12.512   6.724  17.225  1.00  0.00     0.039 C 
ENDROOT
BRANCH   1   5
ATOM      5  C   UNL     1      16.192   5.723  16.249  1.00  0.00     0.035 C 
BRANCH   5   6
ATOM      6  C   UNL     1      17.092   5.573  17.490  1.00  0.00     0.035 C 
BRANCH   6   7
ATOM      7  C   UNL     1      18.042   4.396  17.365  1.00  0.00    -0.077 C 
ATOM      8  C   UNL     1      19.070   4.419  16.261  1.00  0.00     0.039 C 
ATOM      9  C   UNL     1      18.048   3.344  18.214  1.00  0.00    -0.028 CG0
ATOM     10  G   UNL     1      17.014   3.067  19.276  1.00  0.00     0.000 G0
ENDBRANCH   6   7
ENDBRANCH   5   6
ENDBRANCH   1   5
BRANCH   1  11
ATOM     11  C   UNL     1      14.109   4.269  16.766  1.00  0.00     0.058 C 
BRANCH  11  12
ATOM     12  C   UNL     1      13.749   3.852  18.182  1.00  0.00    -0.024 C 
ATOM     13  C   UNL     1      14.471   3.122  19.071  1.00  0.00    -0.077 C 
ATOM     14  C   UNL     1      13.925   2.998  20.472  1.00  0.00     0.039 C 
BRANCH  13  15
ATOM     15  C   UNL     1      15.746   2.368  18.744  1.00  0.00     0.034 C 
BRANCH  15  16
ATOM     16  C   UNL     1      17.019   3.042  19.273  1.00  0.00     0.032 CG0
ATOM     17  G   UNL     1      18.054   3.356  18.223  1.00  0.00     0.000 G0
ENDBRANCH  15  16
ENDBRANCH  13  15
ENDBRANCH  11  12
ENDBRANCH   1  11
TORSDOF 0
ENDMDL
MODEL 8
REMARK VINA RESULT:    -2.836      2.749      4.846
REMARK INTER + INTRA:          -4.395
REMARK INTER:                  -4.156
REMARK INTRA:                  -0.239
REMARK UNBOUND:                -0.399
REMARK SMILES CC1=CCC(=C(C)C)CCC(C)=CCC1
REMARK SMILES IDX 5 1 6 2 7 3 8 4 9 5 10 6 11 7 12 8 13 9 4 11 3 12 2 13 1 14
REMARK SMILES IDX 15 15 14 16
REMARK H PARENT
REMARK Flexibility Score: 60.00
ROOT
ATOM      1  C   UNL     1      12.728   5.031  19.904  1.00  0.00    -0.067 C 
ATOM      2  C   UNL     1      13.531   4.540  20.900  1.00  0.00    -0.077 C 
ATOM      3  C   UNL     1      13.777   5.322  22.172  1.00  0.00     0.039 C 
ATOM      4  C   UNL     1      14.198   3.186  20.783  1.00  0.00     0.039 C 
ENDROOT
BRANCH   1   5
ATOM      5  C   UNL     1      12.183   6.460  19.942  1.00  0.00     0.035 C 
BRANCH   5   6
ATOM      6  C   UNL     1      13.169   7.520  19.418  1.00  0.00     0.035 C 
BRANCH   6   7
ATOM      7  C   UNL     1      12.532   8.430  18.384  1.00  0.00    -0.077 C 
ATOM      8  C   UNL     1      11.488   9.416  18.843  1.00  0.00     0.039 C 
ATOM      9  C   UNL     1      12.879   8.437  17.077  1.00  0.00    -0.028 CG0
ATOM     10  G   UNL     1      13.783   7.435  16.403  1.00  0.00     0.000 G0
ENDBRANCH   6   7
ENDBRANCH   5   6
ENDBRANCH   1   5
BRANCH   1  11
ATOM     11  C   UNL     1      12.455   4.241  18.630  1.00  0.00     0.058 C 
BRANCH  11  12
ATOM     12  C   UNL     1      13.589   4.080  17.632  1.00  0.00    -0.024 C 
ATOM     13  C   UNL     1      13.953   4.896  16.609  1.00  0.00    -0.077 C 
ATOM     14  C   UNL     1      15.229   4.563  15.877  1.00  0.00     0.039 C 
BRANCH  13  15
ATOM     15  C   UNL     1      13.139   6.073  16.104  1.00  0.00     0.034 C 
BRANCH  15  16
ATOM     16  C   UNL     1      13.783   7.437  16.385  1.00  0.00     0.032 CG0
ATOM     17  G   UNL     1      12.884   8.433  17.075  1.00  0.00     0.000 G0
ENDBRANCH  15  16
ENDBRANCH  13  15
ENDBRANCH  11  12
ENDBRANCH   1  11
TORSDOF 0
ENDMDL
MODEL 9
REMARK VINA RESULT:    -2.809      1.986      4.291
REMARK INTER + INTRA:          -4.357
REMARK INTER:                  -4.119
REMARK INTRA:                  -0.238
REMARK UNBOUND:                -0.399
REMARK SMILES CC1=CCC(=C(C)C)CCC(C)=CCC1
REMARK SMILES IDX 5 1 6 2 7 3 8 4 9 5 10 6 11 7 12 8 13 9 4 11 3 12 2 13 1 14
REMARK SMILES IDX 15 15 14 16
REMARK H PARENT
REMARK Flexibility Score: 60.00
ROOT
ATOM      1  C   UNL     1      14.675   3.592  19.483  1.00  0.00    -0.067 C 
ATOM      2  C   UNL     1      15.397   3.452  20.639  1.00  0.00    -0.077 C 
ATOM      3  C   UNL     1      14.766   3.681  21.996  1.00  0.00     0.039 C 
ATOM      4  C   UNL     1      16.856   3.047  20.617  1.00  0.00     0.039 C 
ENDROOT
BRANCH   1   5
ATOM      5  C   UNL     1      13.252   4.156  19.487  1.00  0.00     0.035 C 
BRANCH   5   6
ATOM      6  C   UNL     1      13.162   5.630  19.049  1.00  0.00     0.035 C 
BRANCH   6   7
ATOM      7  C   UNL     1      12.355   5.797  17.775  1.00  0.00    -0.077 C 
ATOM      8  C   UNL     1      10.918   5.337  17.770  1.00  0.00     0.039 C 
ATOM      9  C   UNL     1      12.838   6.375  16.652  1.00  0.00    -0.028 CG0
ATOM     10  G   UNL     1      14.277   6.757  16.411  1.00  0.00     0.000 G0
ENDBRANCH   6   7
ENDBRANCH   5   6
ENDBRANCH   1   5
BRANCH   1  11
ATOM     11  C   UNL     1      15.294   3.341  18.114  1.00  0.00     0.058 C 
BRANCH  11  12
ATOM     12  C   UNL     1      16.406   4.267  17.652  1.00  0.00    -0.024 C 
ATOM     13  C   UNL     1      16.351   5.299  16.771  1.00  0.00    -0.077 C 
ATOM     14  C   UNL     1      17.587   6.152  16.625  1.00  0.00     0.039 C 
BRANCH  13  15
ATOM     15  C   UNL     1      15.168   5.617  15.876  1.00  0.00     0.034 C 
BRANCH  15  16
ATOM     16  C   UNL     1      14.279   6.752  16.402  1.00  0.00     0.032 CG0
ATOM     17  G   UNL     1      12.841   6.369  16.650  1.00  0.00     0.000 G0
ENDBRANCH  15  16
ENDBRANCH  13  15
ENDBRANCH  11  12
ENDBRANCH   1  11
TORSDOF 0
ENDMDL
