MODEL 1
REMARK VINA RESULT:    -6.082      0.000      0.000
REMARK INTER + INTRA:          -7.053
REMARK INTER:                  -6.970
REMARK INTRA:                  -0.083
REMARK UNBOUND:                -0.083
REMARK SMILES COc1cc(C(=O)[O-])ccc1O
REMARK SMILES IDX 5 1 9 2 4 3 10 4 3 5 11 6 6 7 7 8 8 9 2 10 1 11 12 12
REMARK H PARENT 12 13
REMARK Flexibility Score: inf
ROOT
ATOM      1  C   UNL     1       5.363 -13.936  10.510  1.00  0.00     0.001 A 
ATOM      2  C   UNL     1       5.485 -12.757  11.263  1.00  0.00     0.014 A 
ATOM      3  C   UNL     1       4.234 -14.753  10.696  1.00  0.00     0.060 A 
ATOM      4  C   UNL     1       4.498 -12.402  12.184  1.00  0.00     0.051 A 
ATOM      5  C   UNL     1       3.234 -14.399  11.625  1.00  0.00     0.161 A 
ATOM      6  C   UNL     1       3.376 -13.214  12.369  1.00  0.00     0.157 A 
ENDROOT
BRANCH   1   7
ATOM      7  C   UNL     1       6.407 -14.315   9.532  1.00  0.00     0.072 C 
ATOM      8  O   UNL     1       6.483 -15.496   9.101  1.00  0.00    -0.545 OA
ATOM      9  O   UNL     1       7.320 -13.372   9.074  1.00  0.00    -0.545 OA
ENDBRANCH   1   7
BRANCH   5  10
ATOM     10  O   UNL     1       2.096 -15.195  11.832  1.00  0.00    -0.493 OA
ATOM     11  C   UNL     1       2.079 -16.617  11.761  1.00  0.00     0.278 C 
ENDBRANCH   5  10
BRANCH   6  12
ATOM     12  O   UNL     1       2.410 -12.826  13.298  1.00  0.00    -0.504 OA
ATOM     13  H   UNL     1       1.931 -13.494  13.890  1.00  0.00     0.293 HD
ENDBRANCH   6  12
TORSDOF 3
ENDMDL
MODEL 2
REMARK VINA RESULT:    -5.890      1.797      2.817
REMARK INTER + INTRA:          -6.834
REMARK INTER:                  -6.741
REMARK INTRA:                  -0.093
REMARK UNBOUND:                -0.083
REMARK SMILES COc1cc(C(=O)[O-])ccc1O
REMARK SMILES IDX 5 1 9 2 4 3 10 4 3 5 11 6 6 7 7 8 8 9 2 10 1 11 12 12
REMARK H PARENT 12 13
REMARK Flexibility Score: inf
ROOT
ATOM      1  C   UNL     1       5.132 -13.302  11.201  1.00  0.00     0.001 A 
ATOM      2  C   UNL     1       5.800 -14.481  10.831  1.00  0.00     0.014 A 
ATOM      3  C   UNL     1       3.847 -13.391  11.763  1.00  0.00     0.060 A 
ATOM      4  C   UNL     1       5.193 -15.724  11.019  1.00  0.00     0.051 A 
ATOM      5  C   UNL     1       3.229 -14.645  11.955  1.00  0.00     0.161 A 
ATOM      6  C   UNL     1       3.915 -15.813  11.578  1.00  0.00     0.157 A 
ENDROOT
BRANCH   1   7
ATOM      7  C   UNL     1       5.772 -11.982  11.003  1.00  0.00     0.072 C 
ATOM      8  O   UNL     1       6.093 -11.593   9.849  1.00  0.00    -0.545 OA
ATOM      9  O   UNL     1       6.026 -11.152  12.089  1.00  0.00    -0.545 OA
ENDBRANCH   1   7
BRANCH   5  10
ATOM     10  O   UNL     1       1.947 -14.764  12.514  1.00  0.00    -0.493 OA
ATOM     11  C   UNL     1       0.732 -14.694  11.774  1.00  0.00     0.278 C 
ENDBRANCH   5  10
BRANCH   6  12
ATOM     12  O   UNL     1       3.342 -17.073  11.751  1.00  0.00    -0.504 OA
ATOM     13  H   UNL     1       2.759 -17.503  11.042  1.00  0.00     0.293 HD
ENDBRANCH   6  12
TORSDOF 3
ENDMDL
MODEL 3
REMARK VINA RESULT:    -5.643      1.375      4.164
REMARK INTER + INTRA:          -6.550
REMARK INTER:                  -6.473
REMARK INTRA:                  -0.077
REMARK UNBOUND:                -0.083
REMARK SMILES COc1cc(C(=O)[O-])ccc1O
REMARK SMILES IDX 5 1 9 2 4 3 10 4 3 5 11 6 6 7 7 8 8 9 2 10 1 11 12 12
REMARK H PARENT 12 13
REMARK Flexibility Score: inf
ROOT
ATOM      1  C   UNL     1       4.362 -14.425  11.429  1.00  0.00     0.001 A 
ATOM      2  C   UNL     1       4.118 -13.176  12.022  1.00  0.00     0.014 A 
ATOM      3  C   UNL     1       5.368 -14.534  10.453  1.00  0.00     0.060 A 
ATOM      4  C   UNL     1       4.865 -12.057  11.646  1.00  0.00     0.051 A 
ATOM      5  C   UNL     1       6.126 -13.408  10.070  1.00  0.00     0.161 A 
ATOM      6  C   UNL     1       5.865 -12.166  10.677  1.00  0.00     0.157 A 
ENDROOT
BRANCH   1   7
ATOM      7  C   UNL     1       3.573 -15.612  11.825  1.00  0.00     0.072 C 
ATOM      8  O   UNL     1       4.110 -16.750  11.878  1.00  0.00    -0.545 OA
ATOM      9  O   UNL     1       2.226 -15.488  12.146  1.00  0.00    -0.545 OA
ENDBRANCH   1   7
BRANCH   5  10
ATOM     10  O   UNL     1       7.137 -13.487   9.099  1.00  0.00    -0.493 OA
ATOM     11  C   UNL     1       7.477 -14.668   8.379  1.00  0.00     0.278 C 
ENDBRANCH   5  10
BRANCH   6  12
ATOM     12  O   UNL     1       6.591 -11.027  10.327  1.00  0.00    -0.504 OA
ATOM     13  H   UNL     1       7.506 -10.830  10.715  1.00  0.00     0.293 HD
ENDBRANCH   6  12
TORSDOF 3
ENDMDL
MODEL 4
REMARK VINA RESULT:    -5.509      1.399      4.972
REMARK INTER + INTRA:          -6.397
REMARK INTER:                  -6.310
REMARK INTRA:                  -0.087
REMARK UNBOUND:                -0.083
REMARK SMILES COc1cc(C(=O)[O-])ccc1O
REMARK SMILES IDX 5 1 9 2 4 3 10 4 3 5 11 6 6 7 7 8 8 9 2 10 1 11 12 12
REMARK H PARENT 12 13
REMARK Flexibility Score: inf
ROOT
ATOM      1  C   UNL     1       3.680 -13.701  11.919  1.00  0.00     0.001 A 
ATOM      2  C   UNL     1       4.124 -14.741  11.085  1.00  0.00     0.014 A 
ATOM      3  C   UNL     1       4.375 -12.479  11.917  1.00  0.00     0.060 A 
ATOM      4  C   UNL     1       5.240 -14.562  10.266  1.00  0.00     0.051 A 
ATOM      5  C   UNL     1       5.504 -12.293  11.091  1.00  0.00     0.161 A 
ATOM      6  C   UNL     1       5.930 -13.347  10.264  1.00  0.00     0.157 A 
ENDROOT
BRANCH   1   7
ATOM      7  C   UNL     1       2.497 -13.887  12.788  1.00  0.00     0.072 C 
ATOM      8  O   UNL     1       2.086 -12.948  13.520  1.00  0.00    -0.545 OA
ATOM      9  O   UNL     1       1.821 -15.101  12.807  1.00  0.00    -0.545 OA
ENDBRANCH   1   7
BRANCH   5  10
ATOM     10  O   UNL     1       6.217 -11.084  11.069  1.00  0.00    -0.493 OA
ATOM     11  C   UNL     1       6.596 -10.346  12.226  1.00  0.00     0.278 C 
ENDBRANCH   5  10
BRANCH   6  12
ATOM     12  O   UNL     1       7.041 -13.206   9.432  1.00  0.00    -0.504 OA
ATOM     13  H   UNL     1       7.987 -13.352   9.764  1.00  0.00     0.293 HD
ENDBRANCH   6  12
TORSDOF 3
ENDMDL
MODEL 5
REMARK VINA RESULT:    -5.471      1.554      4.132
REMARK INTER + INTRA:          -6.354
REMARK INTER:                  -6.272
REMARK INTRA:                  -0.082
REMARK UNBOUND:                -0.083
REMARK SMILES COc1cc(C(=O)[O-])ccc1O
REMARK SMILES IDX 5 1 9 2 4 3 10 4 3 5 11 6 6 7 7 8 8 9 2 10 1 11 12 12
REMARK H PARENT 12 13
REMARK Flexibility Score: inf
ROOT
ATOM      1  C   UNL     1       2.711 -15.325  11.564  1.00  0.00     0.001 A 
ATOM      2  C   UNL     1       2.440 -14.372  12.560  1.00  0.00     0.014 A 
ATOM      3  C   UNL     1       3.771 -15.095  10.669  1.00  0.00     0.060 A 
ATOM      4  C   UNL     1       3.212 -13.213  12.658  1.00  0.00     0.051 A 
ATOM      5  C   UNL     1       4.555 -13.926  10.764  1.00  0.00     0.161 A 
ATOM      6  C   UNL     1       4.265 -12.986  11.769  1.00  0.00     0.157 A 
ENDROOT
BRANCH   1   7
ATOM      7  C   UNL     1       1.895 -16.554  11.457  1.00  0.00     0.072 C 
ATOM      8  O   UNL     1       2.196 -17.582  12.120  1.00  0.00    -0.545 OA
ATOM      9  O   UNL     1       0.782 -16.592  10.624  1.00  0.00    -0.545 OA
ENDBRANCH   1   7
BRANCH   5  10
ATOM     10  O   UNL     1       5.618 -13.671   9.884  1.00  0.00    -0.493 OA
ATOM     11  C   UNL     1       6.642 -14.606   9.559  1.00  0.00     0.278 C 
ENDBRANCH   5  10
BRANCH   6  12
ATOM     12  O   UNL     1       5.015 -11.816  11.899  1.00  0.00    -0.504 OA
ATOM     13  H   UNL     1       5.233 -11.224  11.107  1.00  0.00     0.293 HD
ENDBRANCH   6  12
TORSDOF 3
ENDMDL
MODEL 6
REMARK VINA RESULT:    -5.352      1.848      3.273
REMARK INTER + INTRA:          -6.217
REMARK INTER:                  -6.118
REMARK INTRA:                  -0.099
REMARK UNBOUND:                -0.083
REMARK SMILES COc1cc(C(=O)[O-])ccc1O
REMARK SMILES IDX 5 1 9 2 4 3 10 4 3 5 11 6 6 7 7 8 8 9 2 10 1 11 12 12
REMARK H PARENT 12 13
REMARK Flexibility Score: inf
ROOT
ATOM      1  C   UNL     1       6.539 -14.252   9.570  1.00  0.00     0.001 A 
ATOM      2  C   UNL     1       5.933 -15.302  10.280  1.00  0.00     0.014 A 
ATOM      3  C   UNL     1       6.336 -12.929  10.001  1.00  0.00     0.060 A 
ATOM      4  C   UNL     1       5.139 -15.034  11.397  1.00  0.00     0.051 A 
ATOM      5  C   UNL     1       5.535 -12.652  11.129  1.00  0.00     0.161 A 
ATOM      6  C   UNL     1       4.937 -13.719  11.824  1.00  0.00     0.157 A 
ENDROOT
BRANCH   1   7
ATOM      7  C   UNL     1       7.381 -14.532   8.387  1.00  0.00     0.072 C 
ATOM      8  O   UNL     1       7.042 -15.414   7.554  1.00  0.00    -0.545 OA
ATOM      9  O   UNL     1       8.559 -13.825   8.176  1.00  0.00    -0.545 OA
ENDBRANCH   1   7
BRANCH   5  10
ATOM     10  O   UNL     1       5.314 -11.342  11.581  1.00  0.00    -0.493 OA
ATOM     11  C   UNL     1       6.262 -10.567  12.308  1.00  0.00     0.278 C 
ENDBRANCH   5  10
BRANCH   6  12
ATOM     12  O   UNL     1       4.138 -13.491  12.945  1.00  0.00    -0.504 OA
ATOM     13  H   UNL     1       4.361 -12.781  13.632  1.00  0.00     0.293 HD
ENDBRANCH   6  12
TORSDOF 3
ENDMDL
MODEL 7
REMARK VINA RESULT:    -5.249      2.078      2.572
REMARK INTER + INTRA:          -6.099
REMARK INTER:                  -5.997
REMARK INTRA:                  -0.102
REMARK UNBOUND:                -0.083
REMARK SMILES COc1cc(C(=O)[O-])ccc1O
REMARK SMILES IDX 5 1 9 2 4 3 10 4 3 5 11 6 6 7 7 8 8 9 2 10 1 11 12 12
REMARK H PARENT 12 13
REMARK Flexibility Score: inf
ROOT
ATOM      1  C   UNL     1       4.139 -14.575  11.965  1.00  0.00     0.001 A 
ATOM      2  C   UNL     1       3.524 -13.699  12.875  1.00  0.00     0.014 A 
ATOM      3  C   UNL     1       3.354 -15.196  10.978  1.00  0.00     0.060 A 
ATOM      4  C   UNL     1       2.152 -13.450  12.799  1.00  0.00     0.051 A 
ATOM      5  C   UNL     1       1.968 -14.948  10.896  1.00  0.00     0.161 A 
ATOM      6  C   UNL     1       1.373 -14.068  11.818  1.00  0.00     0.157 A 
ENDROOT
BRANCH   1   7
ATOM      7  C   UNL     1       5.592 -14.840  12.042  1.00  0.00     0.072 C 
ATOM      8  O   UNL     1       6.267 -14.433  13.025  1.00  0.00    -0.545 OA
ATOM      9  O   UNL     1       6.235 -15.545  11.032  1.00  0.00    -0.545 OA
ENDBRANCH   1   7
BRANCH   5  10
ATOM     10  O   UNL     1       1.160 -15.554   9.921  1.00  0.00    -0.493 OA
ATOM     11  C   UNL     1       0.590 -16.854  10.037  1.00  0.00     0.278 C 
ENDBRANCH   5  10
BRANCH   6  12
ATOM     12  O   UNL     1       0.006 -13.794  11.773  1.00  0.00    -0.504 OA
ATOM     13  H   UNL     1      -0.370 -13.001  11.267  1.00  0.00     0.293 HD
ENDBRANCH   6  12
TORSDOF 3
ENDMDL
MODEL 8
REMARK VINA RESULT:    -5.047      2.290      4.786
REMARK INTER + INTRA:          -5.868
REMARK INTER:                  -5.780
REMARK INTRA:                  -0.088
REMARK UNBOUND:                -0.083
REMARK SMILES COc1cc(C(=O)[O-])ccc1O
REMARK SMILES IDX 5 1 9 2 4 3 10 4 3 5 11 6 6 7 7 8 8 9 2 10 1 11 12 12
REMARK H PARENT 12 13
REMARK Flexibility Score: inf
ROOT
ATOM      1  C   UNL     1       2.092 -14.898  11.509  1.00  0.00     0.001 A 
ATOM      2  C   UNL     1       2.792 -16.108  11.371  1.00  0.00     0.014 A 
ATOM      3  C   UNL     1       2.774 -13.765  11.986  1.00  0.00     0.060 A 
ATOM      4  C   UNL     1       4.146 -16.183  11.704  1.00  0.00     0.051 A 
ATOM      5  C   UNL     1       4.142 -13.835  12.323  1.00  0.00     0.161 A 
ATOM      6  C   UNL     1       4.823 -15.057  12.176  1.00  0.00     0.157 A 
ENDROOT
BRANCH   1   7
ATOM      7  C   UNL     1       0.657 -14.815  11.158  1.00  0.00     0.072 C 
ATOM      8  O   UNL     1      -0.090 -13.966  11.712  1.00  0.00    -0.545 OA
ATOM      9  O   UNL     1       0.113 -15.673  10.209  1.00  0.00    -0.545 OA
ENDBRANCH   1   7
BRANCH   5  10
ATOM     10  O   UNL     1       4.848 -12.719  12.800  1.00  0.00    -0.493 OA
ATOM     11  C   UNL     1       5.545 -11.790  11.977  1.00  0.00     0.278 C 
ENDBRANCH   5  10
BRANCH   6  12
ATOM     12  O   UNL     1       6.176 -15.170  12.498  1.00  0.00    -0.504 OA
ATOM     13  H   UNL     1       6.648 -16.066  12.539  1.00  0.00     0.293 HD
ENDBRANCH   6  12
TORSDOF 3
ENDMDL
MODEL 9
REMARK VINA RESULT:    -4.949      1.985      3.902
REMARK INTER + INTRA:          -5.755
REMARK INTER:                  -5.681
REMARK INTRA:                  -0.075
REMARK UNBOUND:                -0.083
REMARK SMILES COc1cc(C(=O)[O-])ccc1O
REMARK SMILES IDX 5 1 9 2 4 3 10 4 3 5 11 6 6 7 7 8 8 9 2 10 1 11 12 12
REMARK H PARENT 12 13
REMARK Flexibility Score: inf
ROOT
ATOM      1  C   UNL     1       5.354 -12.729  12.050  1.00  0.00     0.001 A 
ATOM      2  C   UNL     1       4.123 -13.161  12.570  1.00  0.00     0.014 A 
ATOM      3  C   UNL     1       5.969 -13.481  11.034  1.00  0.00     0.060 A 
ATOM      4  C   UNL     1       3.520 -14.322  12.084  1.00  0.00     0.051 A 
ATOM      5  C   UNL     1       5.364 -14.655  10.539  1.00  0.00     0.161 A 
ATOM      6  C   UNL     1       4.131 -15.069  11.073  1.00  0.00     0.157 A 
ENDROOT
BRANCH   1   7
ATOM      7  C   UNL     1       5.996 -11.499  12.563  1.00  0.00     0.072 C 
ATOM      8  O   UNL     1       6.243 -10.534  11.791  1.00  0.00    -0.545 OA
ATOM      9  O   UNL     1       6.336 -11.388  13.907  1.00  0.00    -0.545 OA
ENDBRANCH   1   7
BRANCH   5  10
ATOM     10  O   UNL     1       5.954 -15.425   9.525  1.00  0.00    -0.493 OA
ATOM     11  C   UNL     1       7.050 -15.000   8.720  1.00  0.00     0.278 C 
ENDBRANCH   5  10
BRANCH   6  12
ATOM     12  O   UNL     1       3.497 -16.224  10.613  1.00  0.00    -0.504 OA
ATOM     13  H   UNL     1       3.142 -16.304   9.667  1.00  0.00     0.293 HD
ENDBRANCH   6  12
TORSDOF 3
ENDMDL
