MODEL 1
REMARK VINA RESULT:    -5.276      0.000      0.000
REMARK INTER + INTRA:          -6.381
REMARK INTER:                  -6.047
REMARK INTRA:                  -0.334
REMARK UNBOUND:                -0.334
REMARK SMILES COc1ccc(C(C)=O)c(O)c1
REMARK SMILES IDX 6 1 10 2 12 3 3 4 4 5 5 6 7 7 8 8 9 9 11 10 2 12 1 13
REMARK H PARENT 11 11
REMARK Flexibility Score: inf
ROOT
ATOM      1  C   UNL     1       7.136   6.160  -2.148  1.00  0.00     0.059 A 
ATOM      2  C   UNL     1       5.781   6.254  -2.543  1.00  0.00     0.130 A 
ATOM      3  C   UNL     1       4.770   5.782  -1.692  1.00  0.00     0.093 A 
ATOM      4  C   UNL     1       5.080   5.201  -0.459  1.00  0.00     0.122 A 
ATOM      5  C   UNL     1       6.425   5.090  -0.075  1.00  0.00     0.047 A 
ATOM      6  C   UNL     1       7.440   5.562  -0.912  1.00  0.00     0.019 A 
ENDROOT
BRANCH   1   7
ATOM      7  C   UNL     1       8.253   6.657  -2.996  1.00  0.00     0.163 C 
ATOM      8  C   UNL     1       9.367   7.496  -2.448  1.00  0.00     0.093 C 
ATOM      9  O   UNL     1       8.272   6.368  -4.223  1.00  0.00    -0.294 OA
ENDBRANCH   1   7
BRANCH   2  10
ATOM     10  O   UNL     1       5.432   6.791  -3.782  1.00  0.00    -0.507 OA
ATOM     11  H   UNL     1       4.507   6.666  -4.176  1.00  0.00     0.293 HD
ENDBRANCH   2  10
BRANCH   4  12
ATOM     12  O   UNL     1       4.025   4.747   0.348  1.00  0.00    -0.497 OA
ATOM     13  C   UNL     1       3.438   3.454   0.249  1.00  0.00     0.278 C 
ENDBRANCH   4  12
TORSDOF 3
ENDMDL
MODEL 2
REMARK VINA RESULT:    -5.164      2.573      3.221
REMARK INTER + INTRA:          -6.252
REMARK INTER:                  -5.909
REMARK INTRA:                  -0.344
REMARK UNBOUND:                -0.334
REMARK SMILES COc1ccc(C(C)=O)c(O)c1
REMARK SMILES IDX 6 1 10 2 12 3 3 4 4 5 5 6 7 7 8 8 9 9 11 10 2 12 1 13
REMARK H PARENT 11 11
REMARK Flexibility Score: inf
ROOT
ATOM      1  C   UNL     1       8.617   5.885  -1.217  1.00  0.00     0.059 A 
ATOM      2  C   UNL     1       7.495   5.602  -0.403  1.00  0.00     0.130 A 
ATOM      3  C   UNL     1       7.549   4.548   0.522  1.00  0.00     0.093 A 
ATOM      4  C   UNL     1       8.692   3.755   0.643  1.00  0.00     0.122 A 
ATOM      5  C   UNL     1       9.800   4.022  -0.177  1.00  0.00     0.047 A 
ATOM      6  C   UNL     1       9.760   5.073  -1.097  1.00  0.00     0.019 A 
ENDROOT
BRANCH   1   7
ATOM      7  C   UNL     1       8.631   6.998  -2.203  1.00  0.00     0.163 C 
ATOM      8  C   UNL     1       9.735   8.010  -2.259  1.00  0.00     0.093 C 
ATOM      9  O   UNL     1       7.682   7.104  -3.027  1.00  0.00    -0.294 OA
ENDBRANCH   1   7
BRANCH   2  10
ATOM     10  O   UNL     1       6.320   6.345  -0.522  1.00  0.00    -0.507 OA
ATOM     11  H   UNL     1       5.457   5.929  -0.852  1.00  0.00     0.293 HD
ENDBRANCH   2  10
BRANCH   4  12
ATOM     12  O   UNL     1       8.686   2.715   1.585  1.00  0.00    -0.497 OA
ATOM     13  C   UNL     1       7.518   2.232   2.241  1.00  0.00     0.278 C 
ENDBRANCH   4  12
TORSDOF 3
ENDMDL
MODEL 3
REMARK VINA RESULT:    -5.070      2.178      4.541
REMARK INTER + INTRA:          -6.145
REMARK INTER:                  -5.803
REMARK INTRA:                  -0.342
REMARK UNBOUND:                -0.334
REMARK SMILES COc1ccc(C(C)=O)c(O)c1
REMARK SMILES IDX 6 1 10 2 12 3 3 4 4 5 5 6 7 7 8 8 9 9 11 10 2 12 1 13
REMARK H PARENT 11 11
REMARK Flexibility Score: inf
ROOT
ATOM      1  C   UNL     1       5.952   4.461  -3.040  1.00  0.00     0.059 A 
ATOM      2  C   UNL     1       5.670   5.760  -3.521  1.00  0.00     0.130 A 
ATOM      3  C   UNL     1       6.630   6.777  -3.395  1.00  0.00     0.093 A 
ATOM      4  C   UNL     1       7.862   6.531  -2.784  1.00  0.00     0.122 A 
ATOM      5  C   UNL     1       8.135   5.246  -2.288  1.00  0.00     0.047 A 
ATOM      6  C   UNL     1       7.189   4.226  -2.413  1.00  0.00     0.019 A 
ENDROOT
BRANCH   1   7
ATOM      7  C   UNL     1       4.985   3.336  -3.159  1.00  0.00     0.163 C 
ATOM      8  C   UNL     1       5.364   2.007  -3.737  1.00  0.00     0.093 C 
ATOM      9  O   UNL     1       3.799   3.497  -2.761  1.00  0.00    -0.294 OA
ENDBRANCH   1   7
BRANCH   2  10
ATOM     10  O   UNL     1       4.437   6.057  -4.102  1.00  0.00    -0.507 OA
ATOM     11  H   UNL     1       4.285   6.913  -4.623  1.00  0.00     0.293 HD
ENDBRANCH   2  10
BRANCH   4  12
ATOM     12  O   UNL     1       8.780   7.587  -2.686  1.00  0.00    -0.497 OA
ATOM     13  C   UNL     1      10.060   7.485  -2.072  1.00  0.00     0.278 C 
ENDBRANCH   4  12
TORSDOF 3
ENDMDL
MODEL 4
REMARK VINA RESULT:    -5.059      3.811      4.825
REMARK INTER + INTRA:          -6.133
REMARK INTER:                  -5.791
REMARK INTRA:                  -0.342
REMARK UNBOUND:                -0.334
REMARK SMILES COc1ccc(C(C)=O)c(O)c1
REMARK SMILES IDX 6 1 10 2 12 3 3 4 4 5 5 6 7 7 8 8 9 9 11 10 2 12 1 13
REMARK H PARENT 11 11
REMARK Flexibility Score: inf
ROOT
ATOM      1  C   UNL     1       4.798   3.548  -1.507  1.00  0.00     0.059 A 
ATOM      2  C   UNL     1       4.191   3.201  -2.736  1.00  0.00     0.130 A 
ATOM      3  C   UNL     1       4.552   2.009  -3.384  1.00  0.00     0.093 A 
ATOM      4  C   UNL     1       5.520   1.161  -2.841  1.00  0.00     0.122 A 
ATOM      5  C   UNL     1       6.137   1.513  -1.631  1.00  0.00     0.047 A 
ATOM      6  C   UNL     1       5.781   2.694  -0.975  1.00  0.00     0.019 A 
ENDROOT
BRANCH   1   7
ATOM      7  C   UNL     1       4.446   4.787  -0.762  1.00  0.00     0.163 C 
ATOM      8  C   UNL     1       4.016   4.768   0.673  1.00  0.00     0.093 C 
ATOM      9  O   UNL     1       4.509   5.900  -1.352  1.00  0.00    -0.294 OA
ENDBRANCH   1   7
BRANCH   2  10
ATOM     10  O   UNL     1       3.249   4.040  -3.331  1.00  0.00    -0.507 OA
ATOM     11  H   UNL     1       2.703   3.746  -4.133  1.00  0.00     0.293 HD
ENDBRANCH   2  10
BRANCH   4  12
ATOM     12  O   UNL     1       5.840  -0.016  -3.536  1.00  0.00    -0.497 OA
ATOM     13  C   UNL     1       5.400  -0.316  -4.855  1.00  0.00     0.278 C 
ENDBRANCH   4  12
TORSDOF 3
ENDMDL
MODEL 5
REMARK VINA RESULT:    -5.039      3.945      4.976
REMARK INTER + INTRA:          -6.109
REMARK INTER:                  -5.769
REMARK INTRA:                  -0.340
REMARK UNBOUND:                -0.334
REMARK SMILES COc1ccc(C(C)=O)c(O)c1
REMARK SMILES IDX 6 1 10 2 12 3 3 4 4 5 5 6 7 7 8 8 9 9 11 10 2 12 1 13
REMARK H PARENT 11 11
REMARK Flexibility Score: inf
ROOT
ATOM      1  C   UNL     1       5.277   2.767  -0.117  1.00  0.00     0.059 A 
ATOM      2  C   UNL     1       5.024   2.572   1.261  1.00  0.00     0.130 A 
ATOM      3  C   UNL     1       4.390   3.578   2.005  1.00  0.00     0.093 A 
ATOM      4  C   UNL     1       4.017   4.786   1.410  1.00  0.00     0.122 A 
ATOM      5  C   UNL     1       4.285   4.989   0.047  1.00  0.00     0.047 A 
ATOM      6  C   UNL     1       4.911   3.991  -0.705  1.00  0.00     0.019 A 
ENDROOT
BRANCH   1   7
ATOM      7  C   UNL     1       5.929   1.732  -0.965  1.00  0.00     0.163 C 
ATOM      8  C   UNL     1       5.294   1.198  -2.213  1.00  0.00     0.093 C 
ATOM      9  O   UNL     1       7.058   1.281  -0.630  1.00  0.00    -0.294 OA
ENDBRANCH   1   7
BRANCH   2  10
ATOM     10  O   UNL     1       5.416   1.396   1.901  1.00  0.00    -0.507 OA
ATOM     11  H   UNL     1       6.347   1.285   2.289  1.00  0.00     0.293 HD
ENDBRANCH   2  10
BRANCH   4  12
ATOM     12  O   UNL     1       3.388   5.756   2.206  1.00  0.00    -0.497 OA
ATOM     13  C   UNL     1       3.095   5.593   3.590  1.00  0.00     0.278 C 
ENDBRANCH   4  12
TORSDOF 3
ENDMDL
MODEL 6
REMARK VINA RESULT:    -5.034      2.967      3.143
REMARK INTER + INTRA:          -6.104
REMARK INTER:                  -5.793
REMARK INTRA:                  -0.311
REMARK UNBOUND:                -0.334
REMARK SMILES COc1ccc(C(C)=O)c(O)c1
REMARK SMILES IDX 6 1 10 2 12 3 3 4 4 5 5 6 7 7 8 8 9 9 11 10 2 12 1 13
REMARK H PARENT 11 11
REMARK Flexibility Score: inf
ROOT
ATOM      1  C   UNL     1       6.132   4.998  -2.811  1.00  0.00     0.059 A 
ATOM      2  C   UNL     1       4.964   5.061  -3.605  1.00  0.00     0.130 A 
ATOM      3  C   UNL     1       4.235   3.892  -3.871  1.00  0.00     0.093 A 
ATOM      4  C   UNL     1       4.654   2.654  -3.377  1.00  0.00     0.122 A 
ATOM      5  C   UNL     1       5.825   2.588  -2.604  1.00  0.00     0.047 A 
ATOM      6  C   UNL     1       6.555   3.747  -2.328  1.00  0.00     0.019 A 
ENDROOT
BRANCH   1   7
ATOM      7  C   UNL     1       6.939   6.203  -2.478  1.00  0.00     0.163 C 
ATOM      8  C   UNL     1       7.091   6.707  -1.075  1.00  0.00     0.093 C 
ATOM      9  O   UNL     1       7.520   6.832  -3.403  1.00  0.00    -0.294 OA
ENDBRANCH   1   7
BRANCH   2  10
ATOM     10  O   UNL     1       4.533   6.270  -4.151  1.00  0.00    -0.507 OA
ATOM     11  H   UNL     1       3.586   6.607  -4.020  1.00  0.00     0.293 HD
ENDBRANCH   2  10
BRANCH   4  12
ATOM     12  O   UNL     1       3.885   1.520  -3.678  1.00  0.00    -0.497 OA
ATOM     13  C   UNL     1       4.418   0.292  -4.161  1.00  0.00     0.278 C 
ENDBRANCH   4  12
TORSDOF 3
ENDMDL
MODEL 7
REMARK VINA RESULT:    -4.978      4.384      5.919
REMARK INTER + INTRA:          -6.040
REMARK INTER:                  -5.702
REMARK INTRA:                  -0.338
REMARK UNBOUND:                -0.334
REMARK SMILES COc1ccc(C(C)=O)c(O)c1
REMARK SMILES IDX 6 1 10 2 12 3 3 4 4 5 5 6 7 7 8 8 9 9 11 10 2 12 1 13
REMARK H PARENT 11 11
REMARK Flexibility Score: inf
ROOT
ATOM      1  C   UNL     1       3.810   2.667  -0.647  1.00  0.00     0.059 A 
ATOM      2  C   UNL     1       2.686   2.016  -1.207  1.00  0.00     0.130 A 
ATOM      3  C   UNL     1       2.860   1.090  -2.247  1.00  0.00     0.093 A 
ATOM      4  C   UNL     1       4.131   0.809  -2.754  1.00  0.00     0.122 A 
ATOM      5  C   UNL     1       5.246   1.469  -2.212  1.00  0.00     0.047 A 
ATOM      6  C   UNL     1       5.084   2.388  -1.173  1.00  0.00     0.019 A 
ENDROOT
BRANCH   1   7
ATOM      7  C   UNL     1       3.694   3.645   0.469  1.00  0.00     0.163 C 
ATOM      8  C   UNL     1       4.267   5.027   0.388  1.00  0.00     0.093 C 
ATOM      9  O   UNL     1       3.094   3.308   1.525  1.00  0.00    -0.294 OA
ENDBRANCH   1   7
BRANCH   2  10
ATOM     10  O   UNL     1       1.397   2.298  -0.755  1.00  0.00    -0.507 OA
ATOM     11  H   UNL     1       0.733   1.561  -0.543  1.00  0.00     0.293 HD
ENDBRANCH   2  10
BRANCH   4  12
ATOM     12  O   UNL     1       4.242  -0.125  -3.795  1.00  0.00    -0.497 OA
ATOM     13  C   UNL     1       5.475  -0.647  -4.280  1.00  0.00     0.278 C 
ENDBRANCH   4  12
TORSDOF 3
ENDMDL
MODEL 8
REMARK VINA RESULT:    -4.970      1.448      4.704
REMARK INTER + INTRA:          -6.031
REMARK INTER:                  -5.703
REMARK INTRA:                  -0.328
REMARK UNBOUND:                -0.334
REMARK SMILES COc1ccc(C(C)=O)c(O)c1
REMARK SMILES IDX 6 1 10 2 12 3 3 4 4 5 5 6 7 7 8 8 9 9 11 10 2 12 1 13
REMARK H PARENT 11 11
REMARK Flexibility Score: inf
ROOT
ATOM      1  C   UNL     1       4.671   4.625  -0.970  1.00  0.00     0.059 A 
ATOM      2  C   UNL     1       4.481   4.964  -2.329  1.00  0.00     0.130 A 
ATOM      3  C   UNL     1       5.402   5.801  -2.977  1.00  0.00     0.093 A 
ATOM      4  C   UNL     1       6.504   6.323  -2.295  1.00  0.00     0.122 A 
ATOM      5  C   UNL     1       6.684   6.002  -0.940  1.00  0.00     0.047 A 
ATOM      6  C   UNL     1       5.775   5.165  -0.286  1.00  0.00     0.019 A 
ENDROOT
BRANCH   1   7
ATOM      7  C   UNL     1       3.741   3.729  -0.230  1.00  0.00     0.163 C 
ATOM      8  C   UNL     1       3.408   3.933   1.216  1.00  0.00     0.093 C 
ATOM      9  O   UNL     1       3.208   2.758  -0.835  1.00  0.00    -0.294 OA
ENDBRANCH   1   7
BRANCH   2  10
ATOM     10  O   UNL     1       3.372   4.496  -3.035  1.00  0.00    -0.507 OA
ATOM     11  H   UNL     1       3.147   3.509  -3.080  1.00  0.00     0.293 HD
ENDBRANCH   2  10
BRANCH   4  12
ATOM     12  O   UNL     1       7.390   7.155  -2.996  1.00  0.00    -0.497 OA
ATOM     13  C   UNL     1       8.778   7.278  -2.705  1.00  0.00     0.278 C 
ENDBRANCH   4  12
TORSDOF 3
ENDMDL
MODEL 9
REMARK VINA RESULT:    -4.917      2.959      5.859
REMARK INTER + INTRA:          -5.970
REMARK INTER:                  -5.633
REMARK INTRA:                  -0.337
REMARK UNBOUND:                -0.334
REMARK SMILES COc1ccc(C(C)=O)c(O)c1
REMARK SMILES IDX 6 1 10 2 12 3 3 4 4 5 5 6 7 7 8 8 9 9 11 10 2 12 1 13
REMARK H PARENT 11 11
REMARK Flexibility Score: inf
ROOT
ATOM      1  C   UNL     1       7.322   3.571   1.055  1.00  0.00     0.059 A 
ATOM      2  C   UNL     1       8.671   3.307   0.721  1.00  0.00     0.130 A 
ATOM      3  C   UNL     1       9.350   4.153  -0.168  1.00  0.00     0.093 A 
ATOM      4  C   UNL     1       8.709   5.251  -0.748  1.00  0.00     0.122 A 
ATOM      5  C   UNL     1       7.365   5.503  -0.432  1.00  0.00     0.047 A 
ATOM      6  C   UNL     1       6.681   4.670   0.456  1.00  0.00     0.019 A 
ENDROOT
BRANCH   1   7
ATOM      7  C   UNL     1       6.552   2.722   2.004  1.00  0.00     0.163 C 
ATOM      8  C   UNL     1       5.117   2.358   1.775  1.00  0.00     0.093 C 
ATOM      9  O   UNL     1       7.119   2.289   3.044  1.00  0.00    -0.294 OA
ENDBRANCH   1   7
BRANCH   2  10
ATOM     10  O   UNL     1       9.335   2.198   1.247  1.00  0.00    -0.507 OA
ATOM     11  H   UNL     1      10.217   2.289   1.738  1.00  0.00     0.293 HD
ENDBRANCH   2  10
BRANCH   4  12
ATOM     12  O   UNL     1       9.440   6.060  -1.631  1.00  0.00    -0.497 OA
ATOM     13  C   UNL     1       8.916   7.207  -2.291  1.00  0.00     0.278 C 
ENDBRANCH   4  12
TORSDOF 3
ENDMDL
