MODEL 1
REMARK VINA RESULT:    -4.791      0.000      0.000
REMARK INTER + INTRA:          -6.529
REMARK INTER:                  -5.912
REMARK INTRA:                  -0.617
REMARK UNBOUND:                -0.617
REMARK SMILES CCCCC=CC(C)=O
REMARK SMILES IDX 4 1 3 2 2 3 1 4 5 5 6 6 7 7 9 8 8 9
REMARK H PARENT
REMARK Flexibility Score: inf
ROOT
ATOM      1  C   UNL     1      69.899  60.097  26.424  1.00  0.00     0.027 C 
ENDROOT
BRANCH   1   2
ATOM      2  C   UNL     1      68.480  60.622  26.688  1.00  0.00     0.004 C 
BRANCH   2   3
ATOM      3  C   UNL     1      68.342  61.127  28.128  1.00  0.00    -0.003 C 
ATOM      4  C   UNL     1      69.503  60.647  28.995  1.00  0.00     0.004 C 
ENDBRANCH   2   3
ENDBRANCH   1   2
BRANCH   1   5
ATOM      5  C   UNL     1      70.564  60.856  25.308  1.00  0.00    -0.023 C 
ATOM      6  C   UNL     1      71.390  61.906  25.451  1.00  0.00     0.042 C 
BRANCH   6   7
ATOM      7  C   UNL     1      71.848  62.499  26.728  1.00  0.00     0.152 C 
ATOM      8  O   UNL     1      72.885  62.092  27.314  1.00  0.00    -0.295 OA
ATOM      9  C   UNL     1      71.099  63.658  27.304  1.00  0.00     0.093 C 
ENDBRANCH   6   7
ENDBRANCH   1   5
TORSDOF 4
ENDMDL
MODEL 2
REMARK VINA RESULT:    -4.776      1.613      2.561
REMARK INTER + INTRA:          -6.509
REMARK INTER:                  -6.165
REMARK INTRA:                  -0.345
REMARK UNBOUND:                -0.617
REMARK SMILES CCCCC=CC(C)=O
REMARK SMILES IDX 4 1 3 2 2 3 1 4 5 5 6 6 7 7 9 8 8 9
REMARK H PARENT
REMARK Flexibility Score: inf
ROOT
ATOM      1  C   UNL     1      70.324  59.535  27.684  1.00  0.00     0.027 C 
ENDROOT
BRANCH   1   2
ATOM      2  C   UNL     1      69.597  59.905  26.383  1.00  0.00     0.004 C 
BRANCH   2   3
ATOM      3  C   UNL     1      68.476  60.914  26.651  1.00  0.00    -0.003 C 
ATOM      4  C   UNL     1      67.104  60.254  26.550  1.00  0.00     0.004 C 
ENDBRANCH   2   3
ENDBRANCH   1   2
BRANCH   1   5
ATOM      5  C   UNL     1      70.351  60.693  28.643  1.00  0.00    -0.023 C 
ATOM      6  C   UNL     1      71.338  61.598  28.760  1.00  0.00     0.042 C 
BRANCH   6   7
ATOM      7  C   UNL     1      72.572  61.667  27.944  1.00  0.00     0.152 C 
ATOM      8  O   UNL     1      72.615  62.307  26.861  1.00  0.00    -0.295 OA
ATOM      9  C   UNL     1      73.819  61.016  28.451  1.00  0.00     0.093 C 
ENDBRANCH   6   7
ENDBRANCH   1   5
TORSDOF 4
ENDMDL
MODEL 3
REMARK VINA RESULT:    -4.716      1.367      2.193
REMARK INTER + INTRA:          -6.436
REMARK INTER:                  -5.882
REMARK INTRA:                  -0.554
REMARK UNBOUND:                -0.617
REMARK SMILES CCCCC=CC(C)=O
REMARK SMILES IDX 4 1 3 2 2 3 1 4 5 5 6 6 7 7 9 8 8 9
REMARK H PARENT
REMARK Flexibility Score: inf
ROOT
ATOM      1  C   UNL     1      70.537  60.023  27.933  1.00  0.00     0.027 C 
ENDROOT
BRANCH   1   2
ATOM      2  C   UNL     1      69.471  60.625  28.859  1.00  0.00     0.004 C 
BRANCH   2   3
ATOM      3  C   UNL     1      68.343  61.272  28.048  1.00  0.00    -0.003 C 
ATOM      4  C   UNL     1      68.228  60.641  26.663  1.00  0.00     0.004 C 
ENDBRANCH   2   3
ENDBRANCH   1   2
BRANCH   1   5
ATOM      5  C   UNL     1      71.890  60.630  28.189  1.00  0.00    -0.023 C 
ATOM      6  C   UNL     1      72.340  61.793  27.688  1.00  0.00     0.042 C 
BRANCH   6   7
ATOM      7  C   UNL     1      71.587  62.730  26.824  1.00  0.00     0.152 C 
ATOM      8  O   UNL     1      70.999  63.740  27.296  1.00  0.00    -0.295 OA
ATOM      9  C   UNL     1      71.579  62.514  25.345  1.00  0.00     0.093 C 
ENDBRANCH   6   7
ENDBRANCH   1   5
TORSDOF 4
ENDMDL
MODEL 4
REMARK VINA RESULT:    -4.608      2.312      3.787
REMARK INTER + INTRA:          -6.303
REMARK INTER:                  -6.032
REMARK INTRA:                  -0.270
REMARK UNBOUND:                -0.617
REMARK SMILES CCCCC=CC(C)=O
REMARK SMILES IDX 4 1 3 2 2 3 1 4 5 5 6 6 7 7 9 8 8 9
REMARK H PARENT
REMARK Flexibility Score: inf
ROOT
ATOM      1  C   UNL     1      70.971  62.018  26.031  1.00  0.00     0.027 C 
ENDROOT
BRANCH   1   2
ATOM      2  C   UNL     1      72.222  62.332  26.864  1.00  0.00     0.004 C 
BRANCH   2   3
ATOM      3  C   UNL     1      72.329  61.391  28.068  1.00  0.00    -0.003 C 
ATOM      4  C   UNL     1      73.787  61.102  28.414  1.00  0.00     0.004 C 
ENDBRANCH   2   3
ENDBRANCH   1   2
BRANCH   1   5
ATOM      5  C   UNL     1      70.650  60.548  26.062  1.00  0.00    -0.023 C 
ATOM      6  C   UNL     1      69.519  59.997  26.533  1.00  0.00     0.042 C 
BRANCH   6   7
ATOM      7  C   UNL     1      68.346  60.721  27.075  1.00  0.00     0.152 C 
ATOM      8  O   UNL     1      67.241  60.738  26.472  1.00  0.00    -0.295 OA
ATOM      9  C   UNL     1      68.454  61.394  28.406  1.00  0.00     0.093 C 
ENDBRANCH   6   7
ENDBRANCH   1   5
TORSDOF 4
ENDMDL
MODEL 5
REMARK VINA RESULT:    -4.513      1.923      3.930
REMARK INTER + INTRA:          -6.186
REMARK INTER:                  -5.686
REMARK INTRA:                  -0.500
REMARK UNBOUND:                -0.617
REMARK SMILES CCCCC=CC(C)=O
REMARK SMILES IDX 4 1 3 2 2 3 1 4 5 5 6 6 7 7 9 8 8 9
REMARK H PARENT
REMARK Flexibility Score: inf
ROOT
ATOM      1  C   UNL     1      71.727  61.682  28.325  1.00  0.00     0.027 C 
ENDROOT
BRANCH   1   2
ATOM      2  C   UNL     1      72.513  62.214  27.118  1.00  0.00     0.004 C 
BRANCH   2   3
ATOM      3  C   UNL     1      71.601  63.008  26.177  1.00  0.00    -0.003 C 
ATOM      4  C   UNL     1      71.519  62.351  24.803  1.00  0.00     0.004 C 
ENDBRANCH   2   3
ENDBRANCH   1   2
BRANCH   1   5
ATOM      5  C   UNL     1      71.301  60.254  28.113  1.00  0.00    -0.023 C 
ATOM      6  C   UNL     1      70.091  59.845  27.695  1.00  0.00     0.042 C 
BRANCH   6   7
ATOM      7  C   UNL     1      68.951  60.711  27.316  1.00  0.00     0.152 C 
ATOM      8  O   UNL     1      68.589  60.846  26.118  1.00  0.00    -0.295 OA
ATOM      9  C   UNL     1      68.163  61.391  28.390  1.00  0.00     0.093 C 
ENDBRANCH   6   7
ENDBRANCH   1   5
TORSDOF 4
ENDMDL
MODEL 6
REMARK VINA RESULT:    -4.489      2.069      4.017
REMARK INTER + INTRA:          -6.156
REMARK INTER:                  -6.056
REMARK INTRA:                  -0.100
REMARK UNBOUND:                -0.617
REMARK SMILES CCCCC=CC(C)=O
REMARK SMILES IDX 4 1 3 2 2 3 1 4 5 5 6 6 7 7 9 8 8 9
REMARK H PARENT
REMARK Flexibility Score: inf
ROOT
ATOM      1  C   UNL     1      70.852  62.797  27.399  1.00  0.00     0.027 C 
ENDROOT
BRANCH   1   2
ATOM      2  C   UNL     1      72.246  62.167  27.270  1.00  0.00     0.004 C 
BRANCH   2   3
ATOM      3  C   UNL     1      72.534  61.231  28.449  1.00  0.00    -0.003 C 
ATOM      4  C   UNL     1      74.013  60.859  28.509  1.00  0.00     0.004 C 
ENDBRANCH   2   3
ENDBRANCH   1   2
BRANCH   1   5
ATOM      5  C   UNL     1      70.034  62.104  28.454  1.00  0.00    -0.023 C 
ATOM      6  C   UNL     1      69.073  61.191  28.234  1.00  0.00     0.042 C 
BRANCH   6   7
ATOM      7  C   UNL     1      68.656  60.651  26.920  1.00  0.00     0.152 C 
ATOM      8  O   UNL     1      69.491  60.202  26.092  1.00  0.00    -0.295 OA
ATOM      9  C   UNL     1      67.199  60.571  26.594  1.00  0.00     0.093 C 
ENDBRANCH   6   7
ENDBRANCH   1   5
TORSDOF 4
ENDMDL
MODEL 7
REMARK VINA RESULT:    -4.390      1.379      2.642
REMARK INTER + INTRA:          -6.034
REMARK INTER:                  -5.766
REMARK INTRA:                  -0.268
REMARK UNBOUND:                -0.617
REMARK SMILES CCCCC=CC(C)=O
REMARK SMILES IDX 4 1 3 2 2 3 1 4 5 5 6 6 7 7 9 8 8 9
REMARK H PARENT
REMARK Flexibility Score: inf
ROOT
ATOM      1  C   UNL     1      68.548  61.749  27.679  1.00  0.00     0.027 C 
ENDROOT
BRANCH   1   2
ATOM      2  C   UNL     1      68.463  60.488  26.808  1.00  0.00     0.004 C 
BRANCH   2   3
ATOM      3  C   UNL     1      69.829  59.802  26.703  1.00  0.00    -0.003 C 
ATOM      4  C   UNL     1      70.245  59.621  25.246  1.00  0.00     0.004 C 
ENDBRANCH   2   3
ENDBRANCH   1   2
BRANCH   1   5
ATOM      5  C   UNL     1      69.763  61.719  28.567  1.00  0.00    -0.023 C 
ATOM      6  C   UNL     1      70.905  62.397  28.365  1.00  0.00     0.042 C 
BRANCH   6   7
ATOM      7  C   UNL     1      71.185  63.342  27.259  1.00  0.00     0.152 C 
ATOM      8  O   UNL     1      71.009  64.582  27.386  1.00  0.00    -0.295 OA
ATOM      9  C   UNL     1      71.756  62.819  25.980  1.00  0.00     0.093 C 
ENDBRANCH   6   7
ENDBRANCH   1   5
TORSDOF 4
ENDMDL
MODEL 8
REMARK VINA RESULT:    -4.372      2.450      4.242
REMARK INTER + INTRA:          -6.012
REMARK INTER:                  -5.893
REMARK INTRA:                  -0.118
REMARK UNBOUND:                -0.617
REMARK SMILES CCCCC=CC(C)=O
REMARK SMILES IDX 4 1 3 2 2 3 1 4 5 5 6 6 7 7 9 8 8 9
REMARK H PARENT
REMARK Flexibility Score: inf
ROOT
ATOM      1  C   UNL     1      69.593  60.784  29.208  1.00  0.00     0.027 C 
ENDROOT
BRANCH   1   2
ATOM      2  C   UNL     1      70.893  61.600  29.173  1.00  0.00     0.004 C 
BRANCH   2   3
ATOM      3  C   UNL     1      70.888  62.587  28.000  1.00  0.00    -0.003 C 
ATOM      4  C   UNL     1      72.128  62.413  27.128  1.00  0.00     0.004 C 
ENDBRANCH   2   3
ENDBRANCH   1   2
BRANCH   1   5
ATOM      5  C   UNL     1      68.417  61.609  28.760  1.00  0.00    -0.023 C 
ATOM      6  C   UNL     1      67.678  61.397  27.658  1.00  0.00     0.042 C 
BRANCH   6   7
ATOM      7  C   UNL     1      67.839  60.288  26.689  1.00  0.00     0.152 C 
ATOM      8  O   UNL     1      66.875  59.547  26.363  1.00  0.00    -0.295 OA
ATOM      9  C   UNL     1      69.165  60.085  26.028  1.00  0.00     0.093 C 
ENDBRANCH   6   7
ENDBRANCH   1   5
TORSDOF 4
ENDMDL
MODEL 9
REMARK VINA RESULT:    -4.337      1.925      3.500
REMARK INTER + INTRA:          -5.968
REMARK INTER:                  -5.456
REMARK INTRA:                  -0.512
REMARK UNBOUND:                -0.617
REMARK SMILES CCCCC=CC(C)=O
REMARK SMILES IDX 4 1 3 2 2 3 1 4 5 5 6 6 7 7 9 8 8 9
REMARK H PARENT
REMARK Flexibility Score: inf
ROOT
ATOM      1  C   UNL     1      69.854  60.958  25.922  1.00  0.00     0.027 C 
ENDROOT
BRANCH   1   2
ATOM      2  C   UNL     1      71.179  61.583  25.463  1.00  0.00     0.004 C 
BRANCH   2   3
ATOM      3  C   UNL     1      71.637  62.672  26.440  1.00  0.00    -0.003 C 
ATOM      4  C   UNL     1      72.806  62.190  27.295  1.00  0.00     0.004 C 
ENDBRANCH   2   3
ENDBRANCH   1   2
BRANCH   1   5
ATOM      5  C   UNL     1      70.087  59.852  26.915  1.00  0.00    -0.023 C 
ATOM      6  C   UNL     1      69.888  59.928  28.242  1.00  0.00     0.042 C 
BRANCH   6   7
ATOM      7  C   UNL     1      69.360  61.093  28.987  1.00  0.00     0.152 C 
ATOM      8  O   UNL     1      68.159  61.457  28.885  1.00  0.00    -0.295 OA
ATOM      9  C   UNL     1      70.256  61.817  29.940  1.00  0.00     0.093 C 
ENDBRANCH   6   7
ENDBRANCH   1   5
TORSDOF 4
ENDMDL
