MODEL 1
REMARK VINA RESULT:    -3.958      0.000      0.000
REMARK INTER + INTRA:          -3.867
REMARK INTER:                  -4.883
REMARK INTRA:                   1.016
REMARK UNBOUND:                 1.016
REMARK SMILES CC1=CC=CC(C)(C)CC1=O
REMARK SMILES IDX 1 1 2 2 3 3 10 4 11 5 9 6 4 8 5 9 6 10 7 11 8 12
REMARK H PARENT
REMARK Flexibility Score: 80.00
ROOT
ATOM      1  C   UNL     1     -18.496  13.135 -30.702  1.00  0.00     0.048 C 
ATOM      2  C   UNL     1     -17.003  13.178 -30.928  1.00  0.00    -0.008 C 
ATOM      3  C   UNL     1     -16.217  12.528 -30.044  1.00  0.00     0.007 C 
ENDROOT
BRANCH   2   4
ATOM      4  C   UNL     1     -16.526  13.868 -32.153  1.00  0.00     0.159 C 
ATOM      5  O   UNL     1     -17.319  14.633 -32.769  1.00  0.00    -0.295 OA
BRANCH   4   6
ATOM      6  C   UNL     1     -15.138  13.720 -32.698  1.00  0.00     0.091 CG0
ATOM      7  G   UNL     1     -14.042  14.140 -31.692  1.00  0.00     0.000 G0
ENDBRANCH   4   6
ENDBRANCH   2   4
BRANCH   3   8
ATOM      8  C   UNL     1     -14.743  12.371 -30.018  1.00  0.00    -0.003 C 
ATOM      9  C   UNL     1     -13.811  13.032 -30.714  1.00  0.00    -0.020 C 
BRANCH   9  10
ATOM     10  C   UNL     1     -14.053  14.150 -31.702  1.00  0.00    -0.010 CG0
ATOM     11  C   UNL     1     -12.731  14.524 -32.410  1.00  0.00     0.016 C 
ATOM     12  C   UNL     1     -14.544  15.389 -30.921  1.00  0.00     0.016 C 
ATOM     13  G   UNL     1     -15.164  13.736 -32.694  1.00  0.00     0.000 G0
ENDBRANCH   9  10
ENDBRANCH   3   8
TORSDOF 0
ENDMDL
MODEL 2
REMARK VINA RESULT:    -3.838      1.996      3.875
REMARK INTER + INTRA:          -3.720
REMARK INTER:                  -4.455
REMARK INTRA:                   0.735
REMARK UNBOUND:                 1.016
REMARK SMILES CC1=CC=CC(C)(C)CC1=O
REMARK SMILES IDX 1 1 2 2 3 3 10 4 11 5 9 6 4 8 5 9 6 10 7 11 8 12
REMARK H PARENT
REMARK Flexibility Score: 80.00
ROOT
ATOM      1  C   UNL     1     -11.236  13.978 -30.673  1.00  0.00     0.048 C 
ATOM      2  C   UNL     1     -12.739  14.105 -30.598  1.00  0.00    -0.008 C 
ATOM      3  C   UNL     1     -13.263  15.349 -30.599  1.00  0.00     0.007 C 
ENDROOT
BRANCH   2   4
ATOM      4  C   UNL     1     -13.525  12.845 -30.609  1.00  0.00     0.159 C 
ATOM      5  O   UNL     1     -12.936  11.763 -30.886  1.00  0.00    -0.295 OA
BRANCH   4   6
ATOM      6  C   UNL     1     -14.987  12.780 -30.292  1.00  0.00     0.091 CG0
ATOM      7  G   UNL     1     -15.855  13.635 -31.242  1.00  0.00     0.000 G0
ENDBRANCH   4   6
ENDBRANCH   2   4
BRANCH   3   8
ATOM      8  C   UNL     1     -14.680  15.784 -30.562  1.00  0.00    -0.003 C 
ATOM      9  C   UNL     1     -15.786  15.084 -30.841  1.00  0.00    -0.020 C 
BRANCH   9  10
ATOM     10  C   UNL     1     -15.850  13.630 -31.246  1.00  0.00    -0.010 CG0
ATOM     11  C   UNL     1     -15.453  13.477 -32.732  1.00  0.00     0.016 C 
ATOM     12  C   UNL     1     -17.309  13.147 -31.088  1.00  0.00     0.016 C 
ATOM     13  G   UNL     1     -14.961  12.788 -30.302  1.00  0.00     0.000 G0
ENDBRANCH   9  10
ENDBRANCH   3   8
TORSDOF 0
ENDMDL
MODEL 3
REMARK VINA RESULT:    -3.737      2.016      3.840
REMARK INTER + INTRA:          -3.595
REMARK INTER:                  -4.358
REMARK INTRA:                   0.764
REMARK UNBOUND:                 1.016
REMARK SMILES CC1=CC=CC(C)(C)CC1=O
REMARK SMILES IDX 1 1 2 2 3 3 10 4 11 5 9 6 4 8 5 9 6 10 7 11 8 12
REMARK H PARENT
REMARK Flexibility Score: 80.00
ROOT
ATOM      1  C   UNL     1     -14.817  14.162 -32.393  1.00  0.00     0.048 C 
ATOM      2  C   UNL     1     -15.693  13.296 -31.519  1.00  0.00    -0.008 C 
ATOM      3  C   UNL     1     -15.083  12.486 -30.627  1.00  0.00     0.007 C 
ENDROOT
BRANCH   2   4
ATOM      4  C   UNL     1     -17.162  13.462 -31.659  1.00  0.00     0.159 C 
ATOM      5  O   UNL     1     -17.602  14.436 -32.332  1.00  0.00    -0.295 OA
BRANCH   4   6
ATOM      6  C   UNL     1     -18.162  12.525 -31.055  1.00  0.00     0.091 CG0
ATOM      7  G   UNL     1     -18.074  12.452 -29.514  1.00  0.00     0.000 G0
ENDBRANCH   4   6
ENDBRANCH   2   4
BRANCH   3   8
ATOM      8  C   UNL     1     -15.667  11.557 -29.631  1.00  0.00    -0.003 C 
ATOM      9  C   UNL     1     -16.911  11.521 -29.137  1.00  0.00    -0.020 C 
BRANCH   9  10
ATOM     10  C   UNL     1     -18.053  12.434 -29.515  1.00  0.00    -0.010 CG0
ATOM     11  C   UNL     1     -17.868  13.816 -28.846  1.00  0.00     0.016 C 
ATOM     12  C   UNL     1     -19.365  11.817 -28.980  1.00  0.00     0.016 C 
ATOM     13  G   UNL     1     -18.159  12.527 -31.054  1.00  0.00     0.000 G0
ENDBRANCH   9  10
ENDBRANCH   3   8
TORSDOF 0
ENDMDL
MODEL 4
REMARK VINA RESULT:    -3.653      9.731     11.959
REMARK INTER + INTRA:          -3.492
REMARK INTER:                  -4.545
REMARK INTRA:                   1.054
REMARK UNBOUND:                 1.016
REMARK SMILES CC1=CC=CC(C)(C)CC1=O
REMARK SMILES IDX 1 1 2 2 3 3 10 4 11 5 9 6 4 8 5 9 6 10 7 11 8 12
REMARK H PARENT
REMARK Flexibility Score: 80.00
ROOT
ATOM      1  C   UNL     1     -23.871  14.245 -30.226  1.00  0.00     0.048 C 
ATOM      2  C   UNL     1     -25.023  13.326 -29.894  1.00  0.00    -0.008 C 
ATOM      3  C   UNL     1     -24.730  12.125 -29.351  1.00  0.00     0.007 C 
ENDROOT
BRANCH   2   4
ATOM      4  C   UNL     1     -26.393  13.852 -30.120  1.00  0.00     0.159 C 
ATOM      5  O   UNL     1     -26.541  14.868 -30.855  1.00  0.00    -0.295 OA
BRANCH   4   6
ATOM      6  C   UNL     1     -27.624  13.233 -29.534  1.00  0.00     0.091 CG0
ATOM      7  G   UNL     1     -27.831  11.763 -29.967  1.00  0.00     0.000 G0
ENDBRANCH   4   6
ENDBRANCH   2   4
BRANCH   3   8
ATOM      8  C   UNL     1     -25.633  11.039 -28.902  1.00  0.00    -0.003 C 
ATOM      9  C   UNL     1     -26.941  10.875 -29.139  1.00  0.00    -0.020 C 
BRANCH   9  10
ATOM     10  C   UNL     1     -27.822  11.777 -29.971  1.00  0.00    -0.010 CG0
ATOM     11  C   UNL     1     -29.295  11.323 -29.861  1.00  0.00     0.016 C 
ATOM     12  C   UNL     1     -27.390  11.647 -31.449  1.00  0.00     0.016 C 
ATOM     13  G   UNL     1     -27.618  13.247 -29.539  1.00  0.00     0.000 G0
ENDBRANCH   9  10
ENDBRANCH   3   8
TORSDOF 0
ENDMDL
MODEL 5
REMARK VINA RESULT:    -3.650      1.457      3.295
REMARK INTER + INTRA:          -3.488
REMARK INTER:                  -4.249
REMARK INTRA:                   0.761
REMARK UNBOUND:                 1.016
REMARK SMILES CC1=CC=CC(C)(C)CC1=O
REMARK SMILES IDX 1 1 2 2 3 3 10 4 11 5 9 6 4 8 5 9 6 10 7 11 8 12
REMARK H PARENT
REMARK Flexibility Score: 80.00
ROOT
ATOM      1  C   UNL     1     -11.853  14.429 -31.171  1.00  0.00     0.048 C 
ATOM      2  C   UNL     1     -13.236  13.822 -31.187  1.00  0.00    -0.008 C 
ATOM      3  C   UNL     1     -13.433  12.696 -30.468  1.00  0.00     0.007 C 
ENDROOT
BRANCH   2   4
ATOM      4  C   UNL     1     -14.288  14.558 -31.931  1.00  0.00     0.159 C 
ATOM      5  O   UNL     1     -14.034  15.719 -32.355  1.00  0.00    -0.295 OA
BRANCH   4   6
ATOM      6  C   UNL     1     -15.644  13.992 -32.223  1.00  0.00     0.091 CG0
ATOM      7  G   UNL     1     -16.424  13.592 -30.950  1.00  0.00     0.000 G0
ENDBRANCH   4   6
ENDBRANCH   2   4
BRANCH   3   8
ATOM      8  C   UNL     1     -14.667  11.898 -30.271  1.00  0.00    -0.003 C 
ATOM      9  C   UNL     1     -15.943  12.257 -30.453  1.00  0.00    -0.020 C 
BRANCH   9  10
ATOM     10  C   UNL     1     -16.437  13.597 -30.945  1.00  0.00    -0.010 CG0
ATOM     11  C   UNL     1     -16.335  14.645 -29.814  1.00  0.00     0.016 C 
ATOM     12  C   UNL     1     -17.927  13.453 -31.330  1.00  0.00     0.016 C 
ATOM     13  G   UNL     1     -15.651  14.008 -32.211  1.00  0.00     0.000 G0
ENDBRANCH   9  10
ENDBRANCH   3   8
TORSDOF 0
ENDMDL
MODEL 6
REMARK VINA RESULT:    -3.487      1.347      1.606
REMARK INTER + INTRA:          -3.286
REMARK INTER:                  -4.028
REMARK INTRA:                   0.742
REMARK UNBOUND:                 1.016
REMARK SMILES CC1=CC=CC(C)(C)CC1=O
REMARK SMILES IDX 1 1 2 2 3 3 10 4 11 5 9 6 4 8 5 9 6 10 7 11 8 12
REMARK H PARENT
REMARK Flexibility Score: 80.00
ROOT
ATOM      1  C   UNL     1     -18.010  11.502 -29.763  1.00  0.00     0.048 C 
ATOM      2  C   UNL     1     -16.875  12.496 -29.831  1.00  0.00    -0.008 C 
ATOM      3  C   UNL     1     -15.769  12.235 -29.101  1.00  0.00     0.007 C 
ENDROOT
BRANCH   2   4
ATOM      4  C   UNL     1     -17.038  13.644 -30.758  1.00  0.00     0.159 C 
ATOM      5  O   UNL     1     -17.999  13.634 -31.576  1.00  0.00    -0.295 OA
BRANCH   4   6
ATOM      6  C   UNL     1     -16.128  14.834 -30.768  1.00  0.00     0.091 CG0
ATOM      7  G   UNL     1     -14.657  14.472 -31.073  1.00  0.00     0.000 G0
ENDBRANCH   4   6
ENDBRANCH   2   4
BRANCH   3   8
ATOM      8  C   UNL     1     -14.504  12.998 -28.987  1.00  0.00    -0.003 C 
ATOM      9  C   UNL     1     -14.006  13.935 -29.803  1.00  0.00    -0.020 C 
BRANCH   9  10
ATOM     10  C   UNL     1     -14.656  14.471 -31.057  1.00  0.00    -0.010 CG0
ATOM     11  C   UNL     1     -14.487  13.459 -32.213  1.00  0.00     0.016 C 
ATOM     12  C   UNL     1     -13.935  15.778 -31.457  1.00  0.00     0.016 C 
ATOM     13  G   UNL     1     -16.138  14.808 -30.772  1.00  0.00     0.000 G0
ENDBRANCH   9  10
ENDBRANCH   3   8
TORSDOF 0
ENDMDL
MODEL 7
REMARK VINA RESULT:    -3.459      1.659      3.393
REMARK INTER + INTRA:          -3.252
REMARK INTER:                  -4.005
REMARK INTRA:                   0.753
REMARK UNBOUND:                 1.016
REMARK SMILES CC1=CC=CC(C)(C)CC1=O
REMARK SMILES IDX 1 1 2 2 3 3 10 4 11 5 9 6 4 8 5 9 6 10 7 11 8 12
REMARK H PARENT
REMARK Flexibility Score: 80.00
ROOT
ATOM      1  C   UNL     1     -13.737  15.771 -32.002  1.00  0.00     0.048 C 
ATOM      2  C   UNL     1     -14.124  14.575 -31.165  1.00  0.00    -0.008 C 
ATOM      3  C   UNL     1     -13.553  14.451 -29.948  1.00  0.00     0.007 C 
ENDROOT
BRANCH   2   4
ATOM      4  C   UNL     1     -15.163  13.670 -31.720  1.00  0.00     0.159 C 
ATOM      5  O   UNL     1     -15.797  14.031 -32.750  1.00  0.00    -0.295 OA
BRANCH   4   6
ATOM      6  C   UNL     1     -15.495  12.334 -31.131  1.00  0.00     0.091 CG0
ATOM      7  G   UNL     1     -15.972  12.417 -29.663  1.00  0.00     0.000 G0
ENDBRANCH   4   6
ENDBRANCH   2   4
BRANCH   3   8
ATOM      8  C   UNL     1     -13.751  13.416 -28.905  1.00  0.00    -0.003 C 
ATOM      9  C   UNL     1     -14.761  12.550 -28.756  1.00  0.00    -0.020 C 
BRANCH   9  10
ATOM     10  C   UNL     1     -15.961  12.405 -29.662  1.00  0.00    -0.010 CG0
ATOM     11  C   UNL     1     -16.962  13.554 -29.402  1.00  0.00     0.016 C 
ATOM     12  C   UNL     1     -16.666  11.072 -29.325  1.00  0.00     0.016 C 
ATOM     13  G   UNL     1     -15.496  12.344 -31.135  1.00  0.00     0.000 G0
ENDBRANCH   9  10
ENDBRANCH   3   8
TORSDOF 0
ENDMDL
MODEL 8
REMARK VINA RESULT:    -3.407      2.556      4.082
REMARK INTER + INTRA:          -3.187
REMARK INTER:                  -3.948
REMARK INTRA:                   0.761
REMARK UNBOUND:                 1.016
REMARK SMILES CC1=CC=CC(C)(C)CC1=O
REMARK SMILES IDX 1 1 2 2 3 3 10 4 11 5 9 6 4 8 5 9 6 10 7 11 8 12
REMARK H PARENT
REMARK Flexibility Score: 80.00
ROOT
ATOM      1  C   UNL     1     -13.926  15.692 -31.649  1.00  0.00     0.048 C 
ATOM      2  C   UNL     1     -14.609  14.837 -30.609  1.00  0.00    -0.008 C 
ATOM      3  C   UNL     1     -15.947  14.962 -30.476  1.00  0.00     0.007 C 
ENDROOT
BRANCH   2   4
ATOM      4  C   UNL     1     -13.762  13.868 -29.869  1.00  0.00     0.159 C 
ATOM      5  O   UNL     1     -12.576  13.678 -30.255  1.00  0.00    -0.295 OA
BRANCH   4   6
ATOM      6  C   UNL     1     -14.233  13.106 -28.669  1.00  0.00     0.091 CG0
ATOM      7  G   UNL     1     -15.486  12.245 -28.948  1.00  0.00     0.000 G0
ENDBRANCH   4   6
ENDBRANCH   2   4
BRANCH   3   8
ATOM      8  C   UNL     1     -16.884  14.249 -29.575  1.00  0.00    -0.003 C 
ATOM      9  C   UNL     1     -16.713  13.093 -28.922  1.00  0.00    -0.020 C 
BRANCH   9  10
ATOM     10  C   UNL     1     -15.472  12.232 -28.932  1.00  0.00    -0.010 CG0
ATOM     11  C   UNL     1     -15.382  11.449 -30.261  1.00  0.00     0.016 C 
ATOM     12  C   UNL     1     -15.583  11.207 -27.780  1.00  0.00     0.016 C 
ATOM     13  G   UNL     1     -14.226  13.111 -28.673  1.00  0.00     0.000 G0
ENDBRANCH   9  10
ENDBRANCH   3   8
TORSDOF 0
ENDMDL
MODEL 9
REMARK VINA RESULT:    -3.373      2.687      4.591
REMARK INTER + INTRA:          -3.146
REMARK INTER:                  -3.916
REMARK INTRA:                   0.770
REMARK UNBOUND:                 1.016
REMARK SMILES CC1=CC=CC(C)(C)CC1=O
REMARK SMILES IDX 1 1 2 2 3 3 10 4 11 5 9 6 4 8 5 9 6 10 7 11 8 12
REMARK H PARENT
REMARK Flexibility Score: 80.00
ROOT
ATOM      1  C   UNL     1     -13.648  13.844 -30.198  1.00  0.00     0.048 C 
ATOM      2  C   UNL     1     -15.140  13.614 -30.176  1.00  0.00    -0.008 C 
ATOM      3  C   UNL     1     -15.811  13.743 -31.340  1.00  0.00     0.007 C 
ENDROOT
BRANCH   2   4
ATOM      4  C   UNL     1     -15.738  13.188 -28.886  1.00  0.00     0.159 C 
ATOM      5  O   UNL     1     -14.972  12.837 -27.946  1.00  0.00    -0.295 OA
BRANCH   4   6
ATOM      6  C   UNL     1     -17.213  13.164 -28.626  1.00  0.00     0.091 CG0
ATOM      7  G   UNL     1     -17.985  12.232 -29.588  1.00  0.00     0.000 G0
ENDBRANCH   4   6
ENDBRANCH   2   4
BRANCH   3   8
ATOM      8  C   UNL     1     -17.252  13.555 -31.634  1.00  0.00    -0.003 C 
ATOM      9  C   UNL     1     -18.182  12.909 -30.920  1.00  0.00    -0.020 C 
BRANCH   9  10
ATOM     10  C   UNL     1     -17.976  12.221 -29.590  1.00  0.00    -0.010 CG0
ATOM     11  C   UNL     1     -17.244  10.876 -29.800  1.00  0.00     0.016 C 
ATOM     12  C   UNL     1     -19.363  11.921 -28.980  1.00  0.00     0.016 C 
ATOM     13  G   UNL     1     -17.222  13.166 -28.627  1.00  0.00     0.000 G0
ENDBRANCH   9  10
ENDBRANCH   3   8
TORSDOF 0
ENDMDL
