MODEL 1
REMARK VINA RESULT:    -4.017      0.000      0.000
REMARK INTER + INTRA:          -8.942
REMARK INTER:                  -7.540
REMARK INTRA:                  -1.402
REMARK UNBOUND:                -1.402
REMARK SMILES O=C([O-])CCCCCCCCCCCCCCC(=O)[O-]
REMARK SMILES IDX 10 1 9 2 8 3 7 4 6 5 5 6 4 7 2 8 1 9 3 10 11 11 12 12 13 13
REMARK SMILES IDX 14 14 15 15 16 16 17 17 18 18 19 19 20 20
REMARK H PARENT
REMARK Flexibility Score: inf
ROOT
ATOM      1  C   UNL     1      -4.331   7.936  -8.642  1.00  0.00     0.000 C 
ENDROOT
BRANCH   1   2
ATOM      2  C   UNL     1      -3.613   7.822  -7.288  1.00  0.00     0.000 C 
BRANCH   2   3
ATOM      3  C   UNL     1      -4.424   7.021  -6.256  1.00  0.00     0.000 C 
BRANCH   3   4
ATOM      4  C   UNL     1      -3.826   5.633  -5.972  1.00  0.00     0.000 C 
BRANCH   4   5
ATOM      5  C   UNL     1      -3.427   5.421  -4.496  1.00  0.00     0.000 C 
BRANCH   5   6
ATOM      6  C   UNL     1      -2.507   4.202  -4.311  1.00  0.00     0.006 C 
BRANCH   6   7
ATOM      7  C   UNL     1      -2.857   3.397  -3.054  1.00  0.00     0.053 C 
BRANCH   7   8
ATOM      8  C   UNL     1      -1.658   2.692  -2.494  1.00  0.00     0.041 C 
ATOM      9  O   UNL     1      -1.024   3.190  -1.529  1.00  0.00    -0.550 OA
ATOM     10  O   UNL     1      -1.261   1.470  -3.021  1.00  0.00    -0.550 OA
ENDBRANCH   7   8
ENDBRANCH   6   7
ENDBRANCH   5   6
ENDBRANCH   4   5
ENDBRANCH   3   4
ENDBRANCH   2   3
ENDBRANCH   1   2
BRANCH   1  11
ATOM     11  C   UNL     1      -4.264   9.355  -9.227  1.00  0.00     0.000 C 
BRANCH  11  12
ATOM     12  C   UNL     1      -5.662   9.981  -9.314  1.00  0.00     0.000 C 
BRANCH  12  13
ATOM     13  C   UNL     1      -6.410   9.841  -7.980  1.00  0.00     0.000 C 
BRANCH  13  14
ATOM     14  C   UNL     1      -7.887   9.457  -8.166  1.00  0.00     0.000 C 
BRANCH  14  15
ATOM     15  C   UNL     1      -8.167   8.825  -9.538  1.00  0.00     0.000 C 
BRANCH  15  16
ATOM     16  C   UNL     1      -8.689   7.391  -9.385  1.00  0.00     0.006 C 
BRANCH  16  17
ATOM     17  C   UNL     1      -7.551   6.375  -9.519  1.00  0.00     0.053 C 
BRANCH  17  18
ATOM     18  C   UNL     1      -7.292   5.700  -8.209  1.00  0.00     0.041 C 
ATOM     19  O   UNL     1      -7.898   6.078  -7.172  1.00  0.00    -0.550 OA
ATOM     20  O   UNL     1      -6.350   4.683  -8.124  1.00  0.00    -0.550 OA
ENDBRANCH  17  18
ENDBRANCH  16  17
ENDBRANCH  15  16
ENDBRANCH  14  15
ENDBRANCH  13  14
ENDBRANCH  12  13
ENDBRANCH  11  12
ENDBRANCH   1  11
TORSDOF 15
ENDMDL
MODEL 2
REMARK VINA RESULT:    -4.005      1.066      1.675
REMARK INTER + INTRA:          -8.918
REMARK INTER:                  -7.610
REMARK INTRA:                  -1.308
REMARK UNBOUND:                -1.402
REMARK SMILES O=C([O-])CCCCCCCCCCCCCCC(=O)[O-]
REMARK SMILES IDX 10 1 9 2 8 3 7 4 6 5 5 6 4 7 2 8 1 9 3 10 11 11 12 12 13 13
REMARK SMILES IDX 14 14 15 15 16 16 17 17 18 18 19 19 20 20
REMARK H PARENT
REMARK Flexibility Score: inf
ROOT
ATOM      1  C   UNL     1      -3.623   7.952  -7.036  1.00  0.00     0.000 C 
ENDROOT
BRANCH   1   2
ATOM      2  C   UNL     1      -4.530   6.904  -6.371  1.00  0.00     0.000 C 
BRANCH   2   3
ATOM      3  C   UNL     1      -3.805   5.572  -6.116  1.00  0.00     0.000 C 
BRANCH   3   4
ATOM      4  C   UNL     1      -3.364   5.403  -4.651  1.00  0.00     0.000 C 
BRANCH   4   5
ATOM      5  C   UNL     1      -2.589   4.096  -4.386  1.00  0.00     0.000 C 
BRANCH   5   6
ATOM      6  C   UNL     1      -2.979   3.449  -3.046  1.00  0.00     0.006 C 
BRANCH   6   7
ATOM      7  C   UNL     1      -1.773   2.836  -2.324  1.00  0.00     0.053 C 
BRANCH   7   8
ATOM      8  C   UNL     1      -1.198   1.681  -3.085  1.00  0.00     0.041 C 
ATOM      9  O   UNL     1      -0.075   1.785  -3.642  1.00  0.00    -0.550 OA
ATOM     10  O   UNL     1      -1.890   0.478  -3.152  1.00  0.00    -0.550 OA
ENDBRANCH   7   8
ENDBRANCH   6   7
ENDBRANCH   5   6
ENDBRANCH   4   5
ENDBRANCH   3   4
ENDBRANCH   2   3
ENDBRANCH   1   2
BRANCH   1  11
ATOM     11  C   UNL     1      -3.806   8.009  -8.560  1.00  0.00     0.000 C 
BRANCH  11  12
ATOM     12  C   UNL     1      -4.161   9.429  -9.018  1.00  0.00     0.000 C 
BRANCH  12  13
ATOM     13  C   UNL     1      -5.655   9.540  -9.357  1.00  0.00     0.000 C 
BRANCH  13  14
ATOM     14  C   UNL     1      -6.518   9.869  -8.128  1.00  0.00     0.000 C 
BRANCH  14  15
ATOM     15  C   UNL     1      -7.716   8.920  -7.973  1.00  0.00     0.000 C 
BRANCH  15  16
ATOM     16  C   UNL     1      -7.474   7.605  -8.723  1.00  0.00     0.006 C 
BRANCH  16  17
ATOM     17  C   UNL     1      -7.938   6.405  -7.891  1.00  0.00     0.053 C 
BRANCH  17  18
ATOM     18  C   UNL     1      -7.497   5.124  -8.524  1.00  0.00     0.041 C 
ATOM     19  O   UNL     1      -6.377   4.627  -8.233  1.00  0.00    -0.550 OA
ATOM     20  O   UNL     1      -8.302   4.502  -9.470  1.00  0.00    -0.550 OA
ENDBRANCH  17  18
ENDBRANCH  16  17
ENDBRANCH  15  16
ENDBRANCH  14  15
ENDBRANCH  13  14
ENDBRANCH  12  13
ENDBRANCH  11  12
ENDBRANCH   1  11
TORSDOF 15
ENDMDL
MODEL 3
REMARK VINA RESULT:    -3.847      1.286      7.676
REMARK INTER + INTRA:          -8.622
REMARK INTER:                  -7.551
REMARK INTRA:                  -1.071
REMARK UNBOUND:                -1.402
REMARK SMILES O=C([O-])CCCCCCCCCCCCCCC(=O)[O-]
REMARK SMILES IDX 10 1 9 2 8 3 7 4 6 5 5 6 4 7 2 8 1 9 3 10 11 11 12 12 13 13
REMARK SMILES IDX 14 14 15 15 16 16 17 17 18 18 19 19 20 20
REMARK H PARENT
REMARK Flexibility Score: inf
ROOT
ATOM      1  C   UNL     1      -3.340   7.735  -7.259  1.00  0.00     0.000 C 
ENDROOT
BRANCH   1   2
ATOM      2  C   UNL     1      -4.099   8.694  -8.189  1.00  0.00     0.000 C 
BRANCH   2   3
ATOM      3  C   UNL     1      -4.316   8.107  -9.593  1.00  0.00     0.000 C 
BRANCH   3   4
ATOM      4  C   UNL     1      -5.798   7.828  -9.901  1.00  0.00     0.000 C 
BRANCH   4   5
ATOM      5  C   UNL     1      -6.772   8.492  -8.906  1.00  0.00     0.000 C 
BRANCH   5   6
ATOM      6  C   UNL     1      -7.926   7.556  -8.508  1.00  0.00     0.006 C 
BRANCH   6   7
ATOM      7  C   UNL     1      -7.762   6.149  -9.098  1.00  0.00     0.053 C 
BRANCH   7   8
ATOM      8  C   UNL     1      -7.458   5.134  -8.038  1.00  0.00     0.041 C 
ATOM      9  O   UNL     1      -6.307   4.633  -7.951  1.00  0.00    -0.550 OA
ATOM     10  O   UNL     1      -8.439   4.767  -7.125  1.00  0.00    -0.550 OA
ENDBRANCH   7   8
ENDBRANCH   6   7
ENDBRANCH   5   6
ENDBRANCH   4   5
ENDBRANCH   3   4
ENDBRANCH   2   3
ENDBRANCH   1   2
BRANCH   1  11
ATOM     11  C   UNL     1      -4.270   7.001  -6.282  1.00  0.00     0.000 C 
BRANCH  11  12
ATOM     12  C   UNL     1      -3.760   5.583  -5.997  1.00  0.00     0.000 C 
BRANCH  12  13
ATOM     13  C   UNL     1      -3.406   5.414  -4.512  1.00  0.00     0.000 C 
BRANCH  13  14
ATOM     14  C   UNL     1      -2.579   4.146  -4.240  1.00  0.00     0.000 C 
BRANCH  14  15
ATOM     15  C   UNL     1      -3.027   3.407  -2.971  1.00  0.00     0.000 C 
BRANCH  15  16
ATOM     16  C   UNL     1      -1.824   2.825  -2.221  1.00  0.00     0.006 C 
BRANCH  16  17
ATOM     17  C   UNL     1      -0.747   2.343  -3.198  1.00  0.00     0.053 C 
BRANCH  17  18
ATOM     18  C   UNL     1      -0.729   0.848  -3.265  1.00  0.00     0.041 C 
ATOM     19  O   UNL     1      -1.808   0.204  -3.326  1.00  0.00    -0.550 OA
ATOM     20  O   UNL     1       0.480   0.165  -3.214  1.00  0.00    -0.550 OA
ENDBRANCH  17  18
ENDBRANCH  16  17
ENDBRANCH  15  16
ENDBRANCH  14  15
ENDBRANCH  13  14
ENDBRANCH  12  13
ENDBRANCH  11  12
ENDBRANCH   1  11
TORSDOF 15
ENDMDL
MODEL 4
REMARK VINA RESULT:    -3.785      0.592      7.241
REMARK INTER + INTRA:          -8.507
REMARK INTER:                  -7.375
REMARK INTRA:                  -1.131
REMARK UNBOUND:                -1.402
REMARK SMILES O=C([O-])CCCCCCCCCCCCCCC(=O)[O-]
REMARK SMILES IDX 10 1 9 2 8 3 7 4 6 5 5 6 4 7 2 8 1 9 3 10 11 11 12 12 13 13
REMARK SMILES IDX 14 14 15 15 16 16 17 17 18 18 19 19 20 20
REMARK H PARENT
REMARK Flexibility Score: inf
ROOT
ATOM      1  C   UNL     1      -5.389   9.064  -8.581  1.00  0.00     0.000 C 
ENDROOT
BRANCH   1   2
ATOM      2  C   UNL     1      -6.570   9.015  -7.599  1.00  0.00     0.000 C 
BRANCH   2   3
ATOM      3  C   UNL     1      -7.909   9.369  -8.267  1.00  0.00     0.000 C 
BRANCH   3   4
ATOM      4  C   UNL     1      -8.037   8.798  -9.690  1.00  0.00     0.000 C 
BRANCH   4   5
ATOM      5  C   UNL     1      -9.353   8.031  -9.933  1.00  0.00     0.000 C 
BRANCH   5   6
ATOM      6  C   UNL     1      -9.325   6.619  -9.325  1.00  0.00     0.006 C 
BRANCH   6   7
ATOM      7  C   UNL     1      -7.979   5.917  -9.550  1.00  0.00     0.053 C 
BRANCH   7   8
ATOM      8  C   UNL     1      -7.407   5.391  -8.269  1.00  0.00     0.041 C 
ATOM      9  O   UNL     1      -6.281   4.830  -8.261  1.00  0.00    -0.550 OA
ATOM     10  O   UNL     1      -8.105   5.549  -7.079  1.00  0.00    -0.550 OA
ENDBRANCH   7   8
ENDBRANCH   6   7
ENDBRANCH   5   6
ENDBRANCH   4   5
ENDBRANCH   3   4
ENDBRANCH   2   3
ENDBRANCH   1   2
BRANCH   1  11
ATOM     11  C   UNL     1      -4.443   7.864  -8.426  1.00  0.00     0.000 C 
BRANCH  11  12
ATOM     12  C   UNL     1      -3.760   7.876  -7.052  1.00  0.00     0.000 C 
BRANCH  12  13
ATOM     13  C   UNL     1      -4.461   6.914  -6.081  1.00  0.00     0.000 C 
BRANCH  13  14
ATOM     14  C   UNL     1      -3.705   5.586  -5.913  1.00  0.00     0.000 C 
BRANCH  14  15
ATOM     15  C   UNL     1      -3.342   5.293  -4.450  1.00  0.00     0.000 C 
BRANCH  15  16
ATOM     16  C   UNL     1      -2.630   3.941  -4.321  1.00  0.00     0.006 C 
BRANCH  16  17
ATOM     17  C   UNL     1      -2.750   3.390  -2.896  1.00  0.00     0.053 C 
BRANCH  17  18
ATOM     18  C   UNL     1      -1.432   2.864  -2.424  1.00  0.00     0.041 C 
ATOM     19  O   UNL     1      -0.843   1.959  -3.070  1.00  0.00    -0.550 OA
ATOM     20  O   UNL     1      -0.875   3.342  -1.244  1.00  0.00    -0.550 OA
ENDBRANCH  17  18
ENDBRANCH  16  17
ENDBRANCH  15  16
ENDBRANCH  14  15
ENDBRANCH  13  14
ENDBRANCH  12  13
ENDBRANCH  11  12
ENDBRANCH   1  11
TORSDOF 15
ENDMDL
MODEL 5
REMARK VINA RESULT:    -3.676      1.247      7.765
REMARK INTER + INTRA:          -8.301
REMARK INTER:                  -7.121
REMARK INTRA:                  -1.180
REMARK UNBOUND:                -1.402
REMARK SMILES O=C([O-])CCCCCCCCCCCCCCC(=O)[O-]
REMARK SMILES IDX 10 1 9 2 8 3 7 4 6 5 5 6 4 7 2 8 1 9 3 10 11 11 12 12 13 13
REMARK SMILES IDX 14 14 15 15 16 16 17 17 18 18 19 19 20 20
REMARK H PARENT
REMARK Flexibility Score: inf
ROOT
ATOM      1  C   UNL     1      -3.343   7.832  -7.142  1.00  0.00     0.000 C 
ENDROOT
BRANCH   1   2
ATOM      2  C   UNL     1      -4.042   8.707  -8.195  1.00  0.00     0.000 C 
BRANCH   2   3
ATOM      3  C   UNL     1      -4.425   7.918  -9.458  1.00  0.00     0.000 C 
BRANCH   3   4
ATOM      4  C   UNL     1      -5.916   8.045  -9.813  1.00  0.00     0.000 C 
BRANCH   4   5
ATOM      5  C   UNL     1      -6.773   8.643  -8.678  1.00  0.00     0.000 C 
BRANCH   5   6
ATOM      6  C   UNL     1      -7.896   7.691  -8.232  1.00  0.00     0.006 C 
BRANCH   6   7
ATOM      7  C   UNL     1      -7.809   6.325  -8.926  1.00  0.00     0.053 C 
BRANCH   7   8
ATOM      8  C   UNL     1      -7.535   5.223  -7.949  1.00  0.00     0.041 C 
ATOM      9  O   UNL     1      -8.432   4.847  -7.150  1.00  0.00    -0.550 OA
ATOM     10  O   UNL     1      -6.299   4.589  -7.944  1.00  0.00    -0.550 OA
ENDBRANCH   7   8
ENDBRANCH   6   7
ENDBRANCH   5   6
ENDBRANCH   4   5
ENDBRANCH   3   4
ENDBRANCH   2   3
ENDBRANCH   1   2
BRANCH   1  11
ATOM     11  C   UNL     1      -4.337   7.039  -6.280  1.00  0.00     0.000 C 
BRANCH  11  12
ATOM     12  C   UNL     1      -3.819   5.621  -6.009  1.00  0.00     0.000 C 
BRANCH  12  13
ATOM     13  C   UNL     1      -3.394   5.462  -4.542  1.00  0.00     0.000 C 
BRANCH  13  14
ATOM     14  C   UNL     1      -2.574   4.184  -4.298  1.00  0.00     0.000 C 
BRANCH  14  15
ATOM     15  C   UNL     1      -3.061   3.392  -3.075  1.00  0.00     0.000 C 
BRANCH  15  16
ATOM     16  C   UNL     1      -2.061   2.293  -2.699  1.00  0.00     0.006 C 
BRANCH  16  17
ATOM     17  C   UNL     1      -0.637   2.852  -2.610  1.00  0.00     0.053 C 
BRANCH  17  18
ATOM     18  C   UNL     1      -0.375   3.408  -1.246  1.00  0.00     0.041 C 
ATOM     19  O   UNL     1      -0.426   4.650  -1.048  1.00  0.00    -0.550 OA
ATOM     20  O   UNL     1      -0.030   2.557  -0.203  1.00  0.00    -0.550 OA
ENDBRANCH  17  18
ENDBRANCH  16  17
ENDBRANCH  15  16
ENDBRANCH  14  15
ENDBRANCH  13  14
ENDBRANCH  12  13
ENDBRANCH  11  12
ENDBRANCH   1  11
TORSDOF 15
ENDMDL
MODEL 6
REMARK VINA RESULT:    -3.640      1.404      2.422
REMARK INTER + INTRA:          -8.233
REMARK INTER:                  -6.990
REMARK INTRA:                  -1.244
REMARK UNBOUND:                -1.402
REMARK SMILES O=C([O-])CCCCCCCCCCCCCCC(=O)[O-]
REMARK SMILES IDX 10 1 9 2 8 3 7 4 6 5 5 6 4 7 2 8 1 9 3 10 11 11 12 12 13 13
REMARK SMILES IDX 14 14 15 15 16 16 17 17 18 18 19 19 20 20
REMARK H PARENT
REMARK Flexibility Score: inf
ROOT
ATOM      1  C   UNL     1      -4.152   7.068  -6.364  1.00  0.00     0.000 C 
ENDROOT
BRANCH   1   2
ATOM      2  C   UNL     1      -3.753   5.638  -5.967  1.00  0.00     0.000 C 
BRANCH   2   3
ATOM      3  C   UNL     1      -3.374   5.521  -4.481  1.00  0.00     0.000 C 
BRANCH   3   4
ATOM      4  C   UNL     1      -2.528   4.273  -4.177  1.00  0.00     0.000 C 
BRANCH   4   5
ATOM      5  C   UNL     1      -3.152   3.347  -3.112  1.00  0.00     0.000 C 
BRANCH   5   6
ATOM      6  C   UNL     1      -2.152   2.299  -2.594  1.00  0.00     0.006 C 
BRANCH   6   7
ATOM      7  C   UNL     1      -0.710   2.822  -2.592  1.00  0.00     0.053 C 
BRANCH   7   8
ATOM      8  C   UNL     1      -0.321   3.371  -1.253  1.00  0.00     0.041 C 
ATOM      9  O   UNL     1       0.060   2.596  -0.337  1.00  0.00    -0.550 OA
ATOM     10  O   UNL     1      -0.351   4.741  -1.027  1.00  0.00    -0.550 OA
ENDBRANCH   7   8
ENDBRANCH   6   7
ENDBRANCH   5   6
ENDBRANCH   4   5
ENDBRANCH   3   4
ENDBRANCH   2   3
ENDBRANCH   1   2
BRANCH   1  11
ATOM     11  C   UNL     1      -3.681   7.440  -7.778  1.00  0.00     0.000 C 
BRANCH  11  12
ATOM     12  C   UNL     1      -3.834   8.946  -8.029  1.00  0.00     0.000 C 
BRANCH  12  13
ATOM     13  C   UNL     1      -4.280   9.220  -9.473  1.00  0.00     0.000 C 
BRANCH  13  14
ATOM     14  C   UNL     1      -5.069   8.048 -10.082  1.00  0.00     0.000 C 
BRANCH  14  15
ATOM     15  C   UNL     1      -6.588   8.265 -10.027  1.00  0.00     0.000 C 
BRANCH  15  16
ATOM     16  C   UNL     1      -7.315   6.970  -9.645  1.00  0.00     0.006 C 
BRANCH  16  17
ATOM     17  C   UNL     1      -7.404   6.820  -8.123  1.00  0.00     0.053 C 
BRANCH  17  18
ATOM     18  C   UNL     1      -7.371   5.376  -7.735  1.00  0.00     0.041 C 
ATOM     19  O   UNL     1      -6.361   4.673  -7.999  1.00  0.00    -0.550 OA
ATOM     20  O   UNL     1      -8.473   4.794  -7.121  1.00  0.00    -0.550 OA
ENDBRANCH  17  18
ENDBRANCH  16  17
ENDBRANCH  15  16
ENDBRANCH  14  15
ENDBRANCH  13  14
ENDBRANCH  12  13
ENDBRANCH  11  12
ENDBRANCH   1  11
TORSDOF 15
ENDMDL
MODEL 7
REMARK VINA RESULT:    -3.579      1.571      2.043
REMARK INTER + INTRA:          -8.119
REMARK INTER:                  -6.749
REMARK INTRA:                  -1.369
REMARK UNBOUND:                -1.402
REMARK SMILES O=C([O-])CCCCCCCCCCCCCCC(=O)[O-]
REMARK SMILES IDX 10 1 9 2 8 3 7 4 6 5 5 6 4 7 2 8 1 9 3 10 11 11 12 12 13 13
REMARK SMILES IDX 14 14 15 15 16 16 17 17 18 18 19 19 20 20
REMARK H PARENT
REMARK Flexibility Score: inf
ROOT
ATOM      1  C   UNL     1      -4.931   8.474  -7.367  1.00  0.00     0.000 C 
ENDROOT
BRANCH   1   2
ATOM      2  C   UNL     1      -5.275   7.387  -6.337  1.00  0.00     0.000 C 
BRANCH   2   3
ATOM      3  C   UNL     1      -4.277   6.217  -6.357  1.00  0.00     0.000 C 
BRANCH   3   4
ATOM      4  C   UNL     1      -3.568   6.014  -5.007  1.00  0.00     0.000 C 
BRANCH   4   5
ATOM      5  C   UNL     1      -3.095   4.565  -4.768  1.00  0.00     0.000 C 
BRANCH   5   6
ATOM      6  C   UNL     1      -2.828   4.277  -3.281  1.00  0.00     0.006 C 
BRANCH   6   7
ATOM      7  C   UNL     1      -2.545   2.793  -3.018  1.00  0.00     0.053 C 
BRANCH   7   8
ATOM      8  C   UNL     1      -1.099   2.549  -2.711  1.00  0.00     0.041 C 
ATOM      9  O   UNL     1      -0.607   2.945  -1.623  1.00  0.00    -0.550 OA
ATOM     10  O   UNL     1      -0.304   1.854  -3.613  1.00  0.00    -0.550 OA
ENDBRANCH   7   8
ENDBRANCH   6   7
ENDBRANCH   5   6
ENDBRANCH   4   5
ENDBRANCH   3   4
ENDBRANCH   2   3
ENDBRANCH   1   2
BRANCH   1  11
ATOM     11  C   UNL     1      -3.981   7.969  -8.463  1.00  0.00     0.000 C 
BRANCH  11  12
ATOM     12  C   UNL     1      -4.635   8.070  -9.847  1.00  0.00     0.000 C 
BRANCH  12  13
ATOM     13  C   UNL     1      -5.822   7.102  -9.965  1.00  0.00     0.000 C 
BRANCH  13  14
ATOM     14  C   UNL     1      -7.169   7.830 -10.096  1.00  0.00     0.000 C 
BRANCH  14  15
ATOM     15  C   UNL     1      -8.204   7.352  -9.066  1.00  0.00     0.000 C 
BRANCH  15  16
ATOM     16  C   UNL     1      -8.022   5.862  -8.756  1.00  0.00     0.006 C 
BRANCH  16  17
ATOM     17  C   UNL     1      -8.214   5.584  -7.262  1.00  0.00     0.053 C 
BRANCH  17  18
ATOM     18  C   UNL     1      -9.304   4.582  -7.050  1.00  0.00     0.041 C 
ATOM     19  O   UNL     1      -9.803   3.972  -8.031  1.00  0.00    -0.550 OA
ATOM     20  O   UNL     1      -9.799   4.353  -5.772  1.00  0.00    -0.550 OA
ENDBRANCH  17  18
ENDBRANCH  16  17
ENDBRANCH  15  16
ENDBRANCH  14  15
ENDBRANCH  13  14
ENDBRANCH  12  13
ENDBRANCH  11  12
ENDBRANCH   1  11
TORSDOF 15
ENDMDL
MODEL 8
REMARK VINA RESULT:    -3.404      1.772      3.163
REMARK INTER + INTRA:          -7.790
REMARK INTER:                  -6.604
REMARK INTRA:                  -1.186
REMARK UNBOUND:                -1.402
REMARK SMILES O=C([O-])CCCCCCCCCCCCCCC(=O)[O-]
REMARK SMILES IDX 10 1 9 2 8 3 7 4 6 5 5 6 4 7 2 8 1 9 3 10 11 11 12 12 13 13
REMARK SMILES IDX 14 14 15 15 16 16 17 17 18 18 19 19 20 20
REMARK H PARENT
REMARK Flexibility Score: inf
ROOT
ATOM      1  C   UNL     1      -6.105   5.573  -7.551  1.00  0.00     0.000 C 
ENDROOT
BRANCH   1   2
ATOM      2  C   UNL     1      -5.803   6.848  -6.748  1.00  0.00     0.000 C 
BRANCH   2   3
ATOM      3  C   UNL     1      -4.329   6.942  -6.319  1.00  0.00     0.000 C 
BRANCH   3   4
ATOM      4  C   UNL     1      -3.703   5.567  -6.029  1.00  0.00     0.000 C 
BRANCH   4   5
ATOM      5  C   UNL     1      -3.443   5.310  -4.530  1.00  0.00     0.000 C 
BRANCH   5   6
ATOM      6  C   UNL     1      -2.403   4.200  -4.300  1.00  0.00     0.006 C 
BRANCH   6   7
ATOM      7  C   UNL     1      -2.724   3.349  -3.065  1.00  0.00     0.053 C 
BRANCH   7   8
ATOM      8  C   UNL     1      -1.493   2.720  -2.489  1.00  0.00     0.041 C 
ATOM      9  O   UNL     1      -0.954   3.205  -1.461  1.00  0.00    -0.550 OA
ATOM     10  O   UNL     1      -0.958   1.578  -3.071  1.00  0.00    -0.550 OA
ENDBRANCH   7   8
ENDBRANCH   6   7
ENDBRANCH   5   6
ENDBRANCH   4   5
ENDBRANCH   3   4
ENDBRANCH   2   3
ENDBRANCH   1   2
BRANCH   1  11
ATOM     11  C   UNL     1      -7.610   5.341  -7.747  1.00  0.00     0.000 C 
BRANCH  11  12
ATOM     12  C   UNL     1      -7.901   4.757  -9.135  1.00  0.00     0.000 C 
BRANCH  12  13
ATOM     13  C   UNL     1      -8.537   5.811 -10.053  1.00  0.00     0.000 C 
BRANCH  13  14
ATOM     14  C   UNL     1      -9.355   6.857  -9.277  1.00  0.00     0.000 C 
BRANCH  14  15
ATOM     15  C   UNL     1      -8.970   8.298  -9.638  1.00  0.00     0.000 C 
BRANCH  15  16
ATOM     16  C   UNL     1      -7.900   8.837  -8.680  1.00  0.00     0.006 C 
BRANCH  16  17
ATOM     17  C   UNL     1      -7.018   9.881  -9.372  1.00  0.00     0.053 C 
BRANCH  17  18
ATOM     18  C   UNL     1      -5.698   9.288  -9.749  1.00  0.00     0.041 C 
ATOM     19  O   UNL     1      -5.598   8.052  -9.965  1.00  0.00    -0.550 OA
ATOM     20  O   UNL     1      -4.568  10.093  -9.819  1.00  0.00    -0.550 OA
ENDBRANCH  17  18
ENDBRANCH  16  17
ENDBRANCH  15  16
ENDBRANCH  14  15
ENDBRANCH  13  14
ENDBRANCH  12  13
ENDBRANCH  11  12
ENDBRANCH   1  11
TORSDOF 15
ENDMDL
MODEL 9
REMARK VINA RESULT:    -2.694      2.002      4.034
REMARK INTER + INTRA:          -6.458
REMARK INTER:                  -5.533
REMARK INTRA:                  -0.925
REMARK UNBOUND:                -1.402
REMARK SMILES O=C([O-])CCCCCCCCCCCCCCC(=O)[O-]
REMARK SMILES IDX 10 1 9 2 8 3 7 4 6 5 5 6 4 7 2 8 1 9 3 10 11 11 12 12 13 13
REMARK SMILES IDX 14 14 15 15 16 16 17 17 18 18 19 19 20 20
REMARK H PARENT
REMARK Flexibility Score: inf
ROOT
ATOM      1  C   UNL     1      -3.374   5.396  -4.516  1.00  0.00     0.000 C 
ENDROOT
BRANCH   1   2
ATOM      2  C   UNL     1      -2.629   4.065  -4.330  1.00  0.00     0.000 C 
BRANCH   2   3
ATOM      3  C   UNL     1      -2.950   3.390  -2.986  1.00  0.00     0.000 C 
BRANCH   3   4
ATOM      4  C   UNL     1      -1.751   2.628  -2.398  1.00  0.00     0.000 C 
BRANCH   4   5
ATOM      5  C   UNL     1      -0.751   2.131  -3.464  1.00  0.00     0.000 C 
BRANCH   5   6
ATOM      6  C   UNL     1      -0.494   0.618  -3.361  1.00  0.00     0.006 C 
BRANCH   6   7
ATOM      7  C   UNL     1      -1.777  -0.203  -3.540  1.00  0.00     0.053 C 
BRANCH   7   8
ATOM      8  C   UNL     1      -1.526  -1.464  -4.309  1.00  0.00     0.041 C 
ATOM      9  O   UNL     1      -2.488  -2.110  -4.799  1.00  0.00    -0.550 OA
ATOM     10  O   UNL     1      -0.225  -1.909  -4.510  1.00  0.00    -0.550 OA
ENDBRANCH   7   8
ENDBRANCH   6   7
ENDBRANCH   5   6
ENDBRANCH   4   5
ENDBRANCH   3   4
ENDBRANCH   2   3
ENDBRANCH   1   2
BRANCH   1  11
ATOM     11  C   UNL     1      -3.666   5.708  -5.991  1.00  0.00     0.000 C 
BRANCH  11  12
ATOM     12  C   UNL     1      -4.319   7.088  -6.143  1.00  0.00     0.000 C 
BRANCH  12  13
ATOM     13  C   UNL     1      -3.694   7.866  -7.310  1.00  0.00     0.000 C 
BRANCH  13  14
ATOM     14  C   UNL     1      -4.749   8.474  -8.249  1.00  0.00     0.000 C 
BRANCH  14  15
ATOM     15  C   UNL     1      -4.853   7.726  -9.587  1.00  0.00     0.000 C 
BRANCH  15  16
ATOM     16  C   UNL     1      -6.251   7.125  -9.772  1.00  0.00     0.006 C 
BRANCH  16  17
ATOM     17  C   UNL     1      -7.023   7.112  -8.449  1.00  0.00     0.053 C 
BRANCH  17  18
ATOM     18  C   UNL     1      -7.191   5.711  -7.952  1.00  0.00     0.041 C 
ATOM     19  O   UNL     1      -6.353   4.825  -8.262  1.00  0.00    -0.550 OA
ATOM     20  O   UNL     1      -8.298   5.374  -7.183  1.00  0.00    -0.550 OA
ENDBRANCH  17  18
ENDBRANCH  16  17
ENDBRANCH  15  16
ENDBRANCH  14  15
ENDBRANCH  13  14
ENDBRANCH  12  13
ENDBRANCH  11  12
ENDBRANCH   1  11
TORSDOF 15
ENDMDL
