MODEL 1
REMARK VINA RESULT:    -4.717      0.000      0.000
REMARK INTER + INTRA:          -5.569
REMARK INTER:                  -5.407
REMARK INTRA:                  -0.162
REMARK UNBOUND:                -0.162
REMARK SMILES CC=Cc1ccc(O)c(OC)c1
REMARK SMILES IDX 4 1 12 2 9 3 7 4 6 5 5 6 3 7 1 8 2 9 10 10 11 11 8 12
REMARK H PARENT 8 13
REMARK Flexibility Score: inf
ROOT
ATOM      1  C   UNL     1      39.850 -40.731  -5.325  1.00  0.00    -0.022 A 
ATOM      2  C   UNL     1      39.219 -39.867  -6.236  1.00  0.00     0.058 A 
ATOM      3  C   UNL     1      37.967 -39.293  -5.939  1.00  0.00     0.161 A 
ATOM      4  C   UNL     1      37.353 -39.583  -4.714  1.00  0.00     0.157 A 
ATOM      5  C   UNL     1      37.983 -40.431  -3.795  1.00  0.00     0.051 A 
ATOM      6  C   UNL     1      39.224 -40.998  -4.094  1.00  0.00     0.012 A 
ENDROOT
BRANCH   1   7
ATOM      7  C   UNL     1      41.172 -41.300  -5.686  1.00  0.00     0.003 C 
ATOM      8  C   UNL     1      43.610 -41.604  -5.490  1.00  0.00     0.035 C 
ATOM      9  C   UNL     1      42.318 -40.974  -5.077  1.00  0.00    -0.030 C 
ENDBRANCH   1   7
BRANCH   3  10
ATOM     10  O   UNL     1      37.306 -38.434  -6.831  1.00  0.00    -0.493 OA
ATOM     11  C   UNL     1      37.074 -38.723  -8.206  1.00  0.00     0.278 C 
ENDBRANCH   3  10
BRANCH   4  12
ATOM     12  O   UNL     1      36.114 -39.019  -4.414  1.00  0.00    -0.504 OA
ATOM     13  H   UNL     1      35.291 -39.593  -4.270  1.00  0.00     0.293 HD
ENDBRANCH   4  12
TORSDOF 3
ENDMDL
MODEL 2
REMARK VINA RESULT:    -4.381      1.147      2.830
REMARK INTER + INTRA:          -5.183
REMARK INTER:                  -5.033
REMARK INTRA:                  -0.150
REMARK UNBOUND:                -0.162
REMARK SMILES CC=Cc1ccc(O)c(OC)c1
REMARK SMILES IDX 4 1 12 2 9 3 7 4 6 5 5 6 3 7 1 8 2 9 10 10 11 11 8 12
REMARK H PARENT 8 13
REMARK Flexibility Score: inf
ROOT
ATOM      1  C   UNL     1      39.954 -40.610  -5.378  1.00  0.00    -0.022 A 
ATOM      2  C   UNL     1      39.516 -40.498  -4.048  1.00  0.00     0.058 A 
ATOM      3  C   UNL     1      38.279 -39.898  -3.742  1.00  0.00     0.161 A 
ATOM      4  C   UNL     1      37.474 -39.417  -4.782  1.00  0.00     0.157 A 
ATOM      5  C   UNL     1      37.896 -39.539  -6.112  1.00  0.00     0.051 A 
ATOM      6  C   UNL     1      39.124 -40.134  -6.411  1.00  0.00     0.012 A 
ENDROOT
BRANCH   1   7
ATOM      7  C   UNL     1      41.261 -41.260  -5.643  1.00  0.00     0.003 C 
ATOM      8  C   UNL     1      43.677 -41.641  -5.339  1.00  0.00     0.035 C 
ATOM      9  C   UNL     1      42.401 -40.927  -5.027  1.00  0.00    -0.030 C 
ENDBRANCH   1   7
BRANCH   3  10
ATOM     10  O   UNL     1      37.818 -39.762  -2.423  1.00  0.00    -0.493 OA
ATOM     11  C   UNL     1      38.656 -39.751  -1.273  1.00  0.00     0.278 C 
ENDBRANCH   3  10
BRANCH   4  12
ATOM     12  O   UNL     1      36.249 -38.821  -4.487  1.00  0.00    -0.504 OA
ATOM     13  H   UNL     1      35.825 -38.905  -3.571  1.00  0.00     0.293 HD
ENDBRANCH   4  12
TORSDOF 3
ENDMDL
MODEL 3
REMARK VINA RESULT:    -4.365      4.585      4.942
REMARK INTER + INTRA:          -5.165
REMARK INTER:                  -5.011
REMARK INTRA:                  -0.155
REMARK UNBOUND:                -0.162
REMARK SMILES CC=Cc1ccc(O)c(OC)c1
REMARK SMILES IDX 4 1 12 2 9 3 7 4 6 5 5 6 3 7 1 8 2 9 10 10 11 11 8 12
REMARK H PARENT 8 13
REMARK Flexibility Score: inf
ROOT
ATOM      1  C   UNL     1      42.813 -40.185  -3.976  1.00  0.00    -0.022 A 
ATOM      2  C   UNL     1      42.660 -38.816  -4.253  1.00  0.00     0.058 A 
ATOM      3  C   UNL     1      42.585 -37.871  -3.211  1.00  0.00     0.161 A 
ATOM      4  C   UNL     1      42.674 -38.307  -1.882  1.00  0.00     0.157 A 
ATOM      5  C   UNL     1      42.842 -39.668  -1.598  1.00  0.00     0.051 A 
ATOM      6  C   UNL     1      42.915 -40.601  -2.635  1.00  0.00     0.012 A 
ENDROOT
BRANCH   1   7
ATOM      7  C   UNL     1      42.897 -41.135  -5.112  1.00  0.00     0.003 C 
ATOM      8  C   UNL     1      43.990 -42.795  -6.570  1.00  0.00     0.035 C 
ATOM      9  C   UNL     1      43.989 -41.846  -5.414  1.00  0.00    -0.030 C 
ENDBRANCH   1   7
BRANCH   3  10
ATOM     10  O   UNL     1      42.423 -36.499  -3.454  1.00  0.00    -0.493 OA
ATOM     11  C   UNL     1      41.820 -35.953  -4.623  1.00  0.00     0.278 C 
ENDBRANCH   3  10
BRANCH   4  12
ATOM     12  O   UNL     1      42.598 -37.378  -0.846  1.00  0.00    -0.504 OA
ATOM     13  H   UNL     1      41.993 -36.568  -0.902  1.00  0.00     0.293 HD
ENDBRANCH   4  12
TORSDOF 3
ENDMDL
MODEL 4
REMARK VINA RESULT:    -4.364      2.735      3.842
REMARK INTER + INTRA:          -5.164
REMARK INTER:                  -4.992
REMARK INTRA:                  -0.172
REMARK UNBOUND:                -0.162
REMARK SMILES CC=Cc1ccc(O)c(OC)c1
REMARK SMILES IDX 4 1 12 2 9 3 7 4 6 5 5 6 3 7 1 8 2 9 10 10 11 11 8 12
REMARK H PARENT 8 13
REMARK Flexibility Score: inf
ROOT
ATOM      1  C   UNL     1      41.243 -40.858  -5.003  1.00  0.00    -0.022 A 
ATOM      2  C   UNL     1      41.883 -39.895  -4.205  1.00  0.00     0.058 A 
ATOM      3  C   UNL     1      41.151 -39.110  -3.293  1.00  0.00     0.161 A 
ATOM      4  C   UNL     1      39.768 -39.302  -3.178  1.00  0.00     0.157 A 
ATOM      5  C   UNL     1      39.126 -40.270  -3.960  1.00  0.00     0.051 A 
ATOM      6  C   UNL     1      39.856 -41.046  -4.863  1.00  0.00     0.012 A 
ENDROOT
BRANCH   1   7
ATOM      7  C   UNL     1      42.066 -41.664  -5.940  1.00  0.00     0.003 C 
ATOM      8  C   UNL     1      44.125 -42.751  -6.747  1.00  0.00     0.035 C 
ATOM      9  C   UNL     1      43.368 -41.917  -5.764  1.00  0.00    -0.030 C 
ENDBRANCH   1   7
BRANCH   3  10
ATOM     10  O   UNL     1      41.758 -38.133  -2.488  1.00  0.00    -0.493 OA
ATOM     11  C   UNL     1      42.647 -38.413  -1.412  1.00  0.00     0.278 C 
ENDBRANCH   3  10
BRANCH   4  12
ATOM     12  O   UNL     1      39.036 -38.528  -2.280  1.00  0.00    -0.504 OA
ATOM     13  H   UNL     1      38.027 -38.454  -2.342  1.00  0.00     0.293 HD
ENDBRANCH   4  12
TORSDOF 3
ENDMDL
MODEL 5
REMARK VINA RESULT:    -4.292      1.449      1.472
REMARK INTER + INTRA:          -5.082
REMARK INTER:                  -4.907
REMARK INTRA:                  -0.174
REMARK UNBOUND:                -0.162
REMARK SMILES CC=Cc1ccc(O)c(OC)c1
REMARK SMILES IDX 4 1 12 2 9 3 7 4 6 5 5 6 3 7 1 8 2 9 10 10 11 11 8 12
REMARK H PARENT 8 13
REMARK Flexibility Score: inf
ROOT
ATOM      1  C   UNL     1      40.338 -40.293  -4.752  1.00  0.00    -0.022 A 
ATOM      2  C   UNL     1      39.972 -38.941  -4.864  1.00  0.00     0.058 A 
ATOM      3  C   UNL     1      38.620 -38.551  -4.814  1.00  0.00     0.161 A 
ATOM      4  C   UNL     1      37.630 -39.528  -4.640  1.00  0.00     0.157 A 
ATOM      5  C   UNL     1      37.988 -40.875  -4.511  1.00  0.00     0.051 A 
ATOM      6  C   UNL     1      39.330 -41.258  -4.562  1.00  0.00     0.012 A 
ENDROOT
BRANCH   1   7
ATOM      7  C   UNL     1      41.778 -40.646  -4.802  1.00  0.00     0.003 C 
ATOM      8  C   UNL     1      43.766 -41.836  -5.642  1.00  0.00     0.035 C 
ATOM      9  C   UNL     1      42.299 -41.547  -5.643  1.00  0.00    -0.030 C 
ENDBRANCH   1   7
BRANCH   3  10
ATOM     10  O   UNL     1      38.221 -37.211  -4.933  1.00  0.00    -0.493 OA
ATOM     11  C   UNL     1      38.145 -36.499  -6.164  1.00  0.00     0.278 C 
ENDBRANCH   3  10
BRANCH   4  12
ATOM     12  O   UNL     1      36.290 -39.150  -4.590  1.00  0.00    -0.504 OA
ATOM     13  H   UNL     1      35.622 -39.472  -5.280  1.00  0.00     0.293 HD
ENDBRANCH   4  12
TORSDOF 3
ENDMDL
MODEL 6
REMARK VINA RESULT:    -4.282      2.233      3.120
REMARK INTER + INTRA:          -5.069
REMARK INTER:                  -4.913
REMARK INTRA:                  -0.157
REMARK UNBOUND:                -0.162
REMARK SMILES CC=Cc1ccc(O)c(OC)c1
REMARK SMILES IDX 4 1 12 2 9 3 7 4 6 5 5 6 3 7 1 8 2 9 10 10 11 11 8 12
REMARK H PARENT 8 13
REMARK Flexibility Score: inf
ROOT
ATOM      1  C   UNL     1      42.379 -40.472  -4.157  1.00  0.00    -0.022 A 
ATOM      2  C   UNL     1      41.050 -40.431  -4.612  1.00  0.00     0.058 A 
ATOM      3  C   UNL     1      40.070 -39.697  -3.916  1.00  0.00     0.161 A 
ATOM      4  C   UNL     1      40.432 -38.992  -2.760  1.00  0.00     0.157 A 
ATOM      5  C   UNL     1      41.758 -39.016  -2.310  1.00  0.00     0.051 A 
ATOM      6  C   UNL     1      42.726 -39.746  -3.003  1.00  0.00     0.012 A 
ENDROOT
BRANCH   1   7
ATOM      7  C   UNL     1      43.372 -41.254  -4.935  1.00  0.00     0.003 C 
ATOM      8  C   UNL     1      44.125 -42.763  -6.732  1.00  0.00     0.035 C 
ATOM      9  C   UNL     1      43.063 -42.016  -5.990  1.00  0.00    -0.030 C 
ENDBRANCH   1   7
BRANCH   3  10
ATOM     10  O   UNL     1      38.732 -39.643  -4.338  1.00  0.00    -0.493 OA
ATOM     11  C   UNL     1      38.312 -39.723  -5.696  1.00  0.00     0.278 C 
ENDBRANCH   3  10
BRANCH   4  12
ATOM     12  O   UNL     1      39.468 -38.265  -2.065  1.00  0.00    -0.504 OA
ATOM     13  H   UNL     1      38.481 -38.353  -2.277  1.00  0.00     0.293 HD
ENDBRANCH   4  12
TORSDOF 3
ENDMDL
MODEL 7
REMARK VINA RESULT:    -4.217      3.314      5.639
REMARK INTER + INTRA:          -4.995
REMARK INTER:                  -4.825
REMARK INTRA:                  -0.170
REMARK UNBOUND:                -0.162
REMARK SMILES CC=Cc1ccc(O)c(OC)c1
REMARK SMILES IDX 4 1 12 2 9 3 7 4 6 5 5 6 3 7 1 8 2 9 10 10 11 11 8 12
REMARK H PARENT 8 13
REMARK Flexibility Score: inf
ROOT
ATOM      1  C   UNL     1      39.964 -40.698  -4.921  1.00  0.00    -0.022 A 
ATOM      2  C   UNL     1      40.784 -40.190  -3.899  1.00  0.00     0.058 A 
ATOM      3  C   UNL     1      42.176 -40.402  -3.916  1.00  0.00     0.161 A 
ATOM      4  C   UNL     1      42.748 -41.122  -4.974  1.00  0.00     0.157 A 
ATOM      5  C   UNL     1      41.939 -41.618  -6.004  1.00  0.00     0.051 A 
ATOM      6  C   UNL     1      40.559 -41.405  -5.983  1.00  0.00     0.012 A 
ENDROOT
BRANCH   1   7
ATOM      7  C   UNL     1      38.505 -40.435  -4.858  1.00  0.00     0.003 C 
ATOM      8  C   UNL     1      36.386 -39.811  -3.766  1.00  0.00     0.035 C 
ATOM      9  C   UNL     1      37.858 -40.072  -3.745  1.00  0.00    -0.030 C 
ENDBRANCH   1   7
BRANCH   3  10
ATOM     10  O   UNL     1      43.021 -39.917  -2.906  1.00  0.00    -0.493 OA
ATOM     11  C   UNL     1      42.977 -40.339  -1.547  1.00  0.00     0.278 C 
ENDBRANCH   3  10
BRANCH   4  12
ATOM     12  O   UNL     1      44.124 -41.337  -4.997  1.00  0.00    -0.504 OA
ATOM     13  H   UNL     1      44.724 -40.864  -5.662  1.00  0.00     0.293 HD
ENDBRANCH   4  12
TORSDOF 3
ENDMDL
MODEL 8
REMARK VINA RESULT:    -4.086      3.290      5.444
REMARK INTER + INTRA:          -4.845
REMARK INTER:                  -4.692
REMARK INTRA:                  -0.153
REMARK UNBOUND:                -0.162
REMARK SMILES CC=Cc1ccc(O)c(OC)c1
REMARK SMILES IDX 4 1 12 2 9 3 7 4 6 5 5 6 3 7 1 8 2 9 10 10 11 11 8 12
REMARK H PARENT 8 13
REMARK Flexibility Score: inf
ROOT
ATOM      1  C   UNL     1      40.044 -40.315  -5.186  1.00  0.00    -0.022 A 
ATOM      2  C   UNL     1      40.940 -39.605  -4.367  1.00  0.00     0.058 A 
ATOM      3  C   UNL     1      42.305 -39.949  -4.321  1.00  0.00     0.161 A 
ATOM      4  C   UNL     1      42.773 -41.008  -5.109  1.00  0.00     0.157 A 
ATOM      5  C   UNL     1      41.890 -41.710  -5.939  1.00  0.00     0.051 A 
ATOM      6  C   UNL     1      40.537 -41.366  -5.982  1.00  0.00     0.012 A 
ENDROOT
BRANCH   1   7
ATOM      7  C   UNL     1      38.619 -39.903  -5.204  1.00  0.00     0.003 C 
ATOM      8  C   UNL     1      36.744 -38.330  -5.494  1.00  0.00     0.035 C 
ATOM      9  C   UNL     1      38.202 -38.663  -5.481  1.00  0.00    -0.030 C 
ENDBRANCH   1   7
BRANCH   3  10
ATOM     10  O   UNL     1      43.222 -39.266  -3.506  1.00  0.00    -0.493 OA
ATOM     11  C   UNL     1      43.135 -37.884  -3.178  1.00  0.00     0.278 C 
ENDBRANCH   3  10
BRANCH   4  12
ATOM     12  O   UNL     1      44.122 -41.355  -5.067  1.00  0.00    -0.504 OA
ATOM     13  H   UNL     1      44.665 -41.273  -4.215  1.00  0.00     0.293 HD
ENDBRANCH   4  12
TORSDOF 3
ENDMDL
MODEL 9
REMARK VINA RESULT:    -3.982      3.285      5.121
REMARK INTER + INTRA:          -4.726
REMARK INTER:                  -4.580
REMARK INTRA:                  -0.146
REMARK UNBOUND:                -0.162
REMARK SMILES CC=Cc1ccc(O)c(OC)c1
REMARK SMILES IDX 4 1 12 2 9 3 7 4 6 5 5 6 3 7 1 8 2 9 10 10 11 11 8 12
REMARK H PARENT 8 13
REMARK Flexibility Score: inf
ROOT
ATOM      1  C   UNL     1      40.006 -40.269  -4.739  1.00  0.00    -0.022 A 
ATOM      2  C   UNL     1      41.272 -40.763  -5.098  1.00  0.00     0.058 A 
ATOM      3  C   UNL     1      42.341 -40.746  -4.182  1.00  0.00     0.161 A 
ATOM      4  C   UNL     1      42.133 -40.236  -2.894  1.00  0.00     0.157 A 
ATOM      5  C   UNL     1      40.870 -39.756  -2.524  1.00  0.00     0.051 A 
ATOM      6  C   UNL     1      39.813 -39.775  -3.436  1.00  0.00     0.012 A 
ENDROOT
BRANCH   1   7
ATOM      7  C   UNL     1      38.913 -40.321  -5.742  1.00  0.00     0.003 C 
ATOM      8  C   UNL     1      37.587 -39.513  -7.655  1.00  0.00     0.035 C 
ATOM      9  C   UNL     1      38.703 -39.381  -6.669  1.00  0.00    -0.030 C 
ENDBRANCH   1   7
BRANCH   3  10
ATOM     10  O   UNL     1      43.619 -41.223  -4.512  1.00  0.00    -0.493 OA
ATOM     11  C   UNL     1      43.907 -42.044  -5.639  1.00  0.00     0.278 C 
ENDBRANCH   3  10
BRANCH   4  12
ATOM     12  O   UNL     1      43.187 -40.214  -1.982  1.00  0.00    -0.504 OA
ATOM     13  H   UNL     1      43.085 -40.585  -1.044  1.00  0.00     0.293 HD
ENDBRANCH   4  12
TORSDOF 3
ENDMDL
