MODEL 1
REMARK VINA RESULT:    -4.611      0.000      0.000
REMARK INTER + INTRA:          -5.587
REMARK INTER:                  -5.285
REMARK INTRA:                  -0.301
REMARK UNBOUND:                -0.301
REMARK SMILES O=C1C[C@H](c2ccc(O)cc2)Oc2cc(O)cc(O)c21
REMARK SMILES IDX 3 1 4 2 12 3 13 4 14 5 15 6 17 7 18 8 20 9 2 10 1 11 5 12
REMARK SMILES IDX 6 13 11 14 7 15 10 16 8 17 9 18 19 20 16 22
REMARK H PARENT 9 19 19 21 16 23
REMARK Flexibility Score: inf
ROOT
ATOM      1  C   UNL     1     -32.443   9.747 -36.283  1.00  0.00     0.131 C 
ATOM      2  C   UNL     1     -33.970   9.722 -36.134  1.00  0.00     0.211 C 
ATOM      3  O   UNL     1     -34.387  10.717 -35.199  1.00  0.00    -0.484 OA
ATOM      4  C   UNL     1     -33.734  10.898 -33.975  1.00  0.00     0.138 A 
ATOM      5  C   UNL     1     -34.365  11.645 -32.979  1.00  0.00     0.093 A 
ATOM      6  C   UNL     1     -33.754  11.823 -31.739  1.00  0.00     0.123 A 
ATOM      7  C   UNL     1     -32.511  11.235 -31.487  1.00  0.00     0.093 A 
ATOM      8  C   UNL     1     -31.863  10.475 -32.468  1.00  0.00     0.133 A 
ATOM      9  C   UNL     1     -32.454  10.340 -33.756  1.00  0.00     0.102 A 
ATOM     10  C   UNL     1     -31.780   9.714 -34.933  1.00  0.00     0.174 C 
ATOM     11  O   UNL     1     -30.613   9.253 -34.860  1.00  0.00    -0.294 OA
ENDROOT
BRANCH   2  12
ATOM     12  C   UNL     1     -34.643   9.946 -37.466  1.00  0.00    -0.007 A 
ATOM     13  C   UNL     1     -34.849   8.875 -38.354  1.00  0.00     0.011 A 
ATOM     14  C   UNL     1     -35.125  11.220 -37.808  1.00  0.00     0.011 A 
ATOM     15  C   UNL     1     -35.502   9.083 -39.573  1.00  0.00     0.046 A 
ATOM     16  C   UNL     1     -35.777  11.426 -39.028  1.00  0.00     0.046 A 
ATOM     17  C   UNL     1     -35.966  10.360 -39.914  1.00  0.00     0.115 A 
BRANCH  17  18
ATOM     18  O   UNL     1     -36.617  10.580 -41.125  1.00  0.00    -0.508 OA
ATOM     19  H   UNL     1     -36.160  10.400 -42.012  1.00  0.00     0.293 HD
ENDBRANCH  17  18
ENDBRANCH   2  12
BRANCH   8  20
ATOM     20  O   UNL     1     -30.656   9.872 -32.103  1.00  0.00    -0.507 OA
ATOM     21  H   UNL     1     -29.833  10.373 -31.807  1.00  0.00     0.293 HD
ENDBRANCH   8  20
BRANCH   6  22
ATOM     22  O   UNL     1     -34.397  12.577 -30.759  1.00  0.00    -0.508 OA
ATOM     23  H   UNL     1     -33.953  13.384 -30.335  1.00  0.00     0.293 HD
ENDBRANCH   6  22
TORSDOF 4
ENDMDL
MODEL 2
REMARK VINA RESULT:    -4.534      1.716      6.784
REMARK INTER + INTRA:          -5.498
REMARK INTER:                  -5.198
REMARK INTRA:                  -0.299
REMARK UNBOUND:                -0.301
REMARK SMILES O=C1C[C@H](c2ccc(O)cc2)Oc2cc(O)cc(O)c21
REMARK SMILES IDX 3 1 4 2 12 3 13 4 14 5 15 6 17 7 18 8 20 9 2 10 1 11 5 12
REMARK SMILES IDX 6 13 11 14 7 15 10 16 8 17 9 18 19 20 16 22
REMARK H PARENT 9 19 19 21 16 23
REMARK Flexibility Score: inf
ROOT
ATOM      1  C   UNL     1     -32.617   9.593 -36.850  1.00  0.00     0.131 C 
ATOM      2  C   UNL     1     -33.356  10.778 -36.217  1.00  0.00     0.211 C 
ATOM      3  O   UNL     1     -34.754  10.685 -36.488  1.00  0.00    -0.484 OA
ATOM      4  C   UNL     1     -35.237  10.374 -37.764  1.00  0.00     0.138 A 
ATOM      5  C   UNL     1     -36.583  10.610 -38.051  1.00  0.00     0.093 A 
ATOM      6  C   UNL     1     -37.091  10.336 -39.319  1.00  0.00     0.123 A 
ATOM      7  C   UNL     1     -36.244   9.840 -40.314  1.00  0.00     0.093 A 
ATOM      8  C   UNL     1     -34.888   9.602 -40.052  1.00  0.00     0.133 A 
ATOM      9  C   UNL     1     -34.377   9.824 -38.741  1.00  0.00     0.102 A 
ATOM     10  C   UNL     1     -33.007   9.437 -38.294  1.00  0.00     0.174 C 
ATOM     11  O   UNL     1     -32.190   8.875 -39.068  1.00  0.00    -0.294 OA
ENDROOT
BRANCH   2  12
ATOM     12  C   UNL     1     -33.119  10.826 -34.727  1.00  0.00    -0.007 A 
ATOM     13  C   UNL     1     -33.767  11.786 -33.928  1.00  0.00     0.011 A 
ATOM     14  C   UNL     1     -32.292   9.871 -34.113  1.00  0.00     0.011 A 
ATOM     15  C   UNL     1     -33.569  11.805 -32.545  1.00  0.00     0.046 A 
ATOM     16  C   UNL     1     -32.095   9.893 -32.728  1.00  0.00     0.046 A 
ATOM     17  C   UNL     1     -32.730  10.859 -31.941  1.00  0.00     0.115 A 
BRANCH  17  18
ATOM     18  O   UNL     1     -32.524  10.868 -30.564  1.00  0.00    -0.508 OA
ATOM     19  H   UNL     1     -33.022  11.510 -29.958  1.00  0.00     0.293 HD
ENDBRANCH  17  18
ENDBRANCH   2  12
BRANCH   8  20
ATOM     20  O   UNL     1     -34.106   9.168 -41.125  1.00  0.00    -0.507 OA
ATOM     21  H   UNL     1     -34.037   9.642 -42.012  1.00  0.00     0.293 HD
ENDBRANCH   8  20
BRANCH   6  22
ATOM     22  O   UNL     1     -38.439  10.572 -39.585  1.00  0.00    -0.508 OA
ATOM     23  H   UNL     1     -39.171  10.102 -39.067  1.00  0.00     0.293 HD
ENDBRANCH   6  22
TORSDOF 4
ENDMDL
MODEL 3
REMARK VINA RESULT:    -4.214      1.575      6.634
REMARK INTER + INTRA:          -5.132
REMARK INTER:                  -4.822
REMARK INTRA:                  -0.310
REMARK UNBOUND:                -0.301
REMARK SMILES O=C1C[C@H](c2ccc(O)cc2)Oc2cc(O)cc(O)c21
REMARK SMILES IDX 3 1 4 2 12 3 13 4 14 5 15 6 17 7 18 8 20 9 2 10 1 11 5 12
REMARK SMILES IDX 6 13 11 14 7 15 10 16 8 17 9 18 19 20 16 22
REMARK H PARENT 9 19 19 21 16 23
REMARK Flexibility Score: inf
ROOT
ATOM      1  C   UNL     1     -31.912  10.045 -34.104  1.00  0.00     0.131 C 
ATOM      2  C   UNL     1     -32.658  11.377 -33.961  1.00  0.00     0.211 C 
ATOM      3  O   UNL     1     -33.899  11.322 -34.664  1.00  0.00    -0.484 OA
ATOM      4  C   UNL     1     -33.990  10.795 -35.957  1.00  0.00     0.138 A 
ATOM      5  C   UNL     1     -35.136  11.055 -36.710  1.00  0.00     0.093 A 
ATOM      6  C   UNL     1     -35.248  10.568 -38.011  1.00  0.00     0.123 A 
ATOM      7  C   UNL     1     -34.200   9.830 -38.569  1.00  0.00     0.093 A 
ATOM      8  C   UNL     1     -33.037   9.563 -37.834  1.00  0.00     0.133 A 
ATOM      9  C   UNL     1     -32.942  10.007 -36.485  1.00  0.00     0.102 A 
ATOM     10  C   UNL     1     -31.842   9.631 -35.548  1.00  0.00     0.174 C 
ATOM     11  O   UNL     1     -30.901   8.875 -35.901  1.00  0.00    -0.294 OA
ENDROOT
BRANCH   2  12
ATOM     12  C   UNL     1     -32.899  11.704 -32.507  1.00  0.00    -0.007 A 
ATOM     13  C   UNL     1     -31.878  11.532 -31.555  1.00  0.00     0.011 A 
ATOM     14  C   UNL     1     -34.132  12.240 -32.099  1.00  0.00     0.011 A 
ATOM     15  C   UNL     1     -32.097  11.867 -30.215  1.00  0.00     0.046 A 
ATOM     16  C   UNL     1     -34.349  12.572 -30.758  1.00  0.00     0.046 A 
ATOM     17  C   UNL     1     -33.335  12.386 -29.813  1.00  0.00     0.115 A 
BRANCH  17  18
ATOM     18  O   UNL     1     -33.566  12.723 -28.481  1.00  0.00    -0.508 OA
ATOM     19  H   UNL     1     -34.366  12.360 -27.975  1.00  0.00     0.293 HD
ENDBRANCH  17  18
ENDBRANCH   2  12
BRANCH   8  20
ATOM     20  O   UNL     1     -32.017   8.875 -38.497  1.00  0.00    -0.507 OA
ATOM     21  H   UNL     1     -31.603   9.166 -39.369  1.00  0.00     0.293 HD
ENDBRANCH   8  20
BRANCH   6  22
ATOM     22  O   UNL     1     -36.402  10.832 -38.747  1.00  0.00    -0.508 OA
ATOM     23  H   UNL     1     -36.426  11.561 -39.451  1.00  0.00     0.293 HD
ENDBRANCH   6  22
TORSDOF 4
ENDMDL
