MODEL 1
REMARK VINA RESULT:    -5.903      0.000      0.000
REMARK INTER + INTRA:          -7.234
REMARK INTER:                  -6.938
REMARK INTRA:                  -0.296
REMARK UNBOUND:                -0.296
REMARK SMILES O=c1c(O)c(-c2ccc(O)cc2)oc2cc(O)cc(O)c12
REMARK SMILES IDX 5 1 3 2 2 3 1 4 21 5 19 6 18 7 16 8 15 9 14 10 13 11 6 12
REMARK SMILES IDX 7 13 8 14 9 15 12 16 11 17 10 18 4 20 20 22 17 24
REMARK H PARENT 10 19 4 21 20 23 17 25
REMARK Flexibility Score: inf
ROOT
ATOM      1  C   UNL     1     110.434 104.373 100.269  1.00  0.00     0.180 A 
ATOM      2  C   UNL     1     111.317 103.286 100.124  1.00  0.00     0.208 A 
ATOM      3  C   UNL     1     112.252 103.306  99.078  1.00  0.00     0.238 A 
ATOM      4  O   UNL     1     113.055 102.343  98.944  1.00  0.00    -0.285 OA
ATOM      5  C   UNL     1     112.276 104.398  98.186  1.00  0.00     0.111 A 
ATOM      6  C   UNL     1     113.184 104.493  97.103  1.00  0.00     0.134 A 
ATOM      7  C   UNL     1     113.138 105.609  96.253  1.00  0.00     0.093 A 
ATOM      8  C   UNL     1     112.206 106.627  96.463  1.00  0.00     0.123 A 
ATOM      9  C   UNL     1     111.307 106.538  97.531  1.00  0.00     0.094 A 
ATOM     10  C   UNL     1     111.337 105.436  98.390  1.00  0.00     0.146 A 
ATOM     11  O   UNL     1     110.476 105.379  99.400  1.00  0.00    -0.452 OA
ENDROOT
BRANCH   1  12
ATOM     12  C   UNL     1     109.433 104.435 101.358  1.00  0.00     0.021 A 
ATOM     13  C   UNL     1     109.759 104.950 102.626  1.00  0.00     0.016 A 
ATOM     14  C   UNL     1     108.790 105.020 103.632  1.00  0.00     0.047 A 
ATOM     15  C   UNL     1     107.484 104.591 103.381  1.00  0.00     0.115 A 
ATOM     16  C   UNL     1     108.113 104.025 101.108  1.00  0.00     0.016 A 
ATOM     17  C   UNL     1     107.146 104.095 102.116  1.00  0.00     0.047 A 
BRANCH  15  18
ATOM     18  O   UNL     1     106.529 104.665 104.394  1.00  0.00    -0.508 OA
ATOM     19  H   UNL     1     106.383 103.898 105.040  1.00  0.00     0.293 HD
ENDBRANCH  15  18
ENDBRANCH   1  12
BRANCH   2  20
ATOM     20  O   UNL     1     111.240 102.193 100.992  1.00  0.00    -0.502 OA
ATOM     21  H   UNL     1     111.069 101.251 100.664  1.00  0.00     0.293 HD
ENDBRANCH   2  20
BRANCH   6  22
ATOM     22  O   UNL     1     114.127 103.492  96.866  1.00  0.00    -0.507 OA
ATOM     23  H   UNL     1     114.049 102.863  96.074  1.00  0.00     0.293 HD
ENDBRANCH   6  22
BRANCH   8  24
ATOM     24  O   UNL     1     112.181 107.723  95.605  1.00  0.00    -0.508 OA
ATOM     25  H   UNL     1     112.408 107.632  94.620  1.00  0.00     0.293 HD
ENDBRANCH   8  24
TORSDOF 5
ENDMDL
MODEL 2
REMARK VINA RESULT:    -5.821      1.935      7.323
REMARK INTER + INTRA:          -7.137
REMARK INTER:                  -6.849
REMARK INTRA:                  -0.288
REMARK UNBOUND:                -0.296
REMARK SMILES O=c1c(O)c(-c2ccc(O)cc2)oc2cc(O)cc(O)c12
REMARK SMILES IDX 5 1 3 2 2 3 1 4 21 5 19 6 18 7 16 8 15 9 14 10 13 11 6 12
REMARK SMILES IDX 7 13 8 14 9 15 12 16 11 17 10 18 4 20 20 22 17 24
REMARK H PARENT 10 19 4 21 20 23 17 25
REMARK Flexibility Score: inf
ROOT
ATOM      1  C   UNL     1     110.327 103.630 100.668  1.00  0.00     0.180 A 
ATOM      2  C   UNL     1     110.122 104.839 101.361  1.00  0.00     0.208 A 
ATOM      3  C   UNL     1     109.197 104.866 102.416  1.00  0.00     0.238 A 
ATOM      4  O   UNL     1     109.012 105.940 103.052  1.00  0.00    -0.285 OA
ATOM      5  C   UNL     1     108.482 103.696 102.747  1.00  0.00     0.111 A 
ATOM      6  C   UNL     1     107.529 103.641 103.793  1.00  0.00     0.134 A 
ATOM      7  C   UNL     1     106.851 102.441 104.054  1.00  0.00     0.093 A 
ATOM      8  C   UNL     1     107.105 101.299 103.291  1.00  0.00     0.123 A 
ATOM      9  C   UNL     1     108.045 101.348 102.257  1.00  0.00     0.094 A 
ATOM     10  C   UNL     1     108.732 102.534 101.982  1.00  0.00     0.146 A 
ATOM     11  O   UNL     1     109.623 102.551 100.997  1.00  0.00    -0.452 OA
ENDROOT
BRANCH   1  12
ATOM     12  C   UNL     1     111.299 103.516  99.556  1.00  0.00     0.021 A 
ATOM     13  C   UNL     1     110.943 103.839  98.234  1.00  0.00     0.016 A 
ATOM     14  C   UNL     1     111.885 103.746  97.204  1.00  0.00     0.047 A 
ATOM     15  C   UNL     1     113.194 103.344  97.484  1.00  0.00     0.115 A 
ATOM     16  C   UNL     1     112.622 103.133  99.832  1.00  0.00     0.016 A 
ATOM     17  C   UNL     1     113.562 103.040  98.800  1.00  0.00     0.047 A 
BRANCH  15  18
ATOM     18  O   UNL     1     114.122 103.254  96.447  1.00  0.00    -0.508 OA
ATOM     19  H   UNL     1     114.299 102.377  95.971  1.00  0.00     0.293 HD
ENDBRANCH  15  18
ENDBRANCH   1  12
BRANCH   2  20
ATOM     20  O   UNL     1     110.808 105.996 100.982  1.00  0.00    -0.502 OA
ATOM     21  H   UNL     1     110.331 106.863 100.768  1.00  0.00     0.293 HD
ENDBRANCH   2  20
BRANCH   6  22
ATOM     22  O   UNL     1     107.252 104.766 104.572  1.00  0.00    -0.507 OA
ATOM     23  H   UNL     1     106.497 104.772 105.249  1.00  0.00     0.293 HD
ENDBRANCH   6  22
BRANCH   8  24
ATOM     24  O   UNL     1     106.418 100.120 103.570  1.00  0.00    -0.508 OA
ATOM     25  H   UNL     1     105.765 100.057 104.343  1.00  0.00     0.293 HD
ENDBRANCH   8  24
TORSDOF 5
ENDMDL
MODEL 3
REMARK VINA RESULT:    -5.762      3.808      5.543
REMARK INTER + INTRA:          -7.068
REMARK INTER:                  -7.013
REMARK INTRA:                  -0.055
REMARK UNBOUND:                -0.296
REMARK SMILES O=c1c(O)c(-c2ccc(O)cc2)oc2cc(O)cc(O)c12
REMARK SMILES IDX 5 1 3 2 2 3 1 4 21 5 19 6 18 7 16 8 15 9 14 10 13 11 6 12
REMARK SMILES IDX 7 13 8 14 9 15 12 16 11 17 10 18 4 20 20 22 17 24
REMARK H PARENT 10 19 4 21 20 23 17 25
REMARK Flexibility Score: inf
ROOT
ATOM      1  C   UNL     1     110.256 103.169  97.497  1.00  0.00     0.180 A 
ATOM      2  C   UNL     1     109.841 103.125  98.842  1.00  0.00     0.208 A 
ATOM      3  C   UNL     1     110.599 103.804  99.808  1.00  0.00     0.238 A 
ATOM      4  O   UNL     1     110.231 103.780 101.014  1.00  0.00    -0.285 OA
ATOM      5  C   UNL     1     111.765 104.496  99.420  1.00  0.00     0.111 A 
ATOM      6  C   UNL     1     112.587 105.201 100.333  1.00  0.00     0.134 A 
ATOM      7  C   UNL     1     113.737 105.857  99.869  1.00  0.00     0.093 A 
ATOM      8  C   UNL     1     114.082 105.822  98.516  1.00  0.00     0.123 A 
ATOM      9  C   UNL     1     113.273 105.127  97.610  1.00  0.00     0.094 A 
ATOM     10  C   UNL     1     112.122 104.468  98.052  1.00  0.00     0.146 A 
ATOM     11  O   UNL     1     111.370 103.819  97.170  1.00  0.00    -0.452 OA
ENDROOT
BRANCH   1  12
ATOM     12  C   UNL     1     109.500 102.495  96.417  1.00  0.00     0.021 A 
ATOM     13  C   UNL     1     108.134 102.757  96.203  1.00  0.00     0.016 A 
ATOM     14  C   UNL     1     107.447 102.126  95.162  1.00  0.00     0.047 A 
ATOM     15  C   UNL     1     108.117 101.239  94.314  1.00  0.00     0.115 A 
ATOM     16  C   UNL     1     110.170 101.618  95.548  1.00  0.00     0.016 A 
ATOM     17  C   UNL     1     109.480 100.987  94.507  1.00  0.00     0.047 A 
BRANCH  15  18
ATOM     18  O   UNL     1     107.418 100.615  93.281  1.00  0.00    -0.508 OA
ATOM     19  H   UNL     1     107.900 100.125  92.537  1.00  0.00     0.293 HD
ENDBRANCH  15  18
ENDBRANCH   1  12
BRANCH   2  20
ATOM     20  O   UNL     1     108.710 102.391  99.207  1.00  0.00    -0.502 OA
ATOM     21  H   UNL     1     108.716 101.730  99.974  1.00  0.00     0.293 HD
ENDBRANCH   2  20
BRANCH   6  22
ATOM     22  O   UNL     1     112.270 105.255 101.691  1.00  0.00    -0.507 OA
ATOM     23  H   UNL     1     111.785 106.049 102.094  1.00  0.00     0.293 HD
ENDBRANCH   6  22
BRANCH   8  24
ATOM     24  O   UNL     1     115.228 106.481  98.082  1.00  0.00    -0.508 OA
ATOM     25  H   UNL     1     115.523 106.451  97.112  1.00  0.00     0.293 HD
ENDBRANCH   8  24
TORSDOF 5
ENDMDL
MODEL 4
REMARK VINA RESULT:    -5.728      8.111     10.218
REMARK INTER + INTRA:          -7.028
REMARK INTER:                  -6.743
REMARK INTRA:                  -0.285
REMARK UNBOUND:                -0.296
REMARK SMILES O=c1c(O)c(-c2ccc(O)cc2)oc2cc(O)cc(O)c12
REMARK SMILES IDX 5 1 3 2 2 3 1 4 21 5 19 6 18 7 16 8 15 9 14 10 13 11 6 12
REMARK SMILES IDX 7 13 8 14 9 15 12 16 11 17 10 18 4 20 20 22 17 24
REMARK H PARENT 10 19 4 21 20 23 17 25
REMARK Flexibility Score: inf
ROOT
ATOM      1  C   UNL     1     105.850 110.245  95.846  1.00  0.00     0.180 A 
ATOM      2  C   UNL     1     106.495 110.776  94.712  1.00  0.00     0.208 A 
ATOM      3  C   UNL     1     106.084 112.024  94.220  1.00  0.00     0.238 A 
ATOM      4  O   UNL     1     106.662 112.515  93.212  1.00  0.00    -0.285 OA
ATOM      5  C   UNL     1     105.027 112.709  94.854  1.00  0.00     0.111 A 
ATOM      6  C   UNL     1     104.550 113.970  94.418  1.00  0.00     0.134 A 
ATOM      7  C   UNL     1     103.486 114.583  95.097  1.00  0.00     0.093 A 
ATOM      8  C   UNL     1     102.891 113.964  96.198  1.00  0.00     0.123 A 
ATOM      9  C   UNL     1     103.359 112.719  96.633  1.00  0.00     0.094 A 
ATOM     10  C   UNL     1     104.418 112.092  95.972  1.00  0.00     0.146 A 
ATOM     11  O   UNL     1     104.846 110.913  96.408  1.00  0.00    -0.452 OA
ENDROOT
BRANCH   1  12
ATOM     12  C   UNL     1     106.238 108.944  96.436  1.00  0.00     0.021 A 
ATOM     13  C   UNL     1     107.130 108.868  97.522  1.00  0.00     0.016 A 
ATOM     14  C   UNL     1     107.464 107.629  98.078  1.00  0.00     0.047 A 
ATOM     15  C   UNL     1     106.902 106.455  97.567  1.00  0.00     0.115 A 
ATOM     16  C   UNL     1     105.663 107.762  95.942  1.00  0.00     0.016 A 
ATOM     17  C   UNL     1     105.999 106.524  96.500  1.00  0.00     0.047 A 
BRANCH  15  18
ATOM     18  O   UNL     1     107.246 105.227  98.130  1.00  0.00    -0.508 OA
ATOM     19  H   UNL     1     106.805 104.892  98.980  1.00  0.00     0.293 HD
ENDBRANCH  15  18
ENDBRANCH   1  12
BRANCH   2  20
ATOM     20  O   UNL     1     107.507 110.054  94.074  1.00  0.00    -0.502 OA
ATOM     21  H   UNL     1     107.849 110.299  93.153  1.00  0.00     0.293 HD
ENDBRANCH   2  20
BRANCH   6  22
ATOM     22  O   UNL     1     105.122 114.614  93.321  1.00  0.00    -0.507 OA
ATOM     23  H   UNL     1     104.582 115.229  92.722  1.00  0.00     0.293 HD
ENDBRANCH   6  22
BRANCH   8  24
ATOM     24  O   UNL     1     101.837 114.594  96.854  1.00  0.00    -0.508 OA
ATOM     25  H   UNL     1     100.940 114.737  96.402  1.00  0.00     0.293 HD
ENDBRANCH   8  24
TORSDOF 5
ENDMDL
MODEL 5
REMARK VINA RESULT:    -5.715      5.202      8.255
REMARK INTER + INTRA:          -7.013
REMARK INTER:                  -7.046
REMARK INTRA:                   0.032
REMARK UNBOUND:                -0.296
REMARK SMILES O=c1c(O)c(-c2ccc(O)cc2)oc2cc(O)cc(O)c12
REMARK SMILES IDX 5 1 3 2 2 3 1 4 21 5 19 6 18 7 16 8 15 9 14 10 13 11 6 12
REMARK SMILES IDX 7 13 8 14 9 15 12 16 11 17 10 18 4 20 20 22 17 24
REMARK H PARENT 10 19 4 21 20 23 17 25
REMARK Flexibility Score: inf
ROOT
ATOM      1  C   UNL     1     107.106 103.535  96.715  1.00  0.00     0.180 A 
ATOM      2  C   UNL     1     107.619 104.554  97.541  1.00  0.00     0.208 A 
ATOM      3  C   UNL     1     106.731 105.288  98.342  1.00  0.00     0.238 A 
ATOM      4  O   UNL     1     107.180 106.195  99.095  1.00  0.00    -0.285 OA
ATOM      5  C   UNL     1     105.351 105.007  98.291  1.00  0.00     0.111 A 
ATOM      6  C   UNL     1     104.389 105.705  99.063  1.00  0.00     0.134 A 
ATOM      7  C   UNL     1     103.031 105.373  98.948  1.00  0.00     0.093 A 
ATOM      8  C   UNL     1     102.615 104.362  98.078  1.00  0.00     0.123 A 
ATOM      9  C   UNL     1     103.561 103.670  97.313  1.00  0.00     0.094 A 
ATOM     10  C   UNL     1     104.918 103.985  97.414  1.00  0.00     0.146 A 
ATOM     11  O   UNL     1     105.795 103.309  96.681  1.00  0.00    -0.452 OA
ENDROOT
BRANCH   1  12
ATOM     12  C   UNL     1     107.979 102.704  95.855  1.00  0.00     0.021 A 
ATOM     13  C   UNL     1     109.148 102.105  96.358  1.00  0.00     0.016 A 
ATOM     14  C   UNL     1     109.944 101.304  95.533  1.00  0.00     0.047 A 
ATOM     15  C   UNL     1     109.577 101.081  94.203  1.00  0.00     0.115 A 
ATOM     16  C   UNL     1     107.606 102.458  94.523  1.00  0.00     0.016 A 
ATOM     17  C   UNL     1     108.404 101.657  93.700  1.00  0.00     0.047 A 
BRANCH  15  18
ATOM     18  O   UNL     1     110.381 100.283  93.392  1.00  0.00    -0.508 OA
ATOM     19  H   UNL     1     109.987  99.555  92.807  1.00  0.00     0.293 HD
ENDBRANCH  15  18
ENDBRANCH   1  12
BRANCH   2  20
ATOM     20  O   UNL     1     108.986 104.844  97.537  1.00  0.00    -0.502 OA
ATOM     21  H   UNL     1     109.693 104.124  97.612  1.00  0.00     0.293 HD
ENDBRANCH   2  20
BRANCH   6  22
ATOM     22  O   UNL     1     104.773 106.720  99.940  1.00  0.00    -0.507 OA
ATOM     23  H   UNL     1     104.614 107.698  99.725  1.00  0.00     0.293 HD
ENDBRANCH   6  22
BRANCH   8  24
ATOM     24  O   UNL     1     101.261 104.053  97.982  1.00  0.00    -0.508 OA
ATOM     25  H   UNL     1     100.828 103.369  98.593  1.00  0.00     0.293 HD
ENDBRANCH   8  24
TORSDOF 5
ENDMDL
MODEL 6
REMARK VINA RESULT:    -5.710      3.481      4.764
REMARK INTER + INTRA:          -7.008
REMARK INTER:                  -7.048
REMARK INTRA:                   0.041
REMARK UNBOUND:                -0.296
REMARK SMILES O=c1c(O)c(-c2ccc(O)cc2)oc2cc(O)cc(O)c12
REMARK SMILES IDX 5 1 3 2 2 3 1 4 21 5 19 6 18 7 16 8 15 9 14 10 13 11 6 12
REMARK SMILES IDX 7 13 8 14 9 15 12 16 11 17 10 18 4 20 20 22 17 24
REMARK H PARENT 10 19 4 21 20 23 17 25
REMARK Flexibility Score: inf
ROOT
ATOM      1  C   UNL     1     111.805 106.476 101.432  1.00  0.00     0.180 A 
ATOM      2  C   UNL     1     110.727 105.620 101.729  1.00  0.00     0.208 A 
ATOM      3  C   UNL     1     110.560 104.451 100.971  1.00  0.00     0.238 A 
ATOM      4  O   UNL     1     109.605 103.671 101.235  1.00  0.00    -0.285 OA
ATOM      5  C   UNL     1     111.458 104.167  99.921  1.00  0.00     0.111 A 
ATOM      6  C   UNL     1     111.357 103.012  99.107  1.00  0.00     0.134 A 
ATOM      7  C   UNL     1     112.285 102.806  98.075  1.00  0.00     0.093 A 
ATOM      8  C   UNL     1     113.307 103.728  97.840  1.00  0.00     0.123 A 
ATOM      9  C   UNL     1     113.411 104.870  98.641  1.00  0.00     0.094 A 
ATOM     10  C   UNL     1     112.498 105.093  99.675  1.00  0.00     0.146 A 
ATOM     11  O   UNL     1     112.623 106.183 100.424  1.00  0.00    -0.452 OA
ENDROOT
BRANCH   1  12
ATOM     12  C   UNL     1     112.059 107.717 102.197  1.00  0.00     0.021 A 
ATOM     13  C   UNL     1     111.038 108.656 102.433  1.00  0.00     0.016 A 
ATOM     14  C   UNL     1     111.296 109.810 103.180  1.00  0.00     0.047 A 
ATOM     15  C   UNL     1     112.570 110.034 103.711  1.00  0.00     0.115 A 
ATOM     16  C   UNL     1     113.331 107.940 102.752  1.00  0.00     0.016 A 
ATOM     17  C   UNL     1     113.587 109.095 103.497  1.00  0.00     0.047 A 
BRANCH  15  18
ATOM     18  O   UNL     1     112.813 111.190 104.451  1.00  0.00    -0.508 OA
ATOM     19  H   UNL     1     113.739 111.599 104.504  1.00  0.00     0.293 HD
ENDBRANCH  15  18
ENDBRANCH   1  12
BRANCH   2  20
ATOM     20  O   UNL     1     109.823 105.949 102.743  1.00  0.00    -0.502 OA
ATOM     21  H   UNL     1     109.972 106.731 103.368  1.00  0.00     0.293 HD
ENDBRANCH   2  20
BRANCH   6  22
ATOM     22  O   UNL     1     110.347 102.073  99.316  1.00  0.00    -0.507 OA
ATOM     23  H   UNL     1     109.856 102.006 100.201  1.00  0.00     0.293 HD
ENDBRANCH   6  22
BRANCH   8  24
ATOM     24  O   UNL     1     114.214 103.500  96.809  1.00  0.00    -0.508 OA
ATOM     25  H   UNL     1     114.547 102.567  96.591  1.00  0.00     0.293 HD
ENDBRANCH   8  24
TORSDOF 5
ENDMDL
MODEL 7
REMARK VINA RESULT:    -5.672      7.261      9.385
REMARK INTER + INTRA:          -6.963
REMARK INTER:                  -6.682
REMARK INTRA:                  -0.281
REMARK UNBOUND:                -0.296
REMARK SMILES O=c1c(O)c(-c2ccc(O)cc2)oc2cc(O)cc(O)c12
REMARK SMILES IDX 5 1 3 2 2 3 1 4 21 5 19 6 18 7 16 8 15 9 14 10 13 11 6 12
REMARK SMILES IDX 7 13 8 14 9 15 12 16 11 17 10 18 4 20 20 22 17 24
REMARK H PARENT 10 19 4 21 20 23 17 25
REMARK Flexibility Score: inf
ROOT
ATOM      1  C   UNL     1     106.029 109.221  95.647  1.00  0.00     0.180 A 
ATOM      2  C   UNL     1     104.869 109.867  96.115  1.00  0.00     0.208 A 
ATOM      3  C   UNL     1     104.617 111.187  95.710  1.00  0.00     0.238 A 
ATOM      4  O   UNL     1     103.576 111.772  96.115  1.00  0.00    -0.285 OA
ATOM      5  C   UNL     1     105.534 111.842  94.863  1.00  0.00     0.111 A 
ATOM      6  C   UNL     1     105.356 113.173  94.412  1.00  0.00     0.134 A 
ATOM      7  C   UNL     1     106.320 113.759  93.578  1.00  0.00     0.093 A 
ATOM      8  C   UNL     1     107.455 113.045  93.188  1.00  0.00     0.123 A 
ATOM      9  C   UNL     1     107.635 111.730  93.630  1.00  0.00     0.094 A 
ATOM     10  C   UNL     1     106.686 111.127  94.460  1.00  0.00     0.146 A 
ATOM     11  O   UNL     1     106.879 109.876  94.861  1.00  0.00    -0.452 OA
ENDROOT
BRANCH   1  12
ATOM     12  C   UNL     1     106.355 107.824  96.014  1.00  0.00     0.021 A 
ATOM     13  C   UNL     1     106.039 106.749  95.163  1.00  0.00     0.016 A 
ATOM     14  C   UNL     1     106.378 105.440  95.520  1.00  0.00     0.047 A 
ATOM     15  C   UNL     1     107.047 105.190  96.722  1.00  0.00     0.115 A 
ATOM     16  C   UNL     1     107.045 107.566  97.210  1.00  0.00     0.016 A 
ATOM     17  C   UNL     1     107.383 106.256  97.565  1.00  0.00     0.047 A 
BRANCH  15  18
ATOM     18  O   UNL     1     107.377 103.880  97.066  1.00  0.00    -0.508 OA
ATOM     19  H   UNL     1     108.270 103.652  97.487  1.00  0.00     0.293 HD
ENDBRANCH  15  18
ENDBRANCH   1  12
BRANCH   2  20
ATOM     20  O   UNL     1     104.001 109.211  96.994  1.00  0.00    -0.502 OA
ATOM     21  H   UNL     1     103.633 108.288  96.803  1.00  0.00     0.293 HD
ENDBRANCH   2  20
BRANCH   6  22
ATOM     22  O   UNL     1     104.234 113.914  94.786  1.00  0.00    -0.507 OA
ATOM     23  H   UNL     1     103.574 113.570  95.474  1.00  0.00     0.293 HD
ENDBRANCH   6  22
BRANCH   8  24
ATOM     24  O   UNL     1     108.396 113.650  92.360  1.00  0.00    -0.508 OA
ATOM     25  H   UNL     1     108.605 113.285  91.437  1.00  0.00     0.293 HD
ENDBRANCH   8  24
TORSDOF 5
ENDMDL
MODEL 8
REMARK VINA RESULT:    -5.642      4.849      6.864
REMARK INTER + INTRA:          -6.927
REMARK INTER:                  -6.647
REMARK INTRA:                  -0.280
REMARK UNBOUND:                -0.296
REMARK SMILES O=c1c(O)c(-c2ccc(O)cc2)oc2cc(O)cc(O)c12
REMARK SMILES IDX 5 1 3 2 2 3 1 4 21 5 19 6 18 7 16 8 15 9 14 10 13 11 6 12
REMARK SMILES IDX 7 13 8 14 9 15 12 16 11 17 10 18 4 20 20 22 17 24
REMARK H PARENT 10 19 4 21 20 23 17 25
REMARK Flexibility Score: inf
ROOT
ATOM      1  C   UNL     1     110.339 102.202  97.006  1.00  0.00     0.180 A 
ATOM      2  C   UNL     1     110.166 101.277  98.054  1.00  0.00     0.208 A 
ATOM      3  C   UNL     1     109.255 100.224  97.885  1.00  0.00     0.238 A 
ATOM      4  O   UNL     1     109.099  99.383  98.812  1.00  0.00    -0.285 OA
ATOM      5  C   UNL     1     108.521 100.123  96.685  1.00  0.00     0.111 A 
ATOM      6  C   UNL     1     107.580  99.093  96.438  1.00  0.00     0.134 A 
ATOM      7  C   UNL     1     106.882  99.068  95.221  1.00  0.00     0.093 A 
ATOM      8  C   UNL     1     107.104 100.047  94.251  1.00  0.00     0.123 A 
ATOM      9  C   UNL     1     108.032 101.065  94.490  1.00  0.00     0.094 A 
ATOM     10  C   UNL     1     108.739 101.108  95.695  1.00  0.00     0.146 A 
ATOM     11  O   UNL     1     109.618 102.084  95.894  1.00  0.00    -0.452 OA
ENDROOT
BRANCH   1  12
ATOM     12  C   UNL     1     111.295 103.329  97.100  1.00  0.00     0.021 A 
ATOM     13  C   UNL     1     110.945 104.537  97.730  1.00  0.00     0.016 A 
ATOM     14  C   UNL     1     111.872 105.579  97.828  1.00  0.00     0.047 A 
ATOM     15  C   UNL     1     113.162 105.423  97.312  1.00  0.00     0.115 A 
ATOM     16  C   UNL     1     112.599 103.173  96.602  1.00  0.00     0.016 A 
ATOM     17  C   UNL     1     113.525 104.217  96.700  1.00  0.00     0.047 A 
BRANCH  15  18
ATOM     18  O   UNL     1     114.075 106.471  97.415  1.00  0.00    -0.508 OA
ATOM     19  H   UNL     1     115.055 106.344  97.187  1.00  0.00     0.293 HD
ENDBRANCH  15  18
ENDBRANCH   1  12
BRANCH   2  20
ATOM     20  O   UNL     1     110.870 101.429  99.252  1.00  0.00    -0.502 OA
ATOM     21  H   UNL     1     111.843 101.165  99.346  1.00  0.00     0.293 HD
ENDBRANCH   2  20
BRANCH   6  22
ATOM     22  O   UNL     1     107.335  98.101  97.388  1.00  0.00    -0.507 OA
ATOM     23  H   UNL     1     108.085  97.689  97.933  1.00  0.00     0.293 HD
ENDBRANCH   6  22
BRANCH   8  24
ATOM     24  O   UNL     1     106.397  99.998  93.052  1.00  0.00    -0.508 OA
ATOM     25  H   UNL     1     105.795 100.760  92.759  1.00  0.00     0.293 HD
ENDBRANCH   8  24
TORSDOF 5
ENDMDL
MODEL 9
REMARK VINA RESULT:    -5.581      5.523      7.568
REMARK INTER + INTRA:          -6.856
REMARK INTER:                  -6.575
REMARK INTRA:                  -0.281
REMARK UNBOUND:                -0.296
REMARK SMILES O=c1c(O)c(-c2ccc(O)cc2)oc2cc(O)cc(O)c12
REMARK SMILES IDX 5 1 3 2 2 3 1 4 21 5 19 6 18 7 16 8 15 9 14 10 13 11 6 12
REMARK SMILES IDX 7 13 8 14 9 15 12 16 11 17 10 18 4 20 20 22 17 24
REMARK H PARENT 10 19 4 21 20 23 17 25
REMARK Flexibility Score: inf
ROOT
ATOM      1  C   UNL     1     106.831 103.981  96.705  1.00  0.00     0.180 A 
ATOM      2  C   UNL     1     106.195 104.050  97.960  1.00  0.00     0.208 A 
ATOM      3  C   UNL     1     105.519 105.228  98.313  1.00  0.00     0.238 A 
ATOM      4  O   UNL     1     104.936 105.298  99.430  1.00  0.00    -0.285 OA
ATOM      5  C   UNL     1     105.505 106.318  97.420  1.00  0.00     0.111 A 
ATOM      6  C   UNL     1     104.851 107.542  97.702  1.00  0.00     0.134 A 
ATOM      7  C   UNL     1     104.892 108.585  96.764  1.00  0.00     0.093 A 
ATOM      8  C   UNL     1     105.573 108.430  95.555  1.00  0.00     0.123 A 
ATOM      9  C   UNL     1     106.221 107.223  95.271  1.00  0.00     0.094 A 
ATOM     10  C   UNL     1     106.191 106.172  96.191  1.00  0.00     0.146 A 
ATOM     11  O   UNL     1     106.811 105.035  95.895  1.00  0.00    -0.452 OA
ENDROOT
BRANCH   1  12
ATOM     12  C   UNL     1     107.549 102.767  96.252  1.00  0.00     0.021 A 
ATOM     13  C   UNL     1     106.932 101.820  95.414  1.00  0.00     0.016 A 
ATOM     14  C   UNL     1     107.637 100.694  94.979  1.00  0.00     0.047 A 
ATOM     15  C   UNL     1     108.968 100.506  95.364  1.00  0.00     0.115 A 
ATOM     16  C   UNL     1     108.892 102.582  96.617  1.00  0.00     0.016 A 
ATOM     17  C   UNL     1     109.596 101.454  96.182  1.00  0.00     0.047 A 
BRANCH  15  18
ATOM     18  O   UNL     1     109.658  99.378  94.925  1.00  0.00    -0.508 OA
ATOM     19  H   UNL     1     110.090  99.344  94.009  1.00  0.00     0.293 HD
ENDBRANCH  15  18
ENDBRANCH   1  12
BRANCH   2  20
ATOM     20  O   UNL     1     106.265 102.973  98.847  1.00  0.00    -0.502 OA
ATOM     21  H   UNL     1     106.972 102.253  98.771  1.00  0.00     0.293 HD
ENDBRANCH   2  20
BRANCH   6  22
ATOM     22  O   UNL     1     104.162 107.729  98.901  1.00  0.00    -0.507 OA
ATOM     23  H   UNL     1     103.425 107.097  99.196  1.00  0.00     0.293 HD
ENDBRANCH   6  22
BRANCH   8  24
ATOM     24  O   UNL     1     105.599 109.481  94.642  1.00  0.00    -0.508 OA
ATOM     25  H   UNL     1     104.748 109.938  94.334  1.00  0.00     0.293 HD
ENDBRANCH   8  24
TORSDOF 5
ENDMDL
