MODEL 1
REMARK VINA RESULT:    -3.252      0.000      0.000
REMARK INTER + INTRA:         -12.726
REMARK INTER:                  -7.435
REMARK INTRA:                  -5.290
REMARK UNBOUND:                -5.290
REMARK SMILES CCCCCCCCCCCCCCCCCCCCCCCC(=O)[O-]
REMARK SMILES IDX 13 1 14 2 15 3 16 4 17 5 18 6 19 7 20 8 21 9 22 10 23 11
REMARK SMILES IDX 24 12 25 13 26 14 12 15 11 16 10 17 9 18 8 19 7 20 6 21 5 22
REMARK SMILES IDX 4 23 3 24 2 25 1 26
REMARK H PARENT
REMARK Flexibility Score: inf
ROOT
ATOM      1  C   UNL     1      10.526 -11.539  17.652  1.00  0.00     0.000 C 
ENDROOT
BRANCH   1   2
ATOM      2  C   UNL     1      10.091 -12.040  19.039  1.00  0.00     0.000 C 
BRANCH   2   3
ATOM      3  C   UNL     1      11.153 -12.925  19.709  1.00  0.00     0.000 C 
BRANCH   3   4
ATOM      4  C   UNL     1      10.510 -14.147  20.378  1.00  0.00     0.000 C 
BRANCH   4   5
ATOM      5  C   UNL     1      11.101 -14.378  21.777  1.00  0.00     0.000 C 
BRANCH   5   6
ATOM      6  C   UNL     1      12.574 -13.952  21.876  1.00  0.00     0.000 C 
BRANCH   6   7
ATOM      7  C   UNL     1      13.519 -15.141  22.125  1.00  0.00     0.000 C 
BRANCH   7   8
ATOM      8  C   UNL     1      14.795 -15.070  21.272  1.00  0.00     0.000 C 
BRANCH   8   9
ATOM      9  C   UNL     1      14.643 -14.145  20.056  1.00  0.00     0.000 C 
BRANCH   9  10
ATOM     10  C   UNL     1      14.794 -14.935  18.747  1.00  0.00     0.006 C 
BRANCH  10  11
ATOM     11  C   UNL     1      13.442 -15.396  18.187  1.00  0.00     0.053 C 
BRANCH  11  12
ATOM     12  C   UNL     1      13.140 -16.814  18.565  1.00  0.00     0.041 C 
ATOM     13  O   UNL     1      13.855 -17.753  18.125  1.00  0.00    -0.550 OA
ATOM     14  O   UNL     1      12.085 -17.097  19.424  1.00  0.00    -0.550 OA
ENDBRANCH  11  12
ENDBRANCH  10  11
ENDBRANCH   9  10
ENDBRANCH   8   9
ENDBRANCH   7   8
ENDBRANCH   6   7
ENDBRANCH   5   6
ENDBRANCH   4   5
ENDBRANCH   3   4
ENDBRANCH   2   3
ENDBRANCH   1   2
BRANCH   1  15
ATOM     15  C   UNL     1      11.632 -12.405  17.028  1.00  0.00     0.000 C 
BRANCH  15  16
ATOM     16  C   UNL     1      12.822 -11.576  16.518  1.00  0.00     0.000 C 
BRANCH  16  17
ATOM     17  C   UNL     1      14.039 -11.585  17.468  1.00  0.00     0.000 C 
BRANCH  17  18
ATOM     18  C   UNL     1      14.287 -10.206  18.104  1.00  0.00    -0.000 C 
BRANCH  18  19
ATOM     19  C   UNL     1      13.679 -10.086  19.510  1.00  0.00    -0.000 C 
BRANCH  19  20
ATOM     20  C   UNL     1      12.520  -9.075  19.567  1.00  0.00    -0.000 C 
BRANCH  20  21
ATOM     21  C   UNL     1      11.655  -9.237  20.828  1.00  0.00    -0.000 C 
BRANCH  21  22
ATOM     22  C   UNL     1      12.297 -10.171  21.868  1.00  0.00    -0.000 C 
BRANCH  22  23
ATOM     23  C   UNL     1      11.290 -10.662  22.919  1.00  0.00    -0.000 C 
BRANCH  23  24
ATOM     24  C   UNL     1       9.829 -10.528  22.453  1.00  0.00    -0.000 C 
BRANCH  24  25
ATOM     25  C   UNL     1       8.951 -11.698  22.923  1.00  0.00    -0.003 C 
ATOM     26  C   UNL     1       7.810 -12.005  21.954  1.00  0.00     0.004 C 
ENDBRANCH  24  25
ENDBRANCH  23  24
ENDBRANCH  22  23
ENDBRANCH  21  22
ENDBRANCH  20  21
ENDBRANCH  19  20
ENDBRANCH  18  19
ENDBRANCH  17  18
ENDBRANCH  16  17
ENDBRANCH  15  16
ENDBRANCH   1  15
TORSDOF 22
ENDMDL
MODEL 2
REMARK VINA RESULT:    -3.144      1.727      4.250
REMARK INTER + INTRA:         -12.477
REMARK INTER:                  -7.677
REMARK INTRA:                  -4.800
REMARK UNBOUND:                -5.290
REMARK SMILES CCCCCCCCCCCCCCCCCCCCCCCC(=O)[O-]
REMARK SMILES IDX 13 1 14 2 15 3 16 4 17 5 18 6 19 7 20 8 21 9 22 10 23 11
REMARK SMILES IDX 24 12 25 13 26 14 12 15 11 16 10 17 9 18 8 19 7 20 6 21 5 22
REMARK SMILES IDX 4 23 3 24 2 25 1 26
REMARK H PARENT
REMARK Flexibility Score: inf
ROOT
ATOM      1  C   UNL     1      13.022 -14.246  20.440  1.00  0.00     0.000 C 
ENDROOT
BRANCH   1   2
ATOM      2  C   UNL     1      13.822 -14.179  21.751  1.00  0.00     0.000 C 
BRANCH   2   3
ATOM      3  C   UNL     1      14.368 -12.772  22.040  1.00  0.00     0.000 C 
BRANCH   3   4
ATOM      4  C   UNL     1      14.368 -11.909  20.771  1.00  0.00     0.000 C 
BRANCH   4   5
ATOM      5  C   UNL     1      13.743 -10.533  21.045  1.00  0.00     0.000 C 
BRANCH   5   6
ATOM      6  C   UNL     1      13.603  -9.682  19.773  1.00  0.00     0.000 C 
BRANCH   6   7
ATOM      7  C   UNL     1      14.181 -10.379  18.528  1.00  0.00     0.000 C 
BRANCH   7   8
ATOM      8  C   UNL     1      13.253 -10.274  17.308  1.00  0.00     0.000 C 
BRANCH   8   9
ATOM      9  C   UNL     1      13.121 -11.602  16.549  1.00  0.00     0.000 C 
BRANCH   9  10
ATOM     10  C   UNL     1      13.998 -12.688  17.189  1.00  0.00     0.006 C 
BRANCH  10  11
ATOM     11  C   UNL     1      14.567 -13.663  16.150  1.00  0.00     0.053 C 
BRANCH  11  12
ATOM     12  C   UNL     1      13.806 -14.953  16.125  1.00  0.00     0.041 C 
ATOM     13  O   UNL     1      14.132 -15.866  15.321  1.00  0.00    -0.550 OA
ATOM     14  O   UNL     1      12.751 -15.158  17.006  1.00  0.00    -0.550 OA
ENDBRANCH  11  12
ENDBRANCH  10  11
ENDBRANCH   9  10
ENDBRANCH   8   9
ENDBRANCH   7   8
ENDBRANCH   6   7
ENDBRANCH   5   6
ENDBRANCH   4   5
ENDBRANCH   3   4
ENDBRANCH   2   3
ENDBRANCH   1   2
BRANCH   1  15
ATOM     15  C   UNL     1      11.583 -14.747  20.649  1.00  0.00     0.000 C 
BRANCH  15  16
ATOM     16  C   UNL     1      10.528 -13.662  20.374  1.00  0.00     0.000 C 
BRANCH  16  17
ATOM     17  C   UNL     1      10.990 -12.587  19.367  1.00  0.00     0.000 C 
BRANCH  17  18
ATOM     18  C   UNL     1      10.217 -11.267  19.536  1.00  0.00    -0.000 C 
BRANCH  18  19
ATOM     19  C   UNL     1       8.762 -11.368  19.053  1.00  0.00    -0.000 C 
BRANCH  19  20
ATOM     20  C   UNL     1       7.836 -10.363  19.759  1.00  0.00    -0.000 C 
BRANCH  20  21
ATOM     21  C   UNL     1       8.154 -10.215  21.256  1.00  0.00    -0.000 C 
BRANCH  21  22
ATOM     22  C   UNL     1       7.565 -11.358  22.100  1.00  0.00    -0.000 C 
BRANCH  22  23
ATOM     23  C   UNL     1       8.600 -11.985  23.047  1.00  0.00    -0.000 C 
BRANCH  23  24
ATOM     24  C   UNL     1       9.770 -11.036  23.362  1.00  0.00    -0.000 C 
BRANCH  24  25
ATOM     25  C   UNL     1      11.118 -11.768  23.439  1.00  0.00    -0.003 C 
ATOM     26  C   UNL     1      10.993 -13.176  24.020  1.00  0.00     0.004 C 
ENDBRANCH  24  25
ENDBRANCH  23  24
ENDBRANCH  22  23
ENDBRANCH  21  22
ENDBRANCH  20  21
ENDBRANCH  19  20
ENDBRANCH  18  19
ENDBRANCH  17  18
ENDBRANCH  16  17
ENDBRANCH  15  16
ENDBRANCH   1  15
TORSDOF 22
ENDMDL
MODEL 3
REMARK VINA RESULT:    -3.076      4.099      6.460
REMARK INTER + INTRA:         -12.322
REMARK INTER:                  -8.668
REMARK INTRA:                  -3.654
REMARK UNBOUND:                -5.290
REMARK SMILES CCCCCCCCCCCCCCCCCCCCCCCC(=O)[O-]
REMARK SMILES IDX 13 1 14 2 15 3 16 4 17 5 18 6 19 7 20 8 21 9 22 10 23 11
REMARK SMILES IDX 24 12 25 13 26 14 12 15 11 16 10 17 9 18 8 19 7 20 6 21 5 22
REMARK SMILES IDX 4 23 3 24 2 25 1 26
REMARK H PARENT
REMARK Flexibility Score: inf
ROOT
ATOM      1  C   UNL     1      14.162 -13.963  17.967  1.00  0.00     0.000 C 
ENDROOT
BRANCH   1   2
ATOM      2  C   UNL     1      14.316 -12.443  17.795  1.00  0.00     0.000 C 
BRANCH   2   3
ATOM      3  C   UNL     1      13.914 -11.661  19.056  1.00  0.00     0.000 C 
BRANCH   3   4
ATOM      4  C   UNL     1      12.437 -11.250  19.002  1.00  0.00     0.000 C 
BRANCH   4   5
ATOM      5  C   UNL     1      12.297  -9.755  18.675  1.00  0.00     0.000 C 
BRANCH   5   6
ATOM      6  C   UNL     1      11.790  -9.507  17.245  1.00  0.00     0.000 C 
BRANCH   6   7
ATOM      7  C   UNL     1      11.177 -10.767  16.608  1.00  0.00     0.000 C 
BRANCH   7   8
ATOM      8  C   UNL     1      11.705 -11.026  15.188  1.00  0.00     0.000 C 
BRANCH   8   9
ATOM      9  C   UNL     1      10.631 -10.822  14.110  1.00  0.00     0.000 C 
BRANCH   9  10
ATOM     10  C   UNL     1      11.244 -10.231  12.832  1.00  0.00     0.006 C 
BRANCH  10  11
ATOM     11  C   UNL     1      10.539  -8.941  12.392  1.00  0.00     0.053 C 
BRANCH  11  12
ATOM     12  C   UNL     1       9.568  -9.190  11.279  1.00  0.00     0.041 C 
ATOM     13  O   UNL     1       8.514  -9.845  11.493  1.00  0.00    -0.550 OA
ATOM     14  O   UNL     1       9.815  -8.679  10.011  1.00  0.00    -0.550 OA
ENDBRANCH  11  12
ENDBRANCH  10  11
ENDBRANCH   9  10
ENDBRANCH   8   9
ENDBRANCH   7   8
ENDBRANCH   6   7
ENDBRANCH   5   6
ENDBRANCH   4   5
ENDBRANCH   3   4
ENDBRANCH   2   3
ENDBRANCH   1   2
BRANCH   1  15
ATOM     15  C   UNL     1      14.692 -14.465  19.320  1.00  0.00     0.000 C 
BRANCH  15  16
ATOM     16  C   UNL     1      13.641 -15.257  20.116  1.00  0.00     0.000 C 
BRANCH  16  17
ATOM     17  C   UNL     1      12.273 -15.360  19.408  1.00  0.00     0.000 C 
BRANCH  17  18
ATOM     18  C   UNL     1      11.195 -14.513  20.107  1.00  0.00    -0.000 C 
BRANCH  18  19
ATOM     19  C   UNL     1      11.257 -14.625  21.638  1.00  0.00    -0.000 C 
BRANCH  19  20
ATOM     20  C   UNL     1      10.865 -13.314  22.341  1.00  0.00    -0.000 C 
BRANCH  20  21
ATOM     21  C   UNL     1      12.063 -12.374  22.554  1.00  0.00    -0.000 C 
BRANCH  21  22
ATOM     22  C   UNL     1      11.648 -10.894  22.614  1.00  0.00    -0.000 C 
BRANCH  22  23
ATOM     23  C   UNL     1      10.128 -10.704  22.492  1.00  0.00    -0.000 C 
BRANCH  23  24
ATOM     24  C   UNL     1       9.736  -9.780  21.325  1.00  0.00    -0.000 C 
BRANCH  24  25
ATOM     25  C   UNL     1       8.543 -10.320  20.521  1.00  0.00    -0.003 C 
ATOM     26  C   UNL     1       8.899 -11.556  19.696  1.00  0.00     0.004 C 
ENDBRANCH  24  25
ENDBRANCH  23  24
ENDBRANCH  22  23
ENDBRANCH  21  22
ENDBRANCH  20  21
ENDBRANCH  19  20
ENDBRANCH  18  19
ENDBRANCH  17  18
ENDBRANCH  16  17
ENDBRANCH  15  16
ENDBRANCH   1  15
TORSDOF 22
ENDMDL
MODEL 4
REMARK VINA RESULT:    -3.044      1.369      3.714
REMARK INTER + INTRA:         -12.249
REMARK INTER:                  -7.820
REMARK INTRA:                  -4.429
REMARK UNBOUND:                -5.290
REMARK SMILES CCCCCCCCCCCCCCCCCCCCCCCC(=O)[O-]
REMARK SMILES IDX 13 1 14 2 15 3 16 4 17 5 18 6 19 7 20 8 21 9 22 10 23 11
REMARK SMILES IDX 24 12 25 13 26 14 12 15 11 16 10 17 9 18 8 19 7 20 6 21 5 22
REMARK SMILES IDX 4 23 3 24 2 25 1 26
REMARK H PARENT
REMARK Flexibility Score: inf
ROOT
ATOM      1  C   UNL     1      10.860 -11.743  17.491  1.00  0.00     0.000 C 
ENDROOT
BRANCH   1   2
ATOM      2  C   UNL     1      11.366 -10.415  16.905  1.00  0.00     0.000 C 
BRANCH   2   3
ATOM      3  C   UNL     1      12.869 -10.441  16.588  1.00  0.00     0.000 C 
BRANCH   3   4
ATOM      4  C   UNL     1      13.654 -11.150  17.700  1.00  0.00     0.000 C 
BRANCH   4   5
ATOM      5  C   UNL     1      14.319 -10.129  18.635  1.00  0.00     0.000 C 
BRANCH   5   6
ATOM      6  C   UNL     1      13.503  -9.878  19.914  1.00  0.00     0.000 C 
BRANCH   6   7
ATOM      7  C   UNL     1      13.362 -11.141  20.783  1.00  0.00     0.000 C 
BRANCH   7   8
ATOM      8  C   UNL     1      14.720 -11.755  21.156  1.00  0.00     0.000 C 
BRANCH   8   9
ATOM      9  C   UNL     1      14.685 -13.290  21.194  1.00  0.00     0.000 C 
BRANCH   9  10
ATOM     10  C   UNL     1      14.629 -13.871  19.773  1.00  0.00     0.006 C 
BRANCH  10  11
ATOM     11  C   UNL     1      15.145 -15.314  19.714  1.00  0.00     0.053 C 
BRANCH  11  12
ATOM     12  C   UNL     1      14.075 -16.301  20.068  1.00  0.00     0.041 C 
ATOM     13  O   UNL     1      13.863 -16.600  21.273  1.00  0.00    -0.550 OA
ATOM     14  O   UNL     1      13.296 -16.873  19.070  1.00  0.00    -0.550 OA
ENDBRANCH  11  12
ENDBRANCH  10  11
ENDBRANCH   9  10
ENDBRANCH   8   9
ENDBRANCH   7   8
ENDBRANCH   6   7
ENDBRANCH   5   6
ENDBRANCH   4   5
ENDBRANCH   3   4
ENDBRANCH   2   3
ENDBRANCH   1   2
BRANCH   1  15
ATOM     15  C   UNL     1       9.845 -11.541  18.627  1.00  0.00     0.000 C 
BRANCH  15  16
ATOM     16  C   UNL     1      10.164 -12.391  19.869  1.00  0.00     0.000 C 
BRANCH  16  17
ATOM     17  C   UNL     1      10.989 -13.658  19.560  1.00  0.00     0.000 C 
BRANCH  17  18
ATOM     18  C   UNL     1      10.859 -14.717  20.669  1.00  0.00    -0.000 C 
BRANCH  18  19
ATOM     19  C   UNL     1      10.528 -14.102  22.038  1.00  0.00    -0.000 C 
BRANCH  19  20
ATOM     20  C   UNL     1      11.729 -14.123  22.999  1.00  0.00    -0.000 C 
BRANCH  20  21
ATOM     21  C   UNL     1      11.914 -12.791  23.745  1.00  0.00    -0.000 C 
BRANCH  21  22
ATOM     22  C   UNL     1      10.576 -12.095  24.049  1.00  0.00    -0.000 C 
BRANCH  22  23
ATOM     23  C   UNL     1      10.415 -10.771  23.286  1.00  0.00    -0.000 C 
BRANCH  23  24
ATOM     24  C   UNL     1       8.990 -10.197  23.383  1.00  0.00    -0.000 C 
BRANCH  24  25
ATOM     25  C   UNL     1       8.107 -10.611  22.196  1.00  0.00    -0.003 C 
ATOM     26  C   UNL     1       7.340 -11.908  22.454  1.00  0.00     0.004 C 
ENDBRANCH  24  25
ENDBRANCH  23  24
ENDBRANCH  22  23
ENDBRANCH  21  22
ENDBRANCH  20  21
ENDBRANCH  19  20
ENDBRANCH  18  19
ENDBRANCH  17  18
ENDBRANCH  16  17
ENDBRANCH  15  16
ENDBRANCH   1  15
TORSDOF 22
ENDMDL
MODEL 5
REMARK VINA RESULT:    -3.039      1.258      2.968
REMARK INTER + INTRA:         -12.238
REMARK INTER:                  -7.394
REMARK INTRA:                  -4.845
REMARK UNBOUND:                -5.290
REMARK SMILES CCCCCCCCCCCCCCCCCCCCCCCC(=O)[O-]
REMARK SMILES IDX 13 1 14 2 15 3 16 4 17 5 18 6 19 7 20 8 21 9 22 10 23 11
REMARK SMILES IDX 24 12 25 13 26 14 12 15 11 16 10 17 9 18 8 19 7 20 6 21 5 22
REMARK SMILES IDX 4 23 3 24 2 25 1 26
REMARK H PARENT
REMARK Flexibility Score: inf
ROOT
ATOM      1  C   UNL     1      12.510 -12.215  21.643  1.00  0.00     0.000 C 
ENDROOT
BRANCH   1   2
ATOM      2  C   UNL     1      11.338 -13.207  21.560  1.00  0.00     0.000 C 
BRANCH   2   3
ATOM      3  C   UNL     1      11.725 -14.621  22.021  1.00  0.00     0.000 C 
BRANCH   3   4
ATOM      4  C   UNL     1      12.830 -14.571  23.084  1.00  0.00     0.000 C 
BRANCH   4   5
ATOM      5  C   UNL     1      13.987 -15.511  22.715  1.00  0.00     0.000 C 
BRANCH   5   6
ATOM      6  C   UNL     1      13.752 -16.247  21.387  1.00  0.00     0.000 C 
BRANCH   6   7
ATOM      7  C   UNL     1      14.826 -15.923  20.333  1.00  0.00     0.000 C 
BRANCH   7   8
ATOM      8  C   UNL     1      14.964 -14.415  20.075  1.00  0.00     0.000 C 
BRANCH   8   9
ATOM      9  C   UNL     1      14.616 -14.028  18.630  1.00  0.00     0.000 C 
BRANCH   9  10
ATOM     10  C   UNL     1      13.099 -14.091  18.398  1.00  0.00     0.006 C 
BRANCH  10  11
ATOM     11  C   UNL     1      12.742 -14.771  17.070  1.00  0.00     0.053 C 
BRANCH  11  12
ATOM     12  C   UNL     1      12.960 -16.252  17.129  1.00  0.00     0.041 C 
ATOM     13  O   UNL     1      13.784 -16.803  16.353  1.00  0.00    -0.550 OA
ATOM     14  O   UNL     1      12.270 -17.021  18.059  1.00  0.00    -0.550 OA
ENDBRANCH  11  12
ENDBRANCH  10  11
ENDBRANCH   9  10
ENDBRANCH   8   9
ENDBRANCH   7   8
ENDBRANCH   6   7
ENDBRANCH   5   6
ENDBRANCH   4   5
ENDBRANCH   3   4
ENDBRANCH   2   3
ENDBRANCH   1   2
BRANCH   1  15
ATOM     15  C   UNL     1      12.046 -10.749  21.664  1.00  0.00     0.000 C 
BRANCH  15  16
ATOM     16  C   UNL     1      12.797  -9.872  20.649  1.00  0.00     0.000 C 
BRANCH  16  17
ATOM     17  C   UNL     1      13.814 -10.650  19.787  1.00  0.00     0.000 C 
BRANCH  17  18
ATOM     18  C   UNL     1      14.101  -9.942  18.451  1.00  0.00    -0.000 C 
BRANCH  18  19
ATOM     19  C   UNL     1      13.410 -10.623  17.260  1.00  0.00    -0.000 C 
BRANCH  19  20
ATOM     20  C   UNL     1      11.979 -10.105  17.033  1.00  0.00    -0.000 C 
BRANCH  20  21
ATOM     21  C   UNL     1      10.950 -11.240  16.906  1.00  0.00    -0.000 C 
BRANCH  21  22
ATOM     22  C   UNL     1      10.485 -11.769  18.274  1.00  0.00    -0.000 C 
BRANCH  22  23
ATOM     23  C   UNL     1       9.527 -10.799  18.984  1.00  0.00    -0.000 C 
BRANCH  23  24
ATOM     24  C   UNL     1       8.479 -11.524  19.848  1.00  0.00    -0.000 C 
BRANCH  24  25
ATOM     25  C   UNL     1       8.042 -10.693  21.064  1.00  0.00    -0.003 C 
ATOM     26  C   UNL     1       8.191 -11.452  22.382  1.00  0.00     0.004 C 
ENDBRANCH  24  25
ENDBRANCH  23  24
ENDBRANCH  22  23
ENDBRANCH  21  22
ENDBRANCH  20  21
ENDBRANCH  19  20
ENDBRANCH  18  19
ENDBRANCH  17  18
ENDBRANCH  16  17
ENDBRANCH  15  16
ENDBRANCH   1  15
TORSDOF 22
ENDMDL
MODEL 6
REMARK VINA RESULT:    -2.980      1.723      2.825
REMARK INTER + INTRA:         -12.103
REMARK INTER:                  -7.603
REMARK INTRA:                  -4.499
REMARK UNBOUND:                -5.290
REMARK SMILES CCCCCCCCCCCCCCCCCCCCCCCC(=O)[O-]
REMARK SMILES IDX 13 1 14 2 15 3 16 4 17 5 18 6 19 7 20 8 21 9 22 10 23 11
REMARK SMILES IDX 24 12 25 13 26 14 12 15 11 16 10 17 9 18 8 19 7 20 6 21 5 22
REMARK SMILES IDX 4 23 3 24 2 25 1 26
REMARK H PARENT
REMARK Flexibility Score: inf
ROOT
ATOM      1  C   UNL     1       9.969 -11.681  18.567  1.00  0.00     0.000 C 
ENDROOT
BRANCH   1   2
ATOM      2  C   UNL     1      10.079 -12.279  19.978  1.00  0.00     0.000 C 
BRANCH   2   3
ATOM      3  C   UNL     1      10.959 -13.538  20.021  1.00  0.00     0.000 C 
BRANCH   3   4
ATOM      4  C   UNL     1      10.627 -14.401  21.245  1.00  0.00     0.000 C 
BRANCH   4   5
ATOM      5  C   UNL     1      10.842 -13.612  22.545  1.00  0.00     0.000 C 
BRANCH   5   6
ATOM      6  C   UNL     1      11.948 -14.213  23.428  1.00  0.00     0.000 C 
BRANCH   6   7
ATOM      7  C   UNL     1      13.235 -13.369  23.421  1.00  0.00     0.000 C 
BRANCH   7   8
ATOM      8  C   UNL     1      14.101 -13.623  22.177  1.00  0.00     0.000 C 
BRANCH   8   9
ATOM      9  C   UNL     1      14.497 -15.099  22.023  1.00  0.00     0.000 C 
BRANCH   9  10
ATOM     10  C   UNL     1      14.471 -15.520  20.546  1.00  0.00     0.006 C 
BRANCH  10  11
ATOM     11  C   UNL     1      14.607 -14.321  19.597  1.00  0.00     0.053 C 
BRANCH  11  12
ATOM     12  C   UNL     1      14.758 -14.756  18.172  1.00  0.00     0.041 C 
ATOM     13  O   UNL     1      15.458 -15.764  17.887  1.00  0.00    -0.550 OA
ATOM     14  O   UNL     1      14.107 -14.063  17.159  1.00  0.00    -0.550 OA
ENDBRANCH  11  12
ENDBRANCH  10  11
ENDBRANCH   9  10
ENDBRANCH   8   9
ENDBRANCH   7   8
ENDBRANCH   6   7
ENDBRANCH   5   6
ENDBRANCH   4   5
ENDBRANCH   3   4
ENDBRANCH   2   3
ENDBRANCH   1   2
BRANCH   1  15
ATOM     15  C   UNL     1      11.104 -12.139  17.637  1.00  0.00     0.000 C 
BRANCH  15  16
ATOM     16  C   UNL     1      11.323 -11.187  16.449  1.00  0.00     0.000 C 
BRANCH  16  17
ATOM     17  C   UNL     1      12.360 -10.077  16.724  1.00  0.00     0.000 C 
BRANCH  17  18
ATOM     18  C   UNL     1      13.642 -10.632  17.370  1.00  0.00    -0.000 C 
BRANCH  18  19
ATOM     19  C   UNL     1      13.996  -9.919  18.685  1.00  0.00    -0.000 C 
BRANCH  19  20
ATOM     20  C   UNL     1      13.738 -10.799  19.920  1.00  0.00    -0.000 C 
BRANCH  20  21
ATOM     21  C   UNL     1      12.893 -10.086  20.989  1.00  0.00    -0.000 C 
BRANCH  21  22
ATOM     22  C   UNL     1      12.264  -8.782  20.470  1.00  0.00    -0.000 C 
BRANCH  22  23
ATOM     23  C   UNL     1      10.743  -8.736  20.685  1.00  0.00    -0.000 C 
BRANCH  23  24
ATOM     24  C   UNL     1      10.009  -7.954  19.580  1.00  0.00    -0.000 C 
BRANCH  24  25
ATOM     25  C   UNL     1      10.962  -7.443  18.489  1.00  0.00    -0.003 C 
ATOM     26  C   UNL     1      10.752  -5.964  18.168  1.00  0.00     0.004 C 
ENDBRANCH  24  25
ENDBRANCH  23  24
ENDBRANCH  22  23
ENDBRANCH  21  22
ENDBRANCH  20  21
ENDBRANCH  19  20
ENDBRANCH  18  19
ENDBRANCH  17  18
ENDBRANCH  16  17
ENDBRANCH  15  16
ENDBRANCH   1  15
TORSDOF 22
ENDMDL
MODEL 7
REMARK VINA RESULT:    -2.967      2.815      5.617
REMARK INTER + INTRA:         -12.073
REMARK INTER:                  -7.299
REMARK INTRA:                  -4.774
REMARK UNBOUND:                -5.290
REMARK SMILES CCCCCCCCCCCCCCCCCCCCCCCC(=O)[O-]
REMARK SMILES IDX 13 1 14 2 15 3 16 4 17 5 18 6 19 7 20 8 21 9 22 10 23 11
REMARK SMILES IDX 24 12 25 13 26 14 12 15 11 16 10 17 9 18 8 19 7 20 6 21 5 22
REMARK SMILES IDX 4 23 3 24 2 25 1 26
REMARK H PARENT
REMARK Flexibility Score: inf
ROOT
ATOM      1  C   UNL     1      10.144 -12.489  19.538  1.00  0.00     0.000 C 
ENDROOT
BRANCH   1   2
ATOM      2  C   UNL     1      11.030 -13.723  19.770  1.00  0.00     0.000 C 
BRANCH   2   3
ATOM      3  C   UNL     1      10.483 -14.647  20.870  1.00  0.00     0.000 C 
BRANCH   3   4
ATOM      4  C   UNL     1      10.562 -13.972  22.246  1.00  0.00     0.000 C 
BRANCH   4   5
ATOM      5  C   UNL     1      12.003 -13.980  22.778  1.00  0.00     0.000 C 
BRANCH   5   6
ATOM      6  C   UNL     1      12.531 -12.568  23.079  1.00  0.00     0.000 C 
BRANCH   6   7
ATOM      7  C   UNL     1      11.402 -11.563  23.367  1.00  0.00     0.000 C 
BRANCH   7   8
ATOM      8  C   UNL     1      11.362 -10.412  22.349  1.00  0.00     0.000 C 
BRANCH   8   9
ATOM      9  C   UNL     1       9.961  -9.801  22.203  1.00  0.00     0.000 C 
BRANCH   9  10
ATOM     10  C   UNL     1       8.912 -10.655  22.932  1.00  0.00     0.006 C 
BRANCH  10  11
ATOM     11  C   UNL     1       7.873 -11.245  21.969  1.00  0.00     0.053 C 
BRANCH  11  12
ATOM     12  C   UNL     1       7.240 -10.187  21.119  1.00  0.00     0.041 C 
ATOM     13  O   UNL     1       7.388 -10.206  19.868  1.00  0.00    -0.550 OA
ATOM     14  O   UNL     1       6.466  -9.192  21.704  1.00  0.00    -0.550 OA
ENDBRANCH  11  12
ENDBRANCH  10  11
ENDBRANCH   9  10
ENDBRANCH   8   9
ENDBRANCH   7   8
ENDBRANCH   6   7
ENDBRANCH   5   6
ENDBRANCH   4   5
ENDBRANCH   3   4
ENDBRANCH   2   3
ENDBRANCH   1   2
BRANCH   1  15
ATOM     15  C   UNL     1      10.549 -11.695  18.285  1.00  0.00     0.000 C 
BRANCH  15  16
ATOM     16  C   UNL     1      10.887 -10.227  18.594  1.00  0.00     0.000 C 
BRANCH  16  17
ATOM     17  C   UNL     1      11.903  -9.603  17.613  1.00  0.00     0.000 C 
BRANCH  17  18
ATOM     18  C   UNL     1      13.268 -10.314  17.666  1.00  0.00    -0.000 C 
BRANCH  18  19
ATOM     19  C   UNL     1      14.070  -9.959  18.928  1.00  0.00    -0.000 C 
BRANCH  19  20
ATOM     20  C   UNL     1      14.114 -11.115  19.942  1.00  0.00    -0.000 C 
BRANCH  20  21
ATOM     21  C   UNL     1      14.145 -12.495  19.266  1.00  0.00    -0.000 C 
BRANCH  21  22
ATOM     22  C   UNL     1      14.595 -13.611  20.226  1.00  0.00    -0.000 C 
BRANCH  22  23
ATOM     23  C   UNL     1      14.641 -14.989  19.546  1.00  0.00    -0.000 C 
BRANCH  23  24
ATOM     24  C   UNL     1      14.014 -16.099  20.409  1.00  0.00    -0.000 C 
BRANCH  24  25
ATOM     25  C   UNL     1      13.129 -17.051  19.590  1.00  0.00    -0.003 C 
ATOM     26  C   UNL     1      12.793 -16.500  18.205  1.00  0.00     0.004 C 
ENDBRANCH  24  25
ENDBRANCH  23  24
ENDBRANCH  22  23
ENDBRANCH  21  22
ENDBRANCH  20  21
ENDBRANCH  19  20
ENDBRANCH  18  19
ENDBRANCH  17  18
ENDBRANCH  16  17
ENDBRANCH  15  16
ENDBRANCH   1  15
TORSDOF 22
ENDMDL
MODEL 8
REMARK VINA RESULT:    -2.961      2.457      6.215
REMARK INTER + INTRA:         -12.059
REMARK INTER:                  -7.041
REMARK INTRA:                  -5.018
REMARK UNBOUND:                -5.290
REMARK SMILES CCCCCCCCCCCCCCCCCCCCCCCC(=O)[O-]
REMARK SMILES IDX 13 1 14 2 15 3 16 4 17 5 18 6 19 7 20 8 21 9 22 10 23 11
REMARK SMILES IDX 24 12 25 13 26 14 12 15 11 16 10 17 9 18 8 19 7 20 6 21 5 22
REMARK SMILES IDX 4 23 3 24 2 25 1 26
REMARK H PARENT
REMARK Flexibility Score: inf
ROOT
ATOM      1  C   UNL     1      10.924 -12.099  18.223  1.00  0.00     0.000 C 
ENDROOT
BRANCH   1   2
ATOM      2  C   UNL     1      12.141 -12.695  17.497  1.00  0.00     0.000 C 
BRANCH   2   3
ATOM      3  C   UNL     1      12.915 -11.648  16.681  1.00  0.00     0.000 C 
BRANCH   3   4
ATOM      4  C   UNL     1      12.795 -10.257  17.315  1.00  0.00     0.000 C 
BRANCH   4   5
ATOM      5  C   UNL     1      13.949 -10.001  18.297  1.00  0.00     0.000 C 
BRANCH   5   6
ATOM      6  C   UNL     1      13.540  -9.093  19.467  1.00  0.00     0.000 C 
BRANCH   6   7
ATOM      7  C   UNL     1      12.999  -9.885  20.670  1.00  0.00     0.000 C 
BRANCH   7   8
ATOM      8  C   UNL     1      11.604  -9.412  21.109  1.00  0.00     0.000 C 
BRANCH   8   9
ATOM      9  C   UNL     1      11.334  -9.666  22.599  1.00  0.00     0.000 C 
BRANCH   9  10
ATOM     10  C   UNL     1       9.975 -10.353  22.799  1.00  0.00     0.006 C 
BRANCH  10  11
ATOM     11  C   UNL     1       9.017 -10.100  21.628  1.00  0.00     0.053 C 
BRANCH  11  12
ATOM     12  C   UNL     1       7.755 -10.896  21.760  1.00  0.00     0.041 C 
ATOM     13  O   UNL     1       7.802 -12.153  21.820  1.00  0.00    -0.550 OA
ATOM     14  O   UNL     1       6.528 -10.249  21.843  1.00  0.00    -0.550 OA
ENDBRANCH  11  12
ENDBRANCH  10  11
ENDBRANCH   9  10
ENDBRANCH   8   9
ENDBRANCH   7   8
ENDBRANCH   6   7
ENDBRANCH   5   6
ENDBRANCH   4   5
ENDBRANCH   3   4
ENDBRANCH   2   3
ENDBRANCH   1   2
BRANCH   1  15
ATOM     15  C   UNL     1      10.754 -12.652  19.647  1.00  0.00     0.000 C 
BRANCH  15  16
ATOM     16  C   UNL     1      10.909 -14.181  19.716  1.00  0.00     0.000 C 
BRANCH  16  17
ATOM     17  C   UNL     1      10.743 -14.760  21.137  1.00  0.00     0.000 C 
BRANCH  17  18
ATOM     18  C   UNL     1      10.968 -13.695  22.225  1.00  0.00    -0.000 C 
BRANCH  18  19
ATOM     19  C   UNL     1      12.246 -13.946  23.042  1.00  0.00    -0.000 C 
BRANCH  19  20
ATOM     20  C   UNL     1      13.344 -12.908  22.751  1.00  0.00    -0.000 C 
BRANCH  20  21
ATOM     21  C   UNL     1      14.521 -13.498  21.958  1.00  0.00    -0.000 C 
BRANCH  21  22
ATOM     22  C   UNL     1      14.458 -13.146  20.461  1.00  0.00    -0.000 C 
BRANCH  22  23
ATOM     23  C   UNL     1      14.664 -14.374  19.559  1.00  0.00    -0.000 C 
BRANCH  23  24
ATOM     24  C   UNL     1      14.447 -15.703  20.305  1.00  0.00    -0.000 C 
BRANCH  24  25
ATOM     25  C   UNL     1      13.566 -16.684  19.517  1.00  0.00    -0.003 C 
ATOM     26  C   UNL     1      13.452 -16.317  18.037  1.00  0.00     0.004 C 
ENDBRANCH  24  25
ENDBRANCH  23  24
ENDBRANCH  22  23
ENDBRANCH  21  22
ENDBRANCH  20  21
ENDBRANCH  19  20
ENDBRANCH  18  19
ENDBRANCH  17  18
ENDBRANCH  16  17
ENDBRANCH  15  16
ENDBRANCH   1  15
TORSDOF 22
ENDMDL
MODEL 9
REMARK VINA RESULT:    -2.959      1.843      5.430
REMARK INTER + INTRA:         -12.055
REMARK INTER:                  -7.427
REMARK INTRA:                  -4.629
REMARK UNBOUND:                -5.290
REMARK SMILES CCCCCCCCCCCCCCCCCCCCCCCC(=O)[O-]
REMARK SMILES IDX 13 1 14 2 15 3 16 4 17 5 18 6 19 7 20 8 21 9 22 10 23 11
REMARK SMILES IDX 24 12 25 13 26 14 12 15 11 16 10 17 9 18 8 19 7 20 6 21 5 22
REMARK SMILES IDX 4 23 3 24 2 25 1 26
REMARK H PARENT
REMARK Flexibility Score: inf
ROOT
ATOM      1  C   UNL     1       8.370 -11.794  23.668  1.00  0.00     0.000 C 
ENDROOT
BRANCH   1   2
ATOM      2  C   UNL     1       9.783 -12.385  23.531  1.00  0.00     0.000 C 
BRANCH   2   3
ATOM      3  C   UNL     1      10.885 -11.326  23.689  1.00  0.00     0.000 C 
BRANCH   3   4
ATOM      4  C   UNL     1      10.331  -9.914  23.454  1.00  0.00     0.000 C 
BRANCH   4   5
ATOM      5  C   UNL     1      11.127  -9.190  22.358  1.00  0.00     0.000 C 
BRANCH   5   6
ATOM      6  C   UNL     1      12.366  -9.979  21.907  1.00  0.00     0.000 C 
BRANCH   6   7
ATOM      7  C   UNL     1      13.271  -9.169  20.962  1.00  0.00     0.000 C 
BRANCH   7   8
ATOM      8  C   UNL     1      13.805 -10.009  19.791  1.00  0.00     0.000 C 
BRANCH   8   9
ATOM      9  C   UNL     1      13.075  -9.718  18.472  1.00  0.00     0.000 C 
BRANCH   9  10
ATOM     10  C   UNL     1      13.773 -10.415  17.295  1.00  0.00     0.006 C 
BRANCH  10  11
ATOM     11  C   UNL     1      12.827 -11.350  16.529  1.00  0.00     0.053 C 
BRANCH  11  12
ATOM     12  C   UNL     1      13.282 -12.775  16.594  1.00  0.00     0.041 C 
ATOM     13  O   UNL     1      14.509 -13.045  16.684  1.00  0.00    -0.550 OA
ATOM     14  O   UNL     1      12.350 -13.806  16.580  1.00  0.00    -0.550 OA
ENDBRANCH  11  12
ENDBRANCH  10  11
ENDBRANCH   9  10
ENDBRANCH   8   9
ENDBRANCH   7   8
ENDBRANCH   6   7
ENDBRANCH   5   6
ENDBRANCH   4   5
ENDBRANCH   3   4
ENDBRANCH   2   3
ENDBRANCH   1   2
BRANCH   1  15
ATOM     15  C   UNL     1       7.549 -11.915  22.373  1.00  0.00     0.000 C 
BRANCH  15  16
ATOM     16  C   UNL     1       6.929 -10.578  21.934  1.00  0.00     0.000 C 
BRANCH  16  17
ATOM     17  C   UNL     1       7.642  -9.929  20.727  1.00  0.00     0.000 C 
BRANCH  17  18
ATOM     18  C   UNL     1       8.134 -10.978  19.714  1.00  0.00    -0.000 C 
BRANCH  18  19
ATOM     19  C   UNL     1       9.624 -10.818  19.375  1.00  0.00    -0.000 C 
BRANCH  19  20
ATOM     20  C   UNL     1      10.298 -12.159  19.034  1.00  0.00    -0.000 C 
BRANCH  20  21
ATOM     21  C   UNL     1      11.102 -12.734  20.212  1.00  0.00    -0.000 C 
BRANCH  21  22
ATOM     22  C   UNL     1      11.182 -14.270  20.176  1.00  0.00    -0.000 C 
BRANCH  22  23
ATOM     23  C   UNL     1      12.618 -14.779  19.968  1.00  0.00    -0.000 C 
BRANCH  23  24
ATOM     24  C   UNL     1      13.669 -13.662  20.093  1.00  0.00    -0.000 C 
BRANCH  24  25
ATOM     25  C   UNL     1      14.678 -13.926  21.221  1.00  0.00    -0.003 C 
ATOM     26  C   UNL     1      14.793 -12.755  22.197  1.00  0.00     0.004 C 
ENDBRANCH  24  25
ENDBRANCH  23  24
ENDBRANCH  22  23
ENDBRANCH  21  22
ENDBRANCH  20  21
ENDBRANCH  19  20
ENDBRANCH  18  19
ENDBRANCH  17  18
ENDBRANCH  16  17
ENDBRANCH  15  16
ENDBRANCH   1  15
TORSDOF 22
ENDMDL
