MODEL 1
REMARK VINA RESULT:    -7.053      0.000      0.000
REMARK INTER + INTRA:          -8.791
REMARK INTER:                  -8.496
REMARK INTRA:                  -0.294
REMARK UNBOUND:                -0.294
REMARK SMILES O=c1c(O)c(-c2ccc(O)c(O)c2)oc2cc(O)cc(O)c12
REMARK SMILES IDX 5 1 3 2 2 3 1 4 22 5 20 6 19 7 17 8 16 9 15 10 14 11 6 12
REMARK SMILES IDX 7 13 8 14 9 15 13 16 11 17 10 18 12 20 4 22 21 24 18 26
REMARK H PARENT 10 19 12 21 4 23 21 25 18 27
REMARK Flexibility Score: inf
ROOT
ATOM      1  C   UNL     1      42.740  -8.898  11.676  1.00  0.00     0.180 A 
ATOM      2  C   UNL     1      42.024 -10.102  11.782  1.00  0.00     0.208 A 
ATOM      3  C   UNL     1      41.949 -10.742  13.029  1.00  0.00     0.238 A 
ATOM      4  O   UNL     1      41.261 -11.791  13.130  1.00  0.00    -0.285 OA
ATOM      5  C   UNL     1      42.604 -10.178  14.151  1.00  0.00     0.111 A 
ATOM      6  C   UNL     1      42.628 -10.761  15.453  1.00  0.00     0.134 A 
ATOM      7  C   UNL     1      43.197 -10.050  16.518  1.00  0.00     0.093 A 
ATOM      8  C   UNL     1      43.800  -8.806  16.313  1.00  0.00     0.123 A 
ATOM      9  C   UNL     1      43.834  -8.258  15.034  1.00  0.00     0.094 A 
ATOM     10  C   UNL     1      43.243  -8.926  13.959  1.00  0.00     0.146 A 
ATOM     11  O   UNL     1      43.288  -8.360  12.758  1.00  0.00    -0.452 OA
ENDROOT
BRANCH   1  12
ATOM     12  C   UNL     1      42.886  -8.179  10.388  1.00  0.00     0.025 A 
ATOM     13  C   UNL     1      44.043  -8.369   9.618  1.00  0.00     0.016 A 
ATOM     14  C   UNL     1      44.192  -7.716   8.391  1.00  0.00     0.051 A 
ATOM     15  C   UNL     1      43.182  -6.878   7.910  1.00  0.00     0.157 A 
ATOM     16  C   UNL     1      41.862  -7.352   9.893  1.00  0.00     0.062 A 
ATOM     17  C   UNL     1      42.009  -6.697   8.661  1.00  0.00     0.158 A 
BRANCH  15  18
ATOM     18  O   UNL     1      43.359  -6.238   6.683  1.00  0.00    -0.504 OA
ATOM     19  H   UNL     1      42.911  -6.564   5.836  1.00  0.00     0.293 HD
ENDBRANCH  15  18
BRANCH  17  20
ATOM     20  O   UNL     1      40.991  -5.875   8.179  1.00  0.00    -0.504 OA
ATOM     21  H   UNL     1      41.185  -4.956   7.799  1.00  0.00     0.293 HD
ENDBRANCH  17  20
ENDBRANCH   1  12
BRANCH   2  22
ATOM     22  O   UNL     1      41.366 -10.630  10.667  1.00  0.00    -0.502 OA
ATOM     23  H   UNL     1      40.755 -10.072  10.082  1.00  0.00     0.293 HD
ENDBRANCH   2  22
BRANCH   6  24
ATOM     24  O   UNL     1      42.136 -12.036  15.747  1.00  0.00    -0.507 OA
ATOM     25  H   UNL     1      42.049 -12.418  16.677  1.00  0.00     0.293 HD
ENDBRANCH   6  24
BRANCH   8  26
ATOM     26  O   UNL     1      44.376  -8.114  17.375  1.00  0.00    -0.508 OA
ATOM     27  H   UNL     1      45.080  -7.400  17.224  1.00  0.00     0.293 HD
ENDBRANCH   8  26
TORSDOF 6
ENDMDL
MODEL 2
REMARK VINA RESULT:    -6.884     18.808     19.617
REMARK INTER + INTRA:          -8.587
REMARK INTER:                  -8.331
REMARK INTRA:                  -0.255
REMARK UNBOUND:                -0.294
REMARK SMILES O=c1c(O)c(-c2ccc(O)c(O)c2)oc2cc(O)cc(O)c12
REMARK SMILES IDX 5 1 3 2 2 3 1 4 22 5 20 6 19 7 17 8 16 9 15 10 14 11 6 12
REMARK SMILES IDX 7 13 8 14 9 15 13 16 11 17 10 18 12 20 4 22 21 24 18 26
REMARK H PARENT 10 19 12 21 4 23 21 25 18 27
REMARK Flexibility Score: inf
ROOT
ATOM      1  C   UNL     1      57.298 -21.386  10.872  1.00  0.00     0.180 A 
ATOM      2  C   UNL     1      58.267 -22.197  10.257  1.00  0.00     0.208 A 
ATOM      3  C   UNL     1      58.730 -23.337  10.933  1.00  0.00     0.238 A 
ATOM      4  O   UNL     1      59.557 -24.089  10.354  1.00  0.00    -0.285 OA
ATOM      5  C   UNL     1      58.231 -23.644  12.222  1.00  0.00     0.111 A 
ATOM      6  C   UNL     1      58.658 -24.750  13.015  1.00  0.00     0.134 A 
ATOM      7  C   UNL     1      58.003 -25.030  14.220  1.00  0.00     0.093 A 
ATOM      8  C   UNL     1      56.978 -24.205  14.692  1.00  0.00     0.123 A 
ATOM      9  C   UNL     1      56.595 -23.089  13.954  1.00  0.00     0.094 A 
ATOM     10  C   UNL     1      57.206 -22.804  12.730  1.00  0.00     0.146 A 
ATOM     11  O   UNL     1      56.801 -21.735  12.053  1.00  0.00    -0.452 OA
ENDROOT
BRANCH   1  12
ATOM     12  C   UNL     1      56.780 -20.154  10.233  1.00  0.00     0.025 A 
ATOM     13  C   UNL     1      55.450 -20.116   9.786  1.00  0.00     0.016 A 
ATOM     14  C   UNL     1      54.934 -18.957   9.199  1.00  0.00     0.051 A 
ATOM     15  C   UNL     1      55.732 -17.818   9.064  1.00  0.00     0.157 A 
ATOM     16  C   UNL     1      57.574 -19.001  10.115  1.00  0.00     0.062 A 
ATOM     17  C   UNL     1      57.058 -17.836   9.527  1.00  0.00     0.158 A 
BRANCH  15  18
ATOM     18  O   UNL     1      55.191 -16.677   8.472  1.00  0.00    -0.504 OA
ATOM     19  H   UNL     1      55.582 -15.755   8.622  1.00  0.00     0.293 HD
ENDBRANCH  15  18
BRANCH  17  20
ATOM     20  O   UNL     1      57.855 -16.699   9.410  1.00  0.00    -0.504 OA
ATOM     21  H   UNL     1      57.908 -16.173   8.545  1.00  0.00     0.293 HD
ENDBRANCH  17  20
ENDBRANCH   1  12
BRANCH   2  22
ATOM     22  O   UNL     1      58.730 -21.889   8.975  1.00  0.00    -0.502 OA
ATOM     23  H   UNL     1      58.622 -20.968   8.564  1.00  0.00     0.293 HD
ENDBRANCH   2  22
BRANCH   6  24
ATOM     24  O   UNL     1      59.731 -25.581  12.681  1.00  0.00    -0.507 OA
ATOM     25  H   UNL     1      60.215 -26.184  13.330  1.00  0.00     0.293 HD
ENDBRANCH   6  24
BRANCH   8  26
ATOM     26  O   UNL     1      56.341 -24.484  15.899  1.00  0.00    -0.508 OA
ATOM     27  H   UNL     1      56.036 -23.744  16.521  1.00  0.00     0.293 HD
ENDBRANCH   8  26
TORSDOF 6
ENDMDL
MODEL 3
REMARK VINA RESULT:    -6.844      3.850      6.363
REMARK INTER + INTRA:          -8.538
REMARK INTER:                  -8.218
REMARK INTRA:                  -0.320
REMARK UNBOUND:                -0.294
REMARK SMILES O=c1c(O)c(-c2ccc(O)c(O)c2)oc2cc(O)cc(O)c12
REMARK SMILES IDX 5 1 3 2 2 3 1 4 22 5 20 6 19 7 17 8 16 9 15 10 14 11 6 12
REMARK SMILES IDX 7 13 8 14 9 15 13 16 11 17 10 18 12 20 4 22 21 24 18 26
REMARK H PARENT 10 19 12 21 4 23 21 25 18 27
REMARK Flexibility Score: inf
ROOT
ATOM      1  C   UNL     1      45.049  -9.235  13.349  1.00  0.00     0.180 A 
ATOM      2  C   UNL     1      45.674 -10.293  14.029  1.00  0.00     0.208 A 
ATOM      3  C   UNL     1      46.822 -10.877  13.471  1.00  0.00     0.238 A 
ATOM      4  O   UNL     1      47.410 -11.788  14.110  1.00  0.00    -0.285 OA
ATOM      5  C   UNL     1      47.321 -10.407  12.231  1.00  0.00     0.111 A 
ATOM      6  C   UNL     1      48.452 -10.951  11.554  1.00  0.00     0.134 A 
ATOM      7  C   UNL     1      48.933 -10.323  10.398  1.00  0.00     0.093 A 
ATOM      8  C   UNL     1      48.283  -9.208   9.860  1.00  0.00     0.123 A 
ATOM      9  C   UNL     1      47.144  -8.707  10.482  1.00  0.00     0.094 A 
ATOM     10  C   UNL     1      46.661  -9.290  11.656  1.00  0.00     0.146 A 
ATOM     11  O   UNL     1      45.577  -8.772  12.222  1.00  0.00    -0.452 OA
ENDROOT
BRANCH   1  12
ATOM     12  C   UNL     1      43.820  -8.585  13.863  1.00  0.00     0.025 A 
ATOM     13  C   UNL     1      42.565  -9.076  13.473  1.00  0.00     0.016 A 
ATOM     14  C   UNL     1      41.393  -8.490  13.961  1.00  0.00     0.051 A 
ATOM     15  C   UNL     1      41.458  -7.419  14.857  1.00  0.00     0.157 A 
ATOM     16  C   UNL     1      43.884  -7.521  14.780  1.00  0.00     0.062 A 
ATOM     17  C   UNL     1      42.709  -6.933  15.273  1.00  0.00     0.158 A 
BRANCH  15  18
ATOM     18  O   UNL     1      40.273  -6.854  15.326  1.00  0.00    -0.504 OA
ATOM     19  H   UNL     1      40.170  -5.856  15.466  1.00  0.00     0.293 HD
ENDBRANCH  15  18
BRANCH  17  20
ATOM     20  O   UNL     1      42.781  -5.875  16.177  1.00  0.00    -0.504 OA
ATOM     21  H   UNL     1      43.529  -5.808  16.858  1.00  0.00     0.293 HD
ENDBRANCH  17  20
ENDBRANCH   1  12
BRANCH   2  22
ATOM     22  O   UNL     1      45.179 -10.727  15.262  1.00  0.00    -0.502 OA
ATOM     23  H   UNL     1      45.631 -10.499  16.141  1.00  0.00     0.293 HD
ENDBRANCH   2  22
BRANCH   6  24
ATOM     24  O   UNL     1      49.117 -12.114  11.954  1.00  0.00    -0.507 OA
ATOM     25  H   UNL     1      49.730 -12.179  12.753  1.00  0.00     0.293 HD
ENDBRANCH   6  24
BRANCH   8  26
ATOM     26  O   UNL     1      48.760  -8.599   8.702  1.00  0.00    -0.508 OA
ATOM     27  H   UNL     1      48.963  -7.606   8.669  1.00  0.00     0.293 HD
ENDBRANCH   8  26
TORSDOF 6
ENDMDL
MODEL 4
REMARK VINA RESULT:    -6.824      3.048      4.467
REMARK INTER + INTRA:          -8.514
REMARK INTER:                  -8.298
REMARK INTRA:                  -0.217
REMARK UNBOUND:                -0.294
REMARK SMILES O=c1c(O)c(-c2ccc(O)c(O)c2)oc2cc(O)cc(O)c12
REMARK SMILES IDX 5 1 3 2 2 3 1 4 22 5 20 6 19 7 17 8 16 9 15 10 14 11 6 12
REMARK SMILES IDX 7 13 8 14 9 15 13 16 11 17 10 18 12 20 4 22 21 24 18 26
REMARK H PARENT 10 19 12 21 4 23 21 25 18 27
REMARK Flexibility Score: inf
ROOT
ATOM      1  C   UNL     1      43.468 -10.721  11.774  1.00  0.00     0.180 A 
ATOM      2  C   UNL     1      42.484  -9.808  11.361  1.00  0.00     0.208 A 
ATOM      3  C   UNL     1      41.997  -8.869  12.284  1.00  0.00     0.238 A 
ATOM      4  O   UNL     1      41.154  -8.018  11.894  1.00  0.00    -0.285 OA
ATOM      5  C   UNL     1      42.488  -8.865  13.612  1.00  0.00     0.111 A 
ATOM      6  C   UNL     1      42.037  -7.985  14.640  1.00  0.00     0.134 A 
ATOM      7  C   UNL     1      42.686  -7.983  15.882  1.00  0.00     0.093 A 
ATOM      8  C   UNL     1      43.727  -8.876  16.152  1.00  0.00     0.123 A 
ATOM      9  C   UNL     1      44.134  -9.779  15.174  1.00  0.00     0.094 A 
ATOM     10  C   UNL     1      43.530  -9.780  13.914  1.00  0.00     0.146 A 
ATOM     11  O   UNL     1      43.957 -10.651  13.007  1.00  0.00    -0.452 OA
ENDROOT
BRANCH   1  12
ATOM     12  C   UNL     1      44.013 -11.758  10.865  1.00  0.00     0.025 A 
ATOM     13  C   UNL     1      45.368 -11.715  10.503  1.00  0.00     0.016 A 
ATOM     14  C   UNL     1      45.907 -12.694   9.663  1.00  0.00     0.051 A 
ATOM     15  C   UNL     1      45.106 -13.736   9.188  1.00  0.00     0.157 A 
ATOM     16  C   UNL     1      43.214 -12.818  10.403  1.00  0.00     0.062 A 
ATOM     17  C   UNL     1      43.754 -13.803   9.562  1.00  0.00     0.158 A 
BRANCH  15  18
ATOM     18  O   UNL     1      45.671 -14.697   8.350  1.00  0.00    -0.504 OA
ATOM     19  H   UNL     1      45.571 -15.690   8.525  1.00  0.00     0.293 HD
ENDBRANCH  15  18
BRANCH  17  20
ATOM     20  O   UNL     1      42.953 -14.848   9.103  1.00  0.00    -0.504 OA
ATOM     21  H   UNL     1      43.164 -15.342   8.244  1.00  0.00     0.293 HD
ENDBRANCH  17  20
ENDBRANCH   1  12
BRANCH   2  22
ATOM     22  O   UNL     1      42.029  -9.815  10.040  1.00  0.00    -0.502 OA
ATOM     23  H   UNL     1      42.262  -9.081   9.380  1.00  0.00     0.293 HD
ENDBRANCH   2  22
BRANCH   6  24
ATOM     24  O   UNL     1      40.948  -7.120  14.506  1.00  0.00    -0.507 OA
ATOM     25  H   UNL     1      40.040  -7.271  14.920  1.00  0.00     0.293 HD
ENDBRANCH   6  24
BRANCH   8  26
ATOM     26  O   UNL     1      44.357  -8.877  17.394  1.00  0.00    -0.508 OA
ATOM     27  H   UNL     1      43.874  -9.177  18.233  1.00  0.00     0.293 HD
ENDBRANCH   8  26
TORSDOF 6
ENDMDL
MODEL 5
REMARK VINA RESULT:    -6.650      1.467      3.169
REMARK INTER + INTRA:          -8.305
REMARK INTER:                  -8.176
REMARK INTRA:                  -0.129
REMARK UNBOUND:                -0.294
REMARK SMILES O=c1c(O)c(-c2ccc(O)c(O)c2)oc2cc(O)cc(O)c12
REMARK SMILES IDX 5 1 3 2 2 3 1 4 22 5 20 6 19 7 17 8 16 9 15 10 14 11 6 12
REMARK SMILES IDX 7 13 8 14 9 15 13 16 11 17 10 18 12 20 4 22 21 24 18 26
REMARK H PARENT 10 19 12 21 4 23 21 25 18 27
REMARK Flexibility Score: inf
ROOT
ATOM      1  C   UNL     1      42.457  -8.028  12.083  1.00  0.00     0.180 A 
ATOM      2  C   UNL     1      43.289  -7.240  12.895  1.00  0.00     0.208 A 
ATOM      3  C   UNL     1      43.586  -7.680  14.195  1.00  0.00     0.238 A 
ATOM      4  O   UNL     1      44.375  -6.997  14.899  1.00  0.00    -0.285 OA
ATOM      5  C   UNL     1      43.035  -8.894  14.672  1.00  0.00     0.111 A 
ATOM      6  C   UNL     1      43.236  -9.416  15.984  1.00  0.00     0.134 A 
ATOM      7  C   UNL     1      42.748 -10.690  16.304  1.00  0.00     0.093 A 
ATOM      8  C   UNL     1      42.011 -11.432  15.377  1.00  0.00     0.123 A 
ATOM      9  C   UNL     1      41.759 -10.905  14.114  1.00  0.00     0.094 A 
ATOM     10  C   UNL     1      42.263  -9.653  13.753  1.00  0.00     0.146 A 
ATOM     11  O   UNL     1      42.008  -9.193  12.534  1.00  0.00    -0.452 OA
ENDROOT
BRANCH   1  12
ATOM     12  C   UNL     1      42.078  -7.618  10.710  1.00  0.00     0.025 A 
ATOM     13  C   UNL     1      41.366  -6.424  10.519  1.00  0.00     0.016 A 
ATOM     14  C   UNL     1      41.016  -6.008   9.231  1.00  0.00     0.051 A 
ATOM     15  C   UNL     1      41.386  -6.768   8.118  1.00  0.00     0.157 A 
ATOM     16  C   UNL     1      42.467  -8.370   9.588  1.00  0.00     0.062 A 
ATOM     17  C   UNL     1      42.118  -7.953   8.295  1.00  0.00     0.158 A 
BRANCH  15  18
ATOM     18  O   UNL     1      41.021  -6.329   6.845  1.00  0.00    -0.504 OA
ATOM     19  H   UNL     1      41.013  -6.948   6.043  1.00  0.00     0.293 HD
ENDBRANCH  15  18
BRANCH  17  20
ATOM     20  O   UNL     1      42.504  -8.708   7.188  1.00  0.00    -0.504 OA
ATOM     21  H   UNL     1      43.331  -9.294   7.205  1.00  0.00     0.293 HD
ENDBRANCH  17  20
ENDBRANCH   1  12
BRANCH   2  22
ATOM     22  O   UNL     1      43.840  -6.056  12.398  1.00  0.00    -0.502 OA
ATOM     23  H   UNL     1      44.759  -5.726  12.673  1.00  0.00     0.293 HD
ENDBRANCH   2  22
BRANCH   6  24
ATOM     24  O   UNL     1      43.877  -8.719  17.012  1.00  0.00    -0.507 OA
ATOM     25  H   UNL     1      44.528  -7.960  16.872  1.00  0.00     0.293 HD
ENDBRANCH   6  24
BRANCH   8  26
ATOM     26  O   UNL     1      41.518 -12.692  15.708  1.00  0.00    -0.508 OA
ATOM     27  H   UNL     1      41.066 -13.283  15.020  1.00  0.00     0.293 HD
ENDBRANCH   8  26
TORSDOF 6
ENDMDL
MODEL 6
REMARK VINA RESULT:    -6.578     20.845     21.519
REMARK INTER + INTRA:          -8.218
REMARK INTER:                  -8.210
REMARK INTRA:                  -0.008
REMARK UNBOUND:                -0.294
REMARK SMILES O=c1c(O)c(-c2ccc(O)c(O)c2)oc2cc(O)cc(O)c12
REMARK SMILES IDX 5 1 3 2 2 3 1 4 22 5 20 6 19 7 17 8 16 9 15 10 14 11 6 12
REMARK SMILES IDX 7 13 8 14 9 15 13 16 11 17 10 18 12 20 4 22 21 24 18 26
REMARK H PARENT 10 19 12 21 4 23 21 25 18 27
REMARK Flexibility Score: inf
ROOT
ATOM      1  C   UNL     1      58.738 -22.377   7.228  1.00  0.00     0.180 A 
ATOM      2  C   UNL     1      58.760 -23.768   7.426  1.00  0.00     0.208 A 
ATOM      3  C   UNL     1      58.904 -24.267   8.730  1.00  0.00     0.238 A 
ATOM      4  O   UNL     1      58.869 -25.513   8.909  1.00  0.00    -0.285 OA
ATOM      5  C   UNL     1      59.040 -23.370   9.818  1.00  0.00     0.111 A 
ATOM      6  C   UNL     1      59.232 -23.765  11.175  1.00  0.00     0.134 A 
ATOM      7  C   UNL     1      59.223 -22.794  12.185  1.00  0.00     0.093 A 
ATOM      8  C   UNL     1      59.095 -21.437  11.878  1.00  0.00     0.123 A 
ATOM      9  C   UNL     1      58.967 -21.038  10.550  1.00  0.00     0.094 A 
ATOM     10  C   UNL     1      58.936 -21.986   9.524  1.00  0.00     0.146 A 
ATOM     11  O   UNL     1      58.802 -21.562   8.273  1.00  0.00    -0.452 OA
ENDROOT
BRANCH   1  12
ATOM     12  C   UNL     1      58.615 -21.776   5.879  1.00  0.00     0.025 A 
ATOM     13  C   UNL     1      57.706 -20.727   5.672  1.00  0.00     0.016 A 
ATOM     14  C   UNL     1      57.588 -20.131   4.412  1.00  0.00     0.051 A 
ATOM     15  C   UNL     1      58.386 -20.563   3.349  1.00  0.00     0.157 A 
ATOM     16  C   UNL     1      59.431 -22.195   4.814  1.00  0.00     0.062 A 
ATOM     17  C   UNL     1      59.315 -21.597   3.550  1.00  0.00     0.158 A 
BRANCH  15  18
ATOM     18  O   UNL     1      58.245 -19.951   2.104  1.00  0.00    -0.504 OA
ATOM     19  H   UNL     1      57.699 -19.107   1.977  1.00  0.00     0.293 HD
ENDBRANCH  15  18
BRANCH  17  20
ATOM     20  O   UNL     1      60.125 -22.022   2.497  1.00  0.00    -0.504 OA
ATOM     21  H   UNL     1      61.113 -22.208   2.628  1.00  0.00     0.293 HD
ENDBRANCH  17  20
ENDBRANCH   1  12
BRANCH   2  22
ATOM     22  O   UNL     1      58.603 -24.636   6.342  1.00  0.00    -0.502 OA
ATOM     23  H   UNL     1      59.280 -24.696   5.590  1.00  0.00     0.293 HD
ENDBRANCH   2  22
BRANCH   6  24
ATOM     24  O   UNL     1      59.461 -25.083  11.580  1.00  0.00    -0.507 OA
ATOM     25  H   UNL     1      58.994 -25.537  12.351  1.00  0.00     0.293 HD
ENDBRANCH   6  24
BRANCH   8  26
ATOM     26  O   UNL     1      59.102 -20.477  12.887  1.00  0.00    -0.508 OA
ATOM     27  H   UNL     1      58.266 -19.962  13.137  1.00  0.00     0.293 HD
ENDBRANCH   8  26
TORSDOF 6
ENDMDL
MODEL 7
REMARK VINA RESULT:    -6.526     20.079     20.872
REMARK INTER + INTRA:          -8.156
REMARK INTER:                  -7.829
REMARK INTRA:                  -0.326
REMARK UNBOUND:                -0.294
REMARK SMILES O=c1c(O)c(-c2ccc(O)c(O)c2)oc2cc(O)cc(O)c12
REMARK SMILES IDX 5 1 3 2 2 3 1 4 22 5 20 6 19 7 17 8 16 9 15 10 14 11 6 12
REMARK SMILES IDX 7 13 8 14 9 15 13 16 11 17 10 18 12 20 4 22 21 24 18 26
REMARK H PARENT 10 19 12 21 4 23 21 25 18 27
REMARK Flexibility Score: inf
ROOT
ATOM      1  C   UNL     1      57.633 -22.644   9.110  1.00  0.00     0.180 A 
ATOM      2  C   UNL     1      56.683 -21.868   9.794  1.00  0.00     0.208 A 
ATOM      3  C   UNL     1      56.524 -22.050  11.177  1.00  0.00     0.238 A 
ATOM      4  O   UNL     1      55.710 -21.315  11.794  1.00  0.00    -0.285 OA
ATOM      5  C   UNL     1      57.305 -23.017  11.855  1.00  0.00     0.111 A 
ATOM      6  C   UNL     1      57.199 -23.314  13.247  1.00  0.00     0.134 A 
ATOM      7  C   UNL     1      58.113 -24.197  13.836  1.00  0.00     0.093 A 
ATOM      8  C   UNL     1      59.087 -24.843  13.071  1.00  0.00     0.123 A 
ATOM      9  C   UNL     1      59.159 -24.605  11.701  1.00  0.00     0.094 A 
ATOM     10  C   UNL     1      58.285 -23.702  11.091  1.00  0.00     0.146 A 
ATOM     11  O   UNL     1      58.397 -23.496   9.784  1.00  0.00    -0.452 OA
ENDROOT
BRANCH   1  12
ATOM     12  C   UNL     1      57.841 -22.527   7.647  1.00  0.00     0.025 A 
ATOM     13  C   UNL     1      58.778 -21.606   7.155  1.00  0.00     0.016 A 
ATOM     14  C   UNL     1      59.004 -21.493   5.780  1.00  0.00     0.051 A 
ATOM     15  C   UNL     1      58.311 -22.308   4.881  1.00  0.00     0.157 A 
ATOM     16  C   UNL     1      57.159 -23.360   6.742  1.00  0.00     0.062 A 
ATOM     17  C   UNL     1      57.386 -23.250   5.362  1.00  0.00     0.158 A 
BRANCH  15  18
ATOM     18  O   UNL     1      58.556 -22.172   3.514  1.00  0.00    -0.504 OA
ATOM     19  H   UNL     1      58.171 -22.814   2.831  1.00  0.00     0.293 HD
ENDBRANCH  15  18
BRANCH  17  20
ATOM     20  O   UNL     1      56.703 -24.076   4.472  1.00  0.00    -0.504 OA
ATOM     21  H   UNL     1      56.835 -25.081   4.470  1.00  0.00     0.293 HD
ENDBRANCH  17  20
ENDBRANCH   1  12
BRANCH   2  22
ATOM     22  O   UNL     1      55.938 -20.904   9.110  1.00  0.00    -0.502 OA
ATOM     23  H   UNL     1      55.784 -19.972   9.479  1.00  0.00     0.293 HD
ENDBRANCH   2  22
BRANCH   6  24
ATOM     24  O   UNL     1      56.206 -22.795  14.082  1.00  0.00    -0.507 OA
ATOM     25  H   UNL     1      55.557 -22.067  13.821  1.00  0.00     0.293 HD
ENDBRANCH   6  24
BRANCH   8  26
ATOM     26  O   UNL     1      59.981 -25.732  13.663  1.00  0.00    -0.508 OA
ATOM     27  H   UNL     1      60.729 -25.409  14.266  1.00  0.00     0.293 HD
ENDBRANCH   8  26
TORSDOF 6
ENDMDL
MODEL 8
REMARK VINA RESULT:    -6.481      1.832      7.120
REMARK INTER + INTRA:          -8.101
REMARK INTER:                  -8.010
REMARK INTRA:                  -0.091
REMARK UNBOUND:                -0.294
REMARK SMILES O=c1c(O)c(-c2ccc(O)c(O)c2)oc2cc(O)cc(O)c12
REMARK SMILES IDX 5 1 3 2 2 3 1 4 22 5 20 6 19 7 17 8 16 9 15 10 14 11 6 12
REMARK SMILES IDX 7 13 8 14 9 15 13 16 11 17 10 18 12 20 4 22 21 24 18 26
REMARK H PARENT 10 19 12 21 4 23 21 25 18 27
REMARK Flexibility Score: inf
ROOT
ATOM      1  C   UNL     1      42.642  -8.508  11.647  1.00  0.00     0.180 A 
ATOM      2  C   UNL     1      41.885  -7.380  11.287  1.00  0.00     0.208 A 
ATOM      3  C   UNL     1      41.607  -7.152   9.930  1.00  0.00     0.238 A 
ATOM      4  O   UNL     1      40.884  -6.170   9.618  1.00  0.00    -0.285 OA
ATOM      5  C   UNL     1      42.103  -8.044   8.949  1.00  0.00     0.111 A 
ATOM      6  C   UNL     1      41.916  -7.888   7.543  1.00  0.00     0.134 A 
ATOM      7  C   UNL     1      42.340  -8.901   6.673  1.00  0.00     0.093 A 
ATOM      8  C   UNL     1      43.000 -10.035   7.155  1.00  0.00     0.123 A 
ATOM      9  C   UNL     1      43.239 -10.167   8.519  1.00  0.00     0.094 A 
ATOM     10  C   UNL     1      42.797  -9.190   9.415  1.00  0.00     0.146 A 
ATOM     11  O   UNL     1      43.037  -9.362  10.710  1.00  0.00    -0.452 OA
ENDROOT
BRANCH   1  12
ATOM     12  C   UNL     1      42.997  -8.802  13.055  1.00  0.00     0.025 A 
ATOM     13  C   UNL     1      43.712  -7.852  13.799  1.00  0.00     0.016 A 
ATOM     14  C   UNL     1      44.040  -8.100  15.135  1.00  0.00     0.051 A 
ATOM     15  C   UNL     1      43.645  -9.291  15.750  1.00  0.00     0.157 A 
ATOM     16  C   UNL     1      42.582  -9.991  13.681  1.00  0.00     0.062 A 
ATOM     17  C   UNL     1      42.909 -10.241  15.022  1.00  0.00     0.158 A 
BRANCH  15  18
ATOM     18  O   UNL     1      43.988  -9.512  17.084  1.00  0.00    -0.504 OA
ATOM     19  H   UNL     1      43.398  -9.210  17.849  1.00  0.00     0.293 HD
ENDBRANCH  15  18
BRANCH  17  20
ATOM     20  O   UNL     1      42.498 -11.424  15.634  1.00  0.00    -0.504 OA
ATOM     21  H   UNL     1      41.583 -11.514  16.059  1.00  0.00     0.293 HD
ENDBRANCH  17  20
ENDBRANCH   1  12
BRANCH   2  22
ATOM     22  O   UNL     1      41.387  -6.524  12.273  1.00  0.00    -0.502 OA
ATOM     23  H   UNL     1      41.535  -6.688  13.262  1.00  0.00     0.293 HD
ENDBRANCH   2  22
BRANCH   6  24
ATOM     24  O   UNL     1      41.352  -6.754   6.951  1.00  0.00    -0.507 OA
ATOM     25  H   UNL     1      40.931  -5.990   7.459  1.00  0.00     0.293 HD
ENDBRANCH   6  24
BRANCH   8  26
ATOM     26  O   UNL     1      43.430 -11.031   6.281  1.00  0.00    -0.508 OA
ATOM     27  H   UNL     1      44.075 -10.831   5.525  1.00  0.00     0.293 HD
ENDBRANCH   8  26
TORSDOF 6
ENDMDL
MODEL 9
REMARK VINA RESULT:    -6.382      1.867      2.316
REMARK INTER + INTRA:          -7.983
REMARK INTER:                  -7.720
REMARK INTRA:                  -0.262
REMARK UNBOUND:                -0.294
REMARK SMILES O=c1c(O)c(-c2ccc(O)c(O)c2)oc2cc(O)cc(O)c12
REMARK SMILES IDX 5 1 3 2 2 3 1 4 22 5 20 6 19 7 17 8 16 9 15 10 14 11 6 12
REMARK SMILES IDX 7 13 8 14 9 15 13 16 11 17 10 18 12 20 4 22 21 24 18 26
REMARK H PARENT 10 19 12 21 4 23 21 25 18 27
REMARK Flexibility Score: inf
ROOT
ATOM      1  C   UNL     1      42.476  -9.814  11.255  1.00  0.00     0.180 A 
ATOM      2  C   UNL     1      42.031 -10.985  11.891  1.00  0.00     0.208 A 
ATOM      3  C   UNL     1      42.116 -11.073  13.290  1.00  0.00     0.238 A 
ATOM      4  O   UNL     1      41.666 -12.102  13.859  1.00  0.00    -0.285 OA
ATOM      5  C   UNL     1      42.660  -9.997  14.033  1.00  0.00     0.111 A 
ATOM      6  C   UNL     1      42.831  -9.995  15.449  1.00  0.00     0.134 A 
ATOM      7  C   UNL     1      43.259  -8.826  16.091  1.00  0.00     0.093 A 
ATOM      8  C   UNL     1      43.583  -7.680  15.360  1.00  0.00     0.123 A 
ATOM      9  C   UNL     1      43.476  -7.693  13.973  1.00  0.00     0.094 A 
ATOM     10  C   UNL     1      43.017  -8.832  13.307  1.00  0.00     0.146 A 
ATOM     11  O   UNL     1      42.920  -8.797  11.983  1.00  0.00    -0.452 OA
ENDROOT
BRANCH   1  12
ATOM     12  C   UNL     1      42.441  -9.656   9.782  1.00  0.00     0.025 A 
ATOM     13  C   UNL     1      41.532  -8.756   9.205  1.00  0.00     0.016 A 
ATOM     14  C   UNL     1      41.496  -8.577   7.819  1.00  0.00     0.051 A 
ATOM     15  C   UNL     1      42.377  -9.280   6.993  1.00  0.00     0.157 A 
ATOM     16  C   UNL     1      43.340 -10.347   8.950  1.00  0.00     0.062 A 
ATOM     17  C   UNL     1      43.307 -10.167   7.559  1.00  0.00     0.158 A 
BRANCH  15  18
ATOM     18  O   UNL     1      42.317  -9.082   5.613  1.00  0.00    -0.504 OA
ATOM     19  H   UNL     1      41.448  -8.875   5.136  1.00  0.00     0.293 HD
ENDBRANCH  15  18
BRANCH  17  20
ATOM     20  O   UNL     1      44.199 -10.860   6.742  1.00  0.00    -0.504 OA
ATOM     21  H   UNL     1      44.691 -11.683   7.070  1.00  0.00     0.293 HD
ENDBRANCH  17  20
ENDBRANCH   1  12
BRANCH   2  22
ATOM     22  O   UNL     1      41.477 -12.026  11.141  1.00  0.00    -0.502 OA
ATOM     23  H   UNL     1      41.641 -12.126  10.146  1.00  0.00     0.293 HD
ENDBRANCH   2  22
BRANCH   6  24
ATOM     24  O   UNL     1      42.625 -11.113  16.262  1.00  0.00    -0.507 OA
ATOM     25  H   UNL     1      41.729 -11.553  16.418  1.00  0.00     0.293 HD
ENDBRANCH   6  24
BRANCH   8  26
ATOM     26  O   UNL     1      44.022  -6.526  16.006  1.00  0.00    -0.508 OA
ATOM     27  H   UNL     1      43.993  -6.440  17.015  1.00  0.00     0.293 HD
ENDBRANCH   8  26
TORSDOF 6
ENDMDL
