MODEL 1
REMARK VINA RESULT:    -7.245      0.000      0.000
REMARK INTER + INTRA:         -14.244
REMARK INTER:                 -13.175
REMARK INTRA:                  -1.069
REMARK UNBOUND:                -1.069
REMARK SMILES CCCCCCCCCCCCCC[C@@H](C)C(=O)[O-]
REMARK SMILES IDX 9 1 10 2 11 3 12 4 13 5 14 6 15 7 16 8 17 9 18 10 19 11 8 12
REMARK SMILES IDX 7 13 6 14 5 15 4 16 3 17 2 18 1 19
REMARK H PARENT
REMARK Flexibility Score: inf
ROOT
ATOM      1  C   UNL     1     -22.126 -22.139  28.424  1.00  0.00     0.000 C 
ENDROOT
BRANCH   1   2
ATOM      2  C   UNL     1     -21.962 -23.140  29.588  1.00  0.00     0.000 C 
BRANCH   2   3
ATOM      3  C   UNL     1     -22.384 -22.609  30.970  1.00  0.00     0.000 C 
BRANCH   3   4
ATOM      4  C   UNL     1     -23.376 -23.536  31.687  1.00  0.00     0.000 C 
BRANCH   4   5
ATOM      5  C   UNL     1     -23.323 -24.954  31.106  1.00  0.00     0.001 C 
BRANCH   5   6
ATOM      6  C   UNL     1     -24.734 -25.475  30.794  1.00  0.00     0.009 C 
BRANCH   6   7
ATOM      7  C   UNL     1     -24.892 -25.931  29.327  1.00  0.00     0.032 C 
ATOM      8  C   UNL     1     -23.541 -26.066  28.611  1.00  0.00     0.014 C 
BRANCH   7   9
ATOM      9  C   UNL     1     -25.620 -27.246  29.279  1.00  0.00     0.044 C 
ATOM     10  O   UNL     1     -26.029 -27.703  28.179  1.00  0.00    -0.550 OA
ATOM     11  O   UNL     1     -25.847 -27.965  30.447  1.00  0.00    -0.550 OA
ENDBRANCH   7   9
ENDBRANCH   6   7
ENDBRANCH   5   6
ENDBRANCH   4   5
ENDBRANCH   3   4
ENDBRANCH   2   3
ENDBRANCH   1   2
BRANCH   1  12
ATOM     12  C   UNL     1     -22.476 -20.699  28.841  1.00  0.00     0.000 C 
BRANCH  12  13
ATOM     13  C   UNL     1     -21.254 -19.765  28.844  1.00  0.00    -0.000 C 
BRANCH  13  14
ATOM     14  C   UNL     1     -20.831 -19.351  30.263  1.00  0.00    -0.000 C 
BRANCH  14  15
ATOM     15  C   UNL     1     -19.729 -18.278  30.262  1.00  0.00    -0.000 C 
BRANCH  15  16
ATOM     16  C   UNL     1     -19.697 -17.468  28.955  1.00  0.00    -0.000 C 
BRANCH  16  17
ATOM     17  C   UNL     1     -18.282 -17.337  28.371  1.00  0.00    -0.000 C 
BRANCH  17  18
ATOM     18  C   UNL     1     -17.977 -15.883  27.994  1.00  0.00    -0.003 C 
ATOM     19  C   UNL     1     -17.429 -15.785  26.573  1.00  0.00     0.004 C 
ENDBRANCH  17  18
ENDBRANCH  16  17
ENDBRANCH  15  16
ENDBRANCH  14  15
ENDBRANCH  13  14
ENDBRANCH  12  13
ENDBRANCH   1  12
TORSDOF 14
ENDMDL
MODEL 2
REMARK VINA RESULT:    -7.090      1.323      2.046
REMARK INTER + INTRA:         -13.961
REMARK INTER:                 -13.187
REMARK INTRA:                  -0.773
REMARK UNBOUND:                -1.069
REMARK SMILES CCCCCCCCCCCCCC[C@@H](C)C(=O)[O-]
REMARK SMILES IDX 9 1 10 2 11 3 12 4 13 5 14 6 15 7 16 8 17 9 18 10 19 11 8 12
REMARK SMILES IDX 7 13 6 14 5 15 4 16 3 17 2 18 1 19
REMARK H PARENT
REMARK Flexibility Score: inf
ROOT
ATOM      1  C   UNL     1     -22.663 -22.344  31.302  1.00  0.00     0.000 C 
ENDROOT
BRANCH   1   2
ATOM      2  C   UNL     1     -22.315 -23.714  30.682  1.00  0.00     0.000 C 
BRANCH   2   3
ATOM      3  C   UNL     1     -21.966 -23.684  29.184  1.00  0.00     0.000 C 
BRANCH   3   4
ATOM      4  C   UNL     1     -22.846 -24.623  28.347  1.00  0.00     0.000 C 
BRANCH   4   5
ATOM      5  C   UNL     1     -23.949 -25.253  29.206  1.00  0.00     0.001 C 
BRANCH   5   6
ATOM      6  C   UNL     1     -24.187 -26.719  28.809  1.00  0.00     0.009 C 
BRANCH   6   7
ATOM      7  C   UNL     1     -25.676 -27.122  28.878  1.00  0.00     0.032 C 
ATOM      8  C   UNL     1     -26.089 -28.026  27.708  1.00  0.00     0.014 C 
BRANCH   7   9
ATOM      9  C   UNL     1     -25.951 -27.826  30.178  1.00  0.00     0.044 C 
ATOM     10  O   UNL     1     -26.404 -29.001  30.178  1.00  0.00    -0.550 OA
ATOM     11  O   UNL     1     -25.709 -27.185  31.388  1.00  0.00    -0.550 OA
ENDBRANCH   7   9
ENDBRANCH   6   7
ENDBRANCH   5   6
ENDBRANCH   4   5
ENDBRANCH   3   4
ENDBRANCH   2   3
ENDBRANCH   1   2
BRANCH   1  12
ATOM     12  C   UNL     1     -22.026 -21.128  30.605  1.00  0.00     0.000 C 
BRANCH  12  13
ATOM     13  C   UNL     1     -20.929 -20.461  31.453  1.00  0.00    -0.000 C 
BRANCH  13  14
ATOM     14  C   UNL     1     -20.334 -19.217  30.774  1.00  0.00    -0.000 C 
BRANCH  14  15
ATOM     15  C   UNL     1     -20.956 -18.944  29.394  1.00  0.00    -0.000 C 
BRANCH  15  16
ATOM     16  C   UNL     1     -20.425 -17.651  28.753  1.00  0.00    -0.000 C 
BRANCH  16  17
ATOM     17  C   UNL     1     -18.989 -17.319  29.185  1.00  0.00    -0.000 C 
BRANCH  17  18
ATOM     18  C   UNL     1     -18.197 -16.704  28.026  1.00  0.00    -0.003 C 
ATOM     19  C   UNL     1     -17.547 -15.387  28.439  1.00  0.00     0.004 C 
ENDBRANCH  17  18
ENDBRANCH  16  17
ENDBRANCH  15  16
ENDBRANCH  14  15
ENDBRANCH  13  14
ENDBRANCH  12  13
ENDBRANCH   1  12
TORSDOF 14
ENDMDL
MODEL 3
REMARK VINA RESULT:    -7.080      1.025      1.965
REMARK INTER + INTRA:         -13.942
REMARK INTER:                 -13.129
REMARK INTRA:                  -0.814
REMARK UNBOUND:                -1.069
REMARK SMILES CCCCCCCCCCCCCC[C@@H](C)C(=O)[O-]
REMARK SMILES IDX 9 1 10 2 11 3 12 4 13 5 14 6 15 7 16 8 17 9 18 10 19 11 8 12
REMARK SMILES IDX 7 13 6 14 5 15 4 16 3 17 2 18 1 19
REMARK H PARENT
REMARK Flexibility Score: inf
ROOT
ATOM      1  C   UNL     1     -21.487 -19.685  30.042  1.00  0.00     0.000 C 
ENDROOT
BRANCH   1   2
ATOM      2  C   UNL     1     -22.213 -21.044  30.130  1.00  0.00     0.000 C 
BRANCH   2   3
ATOM      3  C   UNL     1     -21.879 -21.883  31.376  1.00  0.00     0.000 C 
BRANCH   3   4
ATOM      4  C   UNL     1     -22.985 -22.887  31.735  1.00  0.00     0.000 C 
BRANCH   4   5
ATOM      5  C   UNL     1     -22.790 -24.210  30.985  1.00  0.00     0.001 C 
BRANCH   5   6
ATOM      6  C   UNL     1     -24.092 -25.025  30.957  1.00  0.00     0.009 C 
BRANCH   6   7
ATOM      7  C   UNL     1     -24.504 -25.445  29.530  1.00  0.00     0.032 C 
ATOM      8  C   UNL     1     -23.341 -25.340  28.534  1.00  0.00     0.014 C 
BRANCH   7   9
ATOM      9  C   UNL     1     -25.026 -26.855  29.546  1.00  0.00     0.044 C 
ATOM     10  O   UNL     1     -25.101 -27.490  30.632  1.00  0.00    -0.550 OA
ATOM     11  O   UNL     1     -25.426 -27.468  28.365  1.00  0.00    -0.550 OA
ENDBRANCH   7   9
ENDBRANCH   6   7
ENDBRANCH   5   6
ENDBRANCH   4   5
ENDBRANCH   3   4
ENDBRANCH   2   3
ENDBRANCH   1   2
BRANCH   1  12
ATOM     12  C   UNL     1     -20.521 -19.381  31.201  1.00  0.00     0.000 C 
BRANCH  12  13
ATOM     13  C   UNL     1     -19.412 -18.389  30.809  1.00  0.00    -0.000 C 
BRANCH  13  14
ATOM     14  C   UNL     1     -19.038 -18.481  29.320  1.00  0.00    -0.000 C 
BRANCH  14  15
ATOM     15  C   UNL     1     -19.148 -17.127  28.600  1.00  0.00    -0.000 C 
BRANCH  15  16
ATOM     16  C   UNL     1     -18.039 -16.146  29.013  1.00  0.00    -0.000 C 
BRANCH  16  17
ATOM     17  C   UNL     1     -17.515 -15.310  27.837  1.00  0.00    -0.000 C 
BRANCH  17  18
ATOM     18  C   UNL     1     -17.426 -16.154  26.560  1.00  0.00    -0.003 C 
ATOM     19  C   UNL     1     -17.354 -15.272  25.318  1.00  0.00     0.004 C 
ENDBRANCH  17  18
ENDBRANCH  16  17
ENDBRANCH  15  16
ENDBRANCH  14  15
ENDBRANCH  13  14
ENDBRANCH  12  13
ENDBRANCH   1  12
TORSDOF 14
ENDMDL
MODEL 4
REMARK VINA RESULT:    -7.043      1.088      2.136
REMARK INTER + INTRA:         -13.876
REMARK INTER:                 -12.874
REMARK INTRA:                  -1.003
REMARK UNBOUND:                -1.069
REMARK SMILES CCCCCCCCCCCCCC[C@@H](C)C(=O)[O-]
REMARK SMILES IDX 9 1 10 2 11 3 12 4 13 5 14 6 15 7 16 8 17 9 18 10 19 11 8 12
REMARK SMILES IDX 7 13 6 14 5 15 4 16 3 17 2 18 1 19
REMARK H PARENT
REMARK Flexibility Score: inf
ROOT
ATOM      1  C   UNL     1     -22.495 -22.265  31.703  1.00  0.00     0.000 C 
ENDROOT
BRANCH   1   2
ATOM      2  C   UNL     1     -22.649 -23.567  30.889  1.00  0.00     0.000 C 
BRANCH   2   3
ATOM      3  C   UNL     1     -22.007 -23.543  29.491  1.00  0.00     0.000 C 
BRANCH   3   4
ATOM      4  C   UNL     1     -22.712 -24.474  28.494  1.00  0.00     0.000 C 
BRANCH   4   5
ATOM      5  C   UNL     1     -23.965 -25.099  29.119  1.00  0.00     0.001 C 
BRANCH   5   6
ATOM      6  C   UNL     1     -23.862 -26.632  29.145  1.00  0.00     0.009 C 
BRANCH   6   7
ATOM      7  C   UNL     1     -24.815 -27.277  30.173  1.00  0.00     0.032 C 
ATOM      8  C   UNL     1     -25.396 -26.249  31.154  1.00  0.00     0.014 C 
BRANCH   7   9
ATOM      9  C   UNL     1     -25.936 -27.977  29.457  1.00  0.00     0.044 C 
ATOM     10  O   UNL     1     -26.550 -28.926  30.015  1.00  0.00    -0.550 OA
ATOM     11  O   UNL     1     -26.304 -27.585  28.175  1.00  0.00    -0.550 OA
ENDBRANCH   7   9
ENDBRANCH   6   7
ENDBRANCH   5   6
ENDBRANCH   4   5
ENDBRANCH   3   4
ENDBRANCH   2   3
ENDBRANCH   1   2
BRANCH   1  12
ATOM     12  C   UNL     1     -21.254 -21.421  31.362  1.00  0.00     0.000 C 
BRANCH  12  13
ATOM     13  C   UNL     1     -21.610 -20.062  30.733  1.00  0.00    -0.000 C 
BRANCH  13  14
ATOM     14  C   UNL     1     -21.645 -20.116  29.197  1.00  0.00    -0.000 C 
BRANCH  14  15
ATOM     15  C   UNL     1     -20.914 -18.928  28.548  1.00  0.00    -0.000 C 
BRANCH  15  16
ATOM     16  C   UNL     1     -20.157 -18.070  29.575  1.00  0.00    -0.000 C 
BRANCH  16  17
ATOM     17  C   UNL     1     -18.717 -17.758  29.142  1.00  0.00    -0.000 C 
BRANCH  17  18
ATOM     18  C   UNL     1     -18.688 -16.638  28.096  1.00  0.00    -0.003 C 
ATOM     19  C   UNL     1     -17.611 -15.608  28.419  1.00  0.00     0.004 C 
ENDBRANCH  17  18
ENDBRANCH  16  17
ENDBRANCH  15  16
ENDBRANCH  14  15
ENDBRANCH  13  14
ENDBRANCH  12  13
ENDBRANCH   1  12
TORSDOF 14
ENDMDL
MODEL 5
REMARK VINA RESULT:    -7.031      4.379      9.591
REMARK INTER + INTRA:         -13.855
REMARK INTER:                 -12.949
REMARK INTRA:                  -0.906
REMARK UNBOUND:                -1.069
REMARK SMILES CCCCCCCCCCCCCC[C@@H](C)C(=O)[O-]
REMARK SMILES IDX 9 1 10 2 11 3 12 4 13 5 14 6 15 7 16 8 17 9 18 10 19 11 8 12
REMARK SMILES IDX 7 13 6 14 5 15 4 16 3 17 2 18 1 19
REMARK H PARENT
REMARK Flexibility Score: inf
ROOT
ATOM      1  C   UNL     1     -22.684 -22.525  31.327  1.00  0.00     0.000 C 
ENDROOT
BRANCH   1   2
ATOM      2  C   UNL     1     -21.501 -21.562  31.559  1.00  0.00     0.000 C 
BRANCH   2   3
ATOM      3  C   UNL     1     -21.538 -20.269  30.725  1.00  0.00     0.000 C 
BRANCH   3   4
ATOM      4  C   UNL     1     -21.777 -20.530  29.231  1.00  0.00     0.000 C 
BRANCH   4   5
ATOM      5  C   UNL     1     -21.205 -19.391  28.377  1.00  0.00     0.001 C 
BRANCH   5   6
ATOM      6  C   UNL     1     -20.780 -18.204  29.254  1.00  0.00     0.009 C 
BRANCH   6   7
ATOM      7  C   UNL     1     -19.269 -17.902  29.159  1.00  0.00     0.032 C 
ATOM      8  C   UNL     1     -18.960 -16.789  28.148  1.00  0.00     0.014 C 
BRANCH   7   9
ATOM      9  C   UNL     1     -18.743 -17.512  30.513  1.00  0.00     0.044 C 
ATOM     10  O   UNL     1     -18.652 -18.371  31.429  1.00  0.00    -0.550 OA
ATOM     11  O   UNL     1     -18.354 -16.201  30.762  1.00  0.00    -0.550 OA
ENDBRANCH   7   9
ENDBRANCH   6   7
ENDBRANCH   5   6
ENDBRANCH   4   5
ENDBRANCH   3   4
ENDBRANCH   2   3
ENDBRANCH   1   2
BRANCH   1  12
ATOM     12  C   UNL     1     -22.318 -23.867  30.667  1.00  0.00     0.000 C 
BRANCH  12  13
ATOM     13  C   UNL     1     -22.668 -23.911  29.169  1.00  0.00    -0.000 C 
BRANCH  13  14
ATOM     14  C   UNL     1     -23.514 -25.140  28.798  1.00  0.00    -0.000 C 
BRANCH  14  15
ATOM     15  C   UNL     1     -23.879 -25.997  30.022  1.00  0.00    -0.000 C 
BRANCH  15  16
ATOM     16  C   UNL     1     -24.929 -27.071  29.698  1.00  0.00    -0.000 C 
BRANCH  16  17
ATOM     17  C   UNL     1     -25.678 -26.795  28.386  1.00  0.00    -0.000 C 
BRANCH  17  18
ATOM     18  C   UNL     1     -26.152 -28.101  27.740  1.00  0.00    -0.003 C 
ATOM     19  C   UNL     1     -26.885 -28.982  28.747  1.00  0.00     0.004 C 
ENDBRANCH  17  18
ENDBRANCH  16  17
ENDBRANCH  15  16
ENDBRANCH  14  15
ENDBRANCH  13  14
ENDBRANCH  12  13
ENDBRANCH   1  12
TORSDOF 14
ENDMDL
MODEL 6
REMARK VINA RESULT:    -7.024      4.244      9.484
REMARK INTER + INTRA:         -13.842
REMARK INTER:                 -12.770
REMARK INTRA:                  -1.073
REMARK UNBOUND:                -1.069
REMARK SMILES CCCCCCCCCCCCCC[C@@H](C)C(=O)[O-]
REMARK SMILES IDX 9 1 10 2 11 3 12 4 13 5 14 6 15 7 16 8 17 9 18 10 19 11 8 12
REMARK SMILES IDX 7 13 6 14 5 15 4 16 3 17 2 18 1 19
REMARK H PARENT
REMARK Flexibility Score: inf
ROOT
ATOM      1  C   UNL     1     -23.505 -23.481  31.649  1.00  0.00     0.000 C 
ENDROOT
BRANCH   1   2
ATOM      2  C   UNL     1     -22.352 -22.608  31.108  1.00  0.00     0.000 C 
BRANCH   2   3
ATOM      3  C   UNL     1     -21.724 -23.098  29.791  1.00  0.00     0.000 C 
BRANCH   3   4
ATOM      4  C   UNL     1     -22.134 -22.247  28.581  1.00  0.00     0.000 C 
BRANCH   4   5
ATOM      5  C   UNL     1     -22.455 -20.808  29.005  1.00  0.00     0.001 C 
BRANCH   5   6
ATOM      6  C   UNL     1     -21.224 -19.902  28.852  1.00  0.00     0.009 C 
BRANCH   6   7
ATOM      7  C   UNL     1     -21.055 -18.919  30.031  1.00  0.00     0.032 C 
ATOM      8  C   UNL     1     -20.592 -19.624  31.314  1.00  0.00     0.014 C 
BRANCH   7   9
ATOM      9  C   UNL     1     -20.067 -17.848  29.662  1.00  0.00     0.044 C 
ATOM     10  O   UNL     1     -19.249 -17.419  30.519  1.00  0.00    -0.550 OA
ATOM     11  O   UNL     1     -20.051 -17.322  28.376  1.00  0.00    -0.550 OA
ENDBRANCH   7   9
ENDBRANCH   6   7
ENDBRANCH   5   6
ENDBRANCH   4   5
ENDBRANCH   3   4
ENDBRANCH   2   3
ENDBRANCH   1   2
BRANCH   1  12
ATOM     12  C   UNL     1     -23.425 -24.974  31.282  1.00  0.00     0.000 C 
BRANCH  12  13
ATOM     13  C   UNL     1     -24.534 -25.410  30.309  1.00  0.00    -0.000 C 
BRANCH  13  14
ATOM     14  C   UNL     1     -24.001 -25.698  28.897  1.00  0.00    -0.000 C 
BRANCH  14  15
ATOM     15  C   UNL     1     -24.429 -27.080  28.375  1.00  0.00    -0.000 C 
BRANCH  15  16
ATOM     16  C   UNL     1     -25.945 -27.310  28.489  1.00  0.00    -0.000 C 
BRANCH  16  17
ATOM     17  C   UNL     1     -26.434 -28.486  27.632  1.00  0.00    -0.000 C 
BRANCH  17  18
ATOM     18  C   UNL     1     -26.938 -27.999  26.269  1.00  0.00    -0.003 C 
ATOM     19  C   UNL     1     -27.171 -29.168  25.317  1.00  0.00     0.004 C 
ENDBRANCH  17  18
ENDBRANCH  16  17
ENDBRANCH  15  16
ENDBRANCH  14  15
ENDBRANCH  13  14
ENDBRANCH  12  13
ENDBRANCH   1  12
TORSDOF 14
ENDMDL
MODEL 7
REMARK VINA RESULT:    -6.971      4.535      9.857
REMARK INTER + INTRA:         -13.746
REMARK INTER:                 -12.995
REMARK INTRA:                  -0.751
REMARK UNBOUND:                -1.069
REMARK SMILES CCCCCCCCCCCCCC[C@@H](C)C(=O)[O-]
REMARK SMILES IDX 9 1 10 2 11 3 12 4 13 5 14 6 15 7 16 8 17 9 18 10 19 11 8 12
REMARK SMILES IDX 7 13 6 14 5 15 4 16 3 17 2 18 1 19
REMARK H PARENT
REMARK Flexibility Score: inf
ROOT
ATOM      1  C   UNL     1     -23.061 -24.635  29.722  1.00  0.00     0.000 C 
ENDROOT
BRANCH   1   2
ATOM      2  C   UNL     1     -22.346 -23.296  30.003  1.00  0.00     0.000 C 
BRANCH   2   3
ATOM      3  C   UNL     1     -22.389 -22.828  31.468  1.00  0.00     0.000 C 
BRANCH   3   4
ATOM      4  C   UNL     1     -21.484 -21.616  31.734  1.00  0.00     0.000 C 
BRANCH   4   5
ATOM      5  C   UNL     1     -21.799 -20.471  30.763  1.00  0.00     0.001 C 
BRANCH   5   6
ATOM      6  C   UNL     1     -20.909 -19.251  31.042  1.00  0.00     0.009 C 
BRANCH   6   7
ATOM      7  C   UNL     1     -20.039 -18.856  29.829  1.00  0.00     0.032 C 
ATOM      8  C   UNL     1     -20.883 -18.531  28.589  1.00  0.00     0.014 C 
BRANCH   7   9
ATOM      9  C   UNL     1     -19.185 -17.670  30.181  1.00  0.00     0.044 C 
ATOM     10  O   UNL     1     -18.670 -16.968  29.270  1.00  0.00    -0.550 OA
ATOM     11  O   UNL     1     -18.957 -17.339  31.512  1.00  0.00    -0.550 OA
ENDBRANCH   7   9
ENDBRANCH   6   7
ENDBRANCH   5   6
ENDBRANCH   4   5
ENDBRANCH   3   4
ENDBRANCH   2   3
ENDBRANCH   1   2
BRANCH   1  12
ATOM     12  C   UNL     1     -23.631 -25.346  30.962  1.00  0.00     0.000 C 
BRANCH  12  13
ATOM     13  C   UNL     1     -24.833 -26.249  30.632  1.00  0.00    -0.000 C 
BRANCH  13  14
ATOM     14  C   UNL     1     -25.382 -26.005  29.217  1.00  0.00    -0.000 C 
BRANCH  14  15
ATOM     15  C   UNL     1     -25.294 -27.256  28.327  1.00  0.00    -0.000 C 
BRANCH  15  16
ATOM     16  C   UNL     1     -26.301 -28.344  28.737  1.00  0.00    -0.000 C 
BRANCH  16  17
ATOM     17  C   UNL     1     -27.165 -28.828  27.562  1.00  0.00    -0.000 C 
BRANCH  17  18
ATOM     18  C   UNL     1     -26.563 -28.390  26.222  1.00  0.00    -0.003 C 
ATOM     19  C   UNL     1     -27.212 -29.130  25.057  1.00  0.00     0.004 C 
ENDBRANCH  17  18
ENDBRANCH  16  17
ENDBRANCH  15  16
ENDBRANCH  14  15
ENDBRANCH  13  14
ENDBRANCH  12  13
ENDBRANCH   1  12
TORSDOF 14
ENDMDL
MODEL 8
REMARK VINA RESULT:    -6.570      1.595      2.363
REMARK INTER + INTRA:         -13.015
REMARK INTER:                 -11.968
REMARK INTRA:                  -1.047
REMARK UNBOUND:                -1.069
REMARK SMILES CCCCCCCCCCCCCC[C@@H](C)C(=O)[O-]
REMARK SMILES IDX 9 1 10 2 11 3 12 4 13 5 14 6 15 7 16 8 17 9 18 10 19 11 8 12
REMARK SMILES IDX 7 13 6 14 5 15 4 16 3 17 2 18 1 19
REMARK H PARENT
REMARK Flexibility Score: inf
ROOT
ATOM      1  C   UNL     1     -21.834 -23.452  29.835  1.00  0.00     0.000 C 
ENDROOT
BRANCH   1   2
ATOM      2  C   UNL     1     -22.703 -24.668  30.221  1.00  0.00     0.000 C 
BRANCH   2   3
ATOM      3  C   UNL     1     -23.675 -24.431  31.390  1.00  0.00     0.000 C 
BRANCH   3   4
ATOM      4  C   UNL     1     -24.906 -25.346  31.337  1.00  0.00     0.000 C 
BRANCH   4   5
ATOM      5  C   UNL     1     -24.505 -26.789  31.006  1.00  0.00     0.001 C 
BRANCH   5   6
ATOM      6  C   UNL     1     -25.659 -27.539  30.322  1.00  0.00     0.009 C 
BRANCH   6   7
ATOM      7  C   UNL     1     -25.783 -27.201  28.820  1.00  0.00     0.032 C 
ATOM      8  C   UNL     1     -24.418 -26.943  28.167  1.00  0.00     0.014 C 
BRANCH   7   9
ATOM      9  C   UNL     1     -26.480 -28.324  28.103  1.00  0.00     0.044 C 
ATOM     10  O   UNL     1     -26.976 -29.280  28.756  1.00  0.00    -0.550 OA
ATOM     11  O   UNL     1     -26.579 -28.316  26.717  1.00  0.00    -0.550 OA
ENDBRANCH   7   9
ENDBRANCH   6   7
ENDBRANCH   5   6
ENDBRANCH   4   5
ENDBRANCH   3   4
ENDBRANCH   2   3
ENDBRANCH   1   2
BRANCH   1  12
ATOM     12  C   UNL     1     -22.343 -22.638  28.632  1.00  0.00     0.000 C 
BRANCH  12  13
ATOM     13  C   UNL     1     -22.259 -21.118  28.861  1.00  0.00    -0.000 C 
BRANCH  13  14
ATOM     14  C   UNL     1     -21.877 -20.760  30.306  1.00  0.00    -0.000 C 
BRANCH  14  15
ATOM     15  C   UNL     1     -21.234 -19.367  30.418  1.00  0.00    -0.000 C 
BRANCH  15  16
ATOM     16  C   UNL     1     -20.654 -18.876  29.082  1.00  0.00    -0.000 C 
BRANCH  16  17
ATOM     17  C   UNL     1     -19.308 -18.154  29.247  1.00  0.00    -0.000 C 
BRANCH  17  18
ATOM     18  C   UNL     1     -18.989 -17.923  30.729  1.00  0.00    -0.003 C 
ATOM     19  C   UNL     1     -18.398 -16.535  30.956  1.00  0.00     0.004 C 
ENDBRANCH  17  18
ENDBRANCH  16  17
ENDBRANCH  15  16
ENDBRANCH  14  15
ENDBRANCH  13  14
ENDBRANCH  12  13
ENDBRANCH   1  12
TORSDOF 14
ENDMDL
MODEL 9
REMARK VINA RESULT:    -6.465      5.013      9.858
REMARK INTER + INTRA:         -12.825
REMARK INTER:                 -11.998
REMARK INTRA:                  -0.827
REMARK UNBOUND:                -1.069
REMARK SMILES CCCCCCCCCCCCCC[C@@H](C)C(=O)[O-]
REMARK SMILES IDX 9 1 10 2 11 3 12 4 13 5 14 6 15 7 16 8 17 9 18 10 19 11 8 12
REMARK SMILES IDX 7 13 6 14 5 15 4 16 3 17 2 18 1 19
REMARK H PARENT
REMARK Flexibility Score: inf
ROOT
ATOM      1  C   UNL     1     -22.435 -20.990  30.369  1.00  0.00     0.000 C 
ENDROOT
BRANCH   1   2
ATOM      2  C   UNL     1     -21.277 -20.053  29.966  1.00  0.00     0.000 C 
BRANCH   2   3
ATOM      3  C   UNL     1     -20.680 -19.220  31.115  1.00  0.00     0.000 C 
BRANCH   3   4
ATOM      4  C   UNL     1     -19.184 -18.933  30.929  1.00  0.00     0.000 C 
BRANCH   4   5
ATOM      5  C   UNL     1     -18.823 -17.538  31.454  1.00  0.00     0.001 C 
BRANCH   5   6
ATOM      6  C   UNL     1     -19.055 -16.466  30.377  1.00  0.00     0.009 C 
BRANCH   6   7
ATOM      7  C   UNL     1     -18.610 -16.925  28.972  1.00  0.00     0.032 C 
ATOM      8  C   UNL     1     -19.798 -17.331  28.089  1.00  0.00     0.014 C 
BRANCH   7   9
ATOM      9  C   UNL     1     -17.836 -15.825  28.300  1.00  0.00     0.044 C 
ATOM     10  O   UNL     1     -17.447 -14.828  28.964  1.00  0.00    -0.550 OA
ATOM     11  O   UNL     1     -17.546 -15.899  26.943  1.00  0.00    -0.550 OA
ENDBRANCH   7   9
ENDBRANCH   6   7
ENDBRANCH   5   6
ENDBRANCH   4   5
ENDBRANCH   3   4
ENDBRANCH   2   3
ENDBRANCH   1   2
BRANCH   1  12
ATOM     12  C   UNL     1     -22.042 -22.163  31.285  1.00  0.00     0.000 C 
BRANCH  12  13
ATOM     13  C   UNL     1     -22.379 -23.535  30.676  1.00  0.00    -0.000 C 
BRANCH  13  14
ATOM     14  C   UNL     1     -22.042 -23.614  29.179  1.00  0.00    -0.000 C 
BRANCH  14  15
ATOM     15  C   UNL     1     -22.913 -24.638  28.431  1.00  0.00    -0.000 C 
BRANCH  15  16
ATOM     16  C   UNL     1     -24.078 -25.160  29.289  1.00  0.00    -0.000 C 
BRANCH  16  17
ATOM     17  C   UNL     1     -24.215 -26.689  29.239  1.00  0.00    -0.000 C 
BRANCH  17  18
ATOM     18  C   UNL     1     -24.582 -27.251  30.617  1.00  0.00    -0.003 C 
ATOM     19  C   UNL     1     -25.996 -27.824  30.621  1.00  0.00     0.004 C 
ENDBRANCH  17  18
ENDBRANCH  16  17
ENDBRANCH  15  16
ENDBRANCH  14  15
ENDBRANCH  13  14
ENDBRANCH  12  13
ENDBRANCH   1  12
TORSDOF 14
ENDMDL
