MODEL 1
REMARK VINA RESULT:    -4.721      0.000      0.000
REMARK INTER + INTRA:          -9.019
REMARK INTER:                  -7.481
REMARK INTRA:                  -1.538
REMARK UNBOUND:                -1.538
REMARK SMILES CCCCCCCCCCCC(=O)[O-]
REMARK SMILES IDX 7 1 8 2 9 3 10 4 11 5 12 6 13 7 14 8 6 9 5 10 4 11 3 12 2 13
REMARK SMILES IDX 1 14
REMARK H PARENT
REMARK Flexibility Score: inf
ROOT
ATOM      1  C   UNL     1     -17.100   4.319 -20.239  1.00  0.00     0.000 C 
ENDROOT
BRANCH   1   2
ATOM      2  C   UNL     1     -17.435   3.536 -21.515  1.00  0.00     0.000 C 
BRANCH   2   3
ATOM      3  C   UNL     1     -16.606   2.245 -21.600  1.00  0.00     0.000 C 
BRANCH   3   4
ATOM      4  C   UNL     1     -15.626   2.087 -20.424  1.00  0.00     0.006 C 
BRANCH   4   5
ATOM      5  C   UNL     1     -14.479   1.096 -20.685  1.00  0.00     0.053 C 
BRANCH   5   6
ATOM      6  C   UNL     1     -14.815  -0.287 -20.217  1.00  0.00     0.041 C 
ATOM      7  O   UNL     1     -14.527  -0.648 -19.047  1.00  0.00    -0.550 OA
ATOM      8  O   UNL     1     -15.414  -1.189 -21.088  1.00  0.00    -0.550 OA
ENDBRANCH   5   6
ENDBRANCH   4   5
ENDBRANCH   3   4
ENDBRANCH   2   3
ENDBRANCH   1   2
BRANCH   1   9
ATOM      9  C   UNL     1     -17.042   5.828 -20.519  1.00  0.00     0.000 C 
BRANCH   9  10
ATOM     10  C   UNL     1     -15.739   6.472 -20.021  1.00  0.00    -0.000 C 
BRANCH  10  11
ATOM     11  C   UNL     1     -14.510   5.574 -20.252  1.00  0.00    -0.000 C 
BRANCH  11  12
ATOM     12  C   UNL     1     -13.818   5.855 -21.596  1.00  0.00    -0.000 C 
BRANCH  12  13
ATOM     13  C   UNL     1     -14.012   4.718 -22.608  1.00  0.00    -0.003 C 
ATOM     14  C   UNL     1     -14.986   5.124 -23.711  1.00  0.00     0.004 C 
ENDBRANCH  12  13
ENDBRANCH  11  12
ENDBRANCH  10  11
ENDBRANCH   9  10
ENDBRANCH   1   9
TORSDOF 10
ENDMDL
MODEL 2
REMARK VINA RESULT:    -4.653      3.923      6.075
REMARK INTER + INTRA:          -8.911
REMARK INTER:                  -7.611
REMARK INTRA:                  -1.300
REMARK UNBOUND:                -1.538
REMARK SMILES CCCCCCCCCCCC(=O)[O-]
REMARK SMILES IDX 7 1 8 2 9 3 10 4 11 5 12 6 13 7 14 8 6 9 5 10 4 11 3 12 2 13
REMARK SMILES IDX 1 14
REMARK H PARENT
REMARK Flexibility Score: inf
ROOT
ATOM      1  C   UNL     1     -15.240   4.005 -23.520  1.00  0.00     0.000 C 
ENDROOT
BRANCH   1   2
ATOM      2  C   UNL     1     -15.098   5.338 -22.773  1.00  0.00     0.000 C 
BRANCH   2   3
ATOM      3  C   UNL     1     -13.747   5.417 -22.045  1.00  0.00     0.000 C 
BRANCH   3   4
ATOM      4  C   UNL     1     -13.854   6.084 -20.662  1.00  0.00     0.006 C 
BRANCH   4   5
ATOM      5  C   UNL     1     -13.116   7.428 -20.550  1.00  0.00     0.053 C 
BRANCH   5   6
ATOM      6  C   UNL     1     -13.996   8.509 -19.999  1.00  0.00     0.041 C 
ATOM      7  O   UNL     1     -13.524   9.651 -19.763  1.00  0.00    -0.550 OA
ATOM      8  O   UNL     1     -15.330   8.242 -19.716  1.00  0.00    -0.550 OA
ENDBRANCH   5   6
ENDBRANCH   4   5
ENDBRANCH   3   4
ENDBRANCH   2   3
ENDBRANCH   1   2
BRANCH   1   9
ATOM      9  C   UNL     1     -13.972   3.152 -23.367  1.00  0.00     0.000 C 
BRANCH   9  10
ATOM     10  C   UNL     1     -14.284   1.681 -23.048  1.00  0.00    -0.000 C 
BRANCH  10  11
ATOM     11  C   UNL     1     -13.882   1.290 -21.614  1.00  0.00    -0.000 C 
BRANCH  11  12
ATOM     12  C   UNL     1     -15.078   1.282 -20.648  1.00  0.00    -0.000 C 
BRANCH  12  13
ATOM     13  C   UNL     1     -15.159   2.558 -19.799  1.00  0.00    -0.003 C 
ATOM     14  C   UNL     1     -16.477   3.292 -20.035  1.00  0.00     0.004 C 
ENDBRANCH  12  13
ENDBRANCH  11  12
ENDBRANCH  10  11
ENDBRANCH   9  10
ENDBRANCH   1   9
TORSDOF 10
ENDMDL
MODEL 3
REMARK VINA RESULT:    -4.523      1.991      3.802
REMARK INTER + INTRA:          -8.705
REMARK INTER:                  -7.113
REMARK INTRA:                  -1.592
REMARK UNBOUND:                -1.538
REMARK SMILES CCCCCCCCCCCC(=O)[O-]
REMARK SMILES IDX 7 1 8 2 9 3 10 4 11 5 12 6 13 7 14 8 6 9 5 10 4 11 3 12 2 13
REMARK SMILES IDX 1 14
REMARK H PARENT
REMARK Flexibility Score: inf
ROOT
ATOM      1  C   UNL     1     -15.946   3.600 -21.496  1.00  0.00     0.000 C 
ENDROOT
BRANCH   1   2
ATOM      2  C   UNL     1     -16.029   2.885 -20.141  1.00  0.00     0.000 C 
BRANCH   2   3
ATOM      3  C   UNL     1     -14.723   2.138 -19.833  1.00  0.00     0.000 C 
BRANCH   3   4
ATOM      4  C   UNL     1     -14.915   0.613 -19.745  1.00  0.00     0.006 C 
BRANCH   4   5
ATOM      5  C   UNL     1     -13.901  -0.200 -20.568  1.00  0.00     0.053 C 
BRANCH   5   6
ATOM      6  C   UNL     1     -13.994  -1.668 -20.282  1.00  0.00     0.041 C 
ATOM      7  O   UNL     1     -14.495  -2.449 -21.132  1.00  0.00    -0.550 OA
ATOM      8  O   UNL     1     -13.557  -2.168 -19.061  1.00  0.00    -0.550 OA
ENDBRANCH   5   6
ENDBRANCH   4   5
ENDBRANCH   3   4
ENDBRANCH   2   3
ENDBRANCH   1   2
BRANCH   1   9
ATOM      9  C   UNL     1     -14.561   3.409 -22.133  1.00  0.00     0.000 C 
BRANCH   9  10
ATOM     10  C   UNL     1     -14.642   2.967 -23.602  1.00  0.00    -0.000 C 
BRANCH  10  11
ATOM     11  C   UNL     1     -15.906   2.142 -23.903  1.00  0.00    -0.000 C 
BRANCH  11  12
ATOM     12  C   UNL     1     -15.632   0.629 -23.918  1.00  0.00    -0.000 C 
BRANCH  12  13
ATOM     13  C   UNL     1     -16.557  -0.148 -22.971  1.00  0.00    -0.003 C 
ATOM     14  C   UNL     1     -17.883   0.583 -22.776  1.00  0.00     0.004 C 
ENDBRANCH  12  13
ENDBRANCH  11  12
ENDBRANCH  10  11
ENDBRANCH   9  10
ENDBRANCH   1   9
TORSDOF 10
ENDMDL
MODEL 4
REMARK VINA RESULT:    -4.506      3.177      5.445
REMARK INTER + INTRA:          -8.677
REMARK INTER:                  -7.412
REMARK INTRA:                  -1.265
REMARK UNBOUND:                -1.538
REMARK SMILES CCCCCCCCCCCC(=O)[O-]
REMARK SMILES IDX 7 1 8 2 9 3 10 4 11 5 12 6 13 7 14 8 6 9 5 10 4 11 3 12 2 13
REMARK SMILES IDX 1 14
REMARK H PARENT
REMARK Flexibility Score: inf
ROOT
ATOM      1  C   UNL     1     -14.675   2.965 -23.362  1.00  0.00     0.000 C 
ENDROOT
BRANCH   1   2
ATOM      2  C   UNL     1     -13.746   4.177 -23.217  1.00  0.00     0.000 C 
BRANCH   2   3
ATOM      3  C   UNL     1     -14.498   5.376 -22.621  1.00  0.00     0.000 C 
BRANCH   3   4
ATOM      4  C   UNL     1     -13.788   5.975 -21.393  1.00  0.00     0.006 C 
BRANCH   4   5
ATOM      5  C   UNL     1     -14.615   5.922 -20.097  1.00  0.00     0.053 C 
BRANCH   5   6
ATOM      6  C   UNL     1     -15.892   6.697 -20.213  1.00  0.00     0.041 C 
ATOM      7  O   UNL     1     -15.875   7.955 -20.196  1.00  0.00    -0.550 OA
ATOM      8  O   UNL     1     -17.106   6.026 -20.305  1.00  0.00    -0.550 OA
ENDBRANCH   5   6
ENDBRANCH   4   5
ENDBRANCH   3   4
ENDBRANCH   2   3
ENDBRANCH   1   2
BRANCH   1   9
ATOM      9  C   UNL     1     -16.067   3.268 -22.786  1.00  0.00     0.000 C 
BRANCH   9  10
ATOM     10  C   UNL     1     -16.499   2.250 -21.719  1.00  0.00    -0.000 C 
BRANCH  10  11
ATOM     11  C   UNL     1     -16.104   2.682 -20.295  1.00  0.00    -0.000 C 
BRANCH  11  12
ATOM     12  C   UNL     1     -14.950   1.842 -19.723  1.00  0.00    -0.000 C 
BRANCH  12  13
ATOM     13  C   UNL     1     -14.760   0.515 -20.469  1.00  0.00    -0.003 C 
ATOM     14  C   UNL     1     -14.539  -0.638 -19.494  1.00  0.00     0.004 C 
ENDBRANCH  12  13
ENDBRANCH  11  12
ENDBRANCH  10  11
ENDBRANCH   9  10
ENDBRANCH   1   9
TORSDOF 10
ENDMDL
MODEL 5
REMARK VINA RESULT:    -4.503      3.778      5.595
REMARK INTER + INTRA:          -8.674
REMARK INTER:                  -7.244
REMARK INTRA:                  -1.429
REMARK UNBOUND:                -1.538
REMARK SMILES CCCCCCCCCCCC(=O)[O-]
REMARK SMILES IDX 7 1 8 2 9 3 10 4 11 5 12 6 13 7 14 8 6 9 5 10 4 11 3 12 2 13
REMARK SMILES IDX 1 14
REMARK H PARENT
REMARK Flexibility Score: inf
ROOT
ATOM      1  C   UNL     1     -16.256   5.361 -22.255  1.00  0.00     0.000 C 
ENDROOT
BRANCH   1   2
ATOM      2  C   UNL     1     -15.005   5.246 -23.136  1.00  0.00     0.000 C 
BRANCH   2   3
ATOM      3  C   UNL     1     -13.728   5.268 -22.282  1.00  0.00     0.000 C 
BRANCH   3   4
ATOM      4  C   UNL     1     -13.965   5.835 -20.870  1.00  0.00     0.006 C 
BRANCH   4   5
ATOM      5  C   UNL     1     -13.280   7.187 -20.609  1.00  0.00     0.053 C 
BRANCH   5   6
ATOM      6  C   UNL     1     -14.259   8.244 -20.197  1.00  0.00     0.041 C 
ATOM      7  O   UNL     1     -15.365   7.921 -19.692  1.00  0.00    -0.550 OA
ATOM      8  O   UNL     1     -13.962   9.585 -20.404  1.00  0.00    -0.550 OA
ENDBRANCH   5   6
ENDBRANCH   4   5
ENDBRANCH   3   4
ENDBRANCH   2   3
ENDBRANCH   1   2
BRANCH   1   9
ATOM      9  C   UNL     1     -17.292   4.290 -22.631  1.00  0.00     0.000 C 
BRANCH   9  10
ATOM     10  C   UNL     1     -17.509   3.260 -21.511  1.00  0.00    -0.000 C 
BRANCH  10  11
ATOM     11  C   UNL     1     -16.768   3.632 -20.214  1.00  0.00    -0.000 C 
BRANCH  11  12
ATOM     12  C   UNL     1     -15.649   2.635 -19.868  1.00  0.00    -0.000 C 
BRANCH  12  13
ATOM     13  C   UNL     1     -15.478   1.547 -20.936  1.00  0.00    -0.003 C 
ATOM     14  C   UNL     1     -14.078   1.588 -21.543  1.00  0.00     0.004 C 
ENDBRANCH  12  13
ENDBRANCH  11  12
ENDBRANCH  10  11
ENDBRANCH   9  10
ENDBRANCH   1   9
TORSDOF 10
ENDMDL
MODEL 6
REMARK VINA RESULT:    -4.483      1.203      2.106
REMARK INTER + INTRA:          -8.642
REMARK INTER:                  -7.457
REMARK INTRA:                  -1.185
REMARK UNBOUND:                -1.538
REMARK SMILES CCCCCCCCCCCC(=O)[O-]
REMARK SMILES IDX 7 1 8 2 9 3 10 4 11 5 12 6 13 7 14 8 6 9 5 10 4 11 3 12 2 13
REMARK SMILES IDX 1 14
REMARK H PARENT
REMARK Flexibility Score: inf
ROOT
ATOM      1  C   UNL     1     -17.104   4.224 -20.211  1.00  0.00     0.000 C 
ENDROOT
BRANCH   1   2
ATOM      2  C   UNL     1     -16.478   2.902 -20.673  1.00  0.00     0.000 C 
BRANCH   2   3
ATOM      3  C   UNL     1     -15.289   2.516 -19.781  1.00  0.00     0.000 C 
BRANCH   3   4
ATOM      4  C   UNL     1     -14.443   1.375 -20.376  1.00  0.00     0.006 C 
BRANCH   4   5
ATOM      5  C   UNL     1     -14.725  -0.007 -19.764  1.00  0.00     0.053 C 
BRANCH   5   6
ATOM      6  C   UNL     1     -15.063  -1.026 -20.809  1.00  0.00     0.041 C 
ATOM      7  O   UNL     1     -15.971  -0.797 -21.649  1.00  0.00    -0.550 OA
ATOM      8  O   UNL     1     -14.396  -2.245 -20.832  1.00  0.00    -0.550 OA
ENDBRANCH   5   6
ENDBRANCH   4   5
ENDBRANCH   3   4
ENDBRANCH   2   3
ENDBRANCH   1   2
BRANCH   1   9
ATOM      9  C   UNL     1     -17.425   5.128 -21.410  1.00  0.00     0.000 C 
BRANCH   9  10
ATOM     10  C   UNL     1     -16.465   4.908 -22.590  1.00  0.00    -0.000 C 
BRANCH  10  11
ATOM     11  C   UNL     1     -15.320   5.938 -22.620  1.00  0.00    -0.000 C 
BRANCH  11  12
ATOM     12  C   UNL     1     -14.001   5.369 -22.074  1.00  0.00    -0.000 C 
BRANCH  12  13
ATOM     13  C   UNL     1     -13.619   5.968 -20.714  1.00  0.00    -0.003 C 
ATOM     14  C   UNL     1     -14.202   7.368 -20.545  1.00  0.00     0.004 C 
ENDBRANCH  12  13
ENDBRANCH  11  12
ENDBRANCH  10  11
ENDBRANCH   9  10
ENDBRANCH   1   9
TORSDOF 10
ENDMDL
MODEL 7
REMARK VINA RESULT:    -4.480      1.220      2.432
REMARK INTER + INTRA:          -8.637
REMARK INTER:                  -7.210
REMARK INTRA:                  -1.427
REMARK UNBOUND:                -1.538
REMARK SMILES CCCCCCCCCCCC(=O)[O-]
REMARK SMILES IDX 7 1 8 2 9 3 10 4 11 5 12 6 13 7 14 8 6 9 5 10 4 11 3 12 2 13
REMARK SMILES IDX 1 14
REMARK H PARENT
REMARK Flexibility Score: inf
ROOT
ATOM      1  C   UNL     1     -17.835   4.300 -22.313  1.00  0.00     0.000 C 
ENDROOT
BRANCH   1   2
ATOM      2  C   UNL     1     -17.298   3.114 -21.501  1.00  0.00     0.000 C 
BRANCH   2   3
ATOM      3  C   UNL     1     -16.654   3.592 -20.191  1.00  0.00     0.000 C 
BRANCH   3   4
ATOM      4  C   UNL     1     -15.600   2.608 -19.651  1.00  0.00     0.006 C 
BRANCH   4   5
ATOM      5  C   UNL     1     -14.897   1.776 -20.736  1.00  0.00     0.053 C 
BRANCH   5   6
ATOM      6  C   UNL     1     -14.528   0.409 -20.246  1.00  0.00     0.041 C 
ATOM      7  O   UNL     1     -14.861   0.039 -19.090  1.00  0.00    -0.550 OA
ATOM      8  O   UNL     1     -13.785  -0.442 -21.055  1.00  0.00    -0.550 OA
ENDBRANCH   5   6
ENDBRANCH   4   5
ENDBRANCH   3   4
ENDBRANCH   2   3
ENDBRANCH   1   2
BRANCH   1   9
ATOM      9  C   UNL     1     -17.344   4.237 -23.767  1.00  0.00     0.000 C 
BRANCH   9  10
ATOM     10  C   UNL     1     -15.911   3.693 -23.883  1.00  0.00    -0.000 C 
BRANCH  10  11
ATOM     11  C   UNL     1     -14.854   4.812 -23.909  1.00  0.00    -0.000 C 
BRANCH  11  12
ATOM     12  C   UNL     1     -14.023   4.869 -22.617  1.00  0.00    -0.000 C 
BRANCH  12  13
ATOM     13  C   UNL     1     -14.393   6.065 -21.729  1.00  0.00    -0.003 C 
ATOM     14  C   UNL     1     -13.309   6.334 -20.689  1.00  0.00     0.004 C 
ENDBRANCH  12  13
ENDBRANCH  11  12
ENDBRANCH  10  11
ENDBRANCH   9  10
ENDBRANCH   1   9
TORSDOF 10
ENDMDL
MODEL 8
REMARK VINA RESULT:    -4.462      4.254      6.382
REMARK INTER + INTRA:          -8.608
REMARK INTER:                  -7.265
REMARK INTRA:                  -1.344
REMARK UNBOUND:                -1.538
REMARK SMILES CCCCCCCCCCCC(=O)[O-]
REMARK SMILES IDX 7 1 8 2 9 3 10 4 11 5 12 6 13 7 14 8 6 9 5 10 4 11 3 12 2 13
REMARK SMILES IDX 1 14
REMARK H PARENT
REMARK Flexibility Score: inf
ROOT
ATOM      1  C   UNL     1     -13.989   5.248 -21.997  1.00  0.00     0.000 C 
ENDROOT
BRANCH   1   2
ATOM      2  C   UNL     1     -13.958   5.950 -20.633  1.00  0.00     0.000 C 
BRANCH   2   3
ATOM      3  C   UNL     1     -12.984   7.138 -20.649  1.00  0.00     0.000 C 
BRANCH   3   4
ATOM      4  C   UNL     1     -13.663   8.470 -20.280  1.00  0.00     0.006 C 
BRANCH   4   5
ATOM      5  C   UNL     1     -15.169   8.354 -19.992  1.00  0.00     0.053 C 
BRANCH   5   6
ATOM      6  C   UNL     1     -15.995   9.040 -21.038  1.00  0.00     0.041 C 
ATOM      7  O   UNL     1     -15.574   9.130 -22.220  1.00  0.00    -0.550 OA
ATOM      8  O   UNL     1     -17.215   9.609 -20.696  1.00  0.00    -0.550 OA
ENDBRANCH   5   6
ENDBRANCH   4   5
ENDBRANCH   3   4
ENDBRANCH   2   3
ENDBRANCH   1   2
BRANCH   1   9
ATOM      9  C   UNL     1     -15.220   5.680 -22.808  1.00  0.00     0.000 C 
BRANCH   9  10
ATOM     10  C   UNL     1     -16.526   5.561 -22.007  1.00  0.00    -0.000 C 
BRANCH  10  11
ATOM     11  C   UNL     1     -17.412   4.397 -22.489  1.00  0.00    -0.000 C 
BRANCH  11  12
ATOM     12  C   UNL     1     -17.287   3.153 -21.594  1.00  0.00    -0.000 C 
BRANCH  12  13
ATOM     13  C   UNL     1     -16.804   3.490 -20.177  1.00  0.00    -0.003 C 
ATOM     14  C   UNL     1     -15.644   2.589 -19.762  1.00  0.00     0.004 C 
ENDBRANCH  12  13
ENDBRANCH  11  12
ENDBRANCH  10  11
ENDBRANCH   9  10
ENDBRANCH   1   9
TORSDOF 10
ENDMDL
MODEL 9
REMARK VINA RESULT:    -4.398      3.275      5.588
REMARK INTER + INTRA:          -8.506
REMARK INTER:                  -7.089
REMARK INTRA:                  -1.417
REMARK UNBOUND:                -1.538
REMARK SMILES CCCCCCCCCCCC(=O)[O-]
REMARK SMILES IDX 7 1 8 2 9 3 10 4 11 5 12 6 13 7 14 8 6 9 5 10 4 11 3 12 2 13
REMARK SMILES IDX 1 14
REMARK H PARENT
REMARK Flexibility Score: inf
ROOT
ATOM      1  C   UNL     1     -14.621   1.744 -20.064  1.00  0.00     0.000 C 
ENDROOT
BRANCH   1   2
ATOM      2  C   UNL     1     -15.833   2.665 -19.871  1.00  0.00     0.000 C 
BRANCH   2   3
ATOM      3  C   UNL     1     -16.327   3.212 -21.218  1.00  0.00     0.000 C 
BRANCH   3   4
ATOM      4  C   UNL     1     -15.197   3.347 -22.256  1.00  0.00     0.006 C 
BRANCH   4   5
ATOM      5  C   UNL     1     -15.185   4.690 -23.005  1.00  0.00     0.053 C 
BRANCH   5   6
ATOM      6  C   UNL     1     -14.681   5.809 -22.144  1.00  0.00     0.041 C 
ATOM      7  O   UNL     1     -13.727   5.615 -21.346  1.00  0.00    -0.550 OA
ATOM      8  O   UNL     1     -15.289   7.057 -22.201  1.00  0.00    -0.550 OA
ENDBRANCH   5   6
ENDBRANCH   4   5
ENDBRANCH   3   4
ENDBRANCH   2   3
ENDBRANCH   1   2
BRANCH   1   9
ATOM      9  C   UNL     1     -14.889   0.352 -19.472  1.00  0.00     0.000 C 
BRANCH   9  10
ATOM     10  C   UNL     1     -14.885  -0.754 -20.539  1.00  0.00    -0.000 C 
BRANCH  10  11
ATOM     11  C   UNL     1     -14.510  -0.226 -21.936  1.00  0.00    -0.000 C 
BRANCH  11  12
ATOM     12  C   UNL     1     -15.572  -0.558 -22.997  1.00  0.00    -0.000 C 
BRANCH  12  13
ATOM     13  C   UNL     1     -16.996  -0.561 -22.424  1.00  0.00    -0.003 C 
ATOM     14  C   UNL     1     -17.842   0.546 -23.048  1.00  0.00     0.004 C 
ENDBRANCH  12  13
ENDBRANCH  11  12
ENDBRANCH  10  11
ENDBRANCH   9  10
ENDBRANCH   1   9
TORSDOF 10
ENDMDL
