MODEL 1
REMARK VINA RESULT:    -3.466      0.000      0.000
REMARK INTER + INTRA:          -5.343
REMARK INTER:                  -5.290
REMARK INTRA:                  -0.053
REMARK UNBOUND:                -0.053
REMARK SMILES CC1=CCC[C@H](C)C(=O)C[C@@H](C(C)C)C(=O)C1
REMARK SMILES IDX 8 1 9 2 6 3 7 4 5 5 4 6 3 7 2 8 1 9 10 11 11 12 15 13 16 14
REMARK SMILES IDX 17 15 12 17 13 18 14 19
REMARK H PARENT
REMARK Flexibility Score: 70.00
ROOT
ATOM      1  C   UNL     1      16.624 -48.834  -0.708  1.00  0.00     0.136 C 
ATOM      2  O   UNL     1      15.491 -49.168  -0.386  1.00  0.00    -0.299 OA
ENDROOT
BRANCH   1   3
ATOM      3  C   UNL     1      17.782 -49.132   0.226  1.00  0.00     0.053 C 
ATOM      4  C   UNL     1      17.273 -49.788   1.517  1.00  0.00     0.016 C 
BRANCH   3   5
ATOM      5  C   UNL     1      18.826 -50.033  -0.476  1.00  0.00     0.015 C 
BRANCH   5   6
ATOM      6  C   UNL     1      20.060 -49.226  -0.925  1.00  0.00     0.028 C 
BRANCH   6   7
ATOM      7  C   UNL     1      20.661 -49.725  -2.216  1.00  0.00    -0.028 C 
ATOM      8  C   UNL     1      20.273 -49.349  -3.460  1.00  0.00    -0.070 CG0
ATOM      9  C   UNL     1      21.028 -49.882  -4.652  1.00  0.00     0.039 C 
ATOM     10  G   UNL     1      19.037 -48.507  -3.740  1.00  0.00     0.000 G0
ENDBRANCH   6   7
ENDBRANCH   5   6
ENDBRANCH   3   5
ENDBRANCH   1   3
BRANCH   1  11
ATOM     11  C   UNL     1      16.833 -48.124  -2.028  1.00  0.00     0.087 C 
BRANCH  11  12
ATOM     12  C   UNL     1      16.537 -49.047  -3.238  1.00  0.00     0.066 C 
BRANCH  12  13
ATOM     13  C   UNL     1      17.786 -49.262  -4.082  1.00  0.00     0.140 C 
ATOM     14  O   UNL     1      17.786 -50.069  -4.999  1.00  0.00    -0.299 OA
BRANCH  13  15
ATOM     15  C   UNL     1      19.045 -48.492  -3.765  1.00  0.00     0.106 CG0
ATOM     16  G   UNL     1      20.252 -49.372  -3.474  1.00  0.00     0.000 G0
ENDBRANCH  13  15
ENDBRANCH  12  13
BRANCH  12  17
ATOM     17  C   UNL     1      15.289 -48.580  -4.052  1.00  0.00    -0.006 C 
ATOM     18  C   UNL     1      14.643 -47.331  -3.434  1.00  0.00     0.008 C 
ATOM     19  C   UNL     1      14.228 -49.673  -4.284  1.00  0.00     0.008 C 
ENDBRANCH  12  17
ENDBRANCH  11  12
ENDBRANCH   1  11
TORSDOF 1
ENDMDL
MODEL 2
REMARK VINA RESULT:    -3.040     10.813     12.619
REMARK INTER + INTRA:          -4.694
REMARK INTER:                  -4.368
REMARK INTRA:                  -0.326
REMARK UNBOUND:                -0.053
REMARK SMILES CC1=CCC[C@H](C)C(=O)C[C@@H](C(C)C)C(=O)C1
REMARK SMILES IDX 8 1 9 2 6 3 7 4 5 5 4 6 3 7 2 8 1 9 10 11 11 12 15 13 16 14
REMARK SMILES IDX 17 15 12 17 13 18 14 19
REMARK H PARENT
REMARK Flexibility Score: 70.00
ROOT
ATOM      1  C   UNL     1      26.486 -43.462  -9.548  1.00  0.00     0.136 C 
ATOM      2  O   UNL     1      26.276 -42.279  -9.777  1.00  0.00    -0.299 OA
ENDROOT
BRANCH   1   3
ATOM      3  C   UNL     1      26.033 -44.057  -8.227  1.00  0.00     0.053 C 
ATOM      4  C   UNL     1      24.574 -44.524  -8.323  1.00  0.00     0.016 C 
BRANCH   3   5
ATOM      5  C   UNL     1      26.960 -45.223  -7.813  1.00  0.00     0.015 C 
BRANCH   5   6
ATOM      6  C   UNL     1      26.219 -46.574  -7.841  1.00  0.00     0.028 C 
BRANCH   6   7
ATOM      7  C   UNL     1      26.903 -47.611  -8.698  1.00  0.00    -0.028 C 
ATOM      8  C   UNL     1      26.726 -47.766 -10.034  1.00  0.00    -0.070 CG0
ATOM      9  C   UNL     1      27.544 -48.802 -10.764  1.00  0.00     0.039 C 
ATOM     10  G   UNL     1      25.660 -47.034 -10.835  1.00  0.00     0.000 G0
ENDBRANCH   6   7
ENDBRANCH   5   6
ENDBRANCH   3   5
ENDBRANCH   1   3
BRANCH   1  11
ATOM     11  C   UNL     1      27.202 -44.296 -10.588  1.00  0.00     0.087 C 
BRANCH  11  12
ATOM     12  C   UNL     1      26.278 -44.660 -11.779  1.00  0.00     0.066 C 
BRANCH  12  13
ATOM     13  C   UNL     1      26.197 -46.169 -11.968  1.00  0.00     0.140 C 
ATOM     14  O   UNL     1      26.545 -46.683 -13.020  1.00  0.00    -0.299 OA
BRANCH  13  15
ATOM     15  C   UNL     1      25.654 -47.034 -10.857  1.00  0.00     0.106 CG0
ATOM     16  G   UNL     1      26.726 -47.754 -10.052  1.00  0.00     0.000 G0
ENDBRANCH  13  15
ENDBRANCH  12  13
BRANCH  12  17
ATOM     17  C   UNL     1      26.640 -43.872 -13.077  1.00  0.00    -0.006 C 
ATOM     18  C   UNL     1      27.991 -43.152 -12.945  1.00  0.00     0.008 C 
ATOM     19  C   UNL     1      25.554 -42.891 -13.557  1.00  0.00     0.008 C 
ENDBRANCH  12  17
ENDBRANCH  11  12
ENDBRANCH   1  11
TORSDOF 1
ENDMDL
MODEL 3
REMARK VINA RESULT:    -2.758     19.979     21.250
REMARK INTER + INTRA:          -4.262
REMARK INTER:                  -4.260
REMARK INTRA:                  -0.002
REMARK UNBOUND:                -0.053
REMARK SMILES CC1=CCC[C@H](C)C(=O)C[C@@H](C(C)C)C(=O)C1
REMARK SMILES IDX 8 1 9 2 6 3 7 4 5 5 4 6 3 7 2 8 1 9 10 11 11 12 15 13 16 14
REMARK SMILES IDX 17 15 12 17 13 18 14 19
REMARK H PARENT
REMARK Flexibility Score: 70.00
ROOT
ATOM      1  C   UNL     1      27.562 -30.986 -11.640  1.00  0.00     0.136 C 
ATOM      2  O   UNL     1      27.990 -30.381 -10.667  1.00  0.00    -0.299 OA
ENDROOT
BRANCH   1   3
ATOM      3  C   UNL     1      28.445 -32.012 -12.327  1.00  0.00     0.053 C 
ATOM      4  C   UNL     1      28.645 -33.236 -11.423  1.00  0.00     0.016 C 
BRANCH   3   5
ATOM      5  C   UNL     1      27.838 -32.424 -13.688  1.00  0.00     0.015 C 
BRANCH   5   6
ATOM      6  C   UNL     1      27.455 -33.917 -13.710  1.00  0.00     0.028 C 
BRANCH   6   7
ATOM      7  C   UNL     1      26.317 -34.227 -14.651  1.00  0.00    -0.028 C 
ATOM      8  C   UNL     1      24.999 -34.097 -14.359  1.00  0.00    -0.070 CG0
ATOM      9  C   UNL     1      23.982 -34.374 -15.438  1.00  0.00     0.039 C 
ATOM     10  G   UNL     1      24.468 -33.798 -12.965  1.00  0.00     0.000 G0
ENDBRANCH   6   7
ENDBRANCH   5   6
ENDBRANCH   3   5
ENDBRANCH   1   3
BRANCH   1  11
ATOM     11  C   UNL     1      26.165 -30.684 -12.136  1.00  0.00     0.087 C 
BRANCH  11  12
ATOM     12  C   UNL     1      25.117 -31.669 -11.558  1.00  0.00     0.066 C 
BRANCH  12  13
ATOM     13  C   UNL     1      24.295 -32.311 -12.668  1.00  0.00     0.140 C 
ATOM     14  O   UNL     1      23.494 -31.649 -13.311  1.00  0.00    -0.299 OA
BRANCH  13  15
ATOM     15  C   UNL     1      24.451 -33.783 -12.959  1.00  0.00     0.106 CG0
ATOM     16  G   UNL     1      24.992 -34.087 -14.348  1.00  0.00     0.000 G0
ENDBRANCH  13  15
ENDBRANCH  12  13
BRANCH  12  17
ATOM     17  C   UNL     1      24.262 -31.029 -10.419  1.00  0.00    -0.006 C 
ATOM     18  C   UNL     1      25.015 -31.022  -9.080  1.00  0.00     0.008 C 
ATOM     19  C   UNL     1      22.862 -31.646 -10.243  1.00  0.00     0.008 C 
ENDBRANCH  12  17
ENDBRANCH  11  12
ENDBRANCH   1  11
TORSDOF 1
ENDMDL
MODEL 4
REMARK VINA RESULT:    -2.713     20.202     21.919
REMARK INTER + INTRA:          -4.193
REMARK INTER:                  -3.904
REMARK INTRA:                  -0.289
REMARK UNBOUND:                -0.053
REMARK SMILES CC1=CCC[C@H](C)C(=O)C[C@@H](C(C)C)C(=O)C1
REMARK SMILES IDX 8 1 9 2 6 3 7 4 5 5 4 6 3 7 2 8 1 9 10 11 11 12 15 13 16 14
REMARK SMILES IDX 17 15 12 17 13 18 14 19
REMARK H PARENT
REMARK Flexibility Score: 70.00
ROOT
ATOM      1  C   UNL     1      24.884 -33.925 -14.632  1.00  0.00     0.136 C 
ATOM      2  O   UNL     1      24.022 -34.750 -14.359  1.00  0.00    -0.299 OA
ENDROOT
BRANCH   1   3
ATOM      3  C   UNL     1      24.823 -32.547 -13.998  1.00  0.00     0.053 C 
ATOM      4  C   UNL     1      23.513 -31.842 -14.375  1.00  0.00     0.016 C 
BRANCH   3   5
ATOM      5  C   UNL     1      24.973 -32.650 -12.463  1.00  0.00     0.015 C 
BRANCH   5   6
ATOM      6  C   UNL     1      26.407 -32.315 -12.009  1.00  0.00     0.028 C 
BRANCH   6   7
ATOM      7  C   UNL     1      27.078 -31.275 -12.873  1.00  0.00    -0.028 C 
ATOM      8  C   UNL     1      28.076 -31.516 -13.758  1.00  0.00    -0.070 CG0
ATOM      9  C   UNL     1      28.590 -30.379 -14.607  1.00  0.00     0.039 C 
ATOM     10  G   UNL     1      28.802 -32.849 -13.871  1.00  0.00     0.000 G0
ENDBRANCH   6   7
ENDBRANCH   5   6
ENDBRANCH   3   5
ENDBRANCH   1   3
BRANCH   1  11
ATOM     11  C   UNL     1      25.981 -34.304 -15.602  1.00  0.00     0.087 C 
BRANCH  11  12
ATOM     12  C   UNL     1      27.281 -34.730 -14.874  1.00  0.00     0.066 C 
BRANCH  12  13
ATOM     13  C   UNL     1      28.379 -33.690 -15.059  1.00  0.00     0.140 C 
ATOM     14  O   UNL     1      28.924 -33.547 -16.143  1.00  0.00    -0.299 OA
BRANCH  13  15
ATOM     15  C   UNL     1      28.817 -32.849 -13.885  1.00  0.00     0.106 CG0
ATOM     16  G   UNL     1      28.083 -31.522 -13.766  1.00  0.00     0.000 G0
ENDBRANCH  13  15
ENDBRANCH  12  13
BRANCH  12  17
ATOM     17  C   UNL     1      27.715 -36.186 -15.231  1.00  0.00    -0.006 C 
ATOM     18  C   UNL     1      26.502 -37.085 -15.517  1.00  0.00     0.008 C 
ATOM     19  C   UNL     1      28.643 -36.851 -14.198  1.00  0.00     0.008 C 
ENDBRANCH  12  17
ENDBRANCH  11  12
ENDBRANCH   1  11
TORSDOF 1
ENDMDL
MODEL 5
REMARK VINA RESULT:    -2.625     11.496     13.038
REMARK INTER + INTRA:          -4.059
REMARK INTER:                  -4.162
REMARK INTRA:                   0.103
REMARK UNBOUND:                -0.053
REMARK SMILES CC1=CCC[C@H](C)C(=O)C[C@@H](C(C)C)C(=O)C1
REMARK SMILES IDX 8 1 9 2 6 3 7 4 5 5 4 6 3 7 2 8 1 9 10 11 11 12 15 13 16 14
REMARK SMILES IDX 17 15 12 17 13 18 14 19
REMARK H PARENT
REMARK Flexibility Score: 70.00
ROOT
ATOM      1  C   UNL     1      26.552 -43.415 -11.834  1.00  0.00     0.136 C 
ATOM      2  O   UNL     1      25.864 -42.539 -12.340  1.00  0.00    -0.299 OA
ENDROOT
BRANCH   1   3
ATOM      3  C   UNL     1      27.102 -43.215 -10.434  1.00  0.00     0.053 C 
ATOM      4  C   UNL     1      28.305 -42.262 -10.462  1.00  0.00     0.016 C 
BRANCH   3   5
ATOM      5  C   UNL     1      25.998 -42.682  -9.490  1.00  0.00     0.015 C 
BRANCH   5   6
ATOM      6  C   UNL     1      25.298 -43.828  -8.733  1.00  0.00     0.028 C 
BRANCH   6   7
ATOM      7  C   UNL     1      26.258 -44.728  -7.994  1.00  0.00    -0.028 C 
ATOM      8  C   UNL     1      26.663 -45.954  -8.410  1.00  0.00    -0.070 CG0
ATOM      9  C   UNL     1      27.690 -46.699  -7.594  1.00  0.00     0.039 C 
ATOM     10  G   UNL     1      26.056 -46.686  -9.598  1.00  0.00     0.000 G0
ENDBRANCH   6   7
ENDBRANCH   5   6
ENDBRANCH   3   5
ENDBRANCH   1   3
BRANCH   1  11
ATOM     11  C   UNL     1      26.843 -44.670 -12.628  1.00  0.00     0.087 C 
BRANCH  11  12
ATOM     12  C   UNL     1      26.057 -45.893 -12.091  1.00  0.00     0.066 C 
BRANCH  12  13
ATOM     13  C   UNL     1      26.774 -46.530 -10.908  1.00  0.00     0.140 C 
ATOM     14  O   UNL     1      27.925 -46.925 -11.019  1.00  0.00    -0.299 OA
BRANCH  13  15
ATOM     15  C   UNL     1      26.048 -46.702  -9.597  1.00  0.00     0.106 CG0
ATOM     16  G   UNL     1      26.673 -45.940  -8.438  1.00  0.00     0.000 G0
ENDBRANCH  13  15
ENDBRANCH  12  13
BRANCH  12  17
ATOM     17  C   UNL     1      25.673 -46.898 -13.222  1.00  0.00    -0.006 C 
ATOM     18  C   UNL     1      25.145 -48.222 -12.649  1.00  0.00     0.008 C 
ATOM     19  C   UNL     1      26.789 -47.166 -14.249  1.00  0.00     0.008 C 
ENDBRANCH  12  17
ENDBRANCH  11  12
ENDBRANCH   1  11
TORSDOF 1
ENDMDL
MODEL 6
REMARK VINA RESULT:    -2.606     10.761     13.554
REMARK INTER + INTRA:          -4.031
REMARK INTER:                  -3.971
REMARK INTRA:                  -0.061
REMARK UNBOUND:                -0.053
REMARK SMILES CC1=CCC[C@H](C)C(=O)C[C@@H](C(C)C)C(=O)C1
REMARK SMILES IDX 8 1 9 2 6 3 7 4 5 5 4 6 3 7 2 8 1 9 10 11 11 12 15 13 16 14
REMARK SMILES IDX 17 15 12 17 13 18 14 19
REMARK H PARENT
REMARK Flexibility Score: 70.00
ROOT
ATOM      1  C   UNL     1      26.112 -43.732 -11.103  1.00  0.00     0.136 C 
ATOM      2  O   UNL     1      26.156 -42.705 -10.439  1.00  0.00    -0.299 OA
ENDROOT
BRANCH   1   3
ATOM      3  C   UNL     1      26.565 -43.703 -12.551  1.00  0.00     0.053 C 
ATOM      4  C   UNL     1      25.672 -42.763 -13.372  1.00  0.00     0.016 C 
BRANCH   3   5
ATOM      5  C   UNL     1      28.049 -43.276 -12.645  1.00  0.00     0.015 C 
BRANCH   5   6
ATOM      6  C   UNL     1      28.983 -44.496 -12.768  1.00  0.00     0.028 C 
BRANCH   6   7
ATOM      7  C   UNL     1      28.269 -45.752 -13.205  1.00  0.00    -0.028 C 
ATOM      8  C   UNL     1      27.906 -46.773 -12.389  1.00  0.00    -0.070 CG0
ATOM      9  C   UNL     1      27.127 -47.928 -12.967  1.00  0.00     0.039 C 
ATOM     10  G   UNL     1      28.340 -46.887 -10.935  1.00  0.00     0.000 G0
ENDBRANCH   6   7
ENDBRANCH   5   6
ENDBRANCH   3   5
ENDBRANCH   1   3
BRANCH   1  11
ATOM     11  C   UNL     1      25.596 -45.000 -10.459  1.00  0.00     0.087 C 
BRANCH  11  12
ATOM     12  C   UNL     1      26.606 -45.590  -9.442  1.00  0.00     0.066 C 
BRANCH  12  13
ATOM     13  C   UNL     1      27.189 -46.903  -9.947  1.00  0.00     0.140 C 
ATOM     14  O   UNL     1      26.758 -47.972  -9.542  1.00  0.00    -0.299 OA
BRANCH  13  15
ATOM     15  C   UNL     1      28.330 -46.884 -10.935  1.00  0.00     0.106 CG0
ATOM     16  G   UNL     1      27.890 -46.779 -12.387  1.00  0.00     0.000 G0
ENDBRANCH  13  15
ENDBRANCH  12  13
BRANCH  12  17
ATOM     17  C   UNL     1      26.021 -45.665  -7.997  1.00  0.00    -0.006 C 
ATOM     18  C   UNL     1      24.883 -44.654  -7.793  1.00  0.00     0.008 C 
ATOM     19  C   UNL     1      27.067 -45.528  -6.874  1.00  0.00     0.008 C 
ENDBRANCH  12  17
ENDBRANCH  11  12
ENDBRANCH   1  11
TORSDOF 1
ENDMDL
MODEL 7
REMARK VINA RESULT:    -2.541     20.441     21.630
REMARK INTER + INTRA:          -3.932
REMARK INTER:                  -3.942
REMARK INTRA:                   0.011
REMARK UNBOUND:                -0.053
REMARK SMILES CC1=CCC[C@H](C)C(=O)C[C@@H](C(C)C)C(=O)C1
REMARK SMILES IDX 8 1 9 2 6 3 7 4 5 5 4 6 3 7 2 8 1 9 10 11 11 12 15 13 16 14
REMARK SMILES IDX 17 15 12 17 13 18 14 19
REMARK H PARENT
REMARK Flexibility Score: 70.00
ROOT
ATOM      1  C   UNL     1      24.556 -31.201 -10.030  1.00  0.00     0.136 C 
ATOM      2  O   UNL     1      24.456 -30.192  -9.346  1.00  0.00    -0.299 OA
ENDROOT
BRANCH   1   3
ATOM      3  C   UNL     1      23.345 -31.710 -10.790  1.00  0.00     0.053 C 
ATOM      4  C   UNL     1      22.070 -31.018 -10.288  1.00  0.00     0.016 C 
BRANCH   3   5
ATOM      5  C   UNL     1      23.529 -31.492 -12.310  1.00  0.00     0.015 C 
BRANCH   5   6
ATOM      6  C   UNL     1      23.881 -32.807 -13.033  1.00  0.00     0.028 C 
BRANCH   6   7
ATOM      7  C   UNL     1      24.912 -32.632 -14.121  1.00  0.00    -0.028 C 
ATOM      8  C   UNL     1      26.256 -32.703 -13.947  1.00  0.00    -0.070 CG0
ATOM      9  C   UNL     1      27.154 -32.583 -15.153  1.00  0.00     0.039 C 
ATOM     10  G   UNL     1      26.929 -32.781 -12.585  1.00  0.00     0.000 G0
ENDBRANCH   6   7
ENDBRANCH   5   6
ENDBRANCH   3   5
ENDBRANCH   1   3
BRANCH   1  11
ATOM     11  C   UNL     1      25.887 -31.919 -10.088  1.00  0.00     0.087 C 
BRANCH  11  12
ATOM     12  C   UNL     1      27.012 -31.013 -10.653  1.00  0.00     0.066 C 
BRANCH  12  13
ATOM     13  C   UNL     1      27.444 -31.475 -12.038  1.00  0.00     0.140 C 
ATOM     14  O   UNL     1      28.183 -30.783 -12.722  1.00  0.00    -0.299 OA
BRANCH  13  15
ATOM     15  C   UNL     1      26.933 -32.786 -12.583  1.00  0.00     0.106 CG0
ATOM     16  G   UNL     1      26.263 -32.672 -13.944  1.00  0.00     0.000 G0
ENDBRANCH  13  15
ENDBRANCH  12  13
BRANCH  12  17
ATOM     17  C   UNL     1      28.189 -30.828  -9.645  1.00  0.00    -0.006 C 
ATOM     18  C   UNL     1      28.734 -32.178  -9.154  1.00  0.00     0.008 C 
ATOM     19  C   UNL     1      27.872 -29.911  -8.449  1.00  0.00     0.008 C 
ENDBRANCH  12  17
ENDBRANCH  11  12
ENDBRANCH   1  11
TORSDOF 1
ENDMDL
MODEL 8
REMARK VINA RESULT:    -2.535     10.919     13.262
REMARK INTER + INTRA:          -3.923
REMARK INTER:                  -3.591
REMARK INTRA:                  -0.332
REMARK UNBOUND:                -0.053
REMARK SMILES CC1=CCC[C@H](C)C(=O)C[C@@H](C(C)C)C(=O)C1
REMARK SMILES IDX 8 1 9 2 6 3 7 4 5 5 4 6 3 7 2 8 1 9 10 11 11 12 15 13 16 14
REMARK SMILES IDX 17 15 12 17 13 18 14 19
REMARK H PARENT
REMARK Flexibility Score: 70.00
ROOT
ATOM      1  C   UNL     1      26.367 -45.731  -8.869  1.00  0.00     0.136 C 
ATOM      2  O   UNL     1      27.186 -45.805  -7.963  1.00  0.00    -0.299 OA
ENDROOT
BRANCH   1   3
ATOM      3  C   UNL     1      25.588 -44.444  -9.065  1.00  0.00     0.053 C 
ATOM      4  C   UNL     1      24.638 -44.207  -7.883  1.00  0.00     0.016 C 
BRANCH   3   5
ATOM      5  C   UNL     1      26.554 -43.249  -9.245  1.00  0.00     0.015 C 
BRANCH   5   6
ATOM      6  C   UNL     1      27.335 -43.347 -10.570  1.00  0.00     0.028 C 
BRANCH   6   7
ATOM      7  C   UNL     1      26.460 -43.201 -11.791  1.00  0.00    -0.028 C 
ATOM      8  C   UNL     1      26.327 -44.124 -12.776  1.00  0.00    -0.070 CG0
ATOM      9  C   UNL     1      25.350 -43.862 -13.894  1.00  0.00     0.039 C 
ATOM     10  G   UNL     1      27.195 -45.369 -12.889  1.00  0.00     0.000 G0
ENDBRANCH   6   7
ENDBRANCH   5   6
ENDBRANCH   3   5
ENDBRANCH   1   3
BRANCH   1  11
ATOM     11  C   UNL     1      26.150 -46.934  -9.761  1.00  0.00     0.087 C 
BRANCH  11  12
ATOM     12  C   UNL     1      27.223 -47.034 -10.875  1.00  0.00     0.066 C 
BRANCH  12  13
ATOM     13  C   UNL     1      26.656 -46.606 -12.222  1.00  0.00     0.140 C 
ATOM     14  O   UNL     1      25.781 -47.263 -12.766  1.00  0.00    -0.299 OA
BRANCH  13  15
ATOM     15  C   UNL     1      27.201 -45.376 -12.906  1.00  0.00     0.106 CG0
ATOM     16  G   UNL     1      26.313 -44.147 -12.770  1.00  0.00     0.000 G0
ENDBRANCH  13  15
ENDBRANCH  12  13
BRANCH  12  17
ATOM     17  C   UNL     1      27.935 -48.423 -10.894  1.00  0.00    -0.006 C 
ATOM     18  C   UNL     1      28.766 -48.651  -9.622  1.00  0.00     0.008 C 
ATOM     19  C   UNL     1      28.789 -48.690 -12.147  1.00  0.00     0.008 C 
ENDBRANCH  12  17
ENDBRANCH  11  12
ENDBRANCH   1  11
TORSDOF 1
ENDMDL
MODEL 9
REMARK VINA RESULT:    -2.467     11.326     12.853
REMARK INTER + INTRA:          -3.819
REMARK INTER:                  -3.512
REMARK INTRA:                  -0.307
REMARK UNBOUND:                -0.053
REMARK SMILES CC1=CCC[C@H](C)C(=O)C[C@@H](C(C)C)C(=O)C1
REMARK SMILES IDX 8 1 9 2 6 3 7 4 5 5 4 6 3 7 2 8 1 9 10 11 11 12 15 13 16 14
REMARK SMILES IDX 17 15 12 17 13 18 14 19
REMARK H PARENT
REMARK Flexibility Score: 70.00
ROOT
ATOM      1  C   UNL     1      27.572 -45.646  -8.176  1.00  0.00     0.136 C 
ATOM      2  O   UNL     1      26.646 -45.235  -7.489  1.00  0.00    -0.299 OA
ENDROOT
BRANCH   1   3
ATOM      3  C   UNL     1      28.146 -47.024  -7.904  1.00  0.00     0.053 C 
ATOM      4  C   UNL     1      28.873 -47.044  -6.552  1.00  0.00     0.016 C 
BRANCH   3   5
ATOM      5  C   UNL     1      27.030 -48.093  -7.946  1.00  0.00     0.015 C 
BRANCH   5   6
ATOM      6  C   UNL     1      26.434 -48.235  -9.361  1.00  0.00     0.028 C 
BRANCH   6   7
ATOM      7  C   UNL     1      27.443 -48.683 -10.390  1.00  0.00    -0.028 C 
ATOM      8  C   UNL     1      27.765 -48.006 -11.520  1.00  0.00    -0.070 CG0
ATOM      9  C   UNL     1      28.854 -48.549 -12.412  1.00  0.00     0.039 C 
ATOM     10  G   UNL     1      27.012 -46.779 -12.013  1.00  0.00     0.000 G0
ENDBRANCH   6   7
ENDBRANCH   5   6
ENDBRANCH   3   5
ENDBRANCH   1   3
BRANCH   1  11
ATOM     11  C   UNL     1      28.123 -44.759  -9.271  1.00  0.00     0.087 C 
BRANCH  11  12
ATOM     12  C   UNL     1      27.155 -44.655 -10.477  1.00  0.00     0.066 C 
BRANCH  12  13
ATOM     13  C   UNL     1      27.668 -45.460 -11.663  1.00  0.00     0.140 C 
ATOM     14  O   UNL     1      28.594 -45.045 -12.344  1.00  0.00    -0.299 OA
BRANCH  13  15
ATOM     15  C   UNL     1      27.007 -46.770 -12.020  1.00  0.00     0.106 CG0
ATOM     16  G   UNL     1      27.762 -47.997 -11.530  1.00  0.00     0.000 G0
ENDBRANCH  13  15
ENDBRANCH  12  13
BRANCH  12  17
ATOM     17  C   UNL     1      26.788 -43.177 -10.820  1.00  0.00    -0.006 C 
ATOM     18  C   UNL     1      26.098 -42.475  -9.640  1.00  0.00     0.008 C 
ATOM     19  C   UNL     1      25.958 -43.003 -12.106  1.00  0.00     0.008 C 
ENDBRANCH  12  17
ENDBRANCH  11  12
ENDBRANCH   1  11
TORSDOF 1
ENDMDL
