MODEL 1
REMARK VINA RESULT:    -4.932      0.000      0.000
REMARK INTER + INTRA:          -6.033
REMARK INTER:                  -5.941
REMARK INTRA:                  -0.092
REMARK UNBOUND:                -0.092
REMARK SMILES NC(=O)C[C@H]([NH3+])C(=O)[O-]
REMARK SMILES IDX 4 1 5 2 6 3 7 7 8 8 9 9 2 10 3 11 1 12
REMARK H PARENT 6 4 6 5 6 6 1 13 1 14
REMARK Flexibility Score: inf
ROOT
ATOM      1  C   UNL     1     -21.734  69.287   1.219  1.00  0.00     0.171 C 
ENDROOT
BRANCH   1   2
ATOM      2  C   UNL     1     -21.865  68.548  -0.128  1.00  0.00     0.237 C 
BRANCH   2   3
ATOM      3  N   UNL     1     -23.098  67.751  -0.184  1.00  0.00    -0.350 N 
ATOM      4  H   UNL     1     -23.019  67.020  -0.928  1.00  0.00     0.345 HD
ATOM      5  H   UNL     1     -23.925  68.359  -0.385  1.00  0.00     0.345 HD
ATOM      6  H   UNL     1     -23.245  67.263   0.730  1.00  0.00     0.345 HD
ENDBRANCH   2   3
BRANCH   2   7
ATOM      7  C   UNL     1     -20.666  67.662  -0.337  1.00  0.00     0.100 C 
ATOM      8  O   UNL     1     -19.812  67.527   0.577  1.00  0.00    -0.544 OA
ATOM      9  O   UNL     1     -20.504  66.972  -1.534  1.00  0.00    -0.544 OA
ENDBRANCH   2   7
ENDBRANCH   1   2
BRANCH   1  10
ATOM     10  C   UNL     1     -21.324  70.719   1.028  1.00  0.00     0.223 C 
ATOM     11  O   UNL     1     -20.748  71.070  -0.037  1.00  0.00    -0.275 OA
ATOM     12  N   UNL     1     -21.557  71.680   2.057  1.00  0.00    -0.369 N 
ATOM     13  H   UNL     1     -22.022  71.402   2.949  1.00  0.00     0.159 HD
ATOM     14  H   UNL     1     -21.261  72.673   1.928  1.00  0.00     0.159 HD
ENDBRANCH   1  10
TORSDOF 4
ENDMDL
MODEL 2
REMARK VINA RESULT:    -4.824      2.867      4.716
REMARK INTER + INTRA:          -5.903
REMARK INTER:                  -5.805
REMARK INTRA:                  -0.098
REMARK UNBOUND:                -0.092
REMARK SMILES NC(=O)C[C@H]([NH3+])C(=O)[O-]
REMARK SMILES IDX 4 1 5 2 6 3 7 7 8 8 9 9 2 10 3 11 1 12
REMARK H PARENT 6 4 6 5 6 6 1 13 1 14
REMARK Flexibility Score: inf
ROOT
ATOM      1  C   UNL     1     -18.942  66.879  -0.698  1.00  0.00     0.171 C 
ENDROOT
BRANCH   1   2
ATOM      2  C   UNL     1     -19.135  68.392  -0.927  1.00  0.00     0.237 C 
BRANCH   2   3
ATOM      3  N   UNL     1     -17.863  69.118  -0.811  1.00  0.00    -0.350 N 
ATOM      4  H   UNL     1     -17.494  69.351  -1.762  1.00  0.00     0.345 HD
ATOM      5  H   UNL     1     -17.154  68.547  -0.297  1.00  0.00     0.345 HD
ATOM      6  H   UNL     1     -18.015  70.018  -0.298  1.00  0.00     0.345 HD
ENDBRANCH   2   3
BRANCH   2   7
ATOM      7  C   UNL     1     -20.130  68.931   0.065  1.00  0.00     0.100 C 
ATOM      8  O   UNL     1     -20.560  68.196   0.993  1.00  0.00    -0.544 OA
ATOM      9  O   UNL     1     -20.568  70.248  -0.026  1.00  0.00    -0.544 OA
ENDBRANCH   2   7
ENDBRANCH   1   2
BRANCH   1  10
ATOM     10  C   UNL     1     -19.634  66.066  -1.753  1.00  0.00     0.223 C 
ATOM     11  O   UNL     1     -20.639  66.538  -2.350  1.00  0.00    -0.275 OA
ATOM     12  N   UNL     1     -19.177  64.750  -2.066  1.00  0.00    -0.369 N 
ATOM     13  H   UNL     1     -18.353  64.342  -1.572  1.00  0.00     0.159 HD
ATOM     14  H   UNL     1     -19.666  64.181  -2.792  1.00  0.00     0.159 HD
ENDBRANCH   1  10
TORSDOF 4
ENDMDL
MODEL 3
REMARK VINA RESULT:    -4.809      2.774      3.474
REMARK INTER + INTRA:          -5.886
REMARK INTER:                  -5.621
REMARK INTRA:                  -0.265
REMARK UNBOUND:                -0.092
REMARK SMILES NC(=O)C[C@H]([NH3+])C(=O)[O-]
REMARK SMILES IDX 4 1 5 2 6 3 7 7 8 8 9 9 2 10 3 11 1 12
REMARK H PARENT 6 4 6 5 6 6 1 13 1 14
REMARK Flexibility Score: inf
ROOT
ATOM      1  C   UNL     1     -19.873  69.187  -0.728  1.00  0.00     0.171 C 
ENDROOT
BRANCH   1   2
ATOM      2  C   UNL     1     -20.573  67.859  -0.373  1.00  0.00     0.237 C 
BRANCH   2   3
ATOM      3  N   UNL     1     -20.501  66.901  -1.485  1.00  0.00    -0.350 N 
ATOM      4  H   UNL     1     -20.808  67.359  -2.374  1.00  0.00     0.345 HD
ATOM      5  H   UNL     1     -21.106  66.070  -1.299  1.00  0.00     0.345 HD
ATOM      6  H   UNL     1     -19.511  66.583  -1.614  1.00  0.00     0.345 HD
ENDBRANCH   2   3
BRANCH   2   7
ATOM      7  C   UNL     1     -22.010  68.127  -0.014  1.00  0.00     0.100 C 
ATOM      8  O   UNL     1     -22.934  67.484  -0.579  1.00  0.00    -0.544 OA
ATOM      9  O   UNL     1     -22.327  69.073   0.955  1.00  0.00    -0.544 OA
ENDBRANCH   2   7
ENDBRANCH   1   2
BRANCH   1  10
ATOM     10  C   UNL     1     -18.381  69.026  -0.795  1.00  0.00     0.223 C 
ATOM     11  O   UNL     1     -17.845  67.968  -0.369  1.00  0.00    -0.275 OA
ATOM     12  N   UNL     1     -17.565  70.076  -1.312  1.00  0.00    -0.369 N 
ATOM     13  H   UNL     1     -17.994  70.962  -1.658  1.00  0.00     0.159 HD
ATOM     14  H   UNL     1     -16.527  69.968  -1.347  1.00  0.00     0.159 HD
ENDBRANCH   1  10
TORSDOF 4
ENDMDL
MODEL 4
REMARK VINA RESULT:    -4.793      2.242      2.897
REMARK INTER + INTRA:          -5.867
REMARK INTER:                  -5.539
REMARK INTRA:                  -0.328
REMARK UNBOUND:                -0.092
REMARK SMILES NC(=O)C[C@H]([NH3+])C(=O)[O-]
REMARK SMILES IDX 4 1 5 2 6 3 7 7 8 8 9 9 2 10 3 11 1 12
REMARK H PARENT 6 4 6 5 6 6 1 13 1 14
REMARK Flexibility Score: inf
ROOT
ATOM      1  C   UNL     1     -20.867  69.430  -0.106  1.00  0.00     0.171 C 
ENDROOT
BRANCH   1   2
ATOM      2  C   UNL     1     -20.031  68.674  -1.159  1.00  0.00     0.237 C 
BRANCH   2   3
ATOM      3  N   UNL     1     -20.365  67.243  -1.183  1.00  0.00    -0.350 N 
ATOM      4  H   UNL     1     -20.419  66.871  -0.207  1.00  0.00     0.345 HD
ATOM      5  H   UNL     1     -19.649  66.703  -1.719  1.00  0.00     0.345 HD
ATOM      6  H   UNL     1     -21.303  67.107  -1.629  1.00  0.00     0.345 HD
ENDBRANCH   2   3
BRANCH   2   7
ATOM      7  C   UNL     1     -18.565  68.857  -0.867  1.00  0.00     0.100 C 
ATOM      8  O   UNL     1     -18.002  69.953  -1.121  1.00  0.00    -0.544 OA
ATOM      9  O   UNL     1     -17.829  67.822  -0.300  1.00  0.00    -0.544 OA
ENDBRANCH   2   7
ENDBRANCH   1   2
BRANCH   1  10
ATOM     10  C   UNL     1     -21.387  68.505   0.957  1.00  0.00     0.223 C 
ATOM     11  O   UNL     1     -20.583  67.947   1.750  1.00  0.00    -0.275 OA
ATOM     12  N   UNL     1     -22.785  68.233   1.055  1.00  0.00    -0.369 N 
ATOM     13  H   UNL     1     -23.461  68.679   0.398  1.00  0.00     0.159 HD
ATOM     14  H   UNL     1     -23.144  67.581   1.787  1.00  0.00     0.159 HD
ENDBRANCH   1  10
TORSDOF 4
ENDMDL
MODEL 5
REMARK VINA RESULT:    -4.748      2.231      2.869
REMARK INTER + INTRA:          -5.812
REMARK INTER:                  -5.624
REMARK INTRA:                  -0.187
REMARK UNBOUND:                -0.092
REMARK SMILES NC(=O)C[C@H]([NH3+])C(=O)[O-]
REMARK SMILES IDX 4 1 5 2 6 3 7 7 8 8 9 9 2 10 3 11 1 12
REMARK H PARENT 6 4 6 5 6 6 1 13 1 14
REMARK Flexibility Score: inf
ROOT
ATOM      1  C   UNL     1     -20.602  69.368  -0.512  1.00  0.00     0.171 C 
ENDROOT
BRANCH   1   2
ATOM      2  C   UNL     1     -19.183  68.791  -0.332  1.00  0.00     0.237 C 
BRANCH   2   3
ATOM      3  N   UNL     1     -18.240  69.379  -1.293  1.00  0.00    -0.350 N 
ATOM      4  H   UNL     1     -18.738  70.052  -1.920  1.00  0.00     0.345 HD
ATOM      5  H   UNL     1     -17.790  68.636  -1.875  1.00  0.00     0.345 HD
ATOM      6  H   UNL     1     -17.497  69.910  -0.780  1.00  0.00     0.345 HD
ENDBRANCH   2   3
BRANCH   2   7
ATOM      7  C   UNL     1     -19.221  67.295  -0.496  1.00  0.00     0.100 C 
ATOM      8  O   UNL     1     -18.872  66.546   0.453  1.00  0.00    -0.544 OA
ATOM      9  O   UNL     1     -19.659  66.732  -1.690  1.00  0.00    -0.544 OA
ENDBRANCH   2   7
ENDBRANCH   1   2
BRANCH   1  10
ATOM     10  C   UNL     1     -21.559  68.807   0.500  1.00  0.00     0.223 C 
ATOM     11  O   UNL     1     -21.326  68.950   1.730  1.00  0.00    -0.275 OA
ATOM     12  N   UNL     1     -22.718  68.089   0.076  1.00  0.00    -0.369 N 
ATOM     13  H   UNL     1     -22.918  67.954  -0.939  1.00  0.00     0.159 HD
ATOM     14  H   UNL     1     -23.377  67.690   0.781  1.00  0.00     0.159 HD
ENDBRANCH   1  10
TORSDOF 4
ENDMDL
MODEL 6
REMARK VINA RESULT:    -4.686      2.118      3.356
REMARK INTER + INTRA:          -5.737
REMARK INTER:                  -5.553
REMARK INTRA:                  -0.184
REMARK UNBOUND:                -0.092
REMARK SMILES NC(=O)C[C@H]([NH3+])C(=O)[O-]
REMARK SMILES IDX 4 1 5 2 6 3 7 7 8 8 9 9 2 10 3 11 1 12
REMARK H PARENT 6 4 6 5 6 6 1 13 1 14
REMARK Flexibility Score: inf
ROOT
ATOM      1  C   UNL     1     -20.453  67.993  -1.099  1.00  0.00     0.171 C 
ENDROOT
BRANCH   1   2
ATOM      2  C   UNL     1     -21.530  67.873  -0.001  1.00  0.00     0.237 C 
BRANCH   2   3
ATOM      3  N   UNL     1     -22.881  67.844  -0.576  1.00  0.00    -0.350 N 
ATOM      4  H   UNL     1     -23.562  68.285   0.085  1.00  0.00     0.345 HD
ATOM      5  H   UNL     1     -23.180  66.862  -0.774  1.00  0.00     0.345 HD
ATOM      6  H   UNL     1     -22.899  68.394  -1.467  1.00  0.00     0.345 HD
ENDBRANCH   2   3
BRANCH   2   7
ATOM      7  C   UNL     1     -21.402  69.025   0.960  1.00  0.00     0.100 C 
ATOM      8  O   UNL     1     -21.245  68.809   2.190  1.00  0.00    -0.544 OA
ATOM      9  O   UNL     1     -21.438  70.335   0.493  1.00  0.00    -0.544 OA
ENDBRANCH   2   7
ENDBRANCH   1   2
BRANCH   1  10
ATOM     10  C   UNL     1     -19.068  67.869  -0.533  1.00  0.00     0.223 C 
ATOM     11  O   UNL     1     -18.779  66.893   0.209  1.00  0.00    -0.275 OA
ATOM     12  N   UNL     1     -18.085  68.867  -0.807  1.00  0.00    -0.369 N 
ATOM     13  H   UNL     1     -18.313  69.687  -1.410  1.00  0.00     0.159 HD
ATOM     14  H   UNL     1     -17.126  68.786  -0.403  1.00  0.00     0.159 HD
ENDBRANCH   1  10
TORSDOF 4
ENDMDL
MODEL 7
REMARK VINA RESULT:    -4.679      1.992      3.687
REMARK INTER + INTRA:          -5.729
REMARK INTER:                  -5.523
REMARK INTRA:                  -0.206
REMARK UNBOUND:                -0.092
REMARK SMILES NC(=O)C[C@H]([NH3+])C(=O)[O-]
REMARK SMILES IDX 4 1 5 2 6 3 7 7 8 8 9 9 2 10 3 11 1 12
REMARK H PARENT 6 4 6 5 6 6 1 13 1 14
REMARK Flexibility Score: inf
ROOT
ATOM      1  C   UNL     1     -20.686  68.003  -0.334  1.00  0.00     0.171 C 
ENDROOT
BRANCH   1   2
ATOM      2  C   UNL     1     -21.276  68.717   0.899  1.00  0.00     0.237 C 
BRANCH   2   3
ATOM      3  N   UNL     1     -22.660  68.294   1.153  1.00  0.00    -0.350 N 
ATOM      4  H   UNL     1     -22.871  67.419   0.621  1.00  0.00     0.345 HD
ATOM      5  H   UNL     1     -23.334  69.041   0.870  1.00  0.00     0.345 HD
ATOM      6  H   UNL     1     -22.785  68.088   2.172  1.00  0.00     0.345 HD
ENDBRANCH   2   3
BRANCH   2   7
ATOM      7  C   UNL     1     -21.220  70.208   0.694  1.00  0.00     0.100 C 
ATOM      8  O   UNL     1     -20.843  70.681  -0.409  1.00  0.00    -0.544 OA
ATOM      9  O   UNL     1     -21.602  71.070   1.717  1.00  0.00    -0.544 OA
ENDBRANCH   2   7
ENDBRANCH   1   2
BRANCH   1  10
ATOM     10  C   UNL     1     -19.211  67.768  -0.185  1.00  0.00     0.223 C 
ATOM     11  O   UNL     1     -18.796  66.798   0.504  1.00  0.00    -0.275 OA
ATOM     12  N   UNL     1     -18.274  68.654  -0.797  1.00  0.00    -0.369 N 
ATOM     13  H   UNL     1     -18.602  69.469  -1.361  1.00  0.00     0.159 HD
ATOM     14  H   UNL     1     -17.248  68.497  -0.683  1.00  0.00     0.159 HD
ENDBRANCH   1  10
TORSDOF 4
ENDMDL
MODEL 8
REMARK VINA RESULT:    -4.511      2.172      3.655
REMARK INTER + INTRA:          -5.527
REMARK INTER:                  -5.425
REMARK INTRA:                  -0.101
REMARK UNBOUND:                -0.092
REMARK SMILES NC(=O)C[C@H]([NH3+])C(=O)[O-]
REMARK SMILES IDX 4 1 5 2 6 3 7 7 8 8 9 9 2 10 3 11 1 12
REMARK H PARENT 6 4 6 5 6 6 1 13 1 14
REMARK Flexibility Score: inf
ROOT
ATOM      1  C   UNL     1     -19.520  68.877  -0.446  1.00  0.00     0.171 C 
ENDROOT
BRANCH   1   2
ATOM      2  C   UNL     1     -20.970  69.390  -0.329  1.00  0.00     0.237 C 
BRANCH   2   3
ATOM      3  N   UNL     1     -21.013  70.763   0.192  1.00  0.00    -0.350 N 
ATOM      4  H   UNL     1     -21.805  70.866   0.867  1.00  0.00     0.345 HD
ATOM      5  H   UNL     1     -21.131  71.452  -0.586  1.00  0.00     0.345 HD
ATOM      6  H   UNL     1     -20.125  70.974   0.705  1.00  0.00     0.345 HD
ENDBRANCH   2   3
BRANCH   2   7
ATOM      7  C   UNL     1     -21.760  68.473   0.566  1.00  0.00     0.100 C 
ATOM      8  O   UNL     1     -21.572  68.486   1.810  1.00  0.00    -0.544 OA
ATOM      9  O   UNL     1     -22.715  67.618   0.026  1.00  0.00    -0.544 OA
ENDBRANCH   2   7
ENDBRANCH   1   2
BRANCH   1  10
ATOM     10  C   UNL     1     -19.474  67.392  -0.662  1.00  0.00     0.223 C 
ATOM     11  O   UNL     1     -18.882  66.654   0.171  1.00  0.00    -0.275 OA
ATOM     12  N   UNL     1     -20.073  66.813  -1.822  1.00  0.00    -0.369 N 
ATOM     13  H   UNL     1     -20.557  67.412  -2.526  1.00  0.00     0.159 HD
ATOM     14  H   UNL     1     -20.030  65.781  -1.977  1.00  0.00     0.159 HD
ENDBRANCH   1  10
TORSDOF 4
ENDMDL
MODEL 9
REMARK VINA RESULT:    -4.483      1.980      2.360
REMARK INTER + INTRA:          -5.492
REMARK INTER:                  -5.383
REMARK INTRA:                  -0.109
REMARK UNBOUND:                -0.092
REMARK SMILES NC(=O)C[C@H]([NH3+])C(=O)[O-]
REMARK SMILES IDX 4 1 5 2 6 3 7 7 8 8 9 9 2 10 3 11 1 12
REMARK H PARENT 6 4 6 5 6 6 1 13 1 14
REMARK Flexibility Score: inf
ROOT
ATOM      1  C   UNL     1     -21.468  67.918  -0.447  1.00  0.00     0.171 C 
ENDROOT
BRANCH   1   2
ATOM      2  C   UNL     1     -20.163  67.729  -1.248  1.00  0.00     0.237 C 
BRANCH   2   3
ATOM      3  N   UNL     1     -20.189  66.486  -2.031  1.00  0.00    -0.350 N 
ATOM      4  H   UNL     1     -19.225  66.247  -2.358  1.00  0.00     0.345 HD
ATOM      5  H   UNL     1     -20.820  66.582  -2.859  1.00  0.00     0.345 HD
ATOM      6  H   UNL     1     -20.529  65.697  -1.431  1.00  0.00     0.345 HD
ENDBRANCH   2   3
BRANCH   2   7
ATOM      7  C   UNL     1     -18.989  67.722  -0.306  1.00  0.00     0.100 C 
ATOM      8  O   UNL     1     -18.927  66.873   0.622  1.00  0.00    -0.544 OA
ATOM      9  O   UNL     1     -17.957  68.641  -0.464  1.00  0.00    -0.544 OA
ENDBRANCH   2   7
ENDBRANCH   1   2
BRANCH   1  10
ATOM     10  C   UNL     1     -21.353  69.040   0.543  1.00  0.00     0.223 C 
ATOM     11  O   UNL     1     -21.286  70.231   0.136  1.00  0.00    -0.275 OA
ATOM     12  N   UNL     1     -21.290  68.765   1.942  1.00  0.00    -0.369 N 
ATOM     13  H   UNL     1     -21.333  67.783   2.293  1.00  0.00     0.159 HD
ATOM     14  H   UNL     1     -21.198  69.545   2.629  1.00  0.00     0.159 HD
ENDBRANCH   1  10
TORSDOF 4
ENDMDL
