MODEL 1
REMARK VINA RESULT:    -4.695      0.000      0.000
REMARK INTER + INTRA:          -4.832
REMARK INTER:                  -4.832
REMARK INTRA:                   0.000
REMARK UNBOUND:                 0.000
REMARK SMILES Nc1ncnc2nc[nH]c12
REMARK SMILES IDX 8 1 7 2 6 3 5 4 4 5 3 6 2 7 10 8 9 9 1 11
REMARK H PARENT 9 10 1 12 1 13
REMARK Flexibility Score: inf
ROOT
ATOM      1  C   UNL     1       1.661  -3.831  29.186  1.00  0.00     0.199 A 
ATOM      2  N   UNL     1       2.992  -3.886  28.910  1.00  0.00    -0.217 NA
ATOM      3  C   UNL     1       3.147  -5.158  28.506  1.00  0.00     0.182 A 
ATOM      4  N   UNL     1       4.302  -5.744  28.107  1.00  0.00    -0.215 NA
ATOM      5  C   UNL     1       4.261  -7.057  27.730  1.00  0.00     0.226 A 
ATOM      6  N   UNL     1       3.080  -7.755  27.757  1.00  0.00    -0.217 NA
ATOM      7  C   UNL     1       1.914  -7.165  28.159  1.00  0.00     0.152 A 
ATOM      8  C   UNL     1       1.972  -5.827  28.540  1.00  0.00     0.127 A 
ATOM      9  N   UNL     1       1.010  -5.002  28.971  1.00  0.00    -0.340 N 
ATOM     10  H   UNL     1      -0.005  -5.201  29.112  1.00  0.00     0.168 HD
ENDROOT
BRANCH   7  11
ATOM     11  N   UNL     1       0.697  -7.910  28.179  1.00  0.00    -0.382 N 
ATOM     12  H   UNL     1       0.626  -8.849  27.729  1.00  0.00     0.158 HD
ATOM     13  H   UNL     1      -0.148  -7.517  28.650  1.00  0.00     0.158 HD
ENDBRANCH   7  11
TORSDOF 1
ENDMDL
MODEL 2
REMARK VINA RESULT:    -4.688      2.763      4.423
REMARK INTER + INTRA:          -4.825
REMARK INTER:                  -4.825
REMARK INTRA:                   0.000
REMARK UNBOUND:                 0.000
REMARK SMILES Nc1ncnc2nc[nH]c12
REMARK SMILES IDX 8 1 7 2 6 3 5 4 4 5 3 6 2 7 10 8 9 9 1 11
REMARK H PARENT 9 10 1 12 1 13
REMARK Flexibility Score: inf
ROOT
ATOM      1  C   UNL     1       6.668  -6.205  30.048  1.00  0.00     0.199 A 
ATOM      2  N   UNL     1       5.373  -6.616  29.988  1.00  0.00    -0.217 NA
ATOM      3  C   UNL     1       5.099  -6.507  28.678  1.00  0.00     0.182 A 
ATOM      4  N   UNL     1       3.923  -6.798  28.070  1.00  0.00    -0.215 NA
ATOM      5  C   UNL     1       3.835  -6.622  26.718  1.00  0.00     0.226 A 
ATOM      6  N   UNL     1       4.912  -6.162  26.003  1.00  0.00    -0.217 NA
ATOM      7  C   UNL     1       6.099  -5.868  26.614  1.00  0.00     0.152 A 
ATOM      8  C   UNL     1       6.172  -6.053  27.991  1.00  0.00     0.127 A 
ATOM      9  N   UNL     1       7.186  -5.852  28.844  1.00  0.00    -0.340 N 
ATOM     10  H   UNL     1       8.150  -5.508  28.642  1.00  0.00     0.168 HD
ENDROOT
BRANCH   7  11
ATOM     11  N   UNL     1       7.206  -5.392  25.850  1.00  0.00    -0.382 N 
ATOM     12  H   UNL     1       7.270  -5.558  24.821  1.00  0.00     0.158 HD
ATOM     13  H   UNL     1       7.976  -4.864  26.318  1.00  0.00     0.158 HD
ENDBRANCH   7  11
TORSDOF 1
ENDMDL
MODEL 3
REMARK VINA RESULT:    -4.642      1.504      2.742
REMARK INTER + INTRA:          -4.778
REMARK INTER:                  -4.778
REMARK INTRA:                   0.000
REMARK UNBOUND:                 0.000
REMARK SMILES Nc1ncnc2nc[nH]c12
REMARK SMILES IDX 8 1 7 2 6 3 5 4 4 5 3 6 2 7 10 8 9 9 1 11
REMARK H PARENT 9 10 1 12 1 13
REMARK Flexibility Score: inf
ROOT
ATOM      1  C   UNL     1       2.565  -3.796  29.683  1.00  0.00     0.199 A 
ATOM      2  N   UNL     1       2.061  -4.487  28.624  1.00  0.00    -0.217 NA
ATOM      3  C   UNL     1       3.016  -5.405  28.402  1.00  0.00     0.182 A 
ATOM      4  N   UNL     1       3.010  -6.361  27.442  1.00  0.00    -0.215 NA
ATOM      5  C   UNL     1       4.079  -7.210  27.371  1.00  0.00     0.226 A 
ATOM      6  N   UNL     1       5.125  -7.090  28.250  1.00  0.00    -0.217 NA
ATOM      7  C   UNL     1       5.133  -6.125  29.219  1.00  0.00     0.152 A 
ATOM      8  C   UNL     1       4.037  -5.269  29.278  1.00  0.00     0.127 A 
ATOM      9  N   UNL     1       3.772  -4.249  30.105  1.00  0.00    -0.340 N 
ATOM     10  H   UNL     1       4.350  -3.881  30.893  1.00  0.00     0.168 HD
ENDROOT
BRANCH   7  11
ATOM     11  N   UNL     1       6.231  -6.018  30.124  1.00  0.00    -0.382 N 
ATOM     12  H   UNL     1       6.865  -5.189  30.115  1.00  0.00     0.158 HD
ATOM     13  H   UNL     1       6.416  -6.779  30.814  1.00  0.00     0.158 HD
ENDBRANCH   7  11
TORSDOF 1
ENDMDL
MODEL 4
REMARK VINA RESULT:    -4.631     11.589     12.348
REMARK INTER + INTRA:          -4.766
REMARK INTER:                  -4.766
REMARK INTRA:                   0.000
REMARK UNBOUND:                 0.000
REMARK SMILES Nc1ncnc2nc[nH]c12
REMARK SMILES IDX 8 1 7 2 6 3 5 4 4 5 3 6 2 7 10 8 9 9 1 11
REMARK H PARENT 9 10 1 12 1 13
REMARK Flexibility Score: inf
ROOT
ATOM      1  C   UNL     1      -2.471   3.596  20.922  1.00  0.00     0.199 A 
ATOM      2  N   UNL     1      -1.220   3.899  20.480  1.00  0.00    -0.217 NA
ATOM      3  C   UNL     1      -0.564   4.143  21.626  1.00  0.00     0.182 A 
ATOM      4  N   UNL     1       0.738   4.494  21.754  1.00  0.00    -0.215 NA
ATOM      5  C   UNL     1       1.230   4.702  23.011  1.00  0.00     0.226 A 
ATOM      6  N   UNL     1       0.420   4.559  24.110  1.00  0.00    -0.217 NA
ATOM      7  C   UNL     1      -0.894   4.205  23.984  1.00  0.00     0.152 A 
ATOM      8  C   UNL     1      -1.380   3.996  22.696  1.00  0.00     0.127 A 
ATOM      9  N   UNL     1      -2.601   3.648  22.272  1.00  0.00    -0.340 N 
ATOM     10  H   UNL     1      -3.458   3.458  22.836  1.00  0.00     0.168 HD
ENDROOT
BRANCH   7  11
ATOM     11  N   UNL     1      -1.718   4.060  25.140  1.00  0.00    -0.382 N 
ATOM     12  H   UNL     1      -1.693   3.194  25.721  1.00  0.00     0.158 HD
ATOM     13  H   UNL     1      -2.365   4.830  25.420  1.00  0.00     0.158 HD
ENDBRANCH   7  11
TORSDOF 1
ENDMDL
MODEL 5
REMARK VINA RESULT:    -4.590     14.413     15.733
REMARK INTER + INTRA:          -4.725
REMARK INTER:                  -4.725
REMARK INTRA:                   0.000
REMARK UNBOUND:                 0.000
REMARK SMILES Nc1ncnc2nc[nH]c12
REMARK SMILES IDX 8 1 7 2 6 3 5 4 4 5 3 6 2 7 10 8 9 9 1 11
REMARK H PARENT 9 10 1 12 1 13
REMARK Flexibility Score: inf
ROOT
ATOM      1  C   UNL     1       3.070   7.704  18.210  1.00  0.00     0.199 A 
ATOM      2  N   UNL     1       2.647   7.648  19.502  1.00  0.00    -0.217 NA
ATOM      3  C   UNL     1       3.701   7.095  20.124  1.00  0.00     0.182 A 
ATOM      4  N   UNL     1       3.805   6.813  21.445  1.00  0.00    -0.215 NA
ATOM      5  C   UNL     1       4.964   6.246  21.895  1.00  0.00     0.226 A 
ATOM      6  N   UNL     1       5.990   5.973  21.025  1.00  0.00    -0.217 NA
ATOM      7  C   UNL     1       5.887   6.255  19.692  1.00  0.00     0.152 A 
ATOM      8  C   UNL     1       4.700   6.833  19.250  1.00  0.00     0.127 A 
ATOM      9  N   UNL     1       4.321   7.213  18.023  1.00  0.00    -0.340 N 
ATOM     10  H   UNL     1       4.853   7.151  17.127  1.00  0.00     0.168 HD
ENDROOT
BRANCH   7  11
ATOM     11  N   UNL     1       6.967   5.962  18.806  1.00  0.00    -0.382 N 
ATOM     12  H   UNL     1       6.901   5.193  18.103  1.00  0.00     0.158 HD
ATOM     13  H   UNL     1       7.847   6.522  18.851  1.00  0.00     0.158 HD
ENDBRANCH   7  11
TORSDOF 1
ENDMDL
MODEL 6
REMARK VINA RESULT:    -4.584     11.349     12.212
REMARK INTER + INTRA:          -4.718
REMARK INTER:                  -4.718
REMARK INTRA:                   0.000
REMARK UNBOUND:                 0.000
REMARK SMILES Nc1ncnc2nc[nH]c12
REMARK SMILES IDX 8 1 7 2 6 3 5 4 4 5 3 6 2 7 10 8 9 9 1 11
REMARK H PARENT 9 10 1 12 1 13
REMARK Flexibility Score: inf
ROOT
ATOM      1  C   UNL     1      -0.639   4.036  24.645  1.00  0.00     0.199 A 
ATOM      2  N   UNL     1       0.465   4.665  24.161  1.00  0.00    -0.217 NA
ATOM      3  C   UNL     1       0.318   4.519  22.834  1.00  0.00     0.182 A 
ATOM      4  N   UNL     1       1.159   4.971  21.872  1.00  0.00    -0.215 NA
ATOM      5  C   UNL     1       0.839   4.724  20.567  1.00  0.00     0.226 A 
ATOM      6  N   UNL     1      -0.304   4.034  20.248  1.00  0.00    -0.217 NA
ATOM      7  C   UNL     1      -1.153   3.576  21.216  1.00  0.00     0.152 A 
ATOM      8  C   UNL     1      -0.813   3.837  22.541  1.00  0.00     0.127 A 
ATOM      9  N   UNL     1      -1.440   3.518  23.680  1.00  0.00    -0.340 N 
ATOM     10  H   UNL     1      -2.335   2.995  23.808  1.00  0.00     0.168 HD
ENDROOT
BRANCH   7  11
ATOM     11  N   UNL     1      -2.336   2.861  20.861  1.00  0.00    -0.382 N 
ATOM     12  H   UNL     1      -3.193   3.358  20.531  1.00  0.00     0.158 HD
ATOM     13  H   UNL     1      -2.358   1.820  20.930  1.00  0.00     0.158 HD
ENDBRANCH   7  11
TORSDOF 1
ENDMDL
MODEL 7
REMARK VINA RESULT:    -4.579     14.149     15.218
REMARK INTER + INTRA:          -4.713
REMARK INTER:                  -4.713
REMARK INTRA:                   0.000
REMARK UNBOUND:                 0.000
REMARK SMILES Nc1ncnc2nc[nH]c12
REMARK SMILES IDX 8 1 7 2 6 3 5 4 4 5 3 6 2 7 10 8 9 9 1 11
REMARK H PARENT 9 10 1 12 1 13
REMARK Flexibility Score: inf
ROOT
ATOM      1  C   UNL     1       1.946   6.150  20.487  1.00  0.00     0.199 A 
ATOM      2  N   UNL     1       2.295   6.636  19.265  1.00  0.00    -0.217 NA
ATOM      3  C   UNL     1       3.635   6.673  19.345  1.00  0.00     0.182 A 
ATOM      4  N   UNL     1       4.491   7.086  18.380  1.00  0.00    -0.215 NA
ATOM      5  C   UNL     1       5.831   7.051  18.647  1.00  0.00     0.226 A 
ATOM      6  N   UNL     1       6.288   6.608  19.863  1.00  0.00    -0.217 NA
ATOM      7  C   UNL     1       5.425   6.192  20.839  1.00  0.00     0.152 A 
ATOM      8  C   UNL     1       4.064   6.233  20.550  1.00  0.00     0.127 A 
ATOM      9  N   UNL     1       3.005   5.894  21.296  1.00  0.00    -0.340 N 
ATOM     10  H   UNL     1       2.986   5.520  22.270  1.00  0.00     0.168 HD
ENDROOT
BRANCH   7  11
ATOM     11  N   UNL     1       5.922   5.734  22.096  1.00  0.00    -0.382 N 
ATOM     12  H   UNL     1       5.559   4.863  22.540  1.00  0.00     0.158 HD
ATOM     13  H   UNL     1       6.665   6.275  22.592  1.00  0.00     0.158 HD
ENDBRANCH   7  11
TORSDOF 1
ENDMDL
MODEL 8
REMARK VINA RESULT:    -4.384     13.947     15.164
REMARK INTER + INTRA:          -4.512
REMARK INTER:                  -4.512
REMARK INTRA:                   0.000
REMARK UNBOUND:                 0.000
REMARK SMILES Nc1ncnc2nc[nH]c12
REMARK SMILES IDX 8 1 7 2 6 3 5 4 4 5 3 6 2 7 10 8 9 9 1 11
REMARK H PARENT 9 10 1 12 1 13
REMARK Flexibility Score: inf
ROOT
ATOM      1  C   UNL     1       5.831   5.908  21.526  1.00  0.00     0.199 A 
ATOM      2  N   UNL     1       6.045   6.496  20.318  1.00  0.00    -0.217 NA
ATOM      3  C   UNL     1       4.793   6.726  19.888  1.00  0.00     0.182 A 
ATOM      4  N   UNL     1       4.434   7.305  18.717  1.00  0.00    -0.215 NA
ATOM      5  C   UNL     1       3.102   7.455  18.453  1.00  0.00     0.226 A 
ATOM      6  N   UNL     1       2.160   7.027  19.354  1.00  0.00    -0.217 NA
ATOM      7  C   UNL     1       2.520   6.442  20.536  1.00  0.00     0.152 A 
ATOM      8  C   UNL     1       3.881   6.297  20.790  1.00  0.00     0.127 A 
ATOM      9  N   UNL     1       4.519   5.771  21.843  1.00  0.00    -0.340 N 
ATOM     10  H   UNL     1       4.113   5.353  22.709  1.00  0.00     0.168 HD
ENDROOT
BRANCH   7  11
ATOM     11  N   UNL     1       1.523   6.005  21.459  1.00  0.00    -0.382 N 
ATOM     12  H   UNL     1       0.761   6.643  21.780  1.00  0.00     0.158 HD
ATOM     13  H   UNL     1       1.546   5.029  21.829  1.00  0.00     0.158 HD
ENDBRANCH   7  11
TORSDOF 1
ENDMDL
MODEL 9
REMARK VINA RESULT:    -4.353     14.311     15.691
REMARK INTER + INTRA:          -4.480
REMARK INTER:                  -4.480
REMARK INTRA:                   0.000
REMARK UNBOUND:                 0.000
REMARK SMILES Nc1ncnc2nc[nH]c12
REMARK SMILES IDX 8 1 7 2 6 3 5 4 4 5 3 6 2 7 10 8 9 9 1 11
REMARK H PARENT 9 10 1 12 1 13
REMARK Flexibility Score: inf
ROOT
ATOM      1  C   UNL     1       4.898   5.935  22.240  1.00  0.00     0.199 A 
ATOM      2  N   UNL     1       3.737   6.355  21.669  1.00  0.00    -0.217 NA
ATOM      3  C   UNL     1       4.135   6.698  20.433  1.00  0.00     0.182 A 
ATOM      4  N   UNL     1       3.356   7.187  19.438  1.00  0.00    -0.215 NA
ATOM      5  C   UNL     1       3.946   7.480  18.241  1.00  0.00     0.226 A 
ATOM      6  N   UNL     1       5.292   7.283  18.060  1.00  0.00    -0.217 NA
ATOM      7  C   UNL     1       6.080   6.790  19.062  1.00  0.00     0.152 A 
ATOM      8  C   UNL     1       5.463   6.496  20.275  1.00  0.00     0.127 A 
ATOM      9  N   UNL     1       5.972   6.010  21.414  1.00  0.00    -0.340 N 
ATOM     10  H   UNL     1       6.959   5.747  21.629  1.00  0.00     0.168 HD
ENDROOT
BRANCH   7  11
ATOM     11  N   UNL     1       7.478   6.592  18.851  1.00  0.00    -0.382 N 
ATOM     12  H   UNL     1       8.180   7.302  19.154  1.00  0.00     0.158 HD
ATOM     13  H   UNL     1       7.817   5.722  18.385  1.00  0.00     0.158 HD
ENDBRANCH   7  11
TORSDOF 1
ENDMDL
