MODEL 1
REMARK VINA RESULT:    -3.804      0.000      0.000
REMARK INTER + INTRA:          -6.343
REMARK INTER:                  -5.805
REMARK INTRA:                  -0.537
REMARK UNBOUND:                -0.537
REMARK SMILES O=C([O-])CCCCCCCCC(=O)[O-]
REMARK SMILES IDX 7 1 6 2 5 3 4 4 2 5 1 6 3 7 8 8 9 9 10 10 11 11 12 12 13 13
REMARK SMILES IDX 14 14
REMARK H PARENT
REMARK Flexibility Score: inf
ROOT
ATOM      1  C   UNL     1     -24.378   6.548  22.805  1.00  0.00     0.000 C 
ENDROOT
BRANCH   1   2
ATOM      2  C   UNL     1     -23.085   6.287  22.017  1.00  0.00     0.000 C 
BRANCH   2   3
ATOM      3  C   UNL     1     -22.325   7.596  21.759  1.00  0.00     0.006 C 
BRANCH   3   4
ATOM      4  C   UNL     1     -21.992   7.794  20.274  1.00  0.00     0.053 C 
BRANCH   4   5
ATOM      5  C   UNL     1     -21.062   6.734  19.768  1.00  0.00     0.041 C 
ATOM      6  O   UNL     1     -21.333   6.106  18.711  1.00  0.00    -0.550 OA
ATOM      7  O   UNL     1     -19.879   6.463  20.445  1.00  0.00    -0.550 OA
ENDBRANCH   4   5
ENDBRANCH   3   4
ENDBRANCH   2   3
ENDBRANCH   1   2
BRANCH   1   8
ATOM      8  C   UNL     1     -24.715   5.413  23.785  1.00  0.00     0.000 C 
BRANCH   8   9
ATOM      9  C   UNL     1     -23.506   4.515  24.088  1.00  0.00     0.000 C 
BRANCH   9  10
ATOM     10  C   UNL     1     -23.817   3.047  23.760  1.00  0.00     0.006 C 
BRANCH  10  11
ATOM     11  C   UNL     1     -23.067   2.557  22.515  1.00  0.00     0.053 C 
BRANCH  11  12
ATOM     12  C   UNL     1     -23.014   1.061  22.450  1.00  0.00     0.041 C 
ATOM     13  O   UNL     1     -22.381   0.489  21.525  1.00  0.00    -0.550 OA
ATOM     14  O   UNL     1     -23.693   0.299  23.393  1.00  0.00    -0.550 OA
ENDBRANCH  11  12
ENDBRANCH  10  11
ENDBRANCH   9  10
ENDBRANCH   8   9
ENDBRANCH   1   8
TORSDOF 9
ENDMDL
MODEL 2
REMARK VINA RESULT:    -3.782      1.130      5.280
REMARK INTER + INTRA:          -6.309
REMARK INTER:                  -5.530
REMARK INTRA:                  -0.778
REMARK UNBOUND:                -0.537
REMARK SMILES O=C([O-])CCCCCCCCC(=O)[O-]
REMARK SMILES IDX 7 1 6 2 5 3 4 4 2 5 1 6 3 7 8 8 9 9 10 10 11 11 12 12 13 13
REMARK SMILES IDX 14 14
REMARK H PARENT
REMARK Flexibility Score: inf
ROOT
ATOM      1  C   UNL     1     -22.348   5.363  23.805  1.00  0.00     0.000 C 
ENDROOT
BRANCH   1   2
ATOM      2  C   UNL     1     -21.901   3.911  23.575  1.00  0.00     0.000 C 
BRANCH   2   3
ATOM      3  C   UNL     1     -22.476   3.361  22.262  1.00  0.00     0.006 C 
BRANCH   3   4
ATOM      4  C   UNL     1     -22.974   1.916  22.403  1.00  0.00     0.053 C 
BRANCH   4   5
ATOM      5  C   UNL     1     -22.049   0.943  21.739  1.00  0.00     0.041 C 
ATOM      6  O   UNL     1     -22.445  -0.220  21.464  1.00  0.00    -0.550 OA
ATOM      7  O   UNL     1     -20.760   1.330  21.395  1.00  0.00    -0.550 OA
ENDBRANCH   4   5
ENDBRANCH   3   4
ENDBRANCH   2   3
ENDBRANCH   1   2
BRANCH   1   8
ATOM      8  C   UNL     1     -23.686   5.687  23.122  1.00  0.00     0.000 C 
BRANCH   8   9
ATOM      9  C   UNL     1     -23.625   6.969  22.279  1.00  0.00     0.000 C 
BRANCH   9  10
ATOM     10  C   UNL     1     -22.176   7.459  22.129  1.00  0.00     0.006 C 
BRANCH  10  11
ATOM     11  C   UNL     1     -21.818   7.778  20.671  1.00  0.00     0.053 C 
BRANCH  11  12
ATOM     12  C   UNL     1     -21.127   6.628  20.004  1.00  0.00     0.041 C 
ATOM     13  O   UNL     1     -21.307   6.407  18.778  1.00  0.00    -0.550 OA
ATOM     14  O   UNL     1     -20.312   5.781  20.744  1.00  0.00    -0.550 OA
ENDBRANCH  11  12
ENDBRANCH  10  11
ENDBRANCH   9  10
ENDBRANCH   8   9
ENDBRANCH   1   8
TORSDOF 9
ENDMDL
MODEL 3
REMARK VINA RESULT:    -3.774      2.553      5.854
REMARK INTER + INTRA:          -6.296
REMARK INTER:                  -5.848
REMARK INTRA:                  -0.448
REMARK UNBOUND:                -0.537
REMARK SMILES O=C([O-])CCCCCCCCC(=O)[O-]
REMARK SMILES IDX 7 1 6 2 5 3 4 4 2 5 1 6 3 7 8 8 9 9 10 10 11 11 12 12 13 13
REMARK SMILES IDX 14 14
REMARK H PARENT
REMARK Flexibility Score: inf
ROOT
ATOM      1  C   UNL     1     -23.794   5.786  22.946  1.00  0.00     0.000 C 
ENDROOT
BRANCH   1   2
ATOM      2  C   UNL     1     -25.125   5.696  23.708  1.00  0.00     0.000 C 
BRANCH   2   3
ATOM      3  C   UNL     1     -25.079   4.582  24.764  1.00  0.00     0.006 C 
BRANCH   3   4
ATOM      4  C   UNL     1     -24.823   5.128  26.176  1.00  0.00     0.053 C 
BRANCH   4   5
ATOM      5  C   UNL     1     -23.456   4.768  26.671  1.00  0.00     0.041 C 
ATOM      6  O   UNL     1     -23.057   5.186  27.790  1.00  0.00    -0.550 OA
ATOM      7  O   UNL     1     -22.634   3.945  25.911  1.00  0.00    -0.550 OA
ENDBRANCH   4   5
ENDBRANCH   3   4
ENDBRANCH   2   3
ENDBRANCH   1   2
BRANCH   1   8
ATOM      8  C   UNL     1     -23.574   7.162  22.298  1.00  0.00     0.000 C 
BRANCH   8   9
ATOM      9  C   UNL     1     -22.086   7.502  22.121  1.00  0.00     0.000 C 
BRANCH   9  10
ATOM     10  C   UNL     1     -21.826   8.125  20.741  1.00  0.00     0.006 C 
BRANCH  10  11
ATOM     11  C   UNL     1     -21.509   7.068  19.675  1.00  0.00     0.053 C 
BRANCH  11  12
ATOM     12  C   UNL     1     -20.665   5.959  20.225  1.00  0.00     0.041 C 
ATOM     13  O   UNL     1     -21.143   4.801  20.349  1.00  0.00    -0.550 OA
ATOM     14  O   UNL     1     -19.361   6.212  20.631  1.00  0.00    -0.550 OA
ENDBRANCH  11  12
ENDBRANCH  10  11
ENDBRANCH   9  10
ENDBRANCH   8   9
ENDBRANCH   1   8
TORSDOF 9
ENDMDL
MODEL 4
REMARK VINA RESULT:    -3.761      2.500      5.199
REMARK INTER + INTRA:          -6.278
REMARK INTER:                  -5.632
REMARK INTRA:                  -0.645
REMARK UNBOUND:                -0.537
REMARK SMILES O=C([O-])CCCCCCCCC(=O)[O-]
REMARK SMILES IDX 7 1 6 2 5 3 4 4 2 5 1 6 3 7 8 8 9 9 10 10 11 11 12 12 13 13
REMARK SMILES IDX 14 14
REMARK H PARENT
REMARK Flexibility Score: inf
ROOT
ATOM      1  C   UNL     1     -22.232   7.200  22.739  1.00  0.00     0.000 C 
ENDROOT
BRANCH   1   2
ATOM      2  C   UNL     1     -23.619   6.910  22.144  1.00  0.00     0.000 C 
BRANCH   2   3
ATOM      3  C   UNL     1     -24.502   6.158  23.151  1.00  0.00     0.006 C 
BRANCH   3   4
ATOM      4  C   UNL     1     -23.874   4.831  23.600  1.00  0.00     0.053 C 
BRANCH   4   5
ATOM      5  C   UNL     1     -23.838   4.712  25.092  1.00  0.00     0.041 C 
ATOM      6  O   UNL     1     -22.738   4.753  25.704  1.00  0.00    -0.550 OA
ATOM      7  O   UNL     1     -25.020   4.587  25.811  1.00  0.00    -0.550 OA
ENDBRANCH   4   5
ENDBRANCH   3   4
ENDBRANCH   2   3
ENDBRANCH   1   2
BRANCH   1   8
ATOM      8  C   UNL     1     -21.275   7.845  21.725  1.00  0.00     0.000 C 
BRANCH   8   9
ATOM      9  C   UNL     1     -21.817   7.799  20.288  1.00  0.00     0.000 C 
BRANCH   9  10
ATOM     10  C   UNL     1     -21.234   6.604  19.519  1.00  0.00     0.006 C 
BRANCH  10  11
ATOM     11  C   UNL     1     -20.054   5.958  20.255  1.00  0.00     0.053 C 
BRANCH  11  12
ATOM     12  C   UNL     1     -20.317   4.517  20.570  1.00  0.00     0.041 C 
ATOM     13  O   UNL     1     -21.468   4.144  20.914  1.00  0.00    -0.550 OA
ATOM     14  O   UNL     1     -19.281   3.592  20.516  1.00  0.00    -0.550 OA
ENDBRANCH  11  12
ENDBRANCH  10  11
ENDBRANCH   9  10
ENDBRANCH   8   9
ENDBRANCH   1   8
TORSDOF 9
ENDMDL
MODEL 5
REMARK VINA RESULT:    -3.738      2.345      2.946
REMARK INTER + INTRA:          -6.241
REMARK INTER:                  -5.729
REMARK INTRA:                  -0.513
REMARK UNBOUND:                -0.537
REMARK SMILES O=C([O-])CCCCCCCCC(=O)[O-]
REMARK SMILES IDX 7 1 6 2 5 3 4 4 2 5 1 6 3 7 8 8 9 9 10 10 11 11 12 12 13 13
REMARK SMILES IDX 14 14
REMARK H PARENT
REMARK Flexibility Score: inf
ROOT
ATOM      1  C   UNL     1     -23.705   5.902  22.877  1.00  0.00     0.000 C 
ENDROOT
BRANCH   1   2
ATOM      2  C   UNL     1     -23.496   7.257  22.185  1.00  0.00     0.000 C 
BRANCH   2   3
ATOM      3  C   UNL     1     -22.004   7.523  21.935  1.00  0.00     0.006 C 
BRANCH   3   4
ATOM      4  C   UNL     1     -21.691   7.737  20.448  1.00  0.00     0.053 C 
BRANCH   4   5
ATOM      5  C   UNL     1     -20.922   6.589  19.871  1.00  0.00     0.041 C 
ATOM      6  O   UNL     1     -19.865   6.191  20.427  1.00  0.00    -0.550 OA
ATOM      7  O   UNL     1     -21.390   5.936  18.737  1.00  0.00    -0.550 OA
ENDBRANCH   4   5
ENDBRANCH   3   4
ENDBRANCH   2   3
ENDBRANCH   1   2
BRANCH   1   8
ATOM      8  C   UNL     1     -25.043   5.820  23.629  1.00  0.00     0.000 C 
BRANCH   8   9
ATOM      9  C   UNL     1     -25.125   4.601  24.560  1.00  0.00     0.000 C 
BRANCH   9  10
ATOM     10  C   UNL     1     -24.812   4.997  26.011  1.00  0.00     0.006 C 
BRANCH  10  11
ATOM     11  C   UNL     1     -23.751   4.088  26.646  1.00  0.00     0.053 C 
BRANCH  11  12
ATOM     12  C   UNL     1     -22.461   4.123  25.884  1.00  0.00     0.041 C 
ATOM     13  O   UNL     1     -21.797   5.189  25.812  1.00  0.00    -0.550 OA
ATOM     14  O   UNL     1     -22.011   2.985  25.226  1.00  0.00    -0.550 OA
ENDBRANCH  11  12
ENDBRANCH  10  11
ENDBRANCH   9  10
ENDBRANCH   8   9
ENDBRANCH   1   8
TORSDOF 9
ENDMDL
MODEL 6
REMARK VINA RESULT:    -3.738      1.691      2.378
REMARK INTER + INTRA:          -6.241
REMARK INTER:                  -5.293
REMARK INTRA:                  -0.949
REMARK UNBOUND:                -0.537
REMARK SMILES O=C([O-])CCCCCCCCC(=O)[O-]
REMARK SMILES IDX 7 1 6 2 5 3 4 4 2 5 1 6 3 7 8 8 9 9 10 10 11 11 12 12 13 13
REMARK SMILES IDX 14 14
REMARK H PARENT
REMARK Flexibility Score: inf
ROOT
ATOM      1  C   UNL     1     -24.193   5.910  23.286  1.00  0.00     0.000 C 
ENDROOT
BRANCH   1   2
ATOM      2  C   UNL     1     -23.623   6.843  22.207  1.00  0.00     0.000 C 
BRANCH   2   3
ATOM      3  C   UNL     1     -22.151   7.175  22.491  1.00  0.00     0.006 C 
BRANCH   3   4
ATOM      4  C   UNL     1     -21.423   7.708  21.249  1.00  0.00     0.053 C 
BRANCH   4   5
ATOM      5  C   UNL     1     -20.695   6.619  20.523  1.00  0.00     0.041 C 
ATOM      6  O   UNL     1     -19.486   6.381  20.784  1.00  0.00    -0.550 OA
ATOM      7  O   UNL     1     -21.359   5.843  19.580  1.00  0.00    -0.550 OA
ENDBRANCH   4   5
ENDBRANCH   3   4
ENDBRANCH   2   3
ENDBRANCH   1   2
BRANCH   1   8
ATOM      8  C   UNL     1     -23.137   4.953  23.861  1.00  0.00     0.000 C 
BRANCH   8   9
ATOM      9  C   UNL     1     -23.222   3.544  23.255  1.00  0.00     0.000 C 
BRANCH   9  10
ATOM     10  C   UNL     1     -22.333   3.429  22.007  1.00  0.00     0.006 C 
BRANCH  10  11
ATOM     11  C   UNL     1     -20.840   3.370  22.359  1.00  0.00     0.053 C 
BRANCH  11  12
ATOM     12  C   UNL     1     -20.054   2.621  21.327  1.00  0.00     0.041 C 
ATOM     13  O   UNL     1     -19.227   3.226  20.598  1.00  0.00    -0.550 OA
ATOM     14  O   UNL     1     -20.261   1.258  21.149  1.00  0.00    -0.550 OA
ENDBRANCH  11  12
ENDBRANCH  10  11
ENDBRANCH   9  10
ENDBRANCH   8   9
ENDBRANCH   1   8
TORSDOF 9
ENDMDL
MODEL 7
REMARK VINA RESULT:    -3.736      2.521      3.953
REMARK INTER + INTRA:          -6.238
REMARK INTER:                  -5.461
REMARK INTRA:                  -0.777
REMARK UNBOUND:                -0.537
REMARK SMILES O=C([O-])CCCCCCCCC(=O)[O-]
REMARK SMILES IDX 7 1 6 2 5 3 4 4 2 5 1 6 3 7 8 8 9 9 10 10 11 11 12 12 13 13
REMARK SMILES IDX 14 14
REMARK H PARENT
REMARK Flexibility Score: inf
ROOT
ATOM      1  C   UNL     1     -20.691   6.852  21.782  1.00  0.00     0.000 C 
ENDROOT
BRANCH   1   2
ATOM      2  C   UNL     1     -21.173   6.758  20.327  1.00  0.00     0.000 C 
BRANCH   2   3
ATOM      3  C   UNL     1     -21.034   5.325  19.793  1.00  0.00     0.006 C 
BRANCH   3   4
ATOM      4  C   UNL     1     -21.087   4.278  20.914  1.00  0.00     0.053 C 
BRANCH   4   5
ATOM      5  C   UNL     1     -19.958   3.299  20.813  1.00  0.00     0.041 C 
ATOM      6  O   UNL     1     -18.798   3.696  20.528  1.00  0.00    -0.550 OA
ATOM      7  O   UNL     1     -20.180   1.950  21.067  1.00  0.00    -0.550 OA
ENDBRANCH   4   5
ENDBRANCH   3   4
ENDBRANCH   2   3
ENDBRANCH   1   2
BRANCH   1   8
ATOM      8  C   UNL     1     -21.825   7.197  22.761  1.00  0.00     0.000 C 
BRANCH   8   9
ATOM      9  C   UNL     1     -23.195   7.286  22.072  1.00  0.00     0.000 C 
BRANCH   9  10
ATOM     10  C   UNL     1     -24.210   6.349  22.743  1.00  0.00     0.006 C 
BRANCH  10  11
ATOM     11  C   UNL     1     -23.534   5.319  23.658  1.00  0.00     0.053 C 
BRANCH  11  12
ATOM     12  C   UNL     1     -24.522   4.645  24.561  1.00  0.00     0.041 C 
ATOM     13  O   UNL     1     -25.063   5.287  25.499  1.00  0.00    -0.550 OA
ATOM     14  O   UNL     1     -24.818   3.299  24.388  1.00  0.00    -0.550 OA
ENDBRANCH  11  12
ENDBRANCH  10  11
ENDBRANCH   9  10
ENDBRANCH   8   9
ENDBRANCH   1   8
TORSDOF 9
ENDMDL
MODEL 8
REMARK VINA RESULT:    -3.699      1.825      5.084
REMARK INTER + INTRA:          -6.183
REMARK INTER:                  -5.566
REMARK INTRA:                  -0.617
REMARK UNBOUND:                -0.537
REMARK SMILES O=C([O-])CCCCCCCCC(=O)[O-]
REMARK SMILES IDX 7 1 6 2 5 3 4 4 2 5 1 6 3 7 8 8 9 9 10 10 11 11 12 12 13 13
REMARK SMILES IDX 14 14
REMARK H PARENT
REMARK Flexibility Score: inf
ROOT
ATOM      1  C   UNL     1     -23.734   3.624  24.196  1.00  0.00     0.000 C 
ENDROOT
BRANCH   1   2
ATOM      2  C   UNL     1     -24.110   2.180  23.832  1.00  0.00     0.000 C 
BRANCH   2   3
ATOM      3  C   UNL     1     -23.515   1.783  22.473  1.00  0.00     0.006 C 
BRANCH   3   4
ATOM      4  C   UNL     1     -22.023   1.435  22.569  1.00  0.00     0.053 C 
BRANCH   4   5
ATOM      5  C   UNL     1     -21.201   2.247  21.616  1.00  0.00     0.041 C 
ATOM      6  O   UNL     1     -21.552   3.419  21.315  1.00  0.00    -0.550 OA
ATOM      7  O   UNL     1     -20.030   1.722  21.084  1.00  0.00    -0.550 OA
ENDBRANCH   4   5
ENDBRANCH   3   4
ENDBRANCH   2   3
ENDBRANCH   1   2
BRANCH   1   8
ATOM      8  C   UNL     1     -24.964   4.521  24.411  1.00  0.00     0.000 C 
BRANCH   8   9
ATOM      9  C   UNL     1     -24.911   5.808  23.575  1.00  0.00     0.000 C 
BRANCH   9  10
ATOM     10  C   UNL     1     -23.558   5.944  22.860  1.00  0.00     0.006 C 
BRANCH  10  11
ATOM     11  C   UNL     1     -23.401   7.302  22.164  1.00  0.00     0.053 C 
BRANCH  11  12
ATOM     12  C   UNL     1     -22.147   7.367  21.347  1.00  0.00     0.041 C 
ATOM     13  O   UNL     1     -22.127   8.013  20.267  1.00  0.00    -0.550 OA
ATOM     14  O   UNL     1     -21.009   6.685  21.762  1.00  0.00    -0.550 OA
ENDBRANCH  11  12
ENDBRANCH  10  11
ENDBRANCH   9  10
ENDBRANCH   8   9
ENDBRANCH   1   8
TORSDOF 9
ENDMDL
MODEL 9
REMARK VINA RESULT:    -3.642     22.578     24.351
REMARK INTER + INTRA:          -6.095
REMARK INTER:                  -5.334
REMARK INTRA:                  -0.761
REMARK UNBOUND:                -0.537
REMARK SMILES O=C([O-])CCCCCCCCC(=O)[O-]
REMARK SMILES IDX 7 1 6 2 5 3 4 4 2 5 1 6 3 7 8 8 9 9 10 10 11 11 12 12 13 13
REMARK SMILES IDX 14 14
REMARK H PARENT
REMARK Flexibility Score: inf
ROOT
ATOM      1  C   UNL     1      -6.619  -9.251  33.729  1.00  0.00     0.000 C 
ENDROOT
BRANCH   1   2
ATOM      2  C   UNL     1      -5.351  -8.991  32.902  1.00  0.00     0.000 C 
BRANCH   2   3
ATOM      3  C   UNL     1      -5.481  -9.591  31.495  1.00  0.00     0.006 C 
BRANCH   3   4
ATOM      4  C   UNL     1      -5.912 -11.063  31.526  1.00  0.00     0.053 C 
BRANCH   4   5
ATOM      5  C   UNL     1      -7.104 -11.311  30.652  1.00  0.00     0.041 C 
ATOM      6  O   UNL     1      -7.029 -12.125  29.694  1.00  0.00    -0.550 OA
ATOM      7  O   UNL     1      -8.307 -10.668  30.916  1.00  0.00    -0.550 OA
ENDBRANCH   4   5
ENDBRANCH   3   4
ENDBRANCH   2   3
ENDBRANCH   1   2
BRANCH   1   8
ATOM      8  C   UNL     1      -6.382  -9.104  35.241  1.00  0.00     0.000 C 
BRANCH   8   9
ATOM      9  C   UNL     1      -5.170  -8.217  35.566  1.00  0.00     0.000 C 
BRANCH   9  10
ATOM     10  C   UNL     1      -5.617  -6.810  35.990  1.00  0.00     0.006 C 
BRANCH  10  11
ATOM     11  C   UNL     1      -5.384  -5.768  34.888  1.00  0.00     0.053 C 
BRANCH  11  12
ATOM     12  C   UNL     1      -6.669  -5.340  34.247  1.00  0.00     0.041 C 
ATOM     13  O   UNL     1      -7.477  -4.608  34.875  1.00  0.00    -0.550 OA
ATOM     14  O   UNL     1      -6.989  -5.779  32.968  1.00  0.00    -0.550 OA
ENDBRANCH  11  12
ENDBRANCH  10  11
ENDBRANCH   9  10
ENDBRANCH   8   9
ENDBRANCH   1   8
TORSDOF 9
ENDMDL
