MODEL 1
REMARK VINA RESULT:    -1.615      0.000      0.000
REMARK INTER + INTRA:          -6.143
REMARK INTER:                  -4.070
REMARK INTRA:                  -2.072
REMARK UNBOUND:                -2.072
REMARK SMILES CCCCCCCCCCCCCCCCCCCCCCCCCCCC(=O)[O-]
REMARK SMILES IDX 15 1 16 2 17 3 18 4 19 5 20 6 21 7 22 8 23 9 24 10 25 11
REMARK SMILES IDX 26 12 27 13 28 14 29 15 30 16 14 17 13 18 12 19 11 20 10 21
REMARK SMILES IDX 9 22 8 23 7 24 6 25 5 26 4 27 3 28 2 29 1 30
REMARK H PARENT
REMARK Flexibility Score: inf
ROOT
ATOM      1  C   UNL     1      30.431  30.408  27.409  1.00  0.00     0.000 C 
ENDROOT
BRANCH   1   2
ATOM      2  C   UNL     1      30.992  31.644  28.138  1.00  0.00     0.000 C 
BRANCH   2   3
ATOM      3  C   UNL     1      30.338  31.884  29.509  1.00  0.00     0.000 C 
BRANCH   3   4
ATOM      4  C   UNL     1      29.376  33.081  29.499  1.00  0.00     0.000 C 
BRANCH   4   5
ATOM      5  C   UNL     1      28.438  33.128  30.725  1.00  0.00     0.000 C 
BRANCH   5   6
ATOM      6  C   UNL     1      27.012  33.572  30.354  1.00  0.00     0.000 C 
BRANCH   6   7
ATOM      7  C   UNL     1      26.637  34.915  31.010  1.00  0.00     0.000 C 
BRANCH   7   8
ATOM      8  C   UNL     1      27.644  35.394  32.072  1.00  0.00     0.000 C 
BRANCH   8   9
ATOM      9  C   UNL     1      27.053  35.550  33.493  1.00  0.00     0.000 C 
BRANCH   9  10
ATOM     10  C   UNL     1      26.531  36.957  33.858  1.00  0.00     0.000 C 
BRANCH  10  11
ATOM     11  C   UNL     1      27.155  38.128  33.078  1.00  0.00     0.000 C 
BRANCH  11  12
ATOM     12  C   UNL     1      27.021  39.477  33.807  1.00  0.00     0.006 C 
BRANCH  12  13
ATOM     13  C   UNL     1      26.199  40.488  32.999  1.00  0.00     0.053 C 
BRANCH  13  14
ATOM     14  C   UNL     1      25.309  41.311  33.882  1.00  0.00     0.041 C 
ATOM     15  O   UNL     1      25.006  42.489  33.556  1.00  0.00    -0.550 OA
ATOM     16  O   UNL     1      24.842  40.788  35.081  1.00  0.00    -0.550 OA
ENDBRANCH  13  14
ENDBRANCH  12  13
ENDBRANCH  11  12
ENDBRANCH  10  11
ENDBRANCH   9  10
ENDBRANCH   8   9
ENDBRANCH   7   8
ENDBRANCH   6   7
ENDBRANCH   5   6
ENDBRANCH   4   5
ENDBRANCH   3   4
ENDBRANCH   2   3
ENDBRANCH   1   2
BRANCH   1  17
ATOM     17  C   UNL     1      31.125  29.072  27.734  1.00  0.00     0.000 C 
BRANCH  17  18
ATOM     18  C   UNL     1      30.380  28.239  28.795  1.00  0.00     0.000 C 
BRANCH  18  19
ATOM     19  C   UNL     1      31.093  28.238  30.156  1.00  0.00     0.000 C 
BRANCH  19  20
ATOM     20  C   UNL     1      30.127  28.396  31.344  1.00  0.00     0.000 C 
BRANCH  20  21
ATOM     21  C   UNL     1      30.874  28.637  32.668  1.00  0.00     0.000 C 
BRANCH  21  22
ATOM     22  C   UNL     1      30.020  29.399  33.697  1.00  0.00    -0.000 C 
BRANCH  22  23
ATOM     23  C   UNL     1      30.284  28.942  35.143  1.00  0.00    -0.000 C 
BRANCH  23  24
ATOM     24  C   UNL     1      30.727  30.060  36.111  1.00  0.00    -0.000 C 
BRANCH  24  25
ATOM     25  C   UNL     1      29.587  30.735  36.900  1.00  0.00    -0.000 C 
BRANCH  25  26
ATOM     26  C   UNL     1      28.272  30.900  36.117  1.00  0.00    -0.000 C 
BRANCH  26  27
ATOM     27  C   UNL     1      28.226  32.207  35.304  1.00  0.00    -0.000 C 
BRANCH  27  28
ATOM     28  C   UNL     1      27.265  33.245  35.916  1.00  0.00    -0.000 C 
BRANCH  28  29
ATOM     29  C   UNL     1      25.777  32.881  35.752  1.00  0.00    -0.003 C 
ATOM     30  C   UNL     1      25.402  32.567  34.302  1.00  0.00     0.004 C 
ENDBRANCH  28  29
ENDBRANCH  27  28
ENDBRANCH  26  27
ENDBRANCH  25  26
ENDBRANCH  24  25
ENDBRANCH  23  24
ENDBRANCH  22  23
ENDBRANCH  21  22
ENDBRANCH  20  21
ENDBRANCH  19  20
ENDBRANCH  18  19
ENDBRANCH  17  18
ENDBRANCH   1  17
TORSDOF 26
ENDMDL
MODEL 2
REMARK VINA RESULT:    -1.311      1.669      5.592
REMARK INTER + INTRA:          -5.377
REMARK INTER:                  -3.330
REMARK INTRA:                  -2.047
REMARK UNBOUND:                -2.072
REMARK SMILES CCCCCCCCCCCCCCCCCCCCCCCCCCCC(=O)[O-]
REMARK SMILES IDX 15 1 16 2 17 3 18 4 19 5 20 6 21 7 22 8 23 9 24 10 25 11
REMARK SMILES IDX 26 12 27 13 28 14 29 15 30 16 14 17 13 18 12 19 11 20 10 21
REMARK SMILES IDX 9 22 8 23 7 24 6 25 5 26 4 27 3 28 2 29 1 30
REMARK H PARENT
REMARK Flexibility Score: inf
ROOT
ATOM      1  C   UNL     1      28.758  32.812  37.123  1.00  0.00     0.000 C 
ENDROOT
BRANCH   1   2
ATOM      2  C   UNL     1      28.052  31.447  37.009  1.00  0.00     0.000 C 
BRANCH   2   3
ATOM      3  C   UNL     1      26.519  31.561  36.981  1.00  0.00     0.000 C 
BRANCH   3   4
ATOM      4  C   UNL     1      26.037  33.017  37.054  1.00  0.00     0.000 C 
BRANCH   4   5
ATOM      5  C   UNL     1      24.661  33.245  36.395  1.00  0.00     0.000 C 
BRANCH   5   6
ATOM      6  C   UNL     1      24.687  32.985  34.878  1.00  0.00     0.000 C 
BRANCH   6   7
ATOM      7  C   UNL     1      25.919  33.622  34.206  1.00  0.00     0.000 C 
BRANCH   7   8
ATOM      8  C   UNL     1      26.009  35.149  34.384  1.00  0.00     0.000 C 
BRANCH   8   9
ATOM      9  C   UNL     1      26.896  35.867  33.340  1.00  0.00     0.000 C 
BRANCH   9  10
ATOM     10  C   UNL     1      26.607  37.369  33.124  1.00  0.00     0.000 C 
BRANCH  10  11
ATOM     11  C   UNL     1      26.675  38.253  34.382  1.00  0.00     0.000 C 
BRANCH  11  12
ATOM     12  C   UNL     1      27.402  39.587  34.141  1.00  0.00     0.006 C 
BRANCH  12  13
ATOM     13  C   UNL     1      26.646  40.483  33.153  1.00  0.00     0.053 C 
BRANCH  13  14
ATOM     14  C   UNL     1      25.428  41.095  33.777  1.00  0.00     0.041 C 
ATOM     15  O   UNL     1      24.950  42.166  33.319  1.00  0.00    -0.550 OA
ATOM     16  O   UNL     1      24.841  40.499  34.886  1.00  0.00    -0.550 OA
ENDBRANCH  13  14
ENDBRANCH  12  13
ENDBRANCH  11  12
ENDBRANCH  10  11
ENDBRANCH   9  10
ENDBRANCH   8   9
ENDBRANCH   7   8
ENDBRANCH   6   7
ENDBRANCH   5   6
ENDBRANCH   4   5
ENDBRANCH   3   4
ENDBRANCH   2   3
ENDBRANCH   1   2
BRANCH   1  17
ATOM     17  C   UNL     1      30.297  32.770  37.104  1.00  0.00     0.000 C 
BRANCH  17  18
ATOM     18  C   UNL     1      30.887  32.637  35.686  1.00  0.00     0.000 C 
BRANCH  18  19
ATOM     19  C   UNL     1      29.853  32.914  34.584  1.00  0.00     0.000 C 
BRANCH  19  20
ATOM     20  C   UNL     1      29.442  31.649  33.809  1.00  0.00     0.000 C 
BRANCH  20  21
ATOM     21  C   UNL     1      30.618  30.674  33.629  1.00  0.00     0.000 C 
BRANCH  21  22
ATOM     22  C   UNL     1      30.886  30.340  32.150  1.00  0.00    -0.000 C 
BRANCH  22  23
ATOM     23  C   UNL     1      31.125  31.597  31.293  1.00  0.00    -0.000 C 
BRANCH  23  24
ATOM     24  C   UNL     1      30.661  31.485  29.825  1.00  0.00    -0.000 C 
BRANCH  24  25
ATOM     25  C   UNL     1      29.573  32.493  29.400  1.00  0.00    -0.000 C 
BRANCH  25  26
ATOM     26  C   UNL     1      28.791  33.123  30.566  1.00  0.00    -0.000 C 
BRANCH  26  27
ATOM     27  C   UNL     1      27.516  33.851  30.101  1.00  0.00    -0.000 C 
BRANCH  27  28
ATOM     28  C   UNL     1      26.373  33.749  31.128  1.00  0.00    -0.000 C 
BRANCH  28  29
ATOM     29  C   UNL     1      24.977  33.998  30.526  1.00  0.00    -0.003 C 
ATOM     30  C   UNL     1      25.030  34.813  29.232  1.00  0.00     0.004 C 
ENDBRANCH  28  29
ENDBRANCH  27  28
ENDBRANCH  26  27
ENDBRANCH  25  26
ENDBRANCH  24  25
ENDBRANCH  23  24
ENDBRANCH  22  23
ENDBRANCH  21  22
ENDBRANCH  20  21
ENDBRANCH  19  20
ENDBRANCH  18  19
ENDBRANCH  17  18
ENDBRANCH   1  17
TORSDOF 26
ENDMDL
MODEL 3
REMARK VINA RESULT:    -1.223      4.734      8.519
REMARK INTER + INTRA:          -5.154
REMARK INTER:                  -3.268
REMARK INTRA:                  -1.887
REMARK UNBOUND:                -2.072
REMARK SMILES CCCCCCCCCCCCCCCCCCCCCCCCCCCC(=O)[O-]
REMARK SMILES IDX 15 1 16 2 17 3 18 4 19 5 20 6 21 7 22 8 23 9 24 10 25 11
REMARK SMILES IDX 26 12 27 13 28 14 29 15 30 16 14 17 13 18 12 19 11 20 10 21
REMARK SMILES IDX 9 22 8 23 7 24 6 25 5 26 4 27 3 28 2 29 1 30
REMARK H PARENT
REMARK Flexibility Score: inf
ROOT
ATOM      1  C   UNL     1      25.271  33.901  30.206  1.00  0.00     0.000 C 
ENDROOT
BRANCH   1   2
ATOM      2  C   UNL     1      24.923  32.871  31.297  1.00  0.00     0.000 C 
BRANCH   2   3
ATOM      3  C   UNL     1      25.761  33.040  32.575  1.00  0.00     0.000 C 
BRANCH   3   4
ATOM      4  C   UNL     1      24.934  33.574  33.754  1.00  0.00     0.000 C 
BRANCH   4   5
ATOM      5  C   UNL     1      25.126  32.768  35.056  1.00  0.00     0.000 C 
BRANCH   5   6
ATOM      6  C   UNL     1      25.826  33.589  36.154  1.00  0.00     0.000 C 
BRANCH   6   7
ATOM      7  C   UNL     1      26.622  32.694  37.124  1.00  0.00     0.000 C 
BRANCH   7   8
ATOM      8  C   UNL     1      28.146  32.910  37.066  1.00  0.00     0.000 C 
BRANCH   8   9
ATOM      9  C   UNL     1      28.882  32.020  36.037  1.00  0.00     0.000 C 
BRANCH   9  10
ATOM     10  C   UNL     1      30.367  31.722  36.339  1.00  0.00     0.000 C 
BRANCH  10  11
ATOM     11  C   UNL     1      30.648  30.411  37.095  1.00  0.00     0.000 C 
BRANCH  11  12
ATOM     12  C   UNL     1      29.553  29.350  36.885  1.00  0.00     0.006 C 
BRANCH  12  13
ATOM     13  C   UNL     1      30.083  27.927  37.098  1.00  0.00     0.053 C 
BRANCH  13  14
ATOM     14  C   UNL     1      30.336  27.228  35.796  1.00  0.00     0.041 C 
ATOM     15  O   UNL     1      30.987  27.802  34.884  1.00  0.00    -0.550 OA
ATOM     16  O   UNL     1      29.822  25.956  35.578  1.00  0.00    -0.550 OA
ENDBRANCH  13  14
ENDBRANCH  12  13
ENDBRANCH  11  12
ENDBRANCH  10  11
ENDBRANCH   9  10
ENDBRANCH   8   9
ENDBRANCH   7   8
ENDBRANCH   6   7
ENDBRANCH   5   6
ENDBRANCH   4   5
ENDBRANCH   3   4
ENDBRANCH   2   3
ENDBRANCH   1   2
BRANCH   1  17
ATOM     17  C   UNL     1      26.610  34.640  30.389  1.00  0.00     0.000 C 
BRANCH  17  18
ATOM     18  C   UNL     1      27.840  33.731  30.201  1.00  0.00     0.000 C 
BRANCH  18  19
ATOM     19  C   UNL     1      28.724  33.662  31.456  1.00  0.00     0.000 C 
BRANCH  19  20
ATOM     20  C   UNL     1      29.718  32.488  31.431  1.00  0.00     0.000 C 
BRANCH  20  21
ATOM     21  C   UNL     1      29.897  31.851  32.821  1.00  0.00     0.000 C 
BRANCH  21  22
ATOM     22  C   UNL     1      30.438  30.413  32.745  1.00  0.00    -0.000 C 
BRANCH  22  23
ATOM     23  C   UNL     1      30.838  30.004  31.315  1.00  0.00    -0.000 C 
BRANCH  23  24
ATOM     24  C   UNL     1      30.962  28.483  31.081  1.00  0.00    -0.000 C 
BRANCH  24  25
ATOM     25  C   UNL     1      30.200  27.942  29.854  1.00  0.00    -0.000 C 
BRANCH  25  26
ATOM     26  C   UNL     1      31.086  27.626  28.635  1.00  0.00    -0.000 C 
BRANCH  26  27
ATOM     27  C   UNL     1      30.950  28.675  27.516  1.00  0.00    -0.000 C 
BRANCH  27  28
ATOM     28  C   UNL     1      31.125  30.115  28.036  1.00  0.00    -0.000 C 
BRANCH  28  29
ATOM     29  C   UNL     1      30.797  31.195  26.988  1.00  0.00    -0.003 C 
ATOM     30  C   UNL     1      30.337  32.511  27.621  1.00  0.00     0.004 C 
ENDBRANCH  28  29
ENDBRANCH  27  28
ENDBRANCH  26  27
ENDBRANCH  25  26
ENDBRANCH  24  25
ENDBRANCH  23  24
ENDBRANCH  22  23
ENDBRANCH  21  22
ENDBRANCH  20  21
ENDBRANCH  19  20
ENDBRANCH  18  19
ENDBRANCH  17  18
ENDBRANCH   1  17
TORSDOF 26
ENDMDL
MODEL 4
REMARK VINA RESULT:    -1.035      2.151      5.222
REMARK INTER + INTRA:          -4.681
REMARK INTER:                  -3.508
REMARK INTRA:                  -1.173
REMARK UNBOUND:                -2.072
REMARK SMILES CCCCCCCCCCCCCCCCCCCCCCCCCCCC(=O)[O-]
REMARK SMILES IDX 15 1 16 2 17 3 18 4 19 5 20 6 21 7 22 8 23 9 24 10 25 11
REMARK SMILES IDX 26 12 27 13 28 14 29 15 30 16 14 17 13 18 12 19 11 20 10 21
REMARK SMILES IDX 9 22 8 23 7 24 6 25 5 26 4 27 3 28 2 29 1 30
REMARK H PARENT
REMARK Flexibility Score: inf
ROOT
ATOM      1  C   UNL     1      25.490  32.947  33.306  1.00  0.00     0.000 C 
ENDROOT
BRANCH   1   2
ATOM      2  C   UNL     1      24.730  33.528  32.098  1.00  0.00     0.000 C 
BRANCH   2   3
ATOM      3  C   UNL     1      25.444  33.280  30.759  1.00  0.00     0.000 C 
BRANCH   3   4
ATOM      4  C   UNL     1      26.619  34.243  30.533  1.00  0.00     0.000 C 
BRANCH   4   5
ATOM      5  C   UNL     1      27.974  33.529  30.343  1.00  0.00     0.000 C 
BRANCH   5   6
ATOM      6  C   UNL     1      28.926  33.754  31.532  1.00  0.00     0.000 C 
BRANCH   6   7
ATOM      7  C   UNL     1      28.169  33.805  32.874  1.00  0.00     0.000 C 
BRANCH   7   8
ATOM      8  C   UNL     1      28.194  35.187  33.553  1.00  0.00     0.000 C 
BRANCH   8   9
ATOM      9  C   UNL     1      26.798  35.785  33.844  1.00  0.00     0.000 C 
BRANCH   9  10
ATOM     10  C   UNL     1      26.393  37.008  32.992  1.00  0.00     0.000 C 
BRANCH  10  11
ATOM     11  C   UNL     1      27.392  38.180  32.983  1.00  0.00     0.000 C 
BRANCH  11  12
ATOM     12  C   UNL     1      26.970  39.335  33.908  1.00  0.00     0.006 C 
BRANCH  12  13
ATOM     13  C   UNL     1      26.266  40.459  33.139  1.00  0.00     0.053 C 
BRANCH  13  14
ATOM     14  C   UNL     1      25.270  41.180  33.998  1.00  0.00     0.041 C 
ATOM     15  O   UNL     1      24.871  42.330  33.678  1.00  0.00    -0.550 OA
ATOM     16  O   UNL     1      24.810  40.594  35.171  1.00  0.00    -0.550 OA
ENDBRANCH  13  14
ENDBRANCH  12  13
ENDBRANCH  11  12
ENDBRANCH  10  11
ENDBRANCH   9  10
ENDBRANCH   8   9
ENDBRANCH   7   8
ENDBRANCH   6   7
ENDBRANCH   5   6
ENDBRANCH   4   5
ENDBRANCH   3   4
ENDBRANCH   2   3
ENDBRANCH   1   2
BRANCH   1  17
ATOM     17  C   UNL     1      24.615  32.493  34.489  1.00  0.00     0.000 C 
BRANCH  17  18
ATOM     18  C   UNL     1      25.210  32.853  35.863  1.00  0.00     0.000 C 
BRANCH  18  19
ATOM     19  C   UNL     1      26.578  32.197  36.108  1.00  0.00     0.000 C 
BRANCH  19  20
ATOM     20  C   UNL     1      27.572  33.122  36.833  1.00  0.00     0.000 C 
BRANCH  20  21
ATOM     21  C   UNL     1      29.004  32.562  36.813  1.00  0.00     0.000 C 
BRANCH  21  22
ATOM     22  C   UNL     1      29.322  31.801  35.513  1.00  0.00    -0.000 C 
BRANCH  22  23
ATOM     23  C   UNL     1      30.693  31.100  35.556  1.00  0.00    -0.000 C 
BRANCH  23  24
ATOM     24  C   UNL     1      30.819  29.978  36.608  1.00  0.00    -0.000 C 
BRANCH  24  25
ATOM     25  C   UNL     1      31.067  28.567  36.037  1.00  0.00    -0.000 C 
BRANCH  25  26
ATOM     26  C   UNL     1      31.088  27.442  37.089  1.00  0.00    -0.000 C 
BRANCH  26  27
ATOM     27  C   UNL     1      30.649  26.083  36.514  1.00  0.00    -0.000 C 
BRANCH  27  28
ATOM     28  C   UNL     1      30.052  26.210  35.099  1.00  0.00    -0.000 C 
BRANCH  28  29
ATOM     29  C   UNL     1      31.111  26.369  33.993  1.00  0.00    -0.003 C 
ATOM     30  C   UNL     1      30.872  27.603  33.120  1.00  0.00     0.004 C 
ENDBRANCH  28  29
ENDBRANCH  27  28
ENDBRANCH  26  27
ENDBRANCH  25  26
ENDBRANCH  24  25
ENDBRANCH  23  24
ENDBRANCH  22  23
ENDBRANCH  21  22
ENDBRANCH  20  21
ENDBRANCH  19  20
ENDBRANCH  18  19
ENDBRANCH  17  18
ENDBRANCH   1  17
TORSDOF 26
ENDMDL
MODEL 5
REMARK VINA RESULT:    -0.905      2.592      5.898
REMARK INTER + INTRA:          -4.354
REMARK INTER:                  -1.999
REMARK INTRA:                  -2.355
REMARK UNBOUND:                -2.072
REMARK SMILES CCCCCCCCCCCCCCCCCCCCCCCCCCCC(=O)[O-]
REMARK SMILES IDX 15 1 16 2 17 3 18 4 19 5 20 6 21 7 22 8 23 9 24 10 25 11
REMARK SMILES IDX 26 12 27 13 28 14 29 15 30 16 14 17 13 18 12 19 11 20 10 21
REMARK SMILES IDX 9 22 8 23 7 24 6 25 5 26 4 27 3 28 2 29 1 30
REMARK H PARENT
REMARK Flexibility Score: inf
ROOT
ATOM      1  C   UNL     1      30.549  28.150  30.085  1.00  0.00     0.000 C 
ENDROOT
BRANCH   1   2
ATOM      2  C   UNL     1      31.080  28.385  31.512  1.00  0.00     0.000 C 
BRANCH   2   3
ATOM      3  C   UNL     1      30.795  29.803  32.035  1.00  0.00     0.000 C 
BRANCH   3   4
ATOM      4  C   UNL     1      30.664  29.850  33.564  1.00  0.00     0.000 C 
BRANCH   4   5
ATOM      5  C   UNL     1      30.409  31.267  34.119  1.00  0.00     0.000 C 
BRANCH   5   6
ATOM      6  C   UNL     1      30.300  31.285  35.654  1.00  0.00     0.000 C 
BRANCH   6   7
ATOM      7  C   UNL     1      29.217  30.315  36.166  1.00  0.00     0.000 C 
BRANCH   7   8
ATOM      8  C   UNL     1      28.200  30.964  37.123  1.00  0.00     0.000 C 
BRANCH   8   9
ATOM      9  C   UNL     1      28.073  32.499  36.982  1.00  0.00     0.000 C 
BRANCH   9  10
ATOM     10  C   UNL     1      26.639  33.069  37.044  1.00  0.00     0.000 C 
BRANCH  10  11
ATOM     11  C   UNL     1      25.645  32.497  36.017  1.00  0.00     0.000 C 
BRANCH  11  12
ATOM     12  C   UNL     1      25.939  32.955  34.577  1.00  0.00     0.006 C 
BRANCH  12  13
ATOM     13  C   UNL     1      25.839  34.477  34.426  1.00  0.00     0.053 C 
BRANCH  13  14
ATOM     14  C   UNL     1      27.093  35.061  33.848  1.00  0.00     0.041 C 
ATOM     15  O   UNL     1      28.152  34.380  33.813  1.00  0.00    -0.550 OA
ATOM     16  O   UNL     1      27.100  36.368  33.379  1.00  0.00    -0.550 OA
ENDBRANCH  13  14
ENDBRANCH  12  13
ENDBRANCH  11  12
ENDBRANCH  10  11
ENDBRANCH   9  10
ENDBRANCH   8   9
ENDBRANCH   7   8
ENDBRANCH   6   7
ENDBRANCH   5   6
ENDBRANCH   4   5
ENDBRANCH   3   4
ENDBRANCH   2   3
ENDBRANCH   1   2
BRANCH   1  17
ATOM     17  C   UNL     1      31.119  29.081  28.999  1.00  0.00     0.000 C 
BRANCH  17  18
ATOM     18  C   UNL     1      31.085  28.466  27.587  1.00  0.00     0.000 C 
BRANCH  18  19
ATOM     19  C   UNL     1      31.112  29.528  26.476  1.00  0.00     0.000 C 
BRANCH  19  20
ATOM     20  C   UNL     1      29.946  30.528  26.567  1.00  0.00     0.000 C 
BRANCH  20  21
ATOM     21  C   UNL     1      30.435  31.987  26.577  1.00  0.00     0.000 C 
BRANCH  21  22
ATOM     22  C   UNL     1      30.958  32.423  27.958  1.00  0.00    -0.000 C 
BRANCH  22  23
ATOM     23  C   UNL     1      29.974  32.094  29.095  1.00  0.00    -0.000 C 
BRANCH  23  24
ATOM     24  C   UNL     1      29.620  33.281  30.017  1.00  0.00    -0.000 C 
BRANCH  24  25
ATOM     25  C   UNL     1      28.392  33.065  30.925  1.00  0.00    -0.000 C 
BRANCH  25  26
ATOM     26  C   UNL     1      27.239  34.059  30.695  1.00  0.00    -0.000 C 
BRANCH  26  27
ATOM     27  C   UNL     1      25.932  33.363  30.273  1.00  0.00    -0.000 C 
BRANCH  27  28
ATOM     28  C   UNL     1      24.738  34.336  30.227  1.00  0.00    -0.000 C 
BRANCH  28  29
ATOM     29  C   UNL     1      24.862  35.415  29.136  1.00  0.00    -0.003 C 
ATOM     30  C   UNL     1      23.988  35.122  27.914  1.00  0.00     0.004 C 
ENDBRANCH  28  29
ENDBRANCH  27  28
ENDBRANCH  26  27
ENDBRANCH  25  26
ENDBRANCH  24  25
ENDBRANCH  23  24
ENDBRANCH  22  23
ENDBRANCH  21  22
ENDBRANCH  20  21
ENDBRANCH  19  20
ENDBRANCH  18  19
ENDBRANCH  17  18
ENDBRANCH   1  17
TORSDOF 26
ENDMDL
MODEL 6
REMARK VINA RESULT:    -0.899      5.287     10.325
REMARK INTER + INTRA:          -4.337
REMARK INTER:                  -2.329
REMARK INTRA:                  -2.009
REMARK UNBOUND:                -2.072
REMARK SMILES CCCCCCCCCCCCCCCCCCCCCCCCCCCC(=O)[O-]
REMARK SMILES IDX 15 1 16 2 17 3 18 4 19 5 20 6 21 7 22 8 23 9 24 10 25 11
REMARK SMILES IDX 26 12 27 13 28 14 29 15 30 16 14 17 13 18 12 19 11 20 10 21
REMARK SMILES IDX 9 22 8 23 7 24 6 25 5 26 4 27 3 28 2 29 1 30
REMARK H PARENT
REMARK Flexibility Score: inf
ROOT
ATOM      1  C   UNL     1      28.469  31.011  37.125  1.00  0.00     0.000 C 
ENDROOT
BRANCH   1   2
ATOM      2  C   UNL     1      28.690  29.513  36.837  1.00  0.00     0.000 C 
BRANCH   2   3
ATOM      3  C   UNL     1      30.157  29.079  36.995  1.00  0.00     0.000 C 
BRANCH   3   4
ATOM      4  C   UNL     1      31.030  29.518  35.811  1.00  0.00     0.000 C 
BRANCH   4   5
ATOM      5  C   UNL     1      30.815  28.672  34.538  1.00  0.00     0.000 C 
BRANCH   5   6
ATOM      6  C   UNL     1      30.024  29.430  33.458  1.00  0.00     0.000 C 
BRANCH   6   7
ATOM      7  C   UNL     1      30.744  29.410  32.096  1.00  0.00     0.000 C 
BRANCH   7   8
ATOM      8  C   UNL     1      30.693  28.046  31.382  1.00  0.00     0.000 C 
BRANCH   8   9
ATOM      9  C   UNL     1      30.427  28.127  29.860  1.00  0.00     0.000 C 
BRANCH   9  10
ATOM     10  C   UNL     1      30.359  26.778  29.112  1.00  0.00     0.000 C 
BRANCH  10  11
ATOM     11  C   UNL     1      30.893  26.784  27.668  1.00  0.00     0.000 C 
BRANCH  11  12
ATOM     12  C   UNL     1      30.919  25.384  27.031  1.00  0.00     0.006 C 
BRANCH  12  13
ATOM     13  C   UNL     1      30.151  25.341  25.704  1.00  0.00     0.053 C 
BRANCH  13  14
ATOM     14  C   UNL     1      28.678  25.163  25.921  1.00  0.00     0.041 C 
ATOM     15  O   UNL     1      27.930  24.841  24.960  1.00  0.00    -0.550 OA
ATOM     16  O   UNL     1      28.128  25.385  27.177  1.00  0.00    -0.550 OA
ENDBRANCH  13  14
ENDBRANCH  12  13
ENDBRANCH  11  12
ENDBRANCH  10  11
ENDBRANCH   9  10
ENDBRANCH   8   9
ENDBRANCH   7   8
ENDBRANCH   6   7
ENDBRANCH   5   6
ENDBRANCH   4   5
ENDBRANCH   3   4
ENDBRANCH   2   3
ENDBRANCH   1   2
BRANCH   1  17
ATOM     17  C   UNL     1      27.180  31.618  36.542  1.00  0.00     0.000 C 
BRANCH  17  18
ATOM     18  C   UNL     1      26.990  33.105  36.898  1.00  0.00     0.000 C 
BRANCH  18  19
ATOM     19  C   UNL     1      25.646  33.666  36.407  1.00  0.00     0.000 C 
BRANCH  19  20
ATOM     20  C   UNL     1      24.626  32.569  36.053  1.00  0.00     0.000 C 
BRANCH  20  21
ATOM     21  C   UNL     1      24.334  32.516  34.543  1.00  0.00     0.000 C 
BRANCH  21  22
ATOM     22  C   UNL     1      25.598  32.728  33.691  1.00  0.00    -0.000 C 
BRANCH  22  23
ATOM     23  C   UNL     1      25.273  33.098  32.232  1.00  0.00    -0.000 C 
BRANCH  23  24
ATOM     24  C   UNL     1      26.336  33.969  31.528  1.00  0.00    -0.000 C 
BRANCH  24  25
ATOM     25  C   UNL     1      26.760  35.238  32.296  1.00  0.00    -0.000 C 
BRANCH  25  26
ATOM     26  C   UNL     1      28.213  35.225  32.804  1.00  0.00    -0.000 C 
BRANCH  26  27
ATOM     27  C   UNL     1      28.817  33.809  32.842  1.00  0.00    -0.000 C 
BRANCH  27  28
ATOM     28  C   UNL     1      29.070  33.317  34.280  1.00  0.00    -0.000 C 
BRANCH  28  29
ATOM     29  C   UNL     1      30.417  33.783  34.864  1.00  0.00    -0.003 C 
ATOM     30  C   UNL     1      30.710  33.167  36.234  1.00  0.00     0.004 C 
ENDBRANCH  28  29
ENDBRANCH  27  28
ENDBRANCH  26  27
ENDBRANCH  25  26
ENDBRANCH  24  25
ENDBRANCH  23  24
ENDBRANCH  22  23
ENDBRANCH  21  22
ENDBRANCH  20  21
ENDBRANCH  19  20
ENDBRANCH  18  19
ENDBRANCH  17  18
ENDBRANCH   1  17
TORSDOF 26
ENDMDL
MODEL 7
REMARK VINA RESULT:    -0.825      2.221      3.258
REMARK INTER + INTRA:          -4.152
REMARK INTER:                  -2.320
REMARK INTRA:                  -1.832
REMARK UNBOUND:                -2.072
REMARK SMILES CCCCCCCCCCCCCCCCCCCCCCCCCCCC(=O)[O-]
REMARK SMILES IDX 15 1 16 2 17 3 18 4 19 5 20 6 21 7 22 8 23 9 24 10 25 11
REMARK SMILES IDX 26 12 27 13 28 14 29 15 30 16 14 17 13 18 12 19 11 20 10 21
REMARK SMILES IDX 9 22 8 23 7 24 6 25 5 26 4 27 3 28 2 29 1 30
REMARK H PARENT
REMARK Flexibility Score: inf
ROOT
ATOM      1  C   UNL     1      29.991  31.431  33.214  1.00  0.00     0.000 C 
ENDROOT
BRANCH   1   2
ATOM      2  C   UNL     1      29.745  32.388  32.032  1.00  0.00     0.000 C 
BRANCH   2   3
ATOM      3  C   UNL     1      28.549  33.328  32.256  1.00  0.00     0.000 C 
BRANCH   3   4
ATOM      4  C   UNL     1      28.170  34.108  30.988  1.00  0.00     0.000 C 
BRANCH   4   5
ATOM      5  C   UNL     1      26.649  34.172  30.735  1.00  0.00     0.000 C 
BRANCH   5   6
ATOM      6  C   UNL     1      25.916  35.025  31.787  1.00  0.00     0.000 C 
BRANCH   6   7
ATOM      7  C   UNL     1      26.896  35.855  32.640  1.00  0.00     0.000 C 
BRANCH   7   8
ATOM      8  C   UNL     1      26.532  37.349  32.733  1.00  0.00     0.000 C 
BRANCH   8   9
ATOM      9  C   UNL     1      26.933  38.025  34.064  1.00  0.00     0.000 C 
BRANCH   9  10
ATOM     10  C   UNL     1      27.290  39.526  33.981  1.00  0.00     0.000 C 
BRANCH  10  11
ATOM     11  C   UNL     1      26.498  40.347  32.947  1.00  0.00     0.000 C 
BRANCH  11  12
ATOM     12  C   UNL     1      25.662  41.470  33.586  1.00  0.00     0.006 C 
BRANCH  12  13
ATOM     13  C   UNL     1      24.230  41.017  33.895  1.00  0.00     0.053 C 
BRANCH  13  14
ATOM     14  C   UNL     1      24.056  40.681  35.346  1.00  0.00     0.041 C 
ATOM     15  O   UNL     1      25.061  40.568  36.096  1.00  0.00    -0.550 OA
ATOM     16  O   UNL     1      22.785  40.459  35.861  1.00  0.00    -0.550 OA
ENDBRANCH  13  14
ENDBRANCH  12  13
ENDBRANCH  11  12
ENDBRANCH  10  11
ENDBRANCH   9  10
ENDBRANCH   8   9
ENDBRANCH   7   8
ENDBRANCH   6   7
ENDBRANCH   5   6
ENDBRANCH   4   5
ENDBRANCH   3   4
ENDBRANCH   2   3
ENDBRANCH   1   2
BRANCH   1  17
ATOM     17  C   UNL     1      30.564  30.050  32.845  1.00  0.00     0.000 C 
BRANCH  17  18
ATOM     18  C   UNL     1      29.786  28.878  33.474  1.00  0.00     0.000 C 
BRANCH  18  19
ATOM     19  C   UNL     1      29.407  29.136  34.940  1.00  0.00     0.000 C 
BRANCH  19  20
ATOM     20  C   UNL     1      30.407  28.530  35.940  1.00  0.00     0.000 C 
BRANCH  20  21
ATOM     21  C   UNL     1      31.083  29.606  36.808  1.00  0.00     0.000 C 
BRANCH  21  22
ATOM     22  C   UNL     1      30.143  30.784  37.124  1.00  0.00    -0.000 C 
BRANCH  22  23
ATOM     23  C   UNL     1      30.655  32.120  36.554  1.00  0.00    -0.000 C 
BRANCH  23  24
ATOM     24  C   UNL     1      29.817  33.358  36.940  1.00  0.00    -0.000 C 
BRANCH  24  25
ATOM     25  C   UNL     1      28.300  33.110  37.069  1.00  0.00    -0.000 C 
BRANCH  25  26
ATOM     26  C   UNL     1      27.534  33.105  35.734  1.00  0.00    -0.000 C 
BRANCH  26  27
ATOM     27  C   UNL     1      26.771  34.418  35.482  1.00  0.00    -0.000 C 
BRANCH  27  28
ATOM     28  C   UNL     1      25.304  34.345  35.948  1.00  0.00    -0.000 C 
BRANCH  28  29
ATOM     29  C   UNL     1      24.561  33.090  35.453  1.00  0.00    -0.003 C 
ATOM     30  C   UNL     1      25.233  32.447  34.238  1.00  0.00     0.004 C 
ENDBRANCH  28  29
ENDBRANCH  27  28
ENDBRANCH  26  27
ENDBRANCH  25  26
ENDBRANCH  24  25
ENDBRANCH  23  24
ENDBRANCH  22  23
ENDBRANCH  21  22
ENDBRANCH  20  21
ENDBRANCH  19  20
ENDBRANCH  18  19
ENDBRANCH  17  18
ENDBRANCH   1  17
TORSDOF 26
ENDMDL
MODEL 8
REMARK VINA RESULT:    -0.742      2.892      7.077
REMARK INTER + INTRA:          -3.943
REMARK INTER:                  -1.629
REMARK INTRA:                  -2.314
REMARK UNBOUND:                -2.072
REMARK SMILES CCCCCCCCCCCCCCCCCCCCCCCCCCCC(=O)[O-]
REMARK SMILES IDX 15 1 16 2 17 3 18 4 19 5 20 6 21 7 22 8 23 9 24 10 25 11
REMARK SMILES IDX 26 12 27 13 28 14 29 15 30 16 14 17 13 18 12 19 11 20 10 21
REMARK SMILES IDX 9 22 8 23 7 24 6 25 5 26 4 27 3 28 2 29 1 30
REMARK H PARENT
REMARK Flexibility Score: inf
ROOT
ATOM      1  C   UNL     1      29.914  29.417  34.045  1.00  0.00     0.000 C 
ENDROOT
BRANCH   1   2
ATOM      2  C   UNL     1      30.532  28.319  34.931  1.00  0.00     0.000 C 
BRANCH   2   3
ATOM      3  C   UNL     1      29.984  28.324  36.367  1.00  0.00     0.000 C 
BRANCH   3   4
ATOM      4  C   UNL     1      30.333  29.613  37.125  1.00  0.00     0.000 C 
BRANCH   4   5
ATOM      5  C   UNL     1      29.241  30.699  37.031  1.00  0.00     0.000 C 
BRANCH   5   6
ATOM      6  C   UNL     1      29.805  32.059  36.583  1.00  0.00     0.000 C 
BRANCH   6   7
ATOM      7  C   UNL     1      28.794  33.202  36.800  1.00  0.00     0.000 C 
BRANCH   7   8
ATOM      8  C   UNL     1      27.321  32.763  36.693  1.00  0.00     0.000 C 
BRANCH   8   9
ATOM      9  C   UNL     1      26.750  32.778  35.256  1.00  0.00     0.000 C 
BRANCH   9  10
ATOM     10  C   UNL     1      25.259  33.158  35.124  1.00  0.00     0.000 C 
BRANCH  10  11
ATOM     11  C   UNL     1      24.457  32.373  34.070  1.00  0.00     0.000 C 
BRANCH  11  12
ATOM     12  C   UNL     1      25.126  32.371  32.685  1.00  0.00     0.006 C 
BRANCH  12  13
ATOM     13  C   UNL     1      25.170  33.772  32.065  1.00  0.00     0.053 C 
BRANCH  13  14
ATOM     14  C   UNL     1      25.591  33.730  30.626  1.00  0.00     0.041 C 
ATOM     15  O   UNL     1      26.034  34.767  30.065  1.00  0.00    -0.550 OA
ATOM     16  O   UNL     1      25.463  32.555  29.898  1.00  0.00    -0.550 OA
ENDBRANCH  13  14
ENDBRANCH  12  13
ENDBRANCH  11  12
ENDBRANCH  10  11
ENDBRANCH   9  10
ENDBRANCH   8   9
ENDBRANCH   7   8
ENDBRANCH   6   7
ENDBRANCH   5   6
ENDBRANCH   4   5
ENDBRANCH   3   4
ENDBRANCH   2   3
ENDBRANCH   1   2
BRANCH   1  17
ATOM     17  C   UNL     1      30.903  30.453  33.478  1.00  0.00     0.000 C 
BRANCH  17  18
ATOM     18  C   UNL     1      30.870  30.553  31.941  1.00  0.00     0.000 C 
BRANCH  18  19
ATOM     19  C   UNL     1      30.092  31.780  31.443  1.00  0.00     0.000 C 
BRANCH  19  20
ATOM     20  C   UNL     1      29.311  32.496  32.559  1.00  0.00     0.000 C 
BRANCH  20  21
ATOM     21  C   UNL     1      28.629  33.780  32.057  1.00  0.00     0.000 C 
BRANCH  21  22
ATOM     22  C   UNL     1      28.770  34.949  33.049  1.00  0.00    -0.000 C 
BRANCH  22  23
ATOM     23  C   UNL     1      27.411  35.465  33.555  1.00  0.00    -0.000 C 
BRANCH  23  24
ATOM     24  C   UNL     1      26.808  36.627  32.737  1.00  0.00    -0.000 C 
BRANCH  24  25
ATOM     25  C   UNL     1      26.432  37.880  33.554  1.00  0.00    -0.000 C 
BRANCH  25  26
ATOM     26  C   UNL     1      27.363  39.088  33.344  1.00  0.00    -0.000 C 
BRANCH  26  27
ATOM     27  C   UNL     1      26.758  40.402  33.871  1.00  0.00    -0.000 C 
BRANCH  27  28
ATOM     28  C   UNL     1      25.326  40.639  33.355  1.00  0.00    -0.000 C 
BRANCH  28  29
ATOM     29  C   UNL     1      24.374  41.219  34.418  1.00  0.00    -0.003 C 
ATOM     30  C   UNL     1      24.491  40.505  35.767  1.00  0.00     0.004 C 
ENDBRANCH  28  29
ENDBRANCH  27  28
ENDBRANCH  26  27
ENDBRANCH  25  26
ENDBRANCH  24  25
ENDBRANCH  23  24
ENDBRANCH  22  23
ENDBRANCH  21  22
ENDBRANCH  20  21
ENDBRANCH  19  20
ENDBRANCH  18  19
ENDBRANCH  17  18
ENDBRANCH   1  17
TORSDOF 26
ENDMDL
MODEL 9
REMARK VINA RESULT:    -0.605      4.552      8.713
REMARK INTER + INTRA:          -3.597
REMARK INTER:                  -2.364
REMARK INTRA:                  -1.232
REMARK UNBOUND:                -2.072
REMARK SMILES CCCCCCCCCCCCCCCCCCCCCCCCCCCC(=O)[O-]
REMARK SMILES IDX 15 1 16 2 17 3 18 4 19 5 20 6 21 7 22 8 23 9 24 10 25 11
REMARK SMILES IDX 26 12 27 13 28 14 29 15 30 16 14 17 13 18 12 19 11 20 10 21
REMARK SMILES IDX 9 22 8 23 7 24 6 25 5 26 4 27 3 28 2 29 1 30
REMARK H PARENT
REMARK Flexibility Score: inf
ROOT
ATOM      1  C   UNL     1      25.184  33.914  30.208  1.00  0.00     0.000 C 
ENDROOT
BRANCH   1   2
ATOM      2  C   UNL     1      24.798  32.850  31.252  1.00  0.00     0.000 C 
BRANCH   2   3
ATOM      3  C   UNL     1      25.632  32.938  32.541  1.00  0.00     0.000 C 
BRANCH   3   4
ATOM      4  C   UNL     1      24.777  33.275  33.771  1.00  0.00     0.000 C 
BRANCH   4   5
ATOM      5  C   UNL     1      25.111  32.415  35.009  1.00  0.00     0.000 C 
BRANCH   5   6
ATOM      6  C   UNL     1      25.515  33.269  36.223  1.00  0.00     0.000 C 
BRANCH   6   7
ATOM      7  C   UNL     1      26.615  32.591  37.064  1.00  0.00     0.000 C 
BRANCH   7   8
ATOM      8  C   UNL     1      27.946  33.366  37.093  1.00  0.00     0.000 C 
BRANCH   8   9
ATOM      9  C   UNL     1      28.864  33.111  35.875  1.00  0.00     0.000 C 
BRANCH   9  10
ATOM     10  C   UNL     1      30.383  33.204  36.140  1.00  0.00     0.000 C 
BRANCH  10  11
ATOM     11  C   UNL     1      31.004  32.020  36.904  1.00  0.00     0.000 C 
BRANCH  11  12
ATOM     12  C   UNL     1      30.044  30.826  37.046  1.00  0.00     0.006 C 
BRANCH  12  13
ATOM     13  C   UNL     1      30.793  29.491  37.125  1.00  0.00     0.053 C 
BRANCH  13  14
ATOM     14  C   UNL     1      30.155  28.444  36.261  1.00  0.00     0.041 C 
ATOM     15  O   UNL     1      30.058  27.258  36.670  1.00  0.00    -0.550 OA
ATOM     16  O   UNL     1      29.699  28.774  34.991  1.00  0.00    -0.550 OA
ENDBRANCH  13  14
ENDBRANCH  12  13
ENDBRANCH  11  12
ENDBRANCH  10  11
ENDBRANCH   9  10
ENDBRANCH   8   9
ENDBRANCH   7   8
ENDBRANCH   6   7
ENDBRANCH   5   6
ENDBRANCH   4   5
ENDBRANCH   3   4
ENDBRANCH   2   3
ENDBRANCH   1   2
BRANCH   1  17
ATOM     17  C   UNL     1      26.566  34.567  30.402  1.00  0.00     0.000 C 
BRANCH  17  18
ATOM     18  C   UNL     1      27.735  33.572  30.278  1.00  0.00     0.000 C 
BRANCH  18  19
ATOM     19  C   UNL     1      28.619  33.535  31.534  1.00  0.00     0.000 C 
BRANCH  19  20
ATOM     20  C   UNL     1      29.778  32.528  31.429  1.00  0.00     0.000 C 
BRANCH  20  21
ATOM     21  C   UNL     1      29.980  31.741  32.736  1.00  0.00     0.000 C 
BRANCH  21  22
ATOM     22  C   UNL     1      30.436  30.292  32.487  1.00  0.00    -0.000 C 
BRANCH  22  23
ATOM     23  C   UNL     1      30.788  30.027  31.011  1.00  0.00    -0.000 C 
BRANCH  23  24
ATOM     24  C   UNL     1      31.120  28.557  30.673  1.00  0.00    -0.000 C 
BRANCH  24  25
ATOM     25  C   UNL     1      30.231  27.915  29.589  1.00  0.00    -0.000 C 
BRANCH  25  26
ATOM     26  C   UNL     1      30.986  27.446  28.332  1.00  0.00    -0.000 C 
BRANCH  26  27
ATOM     27  C   UNL     1      31.069  25.912  28.227  1.00  0.00    -0.000 C 
BRANCH  27  28
ATOM     28  C   UNL     1      30.378  25.372  26.961  1.00  0.00    -0.000 C 
BRANCH  28  29
ATOM     29  C   UNL     1      31.062  25.805  25.651  1.00  0.00    -0.003 C 
ATOM     30  C   UNL     1      30.979  24.735  24.560  1.00  0.00     0.004 C 
ENDBRANCH  28  29
ENDBRANCH  27  28
ENDBRANCH  26  27
ENDBRANCH  25  26
ENDBRANCH  24  25
ENDBRANCH  23  24
ENDBRANCH  22  23
ENDBRANCH  21  22
ENDBRANCH  20  21
ENDBRANCH  19  20
ENDBRANCH  18  19
ENDBRANCH  17  18
ENDBRANCH   1  17
TORSDOF 26
ENDMDL
