MODEL 1
REMARK VINA RESULT:    -2.519      0.000      0.000
REMARK INTER + INTRA:          -2.740
REMARK INTER:                  -2.740
REMARK INTRA:                   0.000
REMARK UNBOUND:                 0.000
REMARK SMILES [NH3+]CC(=O)[O-]
REMARK SMILES IDX 2 1 1 2 3 6 4 7 5 8
REMARK H PARENT 1 3 1 4 1 5
REMARK Flexibility Score: inf
ROOT
ATOM      1  C   UNL     1      -1.932  -2.447 -16.460  1.00  0.00     0.312 C 
ENDROOT
BRANCH   1   2
ATOM      2  N   UNL     1      -3.116  -3.300 -16.523  1.00  0.00    -0.353 N 
ATOM      3  H   UNL     1      -3.965  -2.721 -16.720  1.00  0.00     0.344 HD
ATOM      4  H   UNL     1      -2.999  -4.023 -17.271  1.00  0.00     0.344 HD
ATOM      5  H   UNL     1      -3.240  -3.782 -15.603  1.00  0.00     0.344 HD
ENDBRANCH   1   2
BRANCH   1   6
ATOM      6  C   UNL     1      -0.955  -2.972 -15.453  1.00  0.00     0.096 C 
ATOM      7  O   UNL     1       0.188  -3.351 -15.820  1.00  0.00    -0.544 OA
ATOM      8  O   UNL     1      -1.325  -3.089 -14.120  1.00  0.00    -0.544 OA
ENDBRANCH   1   6
TORSDOF 2
ENDMDL
MODEL 2
REMARK VINA RESULT:    -2.489      0.083      1.448
REMARK INTER + INTRA:          -2.708
REMARK INTER:                  -2.708
REMARK INTRA:                   0.000
REMARK UNBOUND:                 0.000
REMARK SMILES [NH3+]CC(=O)[O-]
REMARK SMILES IDX 2 1 1 2 3 6 4 7 5 8
REMARK H PARENT 1 3 1 4 1 5
REMARK Flexibility Score: inf
ROOT
ATOM      1  C   UNL     1      -1.948  -2.470 -16.458  1.00  0.00     0.312 C 
ENDROOT
BRANCH   1   2
ATOM      2  N   UNL     1      -3.148  -3.300 -16.538  1.00  0.00    -0.353 N 
ATOM      3  H   UNL     1      -3.126  -4.036 -15.795  1.00  0.00     0.344 HD
ATOM      4  H   UNL     1      -4.003  -2.707 -16.423  1.00  0.00     0.344 HD
ATOM      5  H   UNL     1      -3.182  -3.764 -17.475  1.00  0.00     0.344 HD
ENDBRANCH   1   2
BRANCH   1   6
ATOM      6  C   UNL     1      -1.004  -3.004 -15.425  1.00  0.00     0.096 C 
ATOM      7  O   UNL     1      -1.336  -3.013 -14.210  1.00  0.00    -0.544 OA
ATOM      8  O   UNL     1       0.258  -3.444 -15.798  1.00  0.00    -0.544 OA
ENDBRANCH   1   6
TORSDOF 2
ENDMDL
MODEL 3
REMARK VINA RESULT:    -2.027      2.109      2.497
REMARK INTER + INTRA:          -2.205
REMARK INTER:                  -2.205
REMARK INTRA:                   0.000
REMARK UNBOUND:                 0.000
REMARK SMILES [NH3+]CC(=O)[O-]
REMARK SMILES IDX 2 1 1 2 3 6 4 7 5 8
REMARK H PARENT 1 3 1 4 1 5
REMARK Flexibility Score: inf
ROOT
ATOM      1  C   UNL     1      -1.603  -2.823 -14.320  1.00  0.00     0.312 C 
ENDROOT
BRANCH   1   2
ATOM      2  N   UNL     1      -0.802  -3.739 -13.513  1.00  0.00    -0.353 N 
ATOM      3  H   UNL     1      -0.885  -4.713 -13.886  1.00  0.00     0.344 HD
ATOM      4  H   UNL     1       0.202  -3.442 -13.520  1.00  0.00     0.344 HD
ATOM      5  H   UNL     1      -1.152  -3.723 -12.527  1.00  0.00     0.344 HD
ENDBRANCH   1   2
BRANCH   1   6
ATOM      6  C   UNL     1      -1.061  -2.735 -15.714  1.00  0.00     0.096 C 
ATOM      7  O   UNL     1      -1.720  -2.149 -16.613  1.00  0.00    -0.544 OA
ATOM      8  O   UNL     1       0.145  -3.345 -16.031  1.00  0.00    -0.544 OA
ENDBRANCH   1   6
TORSDOF 2
ENDMDL
MODEL 4
REMARK VINA RESULT:    -1.855      7.990      8.220
REMARK INTER + INTRA:          -2.017
REMARK INTER:                  -2.017
REMARK INTRA:                   0.000
REMARK UNBOUND:                 0.000
REMARK SMILES [NH3+]CC(=O)[O-]
REMARK SMILES IDX 2 1 1 2 3 6 4 7 5 8
REMARK H PARENT 1 3 1 4 1 5
REMARK Flexibility Score: inf
ROOT
ATOM      1  C   UNL     1      -2.803   4.103 -18.125  1.00  0.00     0.312 C 
ENDROOT
BRANCH   1   2
ATOM      2  N   UNL     1      -2.020   5.329 -17.989  1.00  0.00    -0.353 N 
ATOM      3  H   UNL     1      -1.013   5.137 -18.198  1.00  0.00     0.344 HD
ATOM      4  H   UNL     1      -2.384   6.062 -18.641  1.00  0.00     0.344 HD
ATOM      5  H   UNL     1      -2.101   5.680 -17.007  1.00  0.00     0.344 HD
ENDBRANCH   1   2
BRANCH   1   6
ATOM      6  C   UNL     1      -3.997   4.135 -17.221  1.00  0.00     0.096 C 
ATOM      7  O   UNL     1      -5.157   4.186 -17.706  1.00  0.00    -0.544 OA
ATOM      8  O   UNL     1      -3.826   4.160 -15.843  1.00  0.00    -0.544 OA
ENDBRANCH   1   6
TORSDOF 2
ENDMDL
MODEL 5
REMARK VINA RESULT:    -1.714      2.944      3.253
REMARK INTER + INTRA:          -1.864
REMARK INTER:                  -1.864
REMARK INTRA:                   0.000
REMARK UNBOUND:                 0.000
REMARK SMILES [NH3+]CC(=O)[O-]
REMARK SMILES IDX 2 1 1 2 3 6 4 7 5 8
REMARK H PARENT 1 3 1 4 1 5
REMARK Flexibility Score: inf
ROOT
ATOM      1  C   UNL     1      -0.710  -3.703 -13.975  1.00  0.00     0.312 C 
ENDROOT
BRANCH   1   2
ATOM      2  N   UNL     1      -1.770  -2.826 -14.465  1.00  0.00    -0.353 N 
ATOM      3  H   UNL     1      -2.583  -3.395 -14.796  1.00  0.00     0.344 HD
ATOM      4  H   UNL     1      -2.079  -2.176 -13.704  1.00  0.00     0.344 HD
ATOM      5  H   UNL     1      -1.404  -2.260 -15.264  1.00  0.00     0.344 HD
ENDBRANCH   1   2
BRANCH   1   6
ATOM      6  C   UNL     1      -0.960  -4.091 -12.550  1.00  0.00     0.096 C 
ATOM      7  O   UNL     1      -0.901  -3.223 -11.639  1.00  0.00    -0.544 OA
ATOM      8  O   UNL     1      -1.208  -5.417 -12.222  1.00  0.00    -0.544 OA
ENDBRANCH   1   6
TORSDOF 2
ENDMDL
MODEL 6
REMARK VINA RESULT:    -1.683      2.868      3.174
REMARK INTER + INTRA:          -1.830
REMARK INTER:                  -1.830
REMARK INTRA:                   0.000
REMARK UNBOUND:                 0.000
REMARK SMILES [NH3+]CC(=O)[O-]
REMARK SMILES IDX 2 1 1 2 3 6 4 7 5 8
REMARK H PARENT 1 3 1 4 1 5
REMARK Flexibility Score: inf
ROOT
ATOM      1  C   UNL     1      -0.906  -3.806 -12.463  1.00  0.00     0.312 C 
ENDROOT
BRANCH   1   2
ATOM      2  N   UNL     1      -1.303  -5.175 -12.143  1.00  0.00    -0.353 N 
ATOM      3  H   UNL     1      -0.456  -5.762 -11.963  1.00  0.00     0.344 HD
ATOM      4  H   UNL     1      -1.924  -5.182 -11.300  1.00  0.00     0.344 HD
ATOM      5  H   UNL     1      -1.828  -5.577 -12.953  1.00  0.00     0.344 HD
ENDBRANCH   1   2
BRANCH   1   6
ATOM      6  C   UNL     1      -0.756  -3.631 -13.943  1.00  0.00     0.096 C 
ATOM      7  O   UNL     1       0.198  -4.183 -14.551  1.00  0.00    -0.544 OA
ATOM      8  O   UNL     1      -1.639  -2.818 -14.640  1.00  0.00    -0.544 OA
ENDBRANCH   1   6
TORSDOF 2
ENDMDL
MODEL 7
REMARK VINA RESULT:    -1.627      2.852      3.374
REMARK INTER + INTRA:          -1.769
REMARK INTER:                  -1.769
REMARK INTRA:                   0.000
REMARK UNBOUND:                 0.000
REMARK SMILES [NH3+]CC(=O)[O-]
REMARK SMILES IDX 2 1 1 2 3 6 4 7 5 8
REMARK H PARENT 1 3 1 4 1 5
REMARK Flexibility Score: inf
ROOT
ATOM      1  C   UNL     1      -0.926  -3.857 -12.445  1.00  0.00     0.312 C 
ENDROOT
BRANCH   1   2
ATOM      2  N   UNL     1      -1.275  -5.257 -12.216  1.00  0.00    -0.353 N 
ATOM      3  H   UNL     1      -0.626  -5.882 -12.748  1.00  0.00     0.344 HD
ATOM      4  H   UNL     1      -1.220  -5.478 -11.194  1.00  0.00     0.344 HD
ATOM      5  H   UNL     1      -2.254  -5.425 -12.546  1.00  0.00     0.344 HD
ENDBRANCH   1   2
BRANCH   1   6
ATOM      6  C   UNL     1      -0.807  -3.576 -13.912  1.00  0.00     0.096 C 
ATOM      7  O   UNL     1      -1.681  -2.885 -14.496  1.00  0.00    -0.544 OA
ATOM      8  O   UNL     1       0.242  -4.120 -14.641  1.00  0.00    -0.544 OA
ENDBRANCH   1   6
TORSDOF 2
ENDMDL
MODEL 8
REMARK VINA RESULT:    -1.148      2.563      2.589
REMARK INTER + INTRA:          -1.249
REMARK INTER:                  -1.249
REMARK INTRA:                   0.000
REMARK UNBOUND:                 0.000
REMARK SMILES [NH3+]CC(=O)[O-]
REMARK SMILES IDX 2 1 1 2 3 6 4 7 5 8
REMARK H PARENT 1 3 1 4 1 5
REMARK Flexibility Score: inf
ROOT
ATOM      1  C   UNL     1       0.035  -3.320 -15.902  1.00  0.00     0.312 C 
ENDROOT
BRANCH   1   2
ATOM      2  N   UNL     1       1.214  -4.105 -15.543  1.00  0.00    -0.353 N 
ATOM      3  H   UNL     1       1.936  -3.488 -15.104  1.00  0.00     0.344 HD
ATOM      4  H   UNL     1       0.948  -4.868 -14.876  1.00  0.00     0.344 HD
ATOM      5  H   UNL     1       1.615  -4.536 -16.407  1.00  0.00     0.344 HD
ENDBRANCH   1   2
BRANCH   1   6
ATOM      6  C   UNL     1      -0.885  -3.179 -14.728  1.00  0.00     0.096 C 
ATOM      7  O   UNL     1      -1.871  -2.400 -14.788  1.00  0.00    -0.544 OA
ATOM      8  O   UNL     1      -0.623  -3.871 -13.553  1.00  0.00    -0.544 OA
ENDBRANCH   1   6
TORSDOF 2
ENDMDL
MODEL 9
REMARK VINA RESULT:    -1.020      3.927      4.515
REMARK INTER + INTRA:          -1.109
REMARK INTER:                  -1.109
REMARK INTRA:                   0.000
REMARK UNBOUND:                 0.000
REMARK SMILES [NH3+]CC(=O)[O-]
REMARK SMILES IDX 2 1 1 2 3 6 4 7 5 8
REMARK H PARENT 1 3 1 4 1 5
REMARK Flexibility Score: inf
ROOT
ATOM      1  C   UNL     1      -1.486  -5.274 -11.489  1.00  0.00     0.312 C 
ENDROOT
BRANCH   1   2
ATOM      2  N   UNL     1      -0.964  -6.395 -12.266  1.00  0.00    -0.353 N 
ATOM      3  H   UNL     1      -1.708  -7.119 -12.396  1.00  0.00     0.344 HD
ATOM      4  H   UNL     1      -0.629  -6.060 -13.200  1.00  0.00     0.344 HD
ATOM      5  H   UNL     1      -0.160  -6.824 -11.752  1.00  0.00     0.344 HD
ENDBRANCH   1   2
BRANCH   1   6
ATOM      6  C   UNL     1      -0.934  -3.977 -11.995  1.00  0.00     0.096 C 
ATOM      7  O   UNL     1      -0.698  -3.034 -11.194  1.00  0.00    -0.544 OA
ATOM      8  O   UNL     1      -0.728  -3.792 -13.355  1.00  0.00    -0.544 OA
ENDBRANCH   1   6
TORSDOF 2
ENDMDL
