MODEL 1
REMARK VINA RESULT:    -3.877      0.000      0.000
REMARK INTER + INTRA:          -9.541
REMARK INTER:                  -7.503
REMARK INTRA:                  -2.038
REMARK UNBOUND:                -2.038
REMARK SMILES CCCCCCCCCCCCCCCCCC(=O)[O-]
REMARK SMILES IDX 10 1 11 2 12 3 13 4 14 5 15 6 16 7 17 8 18 9 19 10 20 11
REMARK SMILES IDX 9 12 8 13 7 14 6 15 5 16 4 17 3 18 2 19 1 20
REMARK H PARENT
REMARK Flexibility Score: inf
ROOT
ATOM      1  C   UNL     1      34.073  18.004 -18.274  1.00  0.00     0.000 C 
ENDROOT
BRANCH   1   2
ATOM      2  C   UNL     1      33.724  17.606 -19.719  1.00  0.00     0.000 C 
BRANCH   2   3
ATOM      3  C   UNL     1      32.209  17.456 -19.946  1.00  0.00     0.000 C 
BRANCH   3   4
ATOM      4  C   UNL     1      31.424  16.904 -18.739  1.00  0.00     0.000 C 
BRANCH   4   5
ATOM      5  C   UNL     1      30.020  17.509 -18.539  1.00  0.00     0.000 C 
BRANCH   5   6
ATOM      6  C   UNL     1      28.946  16.512 -18.065  1.00  0.00     0.000 C 
BRANCH   6   7
ATOM      7  C   UNL     1      27.781  17.193 -17.332  1.00  0.00     0.006 C 
BRANCH   7   8
ATOM      8  C   UNL     1      27.976  18.711 -17.286  1.00  0.00     0.053 C 
BRANCH   8   9
ATOM      9  C   UNL     1      26.845  19.406 -17.975  1.00  0.00     0.041 C 
ATOM     10  O   UNL     1      27.069  20.400 -18.714  1.00  0.00    -0.550 OA
ATOM     11  O   UNL     1      25.547  18.928 -17.837  1.00  0.00    -0.550 OA
ENDBRANCH   8   9
ENDBRANCH   7   8
ENDBRANCH   6   7
ENDBRANCH   5   6
ENDBRANCH   4   5
ENDBRANCH   3   4
ENDBRANCH   2   3
ENDBRANCH   1   2
BRANCH   1  12
ATOM     12  C   UNL     1      35.023  17.002 -17.601  1.00  0.00     0.000 C 
BRANCH  12  13
ATOM     13  C   UNL     1      34.513  15.552 -17.694  1.00  0.00    -0.000 C 
BRANCH  13  14
ATOM     14  C   UNL     1      34.711  14.771 -16.386  1.00  0.00    -0.000 C 
BRANCH  14  15
ATOM     15  C   UNL     1      33.664  13.662 -16.197  1.00  0.00    -0.000 C 
BRANCH  15  16
ATOM     16  C   UNL     1      32.762  13.475 -17.428  1.00  0.00    -0.000 C 
BRANCH  16  17
ATOM     17  C   UNL     1      31.258  13.643 -17.121  1.00  0.00    -0.000 C 
BRANCH  17  18
ATOM     18  C   UNL     1      31.015  14.314 -15.758  1.00  0.00    -0.000 C 
BRANCH  18  19
ATOM     19  C   UNL     1      29.590  14.087 -15.232  1.00  0.00    -0.003 C 
ATOM     20  C   UNL     1      28.749  13.210 -16.159  1.00  0.00     0.004 C 
ENDBRANCH  18  19
ENDBRANCH  17  18
ENDBRANCH  16  17
ENDBRANCH  15  16
ENDBRANCH  14  15
ENDBRANCH  13  14
ENDBRANCH  12  13
ENDBRANCH   1  12
TORSDOF 16
ENDMDL
MODEL 2
REMARK VINA RESULT:    -3.782      1.219      4.493
REMARK INTER + INTRA:          -9.357
REMARK INTER:                  -6.588
REMARK INTRA:                  -2.769
REMARK UNBOUND:                -2.038
REMARK SMILES CCCCCCCCCCCCCCCCCC(=O)[O-]
REMARK SMILES IDX 10 1 11 2 12 3 13 4 14 5 15 6 16 7 17 8 18 9 19 10 20 11
REMARK SMILES IDX 9 12 8 13 7 14 6 15 5 16 4 17 3 18 2 19 1 20
REMARK H PARENT
REMARK Flexibility Score: inf
ROOT
ATOM      1  C   UNL     1      32.427  14.220 -17.157  1.00  0.00     0.000 C 
ENDROOT
BRANCH   1   2
ATOM      2  C   UNL     1      31.566  14.373 -15.891  1.00  0.00     0.000 C 
BRANCH   2   3
ATOM      3  C   UNL     1      30.306  13.490 -15.917  1.00  0.00     0.000 C 
BRANCH   3   4
ATOM      4  C   UNL     1      28.982  14.241 -15.666  1.00  0.00     0.000 C 
BRANCH   4   5
ATOM      5  C   UNL     1      29.057  15.773 -15.828  1.00  0.00     0.000 C 
BRANCH   5   6
ATOM      6  C   UNL     1      28.054  16.369 -16.832  1.00  0.00     0.000 C 
BRANCH   6   7
ATOM      7  C   UNL     1      28.210  17.888 -17.001  1.00  0.00     0.006 C 
BRANCH   7   8
ATOM      8  C   UNL     1      27.684  18.343 -18.365  1.00  0.00     0.053 C 
BRANCH   8   9
ATOM      9  C   UNL     1      26.992  19.664 -18.246  1.00  0.00     0.041 C 
ATOM     10  O   UNL     1      27.106  20.524 -19.158  1.00  0.00    -0.550 OA
ATOM     11  O   UNL     1      26.182  19.928 -17.148  1.00  0.00    -0.550 OA
ENDBRANCH   8   9
ENDBRANCH   7   8
ENDBRANCH   6   7
ENDBRANCH   5   6
ENDBRANCH   4   5
ENDBRANCH   3   4
ENDBRANCH   2   3
ENDBRANCH   1   2
BRANCH   1  12
ATOM     12  C   UNL     1      31.667  13.544 -18.308  1.00  0.00     0.000 C 
BRANCH  12  13
ATOM     13  C   UNL     1      31.591  14.429 -19.565  1.00  0.00    -0.000 C 
BRANCH  13  14
ATOM     14  C   UNL     1      30.499  15.505 -19.464  1.00  0.00    -0.000 C 
BRANCH  14  15
ATOM     15  C   UNL     1      31.012  16.904 -19.845  1.00  0.00    -0.000 C 
BRANCH  15  16
ATOM     16  C   UNL     1      31.377  17.760 -18.621  1.00  0.00    -0.000 C 
BRANCH  16  17
ATOM     17  C   UNL     1      32.792  18.373 -18.698  1.00  0.00    -0.000 C 
BRANCH  17  18
ATOM     18  C   UNL     1      33.685  17.644 -19.718  1.00  0.00    -0.000 C 
BRANCH  18  19
ATOM     19  C   UNL     1      34.612  16.610 -19.060  1.00  0.00    -0.003 C 
ATOM     20  C   UNL     1      34.965  16.964 -17.617  1.00  0.00     0.004 C 
ENDBRANCH  18  19
ENDBRANCH  17  18
ENDBRANCH  16  17
ENDBRANCH  15  16
ENDBRANCH  14  15
ENDBRANCH  13  14
ENDBRANCH  12  13
ENDBRANCH   1  12
TORSDOF 16
ENDMDL
MODEL 3
REMARK VINA RESULT:    -3.740      1.321      4.290
REMARK INTER + INTRA:          -9.275
REMARK INTER:                  -7.377
REMARK INTRA:                  -1.898
REMARK UNBOUND:                -2.038
REMARK SMILES CCCCCCCCCCCCCCCCCC(=O)[O-]
REMARK SMILES IDX 10 1 11 2 12 3 13 4 14 5 15 6 16 7 17 8 18 9 19 10 20 11
REMARK SMILES IDX 9 12 8 13 7 14 6 15 5 16 4 17 3 18 2 19 1 20
REMARK H PARENT
REMARK Flexibility Score: inf
ROOT
ATOM      1  C   UNL     1      29.338  14.993 -15.684  1.00  0.00     0.000 C 
ENDROOT
BRANCH   1   2
ATOM      2  C   UNL     1      28.478  14.976 -16.960  1.00  0.00     0.000 C 
BRANCH   2   3
ATOM      3  C   UNL     1      29.304  15.203 -18.238  1.00  0.00     0.000 C 
BRANCH   3   4
ATOM      4  C   UNL     1      30.367  16.315 -18.135  1.00  0.00     0.000 C 
BRANCH   4   5
ATOM      5  C   UNL     1      29.913  17.704 -18.625  1.00  0.00     0.000 C 
BRANCH   5   6
ATOM      6  C   UNL     1      28.624  18.234 -17.970  1.00  0.00     0.000 C 
BRANCH   6   7
ATOM      7  C   UNL     1      27.625  18.800 -18.989  1.00  0.00     0.006 C 
BRANCH   7   8
ATOM      8  C   UNL     1      26.580  17.750 -19.372  1.00  0.00     0.053 C 
BRANCH   8   9
ATOM      9  C   UNL     1      25.628  17.519 -18.241  1.00  0.00     0.041 C 
ATOM     10  O   UNL     1      25.477  16.364 -17.765  1.00  0.00    -0.550 OA
ATOM     11  O   UNL     1      24.940  18.590 -17.683  1.00  0.00    -0.550 OA
ENDBRANCH   8   9
ENDBRANCH   7   8
ENDBRANCH   6   7
ENDBRANCH   5   6
ENDBRANCH   4   5
ENDBRANCH   3   4
ENDBRANCH   2   3
ENDBRANCH   1   2
BRANCH   1  12
ATOM     12  C   UNL     1      29.616  13.583 -15.143  1.00  0.00     0.000 C 
BRANCH  12  13
ATOM     13  C   UNL     1      30.994  13.048 -15.573  1.00  0.00    -0.000 C 
BRANCH  13  14
ATOM     14  C   UNL     1      32.078  14.138 -15.573  1.00  0.00    -0.000 C 
BRANCH  14  15
ATOM     15  C   UNL     1      33.345  13.711 -16.331  1.00  0.00    -0.000 C 
BRANCH  15  16
ATOM     16  C   UNL     1      34.312  14.879 -16.585  1.00  0.00    -0.000 C 
BRANCH  16  17
ATOM     17  C   UNL     1      34.039  15.630 -17.906  1.00  0.00    -0.000 C 
BRANCH  17  18
ATOM     18  C   UNL     1      34.679  17.029 -17.922  1.00  0.00    -0.000 C 
BRANCH  18  19
ATOM     19  C   UNL     1      33.967  17.995 -18.882  1.00  0.00    -0.003 C 
ATOM     20  C   UNL     1      33.268  19.143 -18.157  1.00  0.00     0.004 C 
ENDBRANCH  18  19
ENDBRANCH  17  18
ENDBRANCH  16  17
ENDBRANCH  15  16
ENDBRANCH  14  15
ENDBRANCH  13  14
ENDBRANCH  12  13
ENDBRANCH   1  12
TORSDOF 16
ENDMDL
MODEL 4
REMARK VINA RESULT:    -3.707      1.997      2.641
REMARK INTER + INTRA:          -9.212
REMARK INTER:                  -6.925
REMARK INTRA:                  -2.287
REMARK UNBOUND:                -2.038
REMARK SMILES CCCCCCCCCCCCCCCCCC(=O)[O-]
REMARK SMILES IDX 10 1 11 2 12 3 13 4 14 5 15 6 16 7 17 8 18 9 19 10 20 11
REMARK SMILES IDX 9 12 8 13 7 14 6 15 5 16 4 17 3 18 2 19 1 20
REMARK H PARENT
REMARK Flexibility Score: inf
ROOT
ATOM      1  C   UNL     1      34.278  17.721 -18.328  1.00  0.00     0.000 C 
ENDROOT
BRANCH   1   2
ATOM      2  C   UNL     1      33.016  18.453 -18.818  1.00  0.00     0.000 C 
BRANCH   2   3
ATOM      3  C   UNL     1      31.724  17.664 -18.540  1.00  0.00     0.000 C 
BRANCH   3   4
ATOM      4  C   UNL     1      30.812  17.461 -19.767  1.00  0.00     0.000 C 
BRANCH   4   5
ATOM      5  C   UNL     1      29.309  17.693 -19.512  1.00  0.00     0.000 C 
BRANCH   5   6
ATOM      6  C   UNL     1      28.961  18.196 -18.099  1.00  0.00     0.000 C 
BRANCH   6   7
ATOM      7  C   UNL     1      27.831  17.391 -17.441  1.00  0.00     0.006 C 
BRANCH   7   8
ATOM      8  C   UNL     1      28.392  16.373 -16.445  1.00  0.00     0.053 C 
BRANCH   8   9
ATOM      9  C   UNL     1      27.473  15.199 -16.320  1.00  0.00     0.041 C 
ATOM     10  O   UNL     1      26.359  15.202 -16.906  1.00  0.00    -0.550 OA
ATOM     11  O   UNL     1      27.867  14.082 -15.594  1.00  0.00    -0.550 OA
ENDBRANCH   8   9
ENDBRANCH   7   8
ENDBRANCH   6   7
ENDBRANCH   5   6
ENDBRANCH   4   5
ENDBRANCH   3   4
ENDBRANCH   2   3
ENDBRANCH   1   2
BRANCH   1  12
ATOM     12  C   UNL     1      34.649  16.526 -19.217  1.00  0.00     0.000 C 
BRANCH  12  13
ATOM     13  C   UNL     1      34.399  15.174 -18.524  1.00  0.00    -0.000 C 
BRANCH  13  14
ATOM     14  C   UNL     1      34.565  15.253 -16.998  1.00  0.00    -0.000 C 
BRANCH  14  15
ATOM     15  C   UNL     1      34.854  13.883 -16.365  1.00  0.00    -0.000 C 
BRANCH  15  16
ATOM     16  C   UNL     1      33.576  13.078 -16.073  1.00  0.00    -0.000 C 
BRANCH  16  17
ATOM     17  C   UNL     1      32.336  13.961 -15.817  1.00  0.00    -0.000 C 
BRANCH  17  18
ATOM     18  C   UNL     1      31.092  13.445 -16.561  1.00  0.00    -0.000 C 
BRANCH  18  19
ATOM     19  C   UNL     1      30.892  14.126 -17.924  1.00  0.00    -0.003 C 
ATOM     20  C   UNL     1      31.301  13.236 -19.096  1.00  0.00     0.004 C 
ENDBRANCH  18  19
ENDBRANCH  17  18
ENDBRANCH  16  17
ENDBRANCH  15  16
ENDBRANCH  14  15
ENDBRANCH  13  14
ENDBRANCH  12  13
ENDBRANCH   1  12
TORSDOF 16
ENDMDL
MODEL 5
REMARK VINA RESULT:    -3.655      2.482      6.478
REMARK INTER + INTRA:          -9.112
REMARK INTER:                  -7.438
REMARK INTRA:                  -1.674
REMARK UNBOUND:                -2.038
REMARK SMILES CCCCCCCCCCCCCCCCCC(=O)[O-]
REMARK SMILES IDX 10 1 11 2 12 3 13 4 14 5 15 6 16 7 17 8 18 9 19 10 20 11
REMARK SMILES IDX 9 12 8 13 7 14 6 15 5 16 4 17 3 18 2 19 1 20
REMARK H PARENT
REMARK Flexibility Score: inf
ROOT
ATOM      1  C   UNL     1      29.066  15.316 -15.532  1.00  0.00     0.000 C 
ENDROOT
BRANCH   1   2
ATOM      2  C   UNL     1      29.886  14.340 -16.394  1.00  0.00     0.000 C 
BRANCH   2   3
ATOM      3  C   UNL     1      31.263  14.022 -15.787  1.00  0.00     0.000 C 
BRANCH   3   4
ATOM      4  C   UNL     1      32.423  13.970 -16.803  1.00  0.00     0.000 C 
BRANCH   4   5
ATOM      5  C   UNL     1      33.836  14.003 -16.186  1.00  0.00     0.000 C 
BRANCH   5   6
ATOM      6  C   UNL     1      34.705  15.198 -16.619  1.00  0.00     0.000 C 
BRANCH   6   7
ATOM      7  C   UNL     1      34.221  15.847 -17.924  1.00  0.00     0.006 C 
BRANCH   7   8
ATOM      8  C   UNL     1      34.655  17.312 -18.001  1.00  0.00     0.053 C 
BRANCH   8   9
ATOM      9  C   UNL     1      33.577  18.149 -18.613  1.00  0.00     0.041 C 
ATOM     10  O   UNL     1      33.314  19.287 -18.144  1.00  0.00    -0.550 OA
ATOM     11  O   UNL     1      32.892  17.690 -19.732  1.00  0.00    -0.550 OA
ENDBRANCH   8   9
ENDBRANCH   7   8
ENDBRANCH   6   7
ENDBRANCH   5   6
ENDBRANCH   4   5
ENDBRANCH   3   4
ENDBRANCH   2   3
ENDBRANCH   1   2
BRANCH   1  12
ATOM     12  C   UNL     1      28.463  16.465 -16.353  1.00  0.00     0.000 C 
BRANCH  12  13
ATOM     13  C   UNL     1      29.082  16.572 -17.759  1.00  0.00    -0.000 C 
BRANCH  13  14
ATOM     14  C   UNL     1      29.028  18.002 -18.321  1.00  0.00    -0.000 C 
BRANCH  14  15
ATOM     15  C   UNL     1      28.093  18.918 -17.514  1.00  0.00    -0.000 C 
BRANCH  15  16
ATOM     16  C   UNL     1      27.058  19.639 -18.393  1.00  0.00    -0.000 C 
BRANCH  16  17
ATOM     17  C   UNL     1      26.225  18.683 -19.274  1.00  0.00    -0.000 C 
BRANCH  17  18
ATOM     18  C   UNL     1      25.427  17.670 -18.435  1.00  0.00    -0.000 C 
BRANCH  18  19
ATOM     19  C   UNL     1      25.485  16.247 -19.014  1.00  0.00    -0.003 C 
ATOM     20  C   UNL     1      25.416  15.166 -17.937  1.00  0.00     0.004 C 
ENDBRANCH  18  19
ENDBRANCH  17  18
ENDBRANCH  16  17
ENDBRANCH  15  16
ENDBRANCH  14  15
ENDBRANCH  13  14
ENDBRANCH  12  13
ENDBRANCH   1  12
TORSDOF 16
ENDMDL
MODEL 6
REMARK VINA RESULT:    -3.654      1.929      4.807
REMARK INTER + INTRA:          -9.110
REMARK INTER:                  -7.279
REMARK INTRA:                  -1.831
REMARK UNBOUND:                -2.038
REMARK SMILES CCCCCCCCCCCCCCCCCC(=O)[O-]
REMARK SMILES IDX 10 1 11 2 12 3 13 4 14 5 15 6 16 7 17 8 18 9 19 10 20 11
REMARK SMILES IDX 9 12 8 13 7 14 6 15 5 16 4 17 3 18 2 19 1 20
REMARK H PARENT
REMARK Flexibility Score: inf
ROOT
ATOM      1  C   UNL     1      34.248  17.783 -18.246  1.00  0.00     0.000 C 
ENDROOT
BRANCH   1   2
ATOM      2  C   UNL     1      34.887  16.630 -17.452  1.00  0.00     0.000 C 
BRANCH   2   3
ATOM      3  C   UNL     1      34.087  15.319 -17.556  1.00  0.00     0.000 C 
BRANCH   3   4
ATOM      4  C   UNL     1      34.110  14.444 -16.286  1.00  0.00     0.000 C 
BRANCH   4   5
ATOM      5  C   UNL     1      32.772  13.759 -15.939  1.00  0.00     0.000 C 
BRANCH   5   6
ATOM      6  C   UNL     1      31.516  14.500 -16.434  1.00  0.00     0.000 C 
BRANCH   6   7
ATOM      7  C   UNL     1      30.272  14.198 -15.587  1.00  0.00     0.006 C 
BRANCH   7   8
ATOM      8  C   UNL     1      29.273  15.356 -15.649  1.00  0.00     0.053 C 
BRANCH   8   9
ATOM      9  C   UNL     1      27.977  14.901 -16.242  1.00  0.00     0.041 C 
ATOM     10  O   UNL     1      27.877  14.721 -17.483  1.00  0.00    -0.550 OA
ATOM     11  O   UNL     1      26.892  14.630 -15.416  1.00  0.00    -0.550 OA
ENDBRANCH   8   9
ENDBRANCH   7   8
ENDBRANCH   6   7
ENDBRANCH   5   6
ENDBRANCH   4   5
ENDBRANCH   3   4
ENDBRANCH   2   3
ENDBRANCH   1   2
BRANCH   1  12
ATOM     12  C   UNL     1      33.898  17.383 -19.687  1.00  0.00     0.000 C 
BRANCH  12  13
ATOM     13  C   UNL     1      32.408  17.593 -20.012  1.00  0.00    -0.000 C 
BRANCH  13  14
ATOM     14  C   UNL     1      31.545  17.754 -18.751  1.00  0.00    -0.000 C 
BRANCH  14  15
ATOM     15  C   UNL     1      30.251  16.926 -18.811  1.00  0.00    -0.000 C 
BRANCH  15  16
ATOM     16  C   UNL     1      28.997  17.792 -19.014  1.00  0.00    -0.000 C 
BRANCH  16  17
ATOM     17  C   UNL     1      28.461  18.417 -17.708  1.00  0.00    -0.000 C 
BRANCH  17  18
ATOM     18  C   UNL     1      26.993  18.861 -17.837  1.00  0.00    -0.000 C 
BRANCH  18  19
ATOM     19  C   UNL     1      26.053  17.700 -18.195  1.00  0.00    -0.003 C 
ATOM     20  C   UNL     1      24.582  18.111 -18.208  1.00  0.00     0.004 C 
ENDBRANCH  18  19
ENDBRANCH  17  18
ENDBRANCH  16  17
ENDBRANCH  15  16
ENDBRANCH  14  15
ENDBRANCH  13  14
ENDBRANCH  12  13
ENDBRANCH   1  12
TORSDOF 16
ENDMDL
MODEL 7
REMARK VINA RESULT:    -3.649      1.714      4.270
REMARK INTER + INTRA:          -9.100
REMARK INTER:                  -6.706
REMARK INTRA:                  -2.394
REMARK UNBOUND:                -2.038
REMARK SMILES CCCCCCCCCCCCCCCCCC(=O)[O-]
REMARK SMILES IDX 10 1 11 2 12 3 13 4 14 5 15 6 16 7 17 8 18 9 19 10 20 11
REMARK SMILES IDX 9 12 8 13 7 14 6 15 5 16 4 17 3 18 2 19 1 20
REMARK H PARENT
REMARK Flexibility Score: inf
ROOT
ATOM      1  C   UNL     1      31.019  15.489 -18.071  1.00  0.00     0.000 C 
ENDROOT
BRANCH   1   2
ATOM      2  C   UNL     1      29.830  15.341 -17.105  1.00  0.00     0.000 C 
BRANCH   2   3
ATOM      3  C   UNL     1      28.552  16.023 -17.624  1.00  0.00     0.000 C 
BRANCH   3   4
ATOM      4  C   UNL     1      28.159  17.315 -16.879  1.00  0.00     0.000 C 
BRANCH   4   5
ATOM      5  C   UNL     1      28.494  18.626 -17.619  1.00  0.00     0.000 C 
BRANCH   5   6
ATOM      6  C   UNL     1      27.793  18.801 -18.978  1.00  0.00     0.000 C 
BRANCH   6   7
ATOM      7  C   UNL     1      26.330  19.248 -18.842  1.00  0.00     0.006 C 
BRANCH   7   8
ATOM      8  C   UNL     1      25.376  18.158 -19.336  1.00  0.00     0.053 C 
BRANCH   8   9
ATOM      9  C   UNL     1      24.640  17.544 -18.188  1.00  0.00     0.041 C 
ATOM     10  O   UNL     1      24.911  16.373 -17.815  1.00  0.00    -0.550 OA
ATOM     11  O   UNL     1      23.686  18.283 -17.498  1.00  0.00    -0.550 OA
ENDBRANCH   8   9
ENDBRANCH   7   8
ENDBRANCH   6   7
ENDBRANCH   5   6
ENDBRANCH   4   5
ENDBRANCH   3   4
ENDBRANCH   2   3
ENDBRANCH   1   2
BRANCH   1  12
ATOM     12  C   UNL     1      30.595  16.006 -19.453  1.00  0.00     0.000 C 
BRANCH  12  13
ATOM     13  C   UNL     1      31.371  17.267 -19.876  1.00  0.00    -0.000 C 
BRANCH  13  14
ATOM     14  C   UNL     1      31.874  18.081 -18.673  1.00  0.00    -0.000 C 
BRANCH  14  15
ATOM     15  C   UNL     1      33.396  18.292 -18.698  1.00  0.00    -0.000 C 
BRANCH  15  16
ATOM     16  C   UNL     1      34.117  17.330 -19.658  1.00  0.00    -0.000 C 
BRANCH  16  17
ATOM     17  C   UNL     1      34.658  16.061 -18.966  1.00  0.00    -0.000 C 
BRANCH  17  18
ATOM     18  C   UNL     1      34.710  16.211 -17.435  1.00  0.00    -0.000 C 
BRANCH  18  19
ATOM     19  C   UNL     1      34.423  14.892 -16.701  1.00  0.00    -0.003 C 
ATOM     20  C   UNL     1      34.804  13.662 -17.523  1.00  0.00     0.004 C 
ENDBRANCH  18  19
ENDBRANCH  17  18
ENDBRANCH  16  17
ENDBRANCH  15  16
ENDBRANCH  14  15
ENDBRANCH  13  14
ENDBRANCH  12  13
ENDBRANCH   1  12
TORSDOF 16
ENDMDL
MODEL 8
REMARK VINA RESULT:    -3.633      1.331      3.777
REMARK INTER + INTRA:          -9.069
REMARK INTER:                  -6.470
REMARK INTRA:                  -2.599
REMARK UNBOUND:                -2.038
REMARK SMILES CCCCCCCCCCCCCCCCCC(=O)[O-]
REMARK SMILES IDX 10 1 11 2 12 3 13 4 14 5 15 6 16 7 17 8 18 9 19 10 20 11
REMARK SMILES IDX 9 12 8 13 7 14 6 15 5 16 4 17 3 18 2 19 1 20
REMARK H PARENT
REMARK Flexibility Score: inf
ROOT
ATOM      1  C   UNL     1      33.212  14.382 -16.023  1.00  0.00     0.000 C 
ENDROOT
BRANCH   1   2
ATOM      2  C   UNL     1      32.358  13.111 -16.177  1.00  0.00     0.000 C 
BRANCH   2   3
ATOM      3  C   UNL     1      30.852  13.412 -16.260  1.00  0.00     0.000 C 
BRANCH   3   4
ATOM      4  C   UNL     1      30.500  14.865 -16.639  1.00  0.00     0.000 C 
BRANCH   4   5
ATOM      5  C   UNL     1      29.580  15.017 -17.867  1.00  0.00     0.000 C 
BRANCH   5   6
ATOM      6  C   UNL     1      29.155  16.463 -18.182  1.00  0.00     0.000 C 
BRANCH   6   7
ATOM      7  C   UNL     1      28.240  17.064 -17.106  1.00  0.00     0.006 C 
BRANCH   7   8
ATOM      8  C   UNL     1      28.268  18.594 -17.155  1.00  0.00     0.053 C 
BRANCH   8   9
ATOM      9  C   UNL     1      27.136  19.113 -17.984  1.00  0.00     0.041 C 
ATOM     10  O   UNL     1      27.313  20.091 -18.757  1.00  0.00    -0.550 OA
ATOM     11  O   UNL     1      25.895  18.488 -17.937  1.00  0.00    -0.550 OA
ENDBRANCH   8   9
ENDBRANCH   7   8
ENDBRANCH   6   7
ENDBRANCH   5   6
ENDBRANCH   4   5
ENDBRANCH   3   4
ENDBRANCH   2   3
ENDBRANCH   1   2
BRANCH   1  12
ATOM     12  C   UNL     1      34.663  14.175 -16.480  1.00  0.00     0.000 C 
BRANCH  12  13
ATOM     13  C   UNL     1      34.795  13.069 -17.543  1.00  0.00    -0.000 C 
BRANCH  13  14
ATOM     14  C   UNL     1      34.766  13.622 -18.977  1.00  0.00    -0.000 C 
BRANCH  14  15
ATOM     15  C   UNL     1      33.412  13.395 -19.669  1.00  0.00    -0.000 C 
BRANCH  15  16
ATOM     16  C   UNL     1      32.612  14.695 -19.857  1.00  0.00    -0.000 C 
BRANCH  16  17
ATOM     17  C   UNL     1      33.459  15.972 -19.674  1.00  0.00    -0.000 C 
BRANCH  17  18
ATOM     18  C   UNL     1      32.666  17.102 -18.994  1.00  0.00    -0.000 C 
BRANCH  18  19
ATOM     19  C   UNL     1      33.576  18.143 -18.324  1.00  0.00    -0.003 C 
ATOM     20  C   UNL     1      34.908  17.556 -17.861  1.00  0.00     0.004 C 
ENDBRANCH  18  19
ENDBRANCH  17  18
ENDBRANCH  16  17
ENDBRANCH  15  16
ENDBRANCH  14  15
ENDBRANCH  13  14
ENDBRANCH  12  13
ENDBRANCH   1  12
TORSDOF 16
ENDMDL
MODEL 9
REMARK VINA RESULT:    -3.578      1.055      3.902
REMARK INTER + INTRA:          -8.963
REMARK INTER:                  -7.005
REMARK INTRA:                  -1.958
REMARK UNBOUND:                -2.038
REMARK SMILES CCCCCCCCCCCCCCCCCC(=O)[O-]
REMARK SMILES IDX 10 1 11 2 12 3 13 4 14 5 15 6 16 7 17 8 18 9 19 10 20 11
REMARK SMILES IDX 9 12 8 13 7 14 6 15 5 16 4 17 3 18 2 19 1 20
REMARK H PARENT
REMARK Flexibility Score: inf
ROOT
ATOM      1  C   UNL     1      32.128  14.406 -16.336  1.00  0.00     0.000 C 
ENDROOT
BRANCH   1   2
ATOM      2  C   UNL     1      31.012  13.855 -15.432  1.00  0.00     0.000 C 
BRANCH   2   3
ATOM      3  C   UNL     1      29.692  13.624 -16.188  1.00  0.00     0.000 C 
BRANCH   3   4
ATOM      4  C   UNL     1      29.624  14.271 -17.586  1.00  0.00     0.000 C 
BRANCH   4   5
ATOM      5  C   UNL     1      28.508  15.320 -17.769  1.00  0.00     0.000 C 
BRANCH   5   6
ATOM      6  C   UNL     1      28.323  16.283 -16.582  1.00  0.00     0.000 C 
BRANCH   6   7
ATOM      7  C   UNL     1      28.294  17.758 -17.010  1.00  0.00     0.006 C 
BRANCH   7   8
ATOM      8  C   UNL     1      27.082  18.046 -17.900  1.00  0.00     0.053 C 
BRANCH   8   9
ATOM      9  C   UNL     1      26.854  19.520 -18.016  1.00  0.00     0.041 C 
ATOM     10  O   UNL     1      26.312  20.153 -17.073  1.00  0.00    -0.550 OA
ATOM     11  O   UNL     1      27.283  20.203 -19.148  1.00  0.00    -0.550 OA
ENDBRANCH   8   9
ENDBRANCH   7   8
ENDBRANCH   6   7
ENDBRANCH   5   6
ENDBRANCH   4   5
ENDBRANCH   3   4
ENDBRANCH   2   3
ENDBRANCH   1   2
BRANCH   1  12
ATOM     12  C   UNL     1      33.510  13.837 -15.980  1.00  0.00     0.000 C 
BRANCH  12  13
ATOM     13  C   UNL     1      34.613  14.328 -16.935  1.00  0.00    -0.000 C 
BRANCH  13  14
ATOM     14  C   UNL     1      34.102  14.545 -18.367  1.00  0.00    -0.000 C 
BRANCH  14  15
ATOM     15  C   UNL     1      34.557  15.888 -18.960  1.00  0.00    -0.000 C 
BRANCH  15  16
ATOM     16  C   UNL     1      34.769  16.972 -17.889  1.00  0.00    -0.000 C 
BRANCH  16  17
ATOM     17  C   UNL     1      34.020  18.288 -18.190  1.00  0.00    -0.000 C 
BRANCH  17  18
ATOM     18  C   UNL     1      33.016  18.134 -19.345  1.00  0.00    -0.000 C 
BRANCH  18  19
ATOM     19  C   UNL     1      31.606  17.764 -18.858  1.00  0.00    -0.003 C 
ATOM     20  C   UNL     1      30.851  16.877 -19.846  1.00  0.00     0.004 C 
ENDBRANCH  18  19
ENDBRANCH  17  18
ENDBRANCH  16  17
ENDBRANCH  15  16
ENDBRANCH  14  15
ENDBRANCH  13  14
ENDBRANCH  12  13
ENDBRANCH   1  12
TORSDOF 16
ENDMDL
