MODEL 1
REMARK VINA RESULT:    -4.321      0.000      0.000
REMARK INTER + INTRA:          -6.523
REMARK INTER:                  -6.595
REMARK INTRA:                   0.071
REMARK UNBOUND:                 0.071
REMARK SMILES CC1=CCC[C@@H](C)C(=O)C[C@@H](C(C)C)C(=O)C1
REMARK SMILES IDX 8 1 9 2 6 3 7 4 5 5 4 6 3 7 2 8 1 9 10 11 11 12 15 13 16 14
REMARK SMILES IDX 17 15 12 17 13 18 14 19
REMARK H PARENT
REMARK Flexibility Score: 70.00
ROOT
ATOM      1  C   UNL     1      15.683 -30.263  22.648  1.00  0.00     0.136 C 
ATOM      2  O   UNL     1      15.738 -29.135  23.117  1.00  0.00    -0.299 OA
ENDROOT
BRANCH   1   3
ATOM      3  C   UNL     1      14.346 -30.798  22.116  1.00  0.00     0.053 C 
ATOM      4  C   UNL     1      13.184 -30.372  23.033  1.00  0.00     0.016 C 
BRANCH   3   5
ATOM      5  C   UNL     1      14.319 -32.347  21.946  1.00  0.00     0.015 C 
BRANCH   5   6
ATOM      6  C   UNL     1      14.277 -32.881  20.496  1.00  0.00     0.028 C 
BRANCH   6   7
ATOM      7  C   UNL     1      14.933 -34.235  20.353  1.00  0.00    -0.028 C 
ATOM      8  C   UNL     1      16.205 -34.442  19.934  1.00  0.00    -0.070 CG0
ATOM      9  C   UNL     1      16.677 -35.865  19.776  1.00  0.00     0.039 C 
ATOM     10  G   UNL     1      17.175 -33.308  19.638  1.00  0.00     0.000 G0
ENDBRANCH   6   7
ENDBRANCH   5   6
ENDBRANCH   3   5
ENDBRANCH   1   3
BRANCH   1  11
ATOM     11  C   UNL     1      16.963 -31.071  22.616  1.00  0.00     0.087 C 
BRANCH  11  12
ATOM     12  C   UNL     1      17.603 -31.173  21.200  1.00  0.00     0.066 C 
BRANCH  12  13
ATOM     13  C   UNL     1      17.831 -32.634  20.830  1.00  0.00     0.140 C 
ATOM     14  O   UNL     1      18.533 -33.324  21.555  1.00  0.00    -0.299 OA
BRANCH  13  15
ATOM     15  C   UNL     1      17.191 -33.311  19.632  1.00  0.00     0.106 CG0
ATOM     16  G   UNL     1      16.229 -34.445  19.952  1.00  0.00     0.000 G0
ENDBRANCH  13  15
ENDBRANCH  12  13
BRANCH  12  17
ATOM     17  C   UNL     1      18.883 -30.292  21.046  1.00  0.00    -0.006 C 
ATOM     18  C   UNL     1      18.609 -28.785  20.875  1.00  0.00     0.008 C 
ATOM     19  C   UNL     1      19.844 -30.510  22.226  1.00  0.00     0.008 C 
ENDBRANCH  12  17
ENDBRANCH  11  12
ENDBRANCH   1  11
TORSDOF 1
ENDMDL
MODEL 2
REMARK VINA RESULT:    -4.301      2.419      5.227
REMARK INTER + INTRA:          -6.493
REMARK INTER:                  -6.290
REMARK INTRA:                  -0.204
REMARK UNBOUND:                 0.071
REMARK SMILES CC1=CCC[C@@H](C)C(=O)C[C@@H](C(C)C)C(=O)C1
REMARK SMILES IDX 8 1 9 2 6 3 7 4 5 5 4 6 3 7 2 8 1 9 10 11 11 12 15 13 16 14
REMARK SMILES IDX 17 15 12 17 13 18 14 19
REMARK H PARENT
REMARK Flexibility Score: 70.00
ROOT
ATOM      1  C   UNL     1      16.364 -34.070  21.342  1.00  0.00     0.136 C 
ATOM      2  O   UNL     1      16.805 -35.096  21.842  1.00  0.00    -0.299 OA
ENDROOT
BRANCH   1   3
ATOM      3  C   UNL     1      17.197 -33.319  20.296  1.00  0.00     0.053 C 
ATOM      4  C   UNL     1      17.267 -34.116  18.979  1.00  0.00     0.016 C 
BRANCH   3   5
ATOM      5  C   UNL     1      18.645 -32.993  20.771  1.00  0.00     0.015 C 
BRANCH   5   6
ATOM      6  C   UNL     1      18.821 -31.712  21.618  1.00  0.00     0.028 C 
BRANCH   6   7
ATOM      7  C   UNL     1      19.141 -32.008  23.066  1.00  0.00    -0.028 C 
ATOM      8  C   UNL     1      18.325 -31.735  24.113  1.00  0.00    -0.070 CG0
ATOM      9  C   UNL     1      18.834 -32.028  25.502  1.00  0.00     0.039 C 
ATOM     10  G   UNL     1      16.924 -31.168  23.947  1.00  0.00     0.000 G0
ENDBRANCH   6   7
ENDBRANCH   5   6
ENDBRANCH   3   5
ENDBRANCH   1   3
BRANCH   1  11
ATOM     11  C   UNL     1      14.995 -33.606  21.793  1.00  0.00     0.087 C 
BRANCH  11  12
ATOM     12  C   UNL     1      14.992 -32.177  22.414  1.00  0.00     0.066 C 
BRANCH  12  13
ATOM     13  C   UNL     1      15.815 -32.159  23.697  1.00  0.00     0.140 C 
ATOM     14  O   UNL     1      15.612 -33.021  24.540  1.00  0.00    -0.299 OA
BRANCH  13  15
ATOM     15  C   UNL     1      16.922 -31.160  23.976  1.00  0.00     0.106 CG0
ATOM     16  G   UNL     1      18.319 -31.746  24.117  1.00  0.00     0.000 G0
ENDBRANCH  13  15
ENDBRANCH  12  13
BRANCH  12  17
ATOM     17  C   UNL     1      13.554 -31.597  22.595  1.00  0.00    -0.006 C 
ATOM     18  C   UNL     1      13.463 -30.395  23.556  1.00  0.00     0.008 C 
ATOM     19  C   UNL     1      12.940 -31.218  21.238  1.00  0.00     0.008 C 
ENDBRANCH  12  17
ENDBRANCH  11  12
ENDBRANCH   1  11
TORSDOF 1
ENDMDL
MODEL 3
REMARK VINA RESULT:    -4.299      2.053      4.814
REMARK INTER + INTRA:          -6.490
REMARK INTER:                  -6.381
REMARK INTRA:                  -0.109
REMARK UNBOUND:                 0.071
REMARK SMILES CC1=CCC[C@@H](C)C(=O)C[C@@H](C(C)C)C(=O)C1
REMARK SMILES IDX 8 1 9 2 6 3 7 4 5 5 4 6 3 7 2 8 1 9 10 11 11 12 15 13 16 14
REMARK SMILES IDX 17 15 12 17 13 18 14 19
REMARK H PARENT
REMARK Flexibility Score: 70.00
ROOT
ATOM      1  C   UNL     1      15.601 -33.986  21.301  1.00  0.00     0.136 C 
ATOM      2  O   UNL     1      14.752 -33.868  20.428  1.00  0.00    -0.299 OA
ENDROOT
BRANCH   1   3
ATOM      3  C   UNL     1      16.847 -34.842  21.034  1.00  0.00     0.053 C 
ATOM      4  C   UNL     1      17.570 -35.180  22.352  1.00  0.00     0.016 C 
BRANCH   3   5
ATOM      5  C   UNL     1      17.860 -34.177  20.054  1.00  0.00     0.015 C 
BRANCH   5   6
ATOM      6  C   UNL     1      17.924 -32.633  20.071  1.00  0.00     0.028 C 
BRANCH   6   7
ATOM      7  C   UNL     1      19.020 -32.103  20.967  1.00  0.00    -0.028 C 
ATOM      8  C   UNL     1      18.884 -31.071  21.834  1.00  0.00    -0.070 CG0
ATOM      9  C   UNL     1      20.103 -30.622  22.599  1.00  0.00     0.039 C 
ATOM     10  G   UNL     1      17.560 -30.363  22.079  1.00  0.00     0.000 G0
ENDBRANCH   6   7
ENDBRANCH   5   6
ENDBRANCH   3   5
ENDBRANCH   1   3
BRANCH   1  11
ATOM     11  C   UNL     1      15.365 -33.261  22.609  1.00  0.00     0.087 C 
BRANCH  11  12
ATOM     12  C   UNL     1      15.286 -31.713  22.460  1.00  0.00     0.066 C 
BRANCH  12  13
ATOM     13  C   UNL     1      16.571 -31.068  22.968  1.00  0.00     0.140 C 
ATOM     14  O   UNL     1      16.850 -31.165  24.154  1.00  0.00    -0.299 OA
BRANCH  13  15
ATOM     15  C   UNL     1      17.566 -30.353  22.074  1.00  0.00     0.106 CG0
ATOM     16  G   UNL     1      18.876 -31.085  21.828  1.00  0.00     0.000 G0
ENDBRANCH  13  15
ENDBRANCH  12  13
BRANCH  12  17
ATOM     17  C   UNL     1      13.998 -31.106  23.100  1.00  0.00    -0.006 C 
ATOM     18  C   UNL     1      12.825 -30.908  22.120  1.00  0.00     0.008 C 
ATOM     19  C   UNL     1      13.531 -31.949  24.298  1.00  0.00     0.008 C 
ENDBRANCH  12  17
ENDBRANCH  11  12
ENDBRANCH   1  11
TORSDOF 1
ENDMDL
MODEL 4
REMARK VINA RESULT:    -4.212      2.823      5.326
REMARK INTER + INTRA:          -6.357
REMARK INTER:                  -5.959
REMARK INTRA:                  -0.398
REMARK UNBOUND:                 0.071
REMARK SMILES CC1=CCC[C@@H](C)C(=O)C[C@@H](C(C)C)C(=O)C1
REMARK SMILES IDX 8 1 9 2 6 3 7 4 5 5 4 6 3 7 2 8 1 9 10 11 11 12 15 13 16 14
REMARK SMILES IDX 17 15 12 17 13 18 14 19
REMARK H PARENT
REMARK Flexibility Score: 70.00
ROOT
ATOM      1  C   UNL     1      18.402 -34.883  22.715  1.00  0.00     0.136 C 
ATOM      2  O   UNL     1      19.276 -34.856  21.859  1.00  0.00    -0.299 OA
ENDROOT
BRANCH   1   3
ATOM      3  C   UNL     1      18.793 -34.819  24.198  1.00  0.00     0.053 C 
ATOM      4  C   UNL     1      17.777 -35.587  25.064  1.00  0.00     0.016 C 
BRANCH   3   5
ATOM      5  C   UNL     1      18.931 -33.365  24.742  1.00  0.00     0.015 C 
BRANCH   5   6
ATOM      6  C   UNL     1      17.634 -32.692  25.247  1.00  0.00     0.028 C 
BRANCH   6   7
ATOM      7  C   UNL     1      17.286 -31.441  24.473  1.00  0.00    -0.028 C 
ATOM      8  C   UNL     1      16.297 -31.347  23.551  1.00  0.00    -0.070 CG0
ATOM      9  C   UNL     1      16.135 -30.041  22.816  1.00  0.00     0.039 C 
ATOM     10  G   UNL     1      15.341 -32.489  23.243  1.00  0.00     0.000 G0
ENDBRANCH   6   7
ENDBRANCH   5   6
ENDBRANCH   3   5
ENDBRANCH   1   3
BRANCH   1  11
ATOM     11  C   UNL     1      16.966 -34.972  22.245  1.00  0.00     0.087 C 
BRANCH  11  12
ATOM     12  C   UNL     1      16.562 -33.844  21.250  1.00  0.00     0.066 C 
BRANCH  12  13
ATOM     13  C   UNL     1      15.391 -33.043  21.809  1.00  0.00     0.140 C 
ATOM     14  O   UNL     1      14.415 -32.852  21.099  1.00  0.00    -0.299 OA
BRANCH  13  15
ATOM     15  C   UNL     1      15.337 -32.507  23.227  1.00  0.00     0.106 CG0
ATOM     16  G   UNL     1      16.283 -31.356  23.534  1.00  0.00     0.000 G0
ENDBRANCH  13  15
ENDBRANCH  12  13
BRANCH  12  17
ATOM     17  C   UNL     1      16.312 -34.373  19.802  1.00  0.00    -0.006 C 
ATOM     18  C   UNL     1      17.366 -33.935  18.767  1.00  0.00     0.008 C 
ATOM     19  C   UNL     1      16.185 -35.905  19.792  1.00  0.00     0.008 C 
ENDBRANCH  12  17
ENDBRANCH  11  12
ENDBRANCH   1  11
TORSDOF 1
ENDMDL
MODEL 5
REMARK VINA RESULT:    -4.170      2.628      5.082
REMARK INTER + INTRA:          -6.292
REMARK INTER:                  -6.209
REMARK INTRA:                  -0.084
REMARK UNBOUND:                 0.071
REMARK SMILES CC1=CCC[C@@H](C)C(=O)C[C@@H](C(C)C)C(=O)C1
REMARK SMILES IDX 8 1 9 2 6 3 7 4 5 5 4 6 3 7 2 8 1 9 10 11 11 12 15 13 16 14
REMARK SMILES IDX 17 15 12 17 13 18 14 19
REMARK H PARENT
REMARK Flexibility Score: 70.00
ROOT
ATOM      1  C   UNL     1      15.904 -34.158  20.800  1.00  0.00     0.136 C 
ATOM      2  O   UNL     1      15.248 -34.611  19.872  1.00  0.00    -0.299 OA
ENDROOT
BRANCH   1   3
ATOM      3  C   UNL     1      17.435 -34.253  20.763  1.00  0.00     0.053 C 
ATOM      4  C   UNL     1      17.945 -34.285  19.309  1.00  0.00     0.016 C 
BRANCH   3   5
ATOM      5  C   UNL     1      18.001 -35.487  21.528  1.00  0.00     0.015 C 
BRANCH   5   6
ATOM      6  C   UNL     1      17.920 -35.438  23.071  1.00  0.00     0.028 C 
BRANCH   6   7
ATOM      7  C   UNL     1      18.769 -34.338  23.666  1.00  0.00    -0.028 C 
ATOM      8  C   UNL     1      18.292 -33.167  24.155  1.00  0.00    -0.070 CG0
ATOM      9  C   UNL     1      19.288 -32.145  24.644  1.00  0.00     0.039 C 
ATOM     10  G   UNL     1      16.807 -32.851  24.249  1.00  0.00     0.000 G0
ENDBRANCH   6   7
ENDBRANCH   5   6
ENDBRANCH   3   5
ENDBRANCH   1   3
BRANCH   1  11
ATOM     11  C   UNL     1      15.146 -33.516  21.943  1.00  0.00     0.087 C 
BRANCH  11  12
ATOM     12  C   UNL     1      15.427 -31.993  22.102  1.00  0.00     0.066 C 
BRANCH  12  13
ATOM     13  C   UNL     1      16.301 -31.743  23.326  1.00  0.00     0.140 C 
ATOM     14  O   UNL     1      16.591 -30.593  23.620  1.00  0.00    -0.299 OA
BRANCH  13  15
ATOM     15  C   UNL     1      16.797 -32.843  24.247  1.00  0.00     0.106 CG0
ATOM     16  G   UNL     1      18.277 -33.175  24.139  1.00  0.00     0.000 G0
ENDBRANCH  13  15
ENDBRANCH  12  13
BRANCH  12  17
ATOM     17  C   UNL     1      14.126 -31.130  22.088  1.00  0.00    -0.006 C 
ATOM     18  C   UNL     1      13.199 -31.384  20.884  1.00  0.00     0.008 C 
ATOM     19  C   UNL     1      13.335 -31.309  23.394  1.00  0.00     0.008 C 
ENDBRANCH  12  17
ENDBRANCH  11  12
ENDBRANCH   1  11
TORSDOF 1
ENDMDL
MODEL 6
REMARK VINA RESULT:    -4.143      2.407      3.629
REMARK INTER + INTRA:          -6.252
REMARK INTER:                  -6.312
REMARK INTRA:                   0.060
REMARK UNBOUND:                 0.071
REMARK SMILES CC1=CCC[C@@H](C)C(=O)C[C@@H](C(C)C)C(=O)C1
REMARK SMILES IDX 8 1 9 2 6 3 7 4 5 5 4 6 3 7 2 8 1 9 10 11 11 12 15 13 16 14
REMARK SMILES IDX 17 15 12 17 13 18 14 19
REMARK H PARENT
REMARK Flexibility Score: 70.00
ROOT
ATOM      1  C   UNL     1      16.050 -33.509  23.878  1.00  0.00     0.136 C 
ATOM      2  O   UNL     1      14.874 -33.632  24.192  1.00  0.00    -0.299 OA
ENDROOT
BRANCH   1   3
ATOM      3  C   UNL     1      17.014 -34.686  24.079  1.00  0.00     0.053 C 
ATOM      4  C   UNL     1      17.028 -35.135  25.553  1.00  0.00     0.016 C 
BRANCH   3   5
ATOM      5  C   UNL     1      18.473 -34.380  23.626  1.00  0.00     0.015 C 
BRANCH   5   6
ATOM      6  C   UNL     1      18.905 -34.954  22.258  1.00  0.00     0.028 C 
BRANCH   6   7
ATOM      7  C   UNL     1      17.731 -35.313  21.377  1.00  0.00    -0.028 C 
ATOM      8  C   UNL     1      17.193 -34.506  20.431  1.00  0.00    -0.070 CG0
ATOM      9  C   UNL     1      15.972 -34.994  19.693  1.00  0.00     0.039 C 
ATOM     10  G   UNL     1      17.776 -33.148  20.071  1.00  0.00     0.000 G0
ENDBRANCH   6   7
ENDBRANCH   5   6
ENDBRANCH   3   5
ENDBRANCH   1   3
BRANCH   1  11
ATOM     11  C   UNL     1      16.483 -32.181  23.294  1.00  0.00     0.087 C 
BRANCH  11  12
ATOM     12  C   UNL     1      16.078 -31.993  21.801  1.00  0.00     0.066 C 
BRANCH  12  13
ATOM     13  C   UNL     1      17.321 -31.972  20.918  1.00  0.00     0.140 C 
ATOM     14  O   UNL     1      18.025 -30.973  20.913  1.00  0.00    -0.299 OA
BRANCH  13  15
ATOM     15  C   UNL     1      17.775 -33.148  20.073  1.00  0.00     0.106 CG0
ATOM     16  G   UNL     1      17.179 -34.497  20.446  1.00  0.00     0.000 G0
ENDBRANCH  13  15
ENDBRANCH  12  13
BRANCH  12  17
ATOM     17  C   UNL     1      15.142 -30.764  21.577  1.00  0.00    -0.006 C 
ATOM     18  C   UNL     1      13.644 -31.109  21.472  1.00  0.00     0.008 C 
ATOM     19  C   UNL     1      15.352 -29.707  22.673  1.00  0.00     0.008 C 
ENDBRANCH  12  17
ENDBRANCH  11  12
ENDBRANCH   1  11
TORSDOF 1
ENDMDL
MODEL 7
REMARK VINA RESULT:    -4.133      2.910      4.518
REMARK INTER + INTRA:          -6.237
REMARK INTER:                  -5.699
REMARK INTRA:                  -0.537
REMARK UNBOUND:                 0.071
REMARK SMILES CC1=CCC[C@@H](C)C(=O)C[C@@H](C(C)C)C(=O)C1
REMARK SMILES IDX 8 1 9 2 6 3 7 4 5 5 4 6 3 7 2 8 1 9 10 11 11 12 15 13 16 14
REMARK SMILES IDX 17 15 12 17 13 18 14 19
REMARK H PARENT
REMARK Flexibility Score: 70.00
ROOT
ATOM      1  C   UNL     1      17.725 -31.743  21.568  1.00  0.00     0.136 C 
ATOM      2  O   UNL     1      18.381 -30.785  21.181  1.00  0.00    -0.299 OA
ENDROOT
BRANCH   1   3
ATOM      3  C   UNL     1      16.525 -31.513  22.497  1.00  0.00     0.053 C 
ATOM      4  C   UNL     1      15.570 -30.459  21.905  1.00  0.00     0.016 C 
BRANCH   3   5
ATOM      5  C   UNL     1      16.929 -31.082  23.939  1.00  0.00     0.015 C 
BRANCH   5   6
ATOM      6  C   UNL     1      18.032 -31.919  24.626  1.00  0.00     0.028 C 
BRANCH   6   7
ATOM      7  C   UNL     1      17.489 -33.152  25.310  1.00  0.00    -0.028 C 
ATOM      8  C   UNL     1      17.716 -34.427  24.909  1.00  0.00    -0.070 CG0
ATOM      9  C   UNL     1      17.033 -35.540  25.663  1.00  0.00     0.039 C 
ATOM     10  G   UNL     1      18.637 -34.779  23.751  1.00  0.00     0.000 G0
ENDBRANCH   6   7
ENDBRANCH   5   6
ENDBRANCH   3   5
ENDBRANCH   1   3
BRANCH   1  11
ATOM     11  C   UNL     1      18.146 -33.117  21.091  1.00  0.00     0.087 C 
BRANCH  11  12
ATOM     12  C   UNL     1      17.191 -34.258  21.551  1.00  0.00     0.066 C 
BRANCH  12  13
ATOM     13  C   UNL     1      17.929 -35.221  22.474  1.00  0.00     0.140 C 
ATOM     14  O   UNL     1      18.017 -36.397  22.152  1.00  0.00    -0.299 OA
BRANCH  13  15
ATOM     15  C   UNL     1      18.616 -34.798  23.759  1.00  0.00     0.106 CG0
ATOM     16  G   UNL     1      17.693 -34.430  24.911  1.00  0.00     0.000 G0
ENDBRANCH  13  15
ENDBRANCH  12  13
BRANCH  12  17
ATOM     17  C   UNL     1      16.479 -34.971  20.359  1.00  0.00    -0.006 C 
ATOM     18  C   UNL     1      15.030 -34.511  20.108  1.00  0.00     0.008 C 
ATOM     19  C   UNL     1      17.296 -34.828  19.065  1.00  0.00     0.008 C 
ENDBRANCH  12  17
ENDBRANCH  11  12
ENDBRANCH   1  11
TORSDOF 1
ENDMDL
MODEL 8
REMARK VINA RESULT:    -4.127      1.758      3.988
REMARK INTER + INTRA:          -6.227
REMARK INTER:                  -5.702
REMARK INTRA:                  -0.525
REMARK UNBOUND:                 0.071
REMARK SMILES CC1=CCC[C@@H](C)C(=O)C[C@@H](C(C)C)C(=O)C1
REMARK SMILES IDX 8 1 9 2 6 3 7 4 5 5 4 6 3 7 2 8 1 9 10 11 11 12 15 13 16 14
REMARK SMILES IDX 17 15 12 17 13 18 14 19
REMARK H PARENT
REMARK Flexibility Score: 70.00
ROOT
ATOM      1  C   UNL     1      17.858 -33.320  20.354  1.00  0.00     0.136 C 
ATOM      2  O   UNL     1      18.134 -33.883  19.303  1.00  0.00    -0.299 OA
ENDROOT
BRANCH   1   3
ATOM      3  C   UNL     1      17.284 -34.133  21.521  1.00  0.00     0.053 C 
ATOM      4  C   UNL     1      18.246 -35.269  21.921  1.00  0.00     0.016 C 
BRANCH   3   5
ATOM      5  C   UNL     1      15.878 -34.738  21.226  1.00  0.00     0.015 C 
BRANCH   5   6
ATOM      6  C   UNL     1      14.786 -33.749  20.758  1.00  0.00     0.028 C 
BRANCH   6   7
ATOM      7  C   UNL     1      14.183 -32.962  21.898  1.00  0.00    -0.028 C 
ATOM      8  C   UNL     1      14.444 -31.660  22.169  1.00  0.00    -0.070 CG0
ATOM      9  C   UNL     1      13.812 -31.050  23.394  1.00  0.00     0.039 C 
ATOM     10  G   UNL     1      15.327 -30.791  21.286  1.00  0.00     0.000 G0
ENDBRANCH   6   7
ENDBRANCH   5   6
ENDBRANCH   3   5
ENDBRANCH   1   3
BRANCH   1  11
ATOM     11  C   UNL     1      18.114 -31.830  20.436  1.00  0.00     0.087 C 
BRANCH  11  12
ATOM     12  C   UNL     1      17.906 -31.237  21.861  1.00  0.00     0.066 C 
BRANCH  12  13
ATOM     13  C   UNL     1      16.654 -30.368  21.892  1.00  0.00     0.140 C 
ATOM     14  O   UNL     1      16.719 -29.257  22.397  1.00  0.00    -0.299 OA
BRANCH  13  15
ATOM     15  C   UNL     1      15.328 -30.777  21.279  1.00  0.00     0.106 CG0
ATOM     16  G   UNL     1      14.439 -31.649  22.153  1.00  0.00     0.000 G0
ENDBRANCH  13  15
ENDBRANCH  12  13
BRANCH  12  17
ATOM     17  C   UNL     1      19.175 -30.509  22.407  1.00  0.00    -0.006 C 
ATOM     18  C   UNL     1      19.988 -31.320  23.435  1.00  0.00     0.008 C 
ATOM     19  C   UNL     1      20.094 -30.069  21.256  1.00  0.00     0.008 C 
ENDBRANCH  12  17
ENDBRANCH  11  12
ENDBRANCH   1  11
TORSDOF 1
ENDMDL
MODEL 9
REMARK VINA RESULT:    -4.009      2.693      4.792
REMARK INTER + INTRA:          -6.047
REMARK INTER:                  -5.680
REMARK INTRA:                  -0.366
REMARK UNBOUND:                 0.071
REMARK SMILES CC1=CCC[C@@H](C)C(=O)C[C@@H](C(C)C)C(=O)C1
REMARK SMILES IDX 8 1 9 2 6 3 7 4 5 5 4 6 3 7 2 8 1 9 10 11 11 12 15 13 16 14
REMARK SMILES IDX 17 15 12 17 13 18 14 19
REMARK H PARENT
REMARK Flexibility Score: 70.00
ROOT
ATOM      1  C   UNL     1      18.033 -35.542  21.233  1.00  0.00     0.136 C 
ATOM      2  O   UNL     1      18.080 -36.667  21.712  1.00  0.00    -0.299 OA
ENDROOT
BRANCH   1   3
ATOM      3  C   UNL     1      17.293 -35.313  19.909  1.00  0.00     0.053 C 
ATOM      4  C   UNL     1      17.914 -34.136  19.132  1.00  0.00     0.016 C 
BRANCH   3   5
ATOM      5  C   UNL     1      15.766 -35.056  20.086  1.00  0.00     0.015 C 
BRANCH   5   6
ATOM      6  C   UNL     1      15.297 -33.587  19.986  1.00  0.00     0.028 C 
BRANCH   6   7
ATOM      7  C   UNL     1      14.608 -33.106  21.242  1.00  0.00    -0.028 C 
ATOM      8  C   UNL     1      15.213 -32.433  22.251  1.00  0.00    -0.070 CG0
ATOM      9  C   UNL     1      14.392 -32.093  23.469  1.00  0.00     0.039 C 
ATOM     10  G   UNL     1      16.668 -31.993  22.198  1.00  0.00     0.000 G0
ENDBRANCH   6   7
ENDBRANCH   5   6
ENDBRANCH   3   5
ENDBRANCH   1   3
BRANCH   1  11
ATOM     11  C   UNL     1      18.716 -34.429  21.999  1.00  0.00     0.087 C 
BRANCH  11  12
ATOM     12  C   UNL     1      17.994 -34.047  23.325  1.00  0.00     0.066 C 
BRANCH  12  13
ATOM     13  C   UNL     1      17.567 -32.584  23.290  1.00  0.00     0.140 C 
ATOM     14  O   UNL     1      17.998 -31.822  24.142  1.00  0.00    -0.299 OA
BRANCH  13  15
ATOM     15  C   UNL     1      16.670 -31.994  22.218  1.00  0.00     0.106 CG0
ATOM     16  G   UNL     1      15.215 -32.436  22.258  1.00  0.00     0.000 G0
ENDBRANCH  13  15
ENDBRANCH  12  13
BRANCH  12  17
ATOM     17  C   UNL     1      18.824 -34.416  24.595  1.00  0.00    -0.006 C 
ATOM     18  C   UNL     1      18.036 -35.177  25.679  1.00  0.00     0.008 C 
ATOM     19  C   UNL     1      20.082 -35.214  24.217  1.00  0.00     0.008 C 
ENDBRANCH  12  17
ENDBRANCH  11  12
ENDBRANCH   1  11
TORSDOF 1
ENDMDL
