MODEL 1
REMARK VINA RESULT:    -4.257      0.000      0.000
REMARK INTER + INTRA:          -8.352
REMARK INTER:                  -6.497
REMARK INTRA:                  -1.855
REMARK UNBOUND:                -1.855
REMARK SMILES CC(=O)CCC=C(C)CCC=C(C)CCC=C(C)C
REMARK SMILES IDX 10 1 11 2 12 3 13 4 14 5 15 6 16 7 18 8 17 9 19 10 9 11 7 12
REMARK SMILES IDX 6 13 8 14 5 15 4 16 2 17 3 18 1 19
REMARK H PARENT
REMARK Flexibility Score: inf
ROOT
ATOM      1  C   UNL     1      29.023  34.038  20.485  1.00  0.00     0.032 C 
ENDROOT
BRANCH   1   2
ATOM      2  C   UNL     1      28.739  33.062  21.597  1.00  0.00    -0.028 C 
ATOM      3  C   UNL     1      28.511  33.407  22.885  1.00  0.00    -0.077 C 
ATOM      4  C   UNL     1      28.235  32.310  23.881  1.00  0.00     0.039 C 
BRANCH   3   5
ATOM      5  C   UNL     1      28.448  34.848  23.355  1.00  0.00     0.034 C 
BRANCH   5   6
ATOM      6  C   UNL     1      27.065  35.172  23.930  1.00  0.00     0.032 C 
BRANCH   6   7
ATOM      7  C   UNL     1      26.240  35.968  22.949  1.00  0.00    -0.028 C 
ATOM      8  C   UNL     1      24.135  35.515  24.215  1.00  0.00     0.039 C 
ATOM      9  C   UNL     1      24.905  36.131  23.071  1.00  0.00    -0.080 C 
ATOM     10  C   UNL     1      24.179  36.950  22.035  1.00  0.00     0.039 C 
ENDBRANCH   6   7
ENDBRANCH   5   6
ENDBRANCH   3   5
ENDBRANCH   1   2
BRANCH   1  11
ATOM     11  C   UNL     1      27.721  34.535  19.844  1.00  0.00     0.034 C 
BRANCH  11  12
ATOM     12  C   UNL     1      27.787  36.020  19.562  1.00  0.00    -0.077 C 
ATOM     13  C   UNL     1      26.702  36.641  19.047  1.00  0.00    -0.028 C 
ATOM     14  C   UNL     1      29.053  36.781  19.879  1.00  0.00     0.039 C 
BRANCH  13  15
ATOM     15  C   UNL     1      26.671  38.118  18.729  1.00  0.00     0.035 C 
BRANCH  15  16
ATOM     16  C   UNL     1      26.217  38.964  19.925  1.00  0.00     0.079 C 
BRANCH  16  17
ATOM     17  C   UNL     1      26.764  40.368  19.856  1.00  0.00     0.130 C 
ATOM     18  O   UNL     1      27.442  40.706  18.899  1.00  0.00    -0.300 OA
ATOM     19  C   UNL     1      26.501  41.358  20.952  1.00  0.00     0.087 C 
ENDBRANCH  16  17
ENDBRANCH  15  16
ENDBRANCH  13  15
ENDBRANCH  11  12
ENDBRANCH   1  11
TORSDOF 9
ENDMDL
MODEL 2
REMARK VINA RESULT:    -4.253      3.864      6.610
REMARK INTER + INTRA:          -8.346
REMARK INTER:                  -7.219
REMARK INTRA:                  -1.128
REMARK UNBOUND:                -1.855
REMARK SMILES CC(=O)CCC=C(C)CCC=C(C)CCC=C(C)C
REMARK SMILES IDX 10 1 11 2 12 3 13 4 14 5 15 6 16 7 18 8 17 9 19 10 9 11 7 12
REMARK SMILES IDX 6 13 8 14 5 15 4 16 2 17 3 18 1 19
REMARK H PARENT
REMARK Flexibility Score: inf
ROOT
ATOM      1  C   UNL     1      28.974  31.793  24.001  1.00  0.00     0.032 C 
ENDROOT
BRANCH   1   2
ATOM      2  C   UNL     1      27.694  31.200  24.531  1.00  0.00    -0.028 C 
ATOM      3  C   UNL     1      27.457  29.875  24.663  1.00  0.00    -0.077 C 
ATOM      4  C   UNL     1      26.124  29.439  25.216  1.00  0.00     0.039 C 
BRANCH   3   5
ATOM      5  C   UNL     1      28.495  28.815  24.350  1.00  0.00     0.034 C 
BRANCH   5   6
ATOM      6  C   UNL     1      28.945  28.100  25.630  1.00  0.00     0.032 C 
BRANCH   6   7
ATOM      7  C   UNL     1      29.119  26.620  25.395  1.00  0.00    -0.028 C 
ATOM      8  C   UNL     1      27.059  26.080  26.699  1.00  0.00     0.039 C 
ATOM      9  C   UNL     1      28.265  25.692  25.876  1.00  0.00    -0.080 C 
ATOM     10  C   UNL     1      28.532  24.239  25.578  1.00  0.00     0.039 C 
ENDBRANCH   6   7
ENDBRANCH   5   6
ENDBRANCH   3   5
ENDBRANCH   1   2
BRANCH   1  11
ATOM     11  C   UNL     1      28.948  31.875  22.470  1.00  0.00     0.034 C 
BRANCH  11  12
ATOM     12  C   UNL     1      28.797  33.307  22.005  1.00  0.00    -0.077 C 
ATOM     13  C   UNL     1      28.747  33.568  20.679  1.00  0.00    -0.028 C 
ATOM     14  C   UNL     1      28.687  34.412  23.029  1.00  0.00     0.039 C 
BRANCH  13  15
ATOM     15  C   UNL     1      28.600  34.963  20.118  1.00  0.00     0.035 C 
BRANCH  15  16
ATOM     16  C   UNL     1      27.366  35.104  19.219  1.00  0.00     0.079 C 
BRANCH  16  17
ATOM     17  C   UNL     1      26.551  36.322  19.576  1.00  0.00     0.130 C 
ATOM     18  O   UNL     1      25.922  36.904  18.707  1.00  0.00    -0.300 OA
ATOM     19  C   UNL     1      26.509  36.843  20.983  1.00  0.00     0.087 C 
ENDBRANCH  16  17
ENDBRANCH  15  16
ENDBRANCH  13  15
ENDBRANCH  11  12
ENDBRANCH   1  11
TORSDOF 9
ENDMDL
MODEL 3
REMARK VINA RESULT:    -4.192      3.691      7.209
REMARK INTER + INTRA:          -8.253
REMARK INTER:                  -6.720
REMARK INTRA:                  -1.533
REMARK UNBOUND:                -1.855
REMARK SMILES CC(=O)CCC=C(C)CCC=C(C)CCC=C(C)C
REMARK SMILES IDX 10 1 11 2 12 3 13 4 14 5 15 6 16 7 18 8 17 9 19 10 9 11 7 12
REMARK SMILES IDX 6 13 8 14 5 15 4 16 2 17 3 18 1 19
REMARK H PARENT
REMARK Flexibility Score: inf
ROOT
ATOM      1  C   UNL     1      27.717  35.340  22.342  1.00  0.00     0.032 C 
ENDROOT
BRANCH   1   2
ATOM      2  C   UNL     1      28.493  36.223  21.398  1.00  0.00    -0.028 C 
ATOM      3  C   UNL     1      28.264  36.315  20.068  1.00  0.00    -0.077 C 
ATOM      4  C   UNL     1      29.125  37.250  19.259  1.00  0.00     0.039 C 
BRANCH   3   5
ATOM      5  C   UNL     1      27.138  35.577  19.370  1.00  0.00     0.034 C 
BRANCH   5   6
ATOM      6  C   UNL     1      26.015  36.545  18.979  1.00  0.00     0.032 C 
BRANCH   6   7
ATOM      7  C   UNL     1      24.984  36.655  20.075  1.00  0.00    -0.028 C 
ATOM      8  C   UNL     1      25.795  38.924  20.731  1.00  0.00     0.039 C 
ATOM      9  C   UNL     1      24.874  37.735  20.877  1.00  0.00    -0.080 C 
ATOM     10  C   UNL     1      23.805  37.743  21.939  1.00  0.00     0.039 C 
ENDBRANCH   6   7
ENDBRANCH   5   6
ENDBRANCH   3   5
ENDBRANCH   1   2
BRANCH   1  11
ATOM     11  C   UNL     1      28.651  34.660  23.350  1.00  0.00     0.034 C 
BRANCH  11  12
ATOM     12  C   UNL     1      28.626  33.156  23.184  1.00  0.00    -0.077 C 
ATOM     13  C   UNL     1      28.273  32.383  24.236  1.00  0.00    -0.028 C 
ATOM     14  C   UNL     1      28.977  32.551  21.845  1.00  0.00     0.039 C 
BRANCH  13  15
ATOM     15  C   UNL     1      28.220  30.874  24.169  1.00  0.00     0.035 C 
BRANCH  15  16
ATOM     16  C   UNL     1      28.207  30.228  25.560  1.00  0.00     0.079 C 
BRANCH  16  17
ATOM     17  C   UNL     1      26.934  29.457  25.806  1.00  0.00     0.130 C 
ATOM     18  O   UNL     1      26.830  28.769  26.809  1.00  0.00    -0.300 OA
ATOM     19  C   UNL     1      25.794  29.508  24.832  1.00  0.00     0.087 C 
ENDBRANCH  16  17
ENDBRANCH  15  16
ENDBRANCH  13  15
ENDBRANCH  11  12
ENDBRANCH   1  11
TORSDOF 9
ENDMDL
MODEL 4
REMARK VINA RESULT:    -4.157      1.865      4.633
REMARK INTER + INTRA:          -8.199
REMARK INTER:                  -6.539
REMARK INTRA:                  -1.660
REMARK UNBOUND:                -1.855
REMARK SMILES CC(=O)CCC=C(C)CCC=C(C)CCC=C(C)C
REMARK SMILES IDX 10 1 11 2 12 3 13 4 14 5 15 6 16 7 18 8 17 9 19 10 9 11 7 12
REMARK SMILES IDX 6 13 8 14 5 15 4 16 2 17 3 18 1 19
REMARK H PARENT
REMARK Flexibility Score: inf
ROOT
ATOM      1  C   UNL     1      25.617  38.128  21.552  1.00  0.00     0.032 C 
ENDROOT
BRANCH   1   2
ATOM      2  C   UNL     1      25.026  37.200  20.522  1.00  0.00    -0.028 C 
ATOM      3  C   UNL     1      25.729  36.599  19.534  1.00  0.00    -0.077 C 
ATOM      4  C   UNL     1      24.991  35.692  18.584  1.00  0.00     0.039 C 
BRANCH   3   5
ATOM      5  C   UNL     1      27.232  36.740  19.386  1.00  0.00     0.034 C 
BRANCH   5   6
ATOM      6  C   UNL     1      27.947  35.478  19.880  1.00  0.00     0.032 C 
BRANCH   6   7
ATOM      7  C   UNL     1      28.027  35.451  21.387  1.00  0.00    -0.028 C 
ATOM      8  C   UNL     1      28.745  33.059  21.396  1.00  0.00     0.039 C 
ATOM      9  C   UNL     1      28.391  34.356  22.086  1.00  0.00    -0.080 C 
ATOM     10  C   UNL     1      28.441  34.441  23.590  1.00  0.00     0.039 C 
ENDBRANCH   6   7
ENDBRANCH   5   6
ENDBRANCH   3   5
ENDBRANCH   1   2
BRANCH   1  11
ATOM     11  C   UNL     1      25.443  39.594  21.134  1.00  0.00     0.034 C 
BRANCH  11  12
ATOM     12  C   UNL     1      26.744  40.169  20.618  1.00  0.00    -0.077 C 
ATOM     13  C   UNL     1      26.850  40.488  19.308  1.00  0.00    -0.028 C 
ATOM     14  C   UNL     1      27.889  40.393  21.578  1.00  0.00     0.039 C 
BRANCH  13  15
ATOM     15  C   UNL     1      28.106  41.065  18.699  1.00  0.00     0.035 C 
BRANCH  15  16
ATOM     16  C   UNL     1      27.915  42.511  18.226  1.00  0.00     0.079 C 
BRANCH  16  17
ATOM     17  C   UNL     1      27.634  43.443  19.377  1.00  0.00     0.130 C 
ATOM     18  O   UNL     1      28.496  43.642  20.219  1.00  0.00    -0.300 OA
ATOM     19  C   UNL     1      26.304  44.124  19.519  1.00  0.00     0.087 C 
ENDBRANCH  16  17
ENDBRANCH  15  16
ENDBRANCH  13  15
ENDBRANCH  11  12
ENDBRANCH   1  11
TORSDOF 9
ENDMDL
MODEL 5
REMARK VINA RESULT:    -4.147      3.046      5.415
REMARK INTER + INTRA:          -8.184
REMARK INTER:                  -7.102
REMARK INTRA:                  -1.082
REMARK UNBOUND:                -1.855
REMARK SMILES CC(=O)CCC=C(C)CCC=C(C)CCC=C(C)C
REMARK SMILES IDX 10 1 11 2 12 3 13 4 14 5 15 6 16 7 18 8 17 9 19 10 9 11 7 12
REMARK SMILES IDX 6 13 8 14 5 15 4 16 2 17 3 18 1 19
REMARK H PARENT
REMARK Flexibility Score: inf
ROOT
ATOM      1  C   UNL     1      28.558  33.089  22.879  1.00  0.00     0.032 C 
ENDROOT
BRANCH   1   2
ATOM      2  C   UNL     1      28.796  32.742  24.327  1.00  0.00    -0.028 C 
ATOM      3  C   UNL     1      28.872  31.482  24.813  1.00  0.00    -0.077 C 
ATOM      4  C   UNL     1      29.122  31.301  26.288  1.00  0.00     0.039 C 
BRANCH   3   5
ATOM      5  C   UNL     1      28.791  30.250  23.932  1.00  0.00     0.034 C 
BRANCH   5   6
ATOM      6  C   UNL     1      27.507  29.463  24.217  1.00  0.00     0.032 C 
BRANCH   6   7
ATOM      7  C   UNL     1      27.816  28.127  24.848  1.00  0.00    -0.028 C 
ATOM      8  C   UNL     1      26.186  28.525  26.698  1.00  0.00     0.039 C 
ATOM      9  C   UNL     1      27.218  27.690  25.977  1.00  0.00    -0.080 C 
ATOM     10  C   UNL     1      27.598  26.337  26.520  1.00  0.00     0.039 C 
ENDBRANCH   6   7
ENDBRANCH   5   6
ENDBRANCH   3   5
ENDBRANCH   1   2
BRANCH   1  11
ATOM     11  C   UNL     1      28.494  34.609  22.682  1.00  0.00     0.034 C 
BRANCH  11  12
ATOM     12  C   UNL     1      28.309  34.959  21.222  1.00  0.00    -0.077 C 
ATOM     13  C   UNL     1      28.086  36.248  20.877  1.00  0.00    -0.028 C 
ATOM     14  C   UNL     1      28.395  33.870  20.180  1.00  0.00     0.039 C 
BRANCH  13  15
ATOM     15  C   UNL     1      27.887  36.697  19.448  1.00  0.00     0.035 C 
BRANCH  15  16
ATOM     16  C   UNL     1      26.582  37.479  19.257  1.00  0.00     0.079 C 
BRANCH  16  17
ATOM     17  C   UNL     1      25.373  36.632  19.564  1.00  0.00     0.130 C 
ATOM     18  O   UNL     1      24.740  36.831  20.589  1.00  0.00    -0.300 OA
ATOM     19  C   UNL     1      24.938  35.534  18.638  1.00  0.00     0.087 C 
ENDBRANCH  16  17
ENDBRANCH  15  16
ENDBRANCH  13  15
ENDBRANCH  11  12
ENDBRANCH   1  11
TORSDOF 9
ENDMDL
MODEL 6
REMARK VINA RESULT:    -4.064      3.445      7.297
REMARK INTER + INTRA:          -8.058
REMARK INTER:                  -6.719
REMARK INTRA:                  -1.339
REMARK UNBOUND:                -1.855
REMARK SMILES CC(=O)CCC=C(C)CCC=C(C)CCC=C(C)C
REMARK SMILES IDX 10 1 11 2 12 3 13 4 14 5 15 6 16 7 18 8 17 9 19 10 9 11 7 12
REMARK SMILES IDX 6 13 8 14 5 15 4 16 2 17 3 18 1 19
REMARK H PARENT
REMARK Flexibility Score: inf
ROOT
ATOM      1  C   UNL     1      28.660  35.190  20.616  1.00  0.00     0.032 C 
ENDROOT
BRANCH   1   2
ATOM      2  C   UNL     1      27.545  35.471  19.641  1.00  0.00    -0.028 C 
ATOM      3  C   UNL     1      26.494  36.286  19.887  1.00  0.00    -0.077 C 
ATOM      4  C   UNL     1      25.462  36.468  18.804  1.00  0.00     0.039 C 
BRANCH   3   5
ATOM      5  C   UNL     1      26.347  37.079  21.172  1.00  0.00     0.034 C 
BRANCH   5   6
ATOM      6  C   UNL     1      25.987  38.538  20.871  1.00  0.00     0.032 C 
BRANCH   6   7
ATOM      7  C   UNL     1      27.167  39.449  21.100  1.00  0.00    -0.028 C 
ATOM      8  C   UNL     1      27.697  39.523  18.660  1.00  0.00     0.039 C 
ATOM      9  C   UNL     1      27.951  39.905  20.099  1.00  0.00    -0.080 C 
ATOM     10  C   UNL     1      29.104  40.814  20.439  1.00  0.00     0.039 C 
ENDBRANCH   6   7
ENDBRANCH   5   6
ENDBRANCH   3   5
ENDBRANCH   1   2
BRANCH   1  11
ATOM     11  C   UNL     1      28.713  33.700  20.975  1.00  0.00     0.034 C 
BRANCH  11  12
ATOM     12  C   UNL     1      28.457  33.489  22.452  1.00  0.00    -0.077 C 
ATOM     13  C   UNL     1      28.669  32.265  22.988  1.00  0.00    -0.028 C 
ATOM     14  C   UNL     1      27.989  34.649  23.298  1.00  0.00     0.039 C 
BRANCH  13  15
ATOM     15  C   UNL     1      28.440  31.955  24.449  1.00  0.00     0.035 C 
BRANCH  15  16
ATOM     16  C   UNL     1      27.480  30.776  24.652  1.00  0.00     0.079 C 
BRANCH  16  17
ATOM     17  C   UNL     1      27.811  29.996  25.900  1.00  0.00     0.130 C 
ATOM     18  O   UNL     1      28.556  30.481  26.737  1.00  0.00    -0.300 OA
ATOM     19  C   UNL     1      27.252  28.622  26.128  1.00  0.00     0.087 C 
ENDBRANCH  16  17
ENDBRANCH  15  16
ENDBRANCH  13  15
ENDBRANCH  11  12
ENDBRANCH   1  11
TORSDOF 9
ENDMDL
MODEL 7
REMARK VINA RESULT:    -4.058      4.263      6.315
REMARK INTER + INTRA:          -8.049
REMARK INTER:                  -7.252
REMARK INTRA:                  -0.797
REMARK UNBOUND:                -1.855
REMARK SMILES CC(=O)CCC=C(C)CCC=C(C)CCC=C(C)C
REMARK SMILES IDX 10 1 11 2 12 3 13 4 14 5 15 6 16 7 18 8 17 9 19 10 9 11 7 12
REMARK SMILES IDX 6 13 8 14 5 15 4 16 2 17 3 18 1 19
REMARK H PARENT
REMARK Flexibility Score: inf
ROOT
ATOM      1  C   UNL     1      28.023  31.487  24.083  1.00  0.00     0.032 C 
ENDROOT
BRANCH   1   2
ATOM      2  C   UNL     1      28.735  30.537  25.011  1.00  0.00    -0.028 C 
ATOM      3  C   UNL     1      28.120  29.633  25.808  1.00  0.00    -0.077 C 
ATOM      4  C   UNL     1      28.975  28.748  26.677  1.00  0.00     0.039 C 
BRANCH   3   5
ATOM      5  C   UNL     1      26.618  29.421  25.810  1.00  0.00     0.034 C 
BRANCH   5   6
ATOM      6  C   UNL     1      26.240  28.225  26.691  1.00  0.00     0.032 C 
BRANCH   6   7
ATOM      7  C   UNL     1      24.903  28.440  27.356  1.00  0.00    -0.028 C 
ATOM      8  C   UNL     1      24.772  26.049  28.066  1.00  0.00     0.039 C 
ATOM      9  C   UNL     1      24.227  27.456  27.987  1.00  0.00    -0.080 C 
ATOM     10  C   UNL     1      22.900  27.781  28.622  1.00  0.00     0.039 C 
ENDBRANCH   6   7
ENDBRANCH   5   6
ENDBRANCH   3   5
ENDBRANCH   1   2
BRANCH   1  11
ATOM     11  C   UNL     1      28.826  31.702  22.794  1.00  0.00     0.034 C 
BRANCH  11  12
ATOM     12  C   UNL     1      28.701  33.130  22.308  1.00  0.00    -0.077 C 
ATOM     13  C   UNL     1      28.879  33.396  20.994  1.00  0.00    -0.028 C 
ATOM     14  C   UNL     1      28.363  34.223  23.294  1.00  0.00     0.039 C 
BRANCH  13  15
ATOM     15  C   UNL     1      28.777  34.787  20.414  1.00  0.00     0.035 C 
BRANCH  15  16
ATOM     16  C   UNL     1      27.626  34.918  19.409  1.00  0.00     0.079 C 
BRANCH  16  17
ATOM     17  C   UNL     1      26.764  36.122  19.700  1.00  0.00     0.130 C 
ATOM     18  O   UNL     1      25.795  36.355  18.995  1.00  0.00    -0.300 OA
ATOM     19  C   UNL     1      27.084  37.050  20.834  1.00  0.00     0.087 C 
ENDBRANCH  16  17
ENDBRANCH  15  16
ENDBRANCH  13  15
ENDBRANCH  11  12
ENDBRANCH   1  11
TORSDOF 9
ENDMDL
MODEL 8
REMARK VINA RESULT:    -4.052      2.753      5.002
REMARK INTER + INTRA:          -8.038
REMARK INTER:                  -6.188
REMARK INTRA:                  -1.851
REMARK UNBOUND:                -1.855
REMARK SMILES CC(=O)CCC=C(C)CCC=C(C)CCC=C(C)C
REMARK SMILES IDX 10 1 11 2 12 3 13 4 14 5 15 6 16 7 18 8 17 9 19 10 9 11 7 12
REMARK SMILES IDX 6 13 8 14 5 15 4 16 2 17 3 18 1 19
REMARK H PARENT
REMARK Flexibility Score: inf
ROOT
ATOM      1  C   UNL     1      26.662  39.003  19.001  1.00  0.00     0.032 C 
ENDROOT
BRANCH   1   2
ATOM      2  C   UNL     1      27.286  37.665  19.307  1.00  0.00    -0.028 C 
ATOM      3  C   UNL     1      26.682  36.471  19.106  1.00  0.00    -0.077 C 
ATOM      4  C   UNL     1      27.442  35.219  19.458  1.00  0.00     0.039 C 
BRANCH   3   5
ATOM      5  C   UNL     1      25.309  36.335  18.476  1.00  0.00     0.034 C 
BRANCH   5   6
ATOM      6  C   UNL     1      24.277  35.884  19.515  1.00  0.00     0.032 C 
BRANCH   6   7
ATOM      7  C   UNL     1      23.605  37.068  20.165  1.00  0.00    -0.028 C 
ATOM      8  C   UNL     1      24.885  36.744  22.285  1.00  0.00     0.039 C 
ATOM      9  C   UNL     1      23.876  37.469  21.425  1.00  0.00    -0.080 C 
ATOM     10  C   UNL     1      23.148  38.669  21.975  1.00  0.00     0.039 C 
ENDBRANCH   6   7
ENDBRANCH   5   6
ENDBRANCH   3   5
ENDBRANCH   1   2
BRANCH   1  11
ATOM     11  C   UNL     1      26.302  39.749  20.292  1.00  0.00     0.034 C 
BRANCH  11  12
ATOM     12  C   UNL     1      26.709  41.204  20.209  1.00  0.00    -0.077 C 
ATOM     13  C   UNL     1      26.404  42.032  21.233  1.00  0.00    -0.028 C 
ATOM     14  C   UNL     1      27.463  41.697  18.996  1.00  0.00     0.039 C 
BRANCH  13  15
ATOM     15  C   UNL     1      26.765  43.499  21.243  1.00  0.00     0.035 C 
BRANCH  15  16
ATOM     16  C   UNL     1      27.991  43.794  22.115  1.00  0.00     0.079 C 
BRANCH  16  17
ATOM     17  C   UNL     1      27.780  43.356  23.543  1.00  0.00     0.130 C 
ATOM     18  O   UNL     1      26.858  43.829  24.189  1.00  0.00    -0.300 OA
ATOM     19  C   UNL     1      28.691  42.357  24.193  1.00  0.00     0.087 C 
ENDBRANCH  16  17
ENDBRANCH  15  16
ENDBRANCH  13  15
ENDBRANCH  11  12
ENDBRANCH   1  11
TORSDOF 9
ENDMDL
MODEL 9
REMARK VINA RESULT:    -3.973      2.392      5.854
REMARK INTER + INTRA:          -7.918
REMARK INTER:                  -6.094
REMARK INTRA:                  -1.824
REMARK UNBOUND:                -1.855
REMARK SMILES CC(=O)CCC=C(C)CCC=C(C)CCC=C(C)C
REMARK SMILES IDX 10 1 11 2 12 3 13 4 14 5 15 6 16 7 18 8 17 9 19 10 9 11 7 12
REMARK SMILES IDX 6 13 8 14 5 15 4 16 2 17 3 18 1 19
REMARK H PARENT
REMARK Flexibility Score: inf
ROOT
ATOM      1  C   UNL     1      27.826  38.798  18.692  1.00  0.00     0.032 C 
ENDROOT
BRANCH   1   2
ATOM      2  C   UNL     1      27.717  40.301  18.652  1.00  0.00    -0.028 C 
ATOM      3  C   UNL     1      27.385  41.077  19.710  1.00  0.00    -0.077 C 
ATOM      4  C   UNL     1      27.325  42.569  19.510  1.00  0.00     0.039 C 
BRANCH   3   5
ATOM      5  C   UNL     1      27.145  40.519  21.100  1.00  0.00     0.034 C 
BRANCH   5   6
ATOM      6  C   UNL     1      25.678  40.106  21.272  1.00  0.00     0.032 C 
BRANCH   6   7
ATOM      7  C   UNL     1      25.561  38.640  21.608  1.00  0.00    -0.028 C 
ATOM      8  C   UNL     1      23.069  38.766  21.689  1.00  0.00     0.039 C 
ATOM      9  C   UNL     1      24.378  38.019  21.798  1.00  0.00    -0.080 C 
ATOM     10  C   UNL     1      24.376  36.549  22.127  1.00  0.00     0.039 C 
ENDBRANCH   6   7
ENDBRANCH   5   6
ENDBRANCH   3   5
ENDBRANCH   1   2
BRANCH   1  11
ATOM     11  C   UNL     1      26.494  38.141  18.310  1.00  0.00     0.034 C 
BRANCH  11  12
ATOM     12  C   UNL     1      26.446  36.702  18.774  1.00  0.00    -0.077 C 
ATOM     13  C   UNL     1      27.568  36.133  19.271  1.00  0.00    -0.028 C 
ATOM     14  C   UNL     1      25.146  35.937  18.690  1.00  0.00     0.039 C 
BRANCH  13  15
ATOM     15  C   UNL     1      27.621  34.703  19.757  1.00  0.00     0.035 C 
BRANCH  15  16
ATOM     16  C   UNL     1      28.913  34.394  20.523  1.00  0.00     0.079 C 
BRANCH  16  17
ATOM     17  C   UNL     1      28.630  33.789  21.875  1.00  0.00     0.130 C 
ATOM     18  O   UNL     1      28.829  32.598  22.058  1.00  0.00    -0.300 OA
ATOM     19  C   UNL     1      28.092  34.621  23.001  1.00  0.00     0.087 C 
ENDBRANCH  16  17
ENDBRANCH  15  16
ENDBRANCH  13  15
ENDBRANCH  11  12
ENDBRANCH   1  11
TORSDOF 9
ENDMDL
