MODEL 1
REMARK VINA RESULT:    -3.620      0.000      0.000
REMARK INTER + INTRA:          -4.584
REMARK INTER:                  -4.360
REMARK INTRA:                  -0.224
REMARK UNBOUND:                -0.224
REMARK SMILES OCC(O)CO
REMARK SMILES IDX 3 1 5 2 6 3 2 5 1 6 4 8
REMARK H PARENT 6 4 1 7 4 9
REMARK Flexibility Score: inf
ROOT
ATOM      1  C   UNL     1      32.328 -39.428  -4.384  1.00  0.00     0.165 C 
ENDROOT
BRANCH   1   2
ATOM      2  C   UNL     1      33.189 -39.420  -3.112  1.00  0.00     0.190 C 
BRANCH   2   3
ATOM      3  O   UNL     1      32.418 -39.836  -2.018  1.00  0.00    -0.394 OA
ATOM      4  H   UNL     1      31.780 -40.508  -2.370  1.00  0.00     0.210 HD
ENDBRANCH   2   3
ENDBRANCH   1   2
BRANCH   1   5
ATOM      5  C   UNL     1      31.973 -40.857  -4.824  1.00  0.00     0.190 C 
BRANCH   5   6
ATOM      6  O   UNL     1      30.913 -41.350  -4.051  1.00  0.00    -0.394 OA
ATOM      7  H   UNL     1      30.196 -40.665  -4.100  1.00  0.00     0.210 HD
ENDBRANCH   5   6
ENDBRANCH   1   5
BRANCH   1   8
ATOM      8  O   UNL     1      31.157 -38.673  -4.193  1.00  0.00    -0.388 OA
ATOM      9  H   UNL     1      31.388 -37.718  -4.340  1.00  0.00     0.211 HD
ENDBRANCH   1   8
TORSDOF 5
ENDMDL
MODEL 2
REMARK VINA RESULT:    -3.568      1.327      2.730
REMARK INTER + INTRA:          -4.522
REMARK INTER:                  -4.308
REMARK INTRA:                  -0.214
REMARK UNBOUND:                -0.224
REMARK SMILES OCC(O)CO
REMARK SMILES IDX 3 1 5 2 6 3 2 5 1 6 4 8
REMARK H PARENT 6 4 1 7 4 9
REMARK Flexibility Score: inf
ROOT
ATOM      1  C   UNL     1      32.730 -40.416  -4.809  1.00  0.00     0.165 C 
ENDROOT
BRANCH   1   2
ATOM      2  C   UNL     1      31.640 -41.461  -5.093  1.00  0.00     0.190 C 
BRANCH   2   3
ATOM      3  O   UNL     1      30.746 -41.515  -4.016  1.00  0.00    -0.394 OA
ATOM      4  H   UNL     1      30.176 -42.312  -4.171  1.00  0.00     0.210 HD
ENDBRANCH   2   3
ENDBRANCH   1   2
BRANCH   1   5
ATOM      5  C   UNL     1      32.228 -39.310  -3.868  1.00  0.00     0.190 C 
BRANCH   5   6
ATOM      6  O   UNL     1      32.341 -39.724  -2.534  1.00  0.00    -0.394 OA
ATOM      7  H   UNL     1      31.611 -40.380  -2.386  1.00  0.00     0.210 HD
ENDBRANCH   5   6
ENDBRANCH   1   5
BRANCH   1   8
ATOM      8  O   UNL     1      33.875 -41.031  -4.270  1.00  0.00    -0.388 OA
ATOM      9  H   UNL     1      33.984 -41.909  -4.721  1.00  0.00     0.211 HD
ENDBRANCH   1   8
TORSDOF 5
ENDMDL
MODEL 3
REMARK VINA RESULT:    -3.516      6.953      7.764
REMARK INTER + INTRA:          -4.459
REMARK INTER:                  -4.291
REMARK INTRA:                  -0.168
REMARK UNBOUND:                -0.224
REMARK SMILES OCC(O)CO
REMARK SMILES IDX 3 1 5 2 6 3 2 5 1 6 4 8
REMARK H PARENT 6 4 1 7 4 9
REMARK Flexibility Score: inf
ROOT
ATOM      1  C   UNL     1      37.863 -42.770  -0.782  1.00  0.00     0.165 C 
ENDROOT
BRANCH   1   2
ATOM      2  C   UNL     1      39.273 -43.137  -0.295  1.00  0.00     0.190 C 
BRANCH   2   3
ATOM      3  O   UNL     1      39.317 -44.497   0.041  1.00  0.00    -0.394 OA
ATOM      4  H   UNL     1      39.811 -44.946  -0.691  1.00  0.00     0.210 HD
ENDBRANCH   2   3
ENDBRANCH   1   2
BRANCH   1   5
ATOM      5  C   UNL     1      37.763 -42.802  -2.315  1.00  0.00     0.190 C 
BRANCH   5   6
ATOM      6  O   UNL     1      37.856 -44.122  -2.775  1.00  0.00    -0.394 OA
ATOM      7  H   UNL     1      38.782 -44.419  -2.574  1.00  0.00     0.210 HD
ENDBRANCH   5   6
ENDBRANCH   1   5
BRANCH   1   8
ATOM      8  O   UNL     1      36.904 -43.627  -0.212  1.00  0.00    -0.388 OA
ATOM      9  H   UNL     1      36.071 -43.102  -0.083  1.00  0.00     0.211 HD
ENDBRANCH   1   8
TORSDOF 5
ENDMDL
MODEL 4
REMARK VINA RESULT:    -3.496      5.816      6.790
REMARK INTER + INTRA:          -4.435
REMARK INTER:                  -4.212
REMARK INTRA:                  -0.223
REMARK UNBOUND:                -0.224
REMARK SMILES OCC(O)CO
REMARK SMILES IDX 3 1 5 2 6 3 2 5 1 6 4 8
REMARK H PARENT 6 4 1 7 4 9
REMARK Flexibility Score: inf
ROOT
ATOM      1  C   UNL     1      38.142 -42.801  -2.373  1.00  0.00     0.165 C 
ENDROOT
BRANCH   1   2
ATOM      2  C   UNL     1      37.235 -41.662  -2.863  1.00  0.00     0.190 C 
BRANCH   2   3
ATOM      3  O   UNL     1      36.044 -41.657  -2.126  1.00  0.00    -0.394 OA
ATOM      4  H   UNL     1      35.324 -41.893  -2.764  1.00  0.00     0.210 HD
ENDBRANCH   2   3
ENDBRANCH   1   2
BRANCH   1   5
ATOM      5  C   UNL     1      38.162 -42.894  -0.839  1.00  0.00     0.190 C 
BRANCH   5   6
ATOM      6  O   UNL     1      37.121 -43.720  -0.394  1.00  0.00    -0.394 OA
ATOM      7  H   UNL     1      36.300 -43.395  -0.847  1.00  0.00     0.210 HD
ENDBRANCH   5   6
ENDBRANCH   1   5
BRANCH   1   8
ATOM      8  O   UNL     1      37.739 -44.028  -2.931  1.00  0.00    -0.388 OA
ATOM      9  H   UNL     1      37.981 -44.014  -3.894  1.00  0.00     0.211 HD
ENDBRANCH   1   8
TORSDOF 5
ENDMDL
MODEL 5
REMARK VINA RESULT:    -3.447      1.437      1.911
REMARK INTER + INTRA:          -4.376
REMARK INTER:                  -4.162
REMARK INTRA:                  -0.214
REMARK UNBOUND:                -0.224
REMARK SMILES OCC(O)CO
REMARK SMILES IDX 3 1 5 2 6 3 2 5 1 6 4 8
REMARK H PARENT 6 4 1 7 4 9
REMARK Flexibility Score: inf
ROOT
ATOM      1  C   UNL     1      32.847 -39.435  -3.279  1.00  0.00     0.165 C 
ENDROOT
BRANCH   1   2
ATOM      2  C   UNL     1      34.274 -39.957  -3.509  1.00  0.00     0.190 C 
BRANCH   2   3
ATOM      3  O   UNL     1      34.227 -41.146  -4.248  1.00  0.00    -0.394 OA
ATOM      4  H   UNL     1      33.297 -41.228  -4.582  1.00  0.00     0.210 HD
ENDBRANCH   2   3
ENDBRANCH   1   2
BRANCH   1   5
ATOM      5  C   UNL     1      31.873 -39.945  -4.353  1.00  0.00     0.190 C 
BRANCH   5   6
ATOM      6  O   UNL     1      31.206 -41.088  -3.893  1.00  0.00    -0.394 OA
ATOM      7  H   UNL     1      31.816 -41.518  -3.238  1.00  0.00     0.210 HD
ENDBRANCH   5   6
ENDBRANCH   1   5
BRANCH   1   8
ATOM      8  O   UNL     1      32.391 -39.792  -1.998  1.00  0.00    -0.388 OA
ATOM      9  H   UNL     1      31.434 -39.533  -1.937  1.00  0.00     0.211 HD
ENDBRANCH   1   8
TORSDOF 5
ENDMDL
MODEL 6
REMARK VINA RESULT:    -3.406      5.744      6.867
REMARK INTER + INTRA:          -4.326
REMARK INTER:                  -4.323
REMARK INTRA:                  -0.004
REMARK UNBOUND:                -0.224
REMARK SMILES OCC(O)CO
REMARK SMILES IDX 3 1 5 2 6 3 2 5 1 6 4 8
REMARK H PARENT 6 4 1 7 4 9
REMARK Flexibility Score: inf
ROOT
ATOM      1  C   UNL     1      37.651 -42.621  -1.027  1.00  0.00     0.165 C 
ENDROOT
BRANCH   1   2
ATOM      2  C   UNL     1      37.479 -42.787  -2.545  1.00  0.00     0.190 C 
BRANCH   2   3
ATOM      3  O   UNL     1      37.813 -44.096  -2.916  1.00  0.00    -0.394 OA
ATOM      4  H   UNL     1      37.146 -44.686  -2.480  1.00  0.00     0.210 HD
ENDBRANCH   2   3
ENDBRANCH   1   2
BRANCH   1   5
ATOM      5  C   UNL     1      37.081 -41.282  -0.532  1.00  0.00     0.190 C 
BRANCH   5   6
ATOM      6  O   UNL     1      35.683 -41.351  -0.462  1.00  0.00    -0.394 OA
ATOM      7  H   UNL     1      35.429 -42.218  -0.873  1.00  0.00     0.210 HD
ENDBRANCH   5   6
ENDBRANCH   1   5
BRANCH   1   8
ATOM      8  O   UNL     1      37.048 -43.690  -0.341  1.00  0.00    -0.388 OA
ATOM      9  H   UNL     1      37.660 -44.470  -0.403  1.00  0.00     0.211 HD
ENDBRANCH   1   8
TORSDOF 5
ENDMDL
MODEL 7
REMARK VINA RESULT:    -3.377     15.932     16.666
REMARK INTER + INTRA:          -4.291
REMARK INTER:                  -4.094
REMARK INTRA:                  -0.197
REMARK UNBOUND:                -0.224
REMARK SMILES OCC(O)CO
REMARK SMILES IDX 3 1 5 2 6 3 2 5 1 6 4 8
REMARK H PARENT 6 4 1 7 4 9
REMARK Flexibility Score: inf
ROOT
ATOM      1  C   UNL     1      26.273 -35.772 -19.505  1.00  0.00     0.165 C 
ENDROOT
BRANCH   1   2
ATOM      2  C   UNL     1      25.931 -34.971 -18.240  1.00  0.00     0.190 C 
BRANCH   2   3
ATOM      3  O   UNL     1      24.744 -35.459 -17.679  1.00  0.00    -0.394 OA
ATOM      4  H   UNL     1      24.656 -35.020 -16.794  1.00  0.00     0.210 HD
ENDBRANCH   2   3
ENDBRANCH   1   2
BRANCH   1   5
ATOM      5  C   UNL     1      27.343 -36.841 -19.231  1.00  0.00     0.190 C 
BRANCH   5   6
ATOM      6  O   UNL     1      27.063 -37.505 -18.030  1.00  0.00    -0.394 OA
ATOM      7  H   UNL     1      26.794 -38.427 -18.281  1.00  0.00     0.210 HD
ENDBRANCH   5   6
ENDBRANCH   1   5
BRANCH   1   8
ATOM      8  O   UNL     1      25.116 -36.366 -20.041  1.00  0.00    -0.388 OA
ATOM      9  H   UNL     1      25.318 -37.326 -20.200  1.00  0.00     0.211 HD
ENDBRANCH   1   8
TORSDOF 5
ENDMDL
MODEL 8
REMARK VINA RESULT:    -3.294      8.438      9.241
REMARK INTER + INTRA:          -4.192
REMARK INTER:                  -3.975
REMARK INTRA:                  -0.217
REMARK UNBOUND:                -0.224
REMARK SMILES OCC(O)CO
REMARK SMILES IDX 3 1 5 2 6 3 2 5 1 6 4 8
REMARK H PARENT 6 4 1 7 4 9
REMARK Flexibility Score: inf
ROOT
ATOM      1  C   UNL     1      30.593 -37.057 -12.677  1.00  0.00     0.165 C 
ENDROOT
BRANCH   1   2
ATOM      2  C   UNL     1      30.506 -37.630 -11.254  1.00  0.00     0.190 C 
BRANCH   2   3
ATOM      3  O   UNL     1      30.730 -36.610 -10.320  1.00  0.00    -0.394 OA
ATOM      4  H   UNL     1      31.560 -36.150 -10.607  1.00  0.00     0.210 HD
ENDBRANCH   2   3
ENDBRANCH   1   2
BRANCH   1   5
ATOM      5  C   UNL     1      29.206 -36.692 -13.230  1.00  0.00     0.190 C 
BRANCH   5   6
ATOM      6  O   UNL     1      28.423 -36.113 -12.222  1.00  0.00    -0.394 OA
ATOM      7  H   UNL     1      27.657 -36.728 -12.082  1.00  0.00     0.210 HD
ENDBRANCH   5   6
ENDBRANCH   1   5
BRANCH   1   8
ATOM      8  O   UNL     1      31.440 -35.935 -12.707  1.00  0.00    -0.388 OA
ATOM      9  H   UNL     1      31.152 -35.322 -11.980  1.00  0.00     0.211 HD
ENDBRANCH   1   8
TORSDOF 5
ENDMDL
