MODEL 1
REMARK VINA RESULT:    -6.383      0.000      0.000
REMARK INTER + INTRA:          -6.995
REMARK INTER:                  -6.943
REMARK INTRA:                  -0.052
REMARK UNBOUND:                -0.052
REMARK SMILES CCc1cccc(O)c1
REMARK SMILES IDX 3 1 9 2 7 3 6 4 5 5 4 6 2 7 1 8 8 9
REMARK H PARENT 8 10
REMARK Flexibility Score: inf
ROOT
ATOM      1  C   UNL     1     -12.642   1.516  -9.629  1.00  0.00    -0.045 A 
ATOM      2  C   UNL     1     -11.353   1.903  -9.227  1.00  0.00     0.049 A 
ATOM      3  C   UNL     1     -11.156   3.117  -8.550  1.00  0.00     0.115 A 
ATOM      4  C   UNL     1     -12.249   3.947  -8.280  1.00  0.00     0.046 A 
ATOM      5  C   UNL     1     -13.532   3.572  -8.688  1.00  0.00     0.004 A 
ATOM      6  C   UNL     1     -13.730   2.364  -9.364  1.00  0.00     0.004 A 
ENDROOT
BRANCH   1   7
ATOM      7  C   UNL     1     -12.847   0.231 -10.385  1.00  0.00     0.032 C 
ATOM      8  C   UNL     1     -11.509  -0.374 -10.794  1.00  0.00     0.009 C 
ENDBRANCH   1   7
BRANCH   3   9
ATOM      9  O   UNL     1      -9.882   3.505  -8.145  1.00  0.00    -0.508 OA
ATOM     10  H   UNL     1      -9.433   4.330  -8.524  1.00  0.00     0.293 HD
ENDBRANCH   3   9
TORSDOF 2
ENDMDL
MODEL 2
REMARK VINA RESULT:    -6.224      1.565      2.222
REMARK INTER + INTRA:          -6.822
REMARK INTER:                  -6.746
REMARK INTRA:                  -0.076
REMARK UNBOUND:                -0.052
REMARK SMILES CCc1cccc(O)c1
REMARK SMILES IDX 3 1 9 2 7 3 6 4 5 5 4 6 2 7 1 8 8 9
REMARK H PARENT 8 10
REMARK Flexibility Score: inf
ROOT
ATOM      1  C   UNL     1     -13.137   1.716  -9.602  1.00  0.00    -0.045 A 
ATOM      2  C   UNL     1     -13.828   2.838  -9.114  1.00  0.00     0.049 A 
ATOM      3  C   UNL     1     -13.130   3.883  -8.490  1.00  0.00     0.115 A 
ATOM      4  C   UNL     1     -11.741   3.803  -8.347  1.00  0.00     0.046 A 
ATOM      5  C   UNL     1     -11.050   2.684  -8.820  1.00  0.00     0.004 A 
ATOM      6  C   UNL     1     -11.744   1.641  -9.441  1.00  0.00     0.004 A 
ENDROOT
BRANCH   1   7
ATOM      7  C   UNL     1     -13.890   0.580 -10.240  1.00  0.00     0.032 C 
ATOM      8  C   UNL     1     -12.928  -0.498 -10.728  1.00  0.00     0.009 C 
ENDBRANCH   1   7
BRANCH   3   9
ATOM      9  O   UNL     1     -13.807   5.000  -8.009  1.00  0.00    -0.508 OA
ATOM     10  H   UNL     1     -14.803   4.979  -7.826  1.00  0.00     0.293 HD
ENDBRANCH   3   9
TORSDOF 2
ENDMDL
MODEL 3
REMARK VINA RESULT:    -5.887      2.088      3.737
REMARK INTER + INTRA:          -6.455
REMARK INTER:                  -6.380
REMARK INTRA:                  -0.075
REMARK UNBOUND:                -0.052
REMARK SMILES CCc1cccc(O)c1
REMARK SMILES IDX 3 1 9 2 7 3 6 4 5 5 4 6 2 7 1 8 8 9
REMARK H PARENT 8 10
REMARK Flexibility Score: inf
ROOT
ATOM      1  C   UNL     1     -12.116   1.964  -9.406  1.00  0.00    -0.045 A 
ATOM      2  C   UNL     1     -11.392   0.871  -9.911  1.00  0.00     0.049 A 
ATOM      3  C   UNL     1     -12.061  -0.194 -10.534  1.00  0.00     0.115 A 
ATOM      4  C   UNL     1     -13.455  -0.169 -10.645  1.00  0.00     0.046 A 
ATOM      5  C   UNL     1     -14.181   0.910 -10.133  1.00  0.00     0.004 A 
ATOM      6  C   UNL     1     -13.516   1.972  -9.511  1.00  0.00     0.004 A 
ENDROOT
BRANCH   1   7
ATOM      7  C   UNL     1     -11.400   3.089  -8.707  1.00  0.00     0.032 C 
ATOM      8  C   UNL     1     -12.347   4.258  -8.460  1.00  0.00     0.009 C 
ENDBRANCH   1   7
BRANCH   3   9
ATOM      9  O   UNL     1     -11.351  -1.278 -11.042  1.00  0.00    -0.508 OA
ATOM     10  H   UNL     1     -11.414  -1.543 -12.018  1.00  0.00     0.293 HD
ENDBRANCH   3   9
TORSDOF 2
ENDMDL
MODEL 4
REMARK VINA RESULT:    -5.501      2.385      4.185
REMARK INTER + INTRA:          -6.035
REMARK INTER:                  -5.959
REMARK INTRA:                  -0.076
REMARK UNBOUND:                -0.052
REMARK SMILES CCc1cccc(O)c1
REMARK SMILES IDX 3 1 9 2 7 3 6 4 5 5 4 6 2 7 1 8 8 9
REMARK H PARENT 8 10
REMARK Flexibility Score: inf
ROOT
ATOM      1  C   UNL     1     -12.808   2.112  -9.359  1.00  0.00    -0.045 A 
ATOM      2  C   UNL     1     -13.722   1.256  -9.994  1.00  0.00     0.049 A 
ATOM      3  C   UNL     1     -13.298   0.017 -10.499  1.00  0.00     0.115 A 
ATOM      4  C   UNL     1     -11.958  -0.362 -10.375  1.00  0.00     0.046 A 
ATOM      5  C   UNL     1     -11.042   0.492  -9.755  1.00  0.00     0.004 A 
ATOM      6  C   UNL     1     -11.461   1.727  -9.252  1.00  0.00     0.004 A 
ENDROOT
BRANCH   1   7
ATOM      7  C   UNL     1     -13.255   3.456  -8.848  1.00  0.00     0.032 C 
ATOM      8  C   UNL     1     -12.066   4.263  -8.339  1.00  0.00     0.009 C 
ENDBRANCH   1   7
BRANCH   3   9
ATOM      9  O   UNL     1     -14.200  -0.840 -11.125  1.00  0.00    -0.508 OA
ATOM     10  H   UNL     1     -14.375  -1.774 -10.773  1.00  0.00     0.293 HD
ENDBRANCH   3   9
TORSDOF 2
ENDMDL
MODEL 5
REMARK VINA RESULT:    -5.431      2.906      4.332
REMARK INTER + INTRA:          -5.959
REMARK INTER:                  -5.903
REMARK INTRA:                  -0.056
REMARK UNBOUND:                -0.052
REMARK SMILES CCc1cccc(O)c1
REMARK SMILES IDX 3 1 9 2 7 3 6 4 5 5 4 6 2 7 1 8 8 9
REMARK H PARENT 8 10
REMARK Flexibility Score: inf
ROOT
ATOM      1  C   UNL     1     -13.189   0.800 -10.068  1.00  0.00    -0.045 A 
ATOM      2  C   UNL     1     -13.326  -0.502 -10.578  1.00  0.00     0.049 A 
ATOM      3  C   UNL     1     -12.219  -1.363 -10.626  1.00  0.00     0.115 A 
ATOM      4  C   UNL     1     -10.974  -0.921 -10.170  1.00  0.00     0.046 A 
ATOM      5  C   UNL     1     -10.829   0.377  -9.673  1.00  0.00     0.004 A 
ATOM      6  C   UNL     1     -11.930   1.238  -9.625  1.00  0.00     0.004 A 
ENDROOT
BRANCH   1   7
ATOM      7  C   UNL     1     -14.368   1.735 -10.049  1.00  0.00     0.032 C 
ATOM      8  C   UNL     1     -14.837   1.983  -8.620  1.00  0.00     0.009 C 
ENDBRANCH   1   7
BRANCH   3   9
ATOM      9  O   UNL     1     -12.348  -2.657 -11.125  1.00  0.00    -0.508 OA
ATOM     10  H   UNL     1     -13.127  -3.251 -10.865  1.00  0.00     0.293 HD
ENDBRANCH   3   9
TORSDOF 2
ENDMDL
MODEL 6
REMARK VINA RESULT:    -5.337      1.988      3.371
REMARK INTER + INTRA:          -5.857
REMARK INTER:                  -5.810
REMARK INTRA:                  -0.047
REMARK UNBOUND:                -0.052
REMARK SMILES CCc1cccc(O)c1
REMARK SMILES IDX 3 1 9 2 7 3 6 4 5 5 4 6 2 7 1 8 8 9
REMARK H PARENT 8 10
REMARK Flexibility Score: inf
ROOT
ATOM      1  C   UNL     1     -10.951  -1.386  -9.825  1.00  0.00    -0.045 A 
ATOM      2  C   UNL     1     -10.419  -0.236  -9.219  1.00  0.00     0.049 A 
ATOM      3  C   UNL     1     -11.104   0.986  -9.294  1.00  0.00     0.115 A 
ATOM      4  C   UNL     1     -12.320   1.059  -9.981  1.00  0.00     0.046 A 
ATOM      5  C   UNL     1     -12.848  -0.079 -10.596  1.00  0.00     0.004 A 
ATOM      6  C   UNL     1     -12.166  -1.297 -10.524  1.00  0.00     0.004 A 
ENDROOT
BRANCH   1   7
ATOM      7  C   UNL     1     -10.198  -2.688  -9.773  1.00  0.00     0.032 C 
ATOM      8  C   UNL     1      -9.792  -3.021  -8.342  1.00  0.00     0.009 C 
ENDBRANCH   1   7
BRANCH   3   9
ATOM      9  O   UNL     1     -10.586   2.129  -8.691  1.00  0.00    -0.508 OA
ATOM     10  H   UNL     1     -10.166   2.099  -7.769  1.00  0.00     0.293 HD
ENDBRANCH   3   9
TORSDOF 2
ENDMDL
MODEL 7
REMARK VINA RESULT:    -4.752     15.340     16.605
REMARK INTER + INTRA:          -5.221
REMARK INTER:                  -5.151
REMARK INTRA:                  -0.069
REMARK UNBOUND:                -0.052
REMARK SMILES CCc1cccc(O)c1
REMARK SMILES IDX 3 1 9 2 7 3 6 4 5 5 4 6 2 7 1 8 8 9
REMARK H PARENT 8 10
REMARK Flexibility Score: inf
ROOT
ATOM      1  C   UNL     1     -12.187   5.908   6.276  1.00  0.00    -0.045 A 
ATOM      2  C   UNL     1     -11.054   6.451   6.903  1.00  0.00     0.049 A 
ATOM      3  C   UNL     1     -10.412   5.750   7.936  1.00  0.00     0.115 A 
ATOM      4  C   UNL     1     -10.909   4.508   8.345  1.00  0.00     0.046 A 
ATOM      5  C   UNL     1     -12.043   3.970   7.732  1.00  0.00     0.004 A 
ATOM      6  C   UNL     1     -12.684   4.667   6.704  1.00  0.00     0.004 A 
ENDROOT
BRANCH   1   7
ATOM      7  C   UNL     1     -12.895   6.676   5.191  1.00  0.00     0.032 C 
ATOM      8  C   UNL     1     -13.381   5.736   4.094  1.00  0.00     0.009 C 
ENDBRANCH   1   7
BRANCH   3   9
ATOM      9  O   UNL     1      -9.285   6.279   8.559  1.00  0.00    -0.508 OA
ATOM     10  H   UNL     1      -8.351   5.966   8.322  1.00  0.00     0.293 HD
ENDBRANCH   3   9
TORSDOF 2
ENDMDL
MODEL 8
REMARK VINA RESULT:    -4.046      1.474      2.291
REMARK INTER + INTRA:          -4.453
REMARK INTER:                  -4.403
REMARK INTRA:                  -0.050
REMARK UNBOUND:                -0.052
REMARK SMILES CCc1cccc(O)c1
REMARK SMILES IDX 3 1 9 2 7 3 6 4 5 5 4 6 2 7 1 8 8 9
REMARK H PARENT 8 10
REMARK Flexibility Score: inf
ROOT
ATOM      1  C   UNL     1     -13.397   2.575  -9.209  1.00  0.00    -0.045 A 
ATOM      2  C   UNL     1     -12.425   1.561  -9.225  1.00  0.00     0.049 A 
ATOM      3  C   UNL     1     -11.097   1.847  -8.877  1.00  0.00     0.115 A 
ATOM      4  C   UNL     1     -10.738   3.151  -8.518  1.00  0.00     0.046 A 
ATOM      5  C   UNL     1     -11.698   4.166  -8.512  1.00  0.00     0.004 A 
ATOM      6  C   UNL     1     -13.023   3.883  -8.861  1.00  0.00     0.004 A 
ENDROOT
BRANCH   1   7
ATOM      7  C   UNL     1     -14.815   2.274  -9.616  1.00  0.00     0.032 C 
ATOM      8  C   UNL     1     -15.125   0.793  -9.436  1.00  0.00     0.009 C 
ENDBRANCH   1   7
BRANCH   3   9
ATOM      9  O   UNL     1     -10.129   0.846  -8.885  1.00  0.00    -0.508 OA
ATOM     10  H   UNL     1     -10.364  -0.117  -9.097  1.00  0.00     0.293 HD
ENDBRANCH   3   9
TORSDOF 2
ENDMDL
