MODEL 1
REMARK VINA RESULT:    -4.232      0.000      0.000
REMARK INTER + INTRA:          -6.002
REMARK INTER:                  -5.716
REMARK INTRA:                  -0.285
REMARK UNBOUND:                -0.285
REMARK SMILES CCCCCCC=CC(=O)[O-]
REMARK SMILES IDX 5 1 6 2 7 3 8 4 9 5 10 6 11 7 4 8 3 9 2 10 1 11
REMARK H PARENT
REMARK Flexibility Score: inf
ROOT
ATOM      1  C   UNL     1      10.485   8.580  -2.436  1.00  0.00     0.004 C 
ENDROOT
BRANCH   1   2
ATOM      2  C   UNL     1      10.914   9.863  -3.167  1.00  0.00     0.027 C 
BRANCH   2   3
ATOM      3  C   UNL     1       9.779  10.493  -3.931  1.00  0.00    -0.025 C 
ATOM      4  C   UNL     1       9.366  11.766  -3.828  1.00  0.00     0.020 C 
BRANCH   4   5
ATOM      5  C   UNL     1       9.969  12.822  -2.985  1.00  0.00     0.064 C 
ATOM      6  O   UNL     1       9.395  13.145  -1.913  1.00  0.00    -0.545 OA
ATOM      7  O   UNL     1      11.129  13.489  -3.351  1.00  0.00    -0.545 OA
ENDBRANCH   4   5
ENDBRANCH   2   3
ENDBRANCH   1   2
BRANCH   1   8
ATOM      8  C   UNL     1       9.782   7.589  -3.375  1.00  0.00     0.000 C 
BRANCH   8   9
ATOM      9  C   UNL     1       8.943   6.578  -2.577  1.00  0.00    -0.000 C 
BRANCH   9  10
ATOM     10  C   UNL     1       8.527   5.362  -3.418  1.00  0.00    -0.003 C 
ATOM     11  C   UNL     1       9.328   4.105  -3.077  1.00  0.00     0.004 C 
ENDBRANCH   9  10
ENDBRANCH   8   9
ENDBRANCH   1   8
TORSDOF 6
ENDMDL
MODEL 2
REMARK VINA RESULT:    -4.200      1.270      1.524
REMARK INTER + INTRA:          -5.959
REMARK INTER:                  -5.680
REMARK INTRA:                  -0.279
REMARK UNBOUND:                -0.285
REMARK SMILES CCCCCCC=CC(=O)[O-]
REMARK SMILES IDX 5 1 6 2 7 3 8 4 9 5 10 6 11 7 4 8 3 9 2 10 1 11
REMARK H PARENT
REMARK Flexibility Score: inf
ROOT
ATOM      1  C   UNL     1      10.280   8.768  -2.692  1.00  0.00     0.004 C 
ENDROOT
BRANCH   1   2
ATOM      2  C   UNL     1      10.401  10.015  -3.582  1.00  0.00     0.027 C 
BRANCH   2   3
ATOM      3  C   UNL     1       9.431  11.097  -3.187  1.00  0.00    -0.025 C 
ATOM      4  C   UNL     1       9.635  12.043  -2.257  1.00  0.00     0.020 C 
BRANCH   4   5
ATOM      5  C   UNL     1      10.869  12.248  -1.467  1.00  0.00     0.064 C 
ATOM      6  O   UNL     1      11.611  13.226  -1.743  1.00  0.00    -0.545 OA
ATOM      7  O   UNL     1      11.251  11.384  -0.451  1.00  0.00    -0.545 OA
ENDBRANCH   4   5
ENDBRANCH   2   3
ENDBRANCH   1   2
BRANCH   1   8
ATOM      8  C   UNL     1       9.843   7.530  -3.489  1.00  0.00     0.000 C 
BRANCH   8   9
ATOM      9  C   UNL     1       8.952   6.614  -2.637  1.00  0.00    -0.000 C 
BRANCH   9  10
ATOM     10  C   UNL     1       8.477   5.371  -3.404  1.00  0.00    -0.003 C 
ATOM     11  C   UNL     1       9.316   4.130  -3.098  1.00  0.00     0.004 C 
ENDBRANCH   9  10
ENDBRANCH   8   9
ENDBRANCH   1   8
TORSDOF 6
ENDMDL
MODEL 3
REMARK VINA RESULT:    -3.992      1.206      1.521
REMARK INTER + INTRA:          -5.678
REMARK INTER:                  -5.482
REMARK INTRA:                  -0.196
REMARK UNBOUND:                -0.285
REMARK SMILES CCCCCCC=CC(=O)[O-]
REMARK SMILES IDX 5 1 6 2 7 3 8 4 9 5 10 6 11 7 4 8 3 9 2 10 1 11
REMARK H PARENT
REMARK Flexibility Score: inf
ROOT
ATOM      1  C   UNL     1      10.499   8.747  -2.583  1.00  0.00     0.004 C 
ENDROOT
BRANCH   1   2
ATOM      2  C   UNL     1      10.547  10.146  -3.219  1.00  0.00     0.027 C 
BRANCH   2   3
ATOM      3  C   UNL     1      11.942  10.542  -3.624  1.00  0.00    -0.025 C 
ATOM      4  C   UNL     1      12.446  11.787  -3.614  1.00  0.00     0.020 C 
BRANCH   4   5
ATOM      5  C   UNL     1      11.756  13.012  -3.156  1.00  0.00     0.064 C 
ATOM      6  O   UNL     1      12.025  13.470  -2.015  1.00  0.00    -0.545 OA
ATOM      7  O   UNL     1      10.801  13.658  -3.928  1.00  0.00    -0.545 OA
ENDBRANCH   4   5
ENDBRANCH   2   3
ENDBRANCH   1   2
BRANCH   1   8
ATOM      8  C   UNL     1       9.728   7.744  -3.455  1.00  0.00     0.000 C 
BRANCH   8   9
ATOM      9  C   UNL     1       8.983   6.721  -2.585  1.00  0.00    -0.000 C 
BRANCH   9  10
ATOM     10  C   UNL     1       8.550   5.477  -3.376  1.00  0.00    -0.003 C 
ATOM     11  C   UNL     1       9.314   4.218  -2.962  1.00  0.00     0.004 C 
ENDBRANCH   9  10
ENDBRANCH   8   9
ENDBRANCH   1   8
TORSDOF 6
ENDMDL
MODEL 4
REMARK VINA RESULT:    -3.948      9.075     11.262
REMARK INTER + INTRA:          -5.618
REMARK INTER:                  -4.958
REMARK INTRA:                  -0.660
REMARK UNBOUND:                -0.285
REMARK SMILES CCCCCCC=CC(=O)[O-]
REMARK SMILES IDX 5 1 6 2 7 3 8 4 9 5 10 6 11 7 4 8 3 9 2 10 1 11
REMARK H PARENT
REMARK Flexibility Score: inf
ROOT
ATOM      1  C   UNL     1       5.641  15.684   4.023  1.00  0.00     0.004 C 
ENDROOT
BRANCH   1   2
ATOM      2  C   UNL     1       5.545  14.723   2.828  1.00  0.00     0.027 C 
BRANCH   2   3
ATOM      3  C   UNL     1       6.019  15.354   1.546  1.00  0.00    -0.025 C 
ATOM      4  C   UNL     1       5.290  15.528   0.432  1.00  0.00     0.020 C 
BRANCH   4   5
ATOM      5  C   UNL     1       3.863  15.183   0.251  1.00  0.00     0.064 C 
ATOM      6  O   UNL     1       3.562  14.024  -0.133  1.00  0.00    -0.545 OA
ATOM      7  O   UNL     1       2.846  16.104   0.462  1.00  0.00    -0.545 OA
ENDBRANCH   4   5
ENDBRANCH   2   3
ENDBRANCH   1   2
BRANCH   1   8
ATOM      8  C   UNL     1       4.658  16.858   3.901  1.00  0.00     0.000 C 
BRANCH   8   9
ATOM      9  C   UNL     1       5.351  18.191   4.219  1.00  0.00    -0.000 C 
BRANCH   9  10
ATOM     10  C   UNL     1       4.704  19.381   3.496  1.00  0.00    -0.003 C 
ATOM     11  C   UNL     1       4.247  19.034   2.078  1.00  0.00     0.004 C 
ENDBRANCH   9  10
ENDBRANCH   8   9
ENDBRANCH   1   8
TORSDOF 6
ENDMDL
MODEL 5
REMARK VINA RESULT:    -3.945      9.077     10.568
REMARK INTER + INTRA:          -5.615
REMARK INTER:                  -5.207
REMARK INTRA:                  -0.408
REMARK UNBOUND:                -0.285
REMARK SMILES CCCCCCC=CC(=O)[O-]
REMARK SMILES IDX 5 1 6 2 7 3 8 4 9 5 10 6 11 7 4 8 3 9 2 10 1 11
REMARK H PARENT
REMARK Flexibility Score: inf
ROOT
ATOM      1  C   UNL     1       5.420  15.910   3.614  1.00  0.00     0.004 C 
ENDROOT
BRANCH   1   2
ATOM      2  C   UNL     1       5.616  14.590   2.851  1.00  0.00     0.027 C 
BRANCH   2   3
ATOM      3  C   UNL     1       4.320  14.037   2.321  1.00  0.00    -0.025 C 
ATOM      4  C   UNL     1       3.713  14.399   1.180  1.00  0.00     0.020 C 
BRANCH   4   5
ATOM      5  C   UNL     1       4.214  15.374   0.187  1.00  0.00     0.064 C 
ATOM      6  O   UNL     1       4.961  14.967  -0.741  1.00  0.00    -0.545 OA
ATOM      7  O   UNL     1       3.914  16.727   0.259  1.00  0.00    -0.545 OA
ENDBRANCH   4   5
ENDBRANCH   2   3
ENDBRANCH   1   2
BRANCH   1   8
ATOM      8  C   UNL     1       5.961  15.833   5.049  1.00  0.00     0.000 C 
BRANCH   8   9
ATOM      9  C   UNL     1       6.903  17.010   5.345  1.00  0.00    -0.000 C 
BRANCH   9  10
ATOM     10  C   UNL     1       8.305  16.552   5.772  1.00  0.00    -0.003 C 
ATOM     11  C   UNL     1       8.670  15.173   5.222  1.00  0.00     0.004 C 
ENDBRANCH   9  10
ENDBRANCH   8   9
ENDBRANCH   1   8
TORSDOF 6
ENDMDL
MODEL 6
REMARK VINA RESULT:    -3.944      9.171     10.608
REMARK INTER + INTRA:          -5.612
REMARK INTER:                  -4.649
REMARK INTRA:                  -0.963
REMARK UNBOUND:                -0.285
REMARK SMILES CCCCCCC=CC(=O)[O-]
REMARK SMILES IDX 5 1 6 2 7 3 8 4 9 5 10 6 11 7 4 8 3 9 2 10 1 11
REMARK H PARENT
REMARK Flexibility Score: inf
ROOT
ATOM      1  C   UNL     1       3.522  14.391   0.547  1.00  0.00     0.004 C 
ENDROOT
BRANCH   1   2
ATOM      2  C   UNL     1       2.231  15.223   0.491  1.00  0.00     0.027 C 
BRANCH   2   3
ATOM      3  C   UNL     1       1.981  15.979   1.769  1.00  0.00    -0.025 C 
ATOM      4  C   UNL     1       2.362  17.239   2.031  1.00  0.00     0.020 C 
BRANCH   4   5
ATOM      5  C   UNL     1       3.058  18.158   1.106  1.00  0.00     0.064 C 
ATOM      6  O   UNL     1       4.222  18.543   1.391  1.00  0.00    -0.545 OA
ATOM      7  O   UNL     1       2.461  18.636  -0.053  1.00  0.00    -0.545 OA
ENDBRANCH   4   5
ENDBRANCH   2   3
ENDBRANCH   1   2
BRANCH   1   8
ATOM      8  C   UNL     1       4.692  15.092  -0.159  1.00  0.00     0.000 C 
BRANCH   8   9
ATOM      9  C   UNL     1       5.768  15.515   0.851  1.00  0.00    -0.000 C 
BRANCH   9  10
ATOM     10  C   UNL     1       5.560  14.884   2.236  1.00  0.00    -0.003 C 
ATOM     11  C   UNL     1       5.638  15.907   3.370  1.00  0.00     0.004 C 
ENDBRANCH   9  10
ENDBRANCH   8   9
ENDBRANCH   1   8
TORSDOF 6
ENDMDL
MODEL 7
REMARK VINA RESULT:    -3.871      8.968     10.969
REMARK INTER + INTRA:          -5.514
REMARK INTER:                  -4.751
REMARK INTRA:                  -0.763
REMARK UNBOUND:                -0.285
REMARK SMILES CCCCCCC=CC(=O)[O-]
REMARK SMILES IDX 5 1 6 2 7 3 8 4 9 5 10 6 11 7 4 8 3 9 2 10 1 11
REMARK H PARENT
REMARK Flexibility Score: inf
ROOT
ATOM      1  C   UNL     1       3.445  14.211   4.404  1.00  0.00     0.004 C 
ENDROOT
BRANCH   1   2
ATOM      2  C   UNL     1       3.945  13.995   2.967  1.00  0.00     0.027 C 
BRANCH   2   3
ATOM      3  C   UNL     1       5.410  14.308   2.816  1.00  0.00    -0.025 C 
ATOM      4  C   UNL     1       5.959  15.090   1.874  1.00  0.00     0.020 C 
BRANCH   4   5
ATOM      5  C   UNL     1       5.239  15.844   0.825  1.00  0.00     0.064 C 
ATOM      6  O   UNL     1       4.732  16.958   1.116  1.00  0.00    -0.545 OA
ATOM      7  O   UNL     1       5.077  15.351  -0.462  1.00  0.00    -0.545 OA
ENDBRANCH   4   5
ENDBRANCH   2   3
ENDBRANCH   1   2
BRANCH   1   8
ATOM      8  C   UNL     1       3.662  15.655   4.880  1.00  0.00     0.000 C 
BRANCH   8   9
ATOM      9  C   UNL     1       4.584  15.697   6.107  1.00  0.00    -0.000 C 
BRANCH   9  10
ATOM     10  C   UNL     1       5.901  16.439   5.833  1.00  0.00    -0.003 C 
ATOM     11  C   UNL     1       5.755  17.527   4.769  1.00  0.00     0.004 C 
ENDBRANCH   9  10
ENDBRANCH   8   9
ENDBRANCH   1   8
TORSDOF 6
ENDMDL
MODEL 8
REMARK VINA RESULT:    -3.784      3.103      4.505
REMARK INTER + INTRA:          -5.397
REMARK INTER:                  -4.562
REMARK INTRA:                  -0.835
REMARK UNBOUND:                -0.285
REMARK SMILES CCCCCCC=CC(=O)[O-]
REMARK SMILES IDX 5 1 6 2 7 3 8 4 9 5 10 6 11 7 4 8 3 9 2 10 1 11
REMARK H PARENT
REMARK Flexibility Score: inf
ROOT
ATOM      1  C   UNL     1      10.285  13.444  -4.264  1.00  0.00     0.004 C 
ENDROOT
BRANCH   1   2
ATOM      2  C   UNL     1      11.677  14.086  -4.380  1.00  0.00     0.027 C 
BRANCH   2   3
ATOM      3  C   UNL     1      12.773  13.162  -3.919  1.00  0.00    -0.025 C 
ATOM      4  C   UNL     1      13.240  13.052  -2.665  1.00  0.00     0.020 C 
BRANCH   4   5
ATOM      5  C   UNL     1      12.741  13.773  -1.474  1.00  0.00     0.064 C 
ATOM      6  O   UNL     1      11.660  13.402  -0.947  1.00  0.00    -0.545 OA
ATOM      7  O   UNL     1      13.409  14.863  -0.934  1.00  0.00    -0.545 OA
ENDBRANCH   4   5
ENDBRANCH   2   3
ENDBRANCH   1   2
BRANCH   1   8
ATOM      8  C   UNL     1      10.235  12.052  -4.912  1.00  0.00     0.000 C 
BRANCH   8   9
ATOM      9  C   UNL     1       9.456  11.064  -4.031  1.00  0.00    -0.000 C 
BRANCH   9  10
ATOM     10  C   UNL     1      10.243  10.639  -2.782  1.00  0.00    -0.003 C 
ATOM     11  C   UNL     1      11.432   9.736  -3.111  1.00  0.00     0.004 C 
ENDBRANCH   9  10
ENDBRANCH   8   9
ENDBRANCH   1   8
TORSDOF 6
ENDMDL
MODEL 9
REMARK VINA RESULT:    -3.758      3.198      4.796
REMARK INTER + INTRA:          -5.361
REMARK INTER:                  -4.488
REMARK INTRA:                  -0.873
REMARK UNBOUND:                -0.285
REMARK SMILES CCCCCCC=CC(=O)[O-]
REMARK SMILES IDX 5 1 6 2 7 3 8 4 9 5 10 6 11 7 4 8 3 9 2 10 1 11
REMARK H PARENT
REMARK Flexibility Score: inf
ROOT
ATOM      1  C   UNL     1      11.335  10.470  -3.117  1.00  0.00     0.004 C 
ENDROOT
BRANCH   1   2
ATOM      2  C   UNL     1      11.486  10.745  -1.612  1.00  0.00     0.027 C 
BRANCH   2   3
ATOM      3  C   UNL     1      10.805  12.020  -1.191  1.00  0.00    -0.025 C 
ATOM      4  C   UNL     1      11.371  13.235  -1.126  1.00  0.00     0.020 C 
BRANCH   4   5
ATOM      5  C   UNL     1      12.758  13.582  -1.501  1.00  0.00     0.064 C 
ATOM      6  O   UNL     1      12.981  14.039  -2.652  1.00  0.00    -0.545 OA
ATOM      7  O   UNL     1      13.829  13.392  -0.638  1.00  0.00    -0.545 OA
ENDBRANCH   4   5
ENDBRANCH   2   3
ENDBRANCH   1   2
BRANCH   1   8
ATOM      8  C   UNL     1       9.873  10.210  -3.512  1.00  0.00     0.000 C 
BRANCH   8   9
ATOM      9  C   UNL     1       9.400  11.225  -4.563  1.00  0.00    -0.000 C 
BRANCH   9  10
ATOM     10  C   UNL     1      10.481  12.257  -4.917  1.00  0.00    -0.003 C 
ATOM     11  C   UNL     1      10.056  13.691  -4.600  1.00  0.00     0.004 C 
ENDBRANCH   9  10
ENDBRANCH   8   9
ENDBRANCH   1   8
TORSDOF 6
ENDMDL
