MODEL 1
REMARK VINA RESULT:    -4.036      0.000      0.000
REMARK INTER + INTRA:          -5.627
REMARK INTER:                  -5.216
REMARK INTRA:                  -0.411
REMARK UNBOUND:                -0.411
REMARK SMILES CCO[C@@H]1O[C@@H](CO)[C@H](O)[C@@H](O)[C@H]1O
REMARK SMILES IDX 4 1 13 2 11 3 9 4 6 5 5 6 3 7 2 8 1 9 14 10 12 12 7 14 8 15
REMARK SMILES IDX 10 17
REMARK H PARENT 14 11 12 13 8 16 10 18
REMARK Flexibility Score: inf
ROOT
ATOM      1  C   UNL     1       9.496  -3.463   2.831  1.00  0.00     0.281 C 
ATOM      2  C   UNL     1       9.750  -4.639   1.873  1.00  0.00     0.202 C 
ATOM      3  C   UNL     1       8.890  -5.850   2.282  1.00  0.00     0.179 C 
ATOM      4  C   UNL     1       7.418  -5.431   2.438  1.00  0.00     0.177 C 
ATOM      5  C   UNL     1       7.324  -4.197   3.368  1.00  0.00     0.178 C 
ATOM      6  O   UNL     1       8.115  -3.129   2.868  1.00  0.00    -0.341 OA
ENDROOT
BRANCH   1   7
ATOM      7  O   UNL     1       9.992  -3.775   4.124  1.00  0.00    -0.350 OA
BRANCH   7   8
ATOM      8  C   UNL     1      11.406  -3.857   4.122  1.00  0.00     0.160 C 
ATOM      9  C   UNL     1      12.013  -2.465   3.998  1.00  0.00     0.035 C 
ENDBRANCH   7   8
ENDBRANCH   1   7
BRANCH   2  10
ATOM     10  O   UNL     1       9.438  -4.236   0.562  1.00  0.00    -0.385 OA
ATOM     11  H   UNL     1       8.456  -4.092   0.530  1.00  0.00     0.211 HD
ENDBRANCH   2  10
BRANCH   3  12
ATOM     12  O   UNL     1       8.991  -6.869   1.321  1.00  0.00    -0.387 OA
ATOM     13  H   UNL     1       9.153  -7.714   1.817  1.00  0.00     0.211 HD
ENDBRANCH   3  12
BRANCH   5  14
ATOM     14  C   UNL     1       5.877  -3.694   3.483  1.00  0.00     0.191 C 
BRANCH  14  15
ATOM     15  O   UNL     1       5.139  -4.056   2.348  1.00  0.00    -0.394 OA
ATOM     16  H   UNL     1       5.619  -3.666   1.572  1.00  0.00     0.210 HD
ENDBRANCH  14  15
ENDBRANCH   5  14
BRANCH   4  17
ATOM     17  O   UNL     1       6.685  -6.498   2.984  1.00  0.00    -0.387 OA
ATOM     18  H   UNL     1       5.755  -6.176   3.110  1.00  0.00     0.211 HD
ENDBRANCH   4  17
TORSDOF 7
ENDMDL
MODEL 2
REMARK VINA RESULT:    -3.725      2.248      4.075
REMARK INTER + INTRA:          -5.225
REMARK INTER:                  -4.837
REMARK INTRA:                  -0.388
REMARK UNBOUND:                -0.411
REMARK SMILES CCO[C@@H]1O[C@@H](CO)[C@H](O)[C@@H](O)[C@H]1O
REMARK SMILES IDX 4 1 13 2 11 3 9 4 6 5 5 6 3 7 2 8 1 9 14 10 12 12 7 14 8 15
REMARK SMILES IDX 10 17
REMARK H PARENT 14 11 12 13 8 16 10 18
REMARK Flexibility Score: inf
ROOT
ATOM      1  C   UNL     1      11.182  -6.012   3.344  1.00  0.00     0.281 C 
ATOM      2  C   UNL     1      11.914  -4.682   3.100  1.00  0.00     0.202 C 
ATOM      3  C   UNL     1      11.576  -4.143   1.696  1.00  0.00     0.179 C 
ATOM      4  C   UNL     1      10.052  -4.106   1.490  1.00  0.00     0.177 C 
ATOM      5  C   UNL     1       9.446  -5.487   1.841  1.00  0.00     0.178 C 
ATOM      6  O   UNL     1       9.779  -5.858   3.171  1.00  0.00    -0.341 OA
ENDROOT
BRANCH   1   7
ATOM      7  O   UNL     1      11.706  -7.018   2.490  1.00  0.00    -0.350 OA
BRANCH   7   8
ATOM      8  C   UNL     1      11.441  -8.311   3.003  1.00  0.00     0.160 C 
ATOM      9  C   UNL     1      10.646  -9.125   1.989  1.00  0.00     0.035 C 
ENDBRANCH   7   8
ENDBRANCH   1   7
BRANCH   2  10
ATOM     10  O   UNL     1      11.524  -3.757   4.086  1.00  0.00    -0.385 OA
ATOM     11  H   UNL     1      10.580  -3.961   4.317  1.00  0.00     0.211 HD
ENDBRANCH   2  10
BRANCH   3  12
ATOM     12  O   UNL     1      12.105  -2.853   1.526  1.00  0.00    -0.387 OA
ATOM     13  H   UNL     1      11.392  -2.305   1.105  1.00  0.00     0.211 HD
ENDBRANCH   3  12
BRANCH   5  14
ATOM     14  C   UNL     1       7.915  -5.470   1.731  1.00  0.00     0.191 C 
BRANCH  14  15
ATOM     15  O   UNL     1       7.514  -5.715   0.410  1.00  0.00    -0.394 OA
ATOM     16  H   UNL     1       7.191  -4.847   0.055  1.00  0.00     0.210 HD
ENDBRANCH  14  15
ENDBRANCH   5  14
BRANCH   4  17
ATOM     17  O   UNL     1       9.770  -3.788   0.151  1.00  0.00    -0.387 OA
ATOM     18  H   UNL     1      10.386  -3.054  -0.108  1.00  0.00     0.211 HD
ENDBRANCH   4  17
TORSDOF 7
ENDMDL
MODEL 3
REMARK VINA RESULT:    -3.570      3.008      4.954
REMARK INTER + INTRA:          -5.025
REMARK INTER:                  -4.980
REMARK INTRA:                  -0.045
REMARK UNBOUND:                -0.411
REMARK SMILES CCO[C@@H]1O[C@@H](CO)[C@H](O)[C@@H](O)[C@H]1O
REMARK SMILES IDX 4 1 13 2 11 3 9 4 6 5 5 6 3 7 2 8 1 9 14 10 12 12 7 14 8 15
REMARK SMILES IDX 10 17
REMARK H PARENT 14 11 12 13 8 16 10 18
REMARK Flexibility Score: inf
ROOT
ATOM      1  C   UNL     1      11.715  -3.977   3.988  1.00  0.00     0.281 C 
ATOM      2  C   UNL     1      12.967  -3.088   3.918  1.00  0.00     0.202 C 
ATOM      3  C   UNL     1      13.653  -3.247   2.548  1.00  0.00     0.179 C 
ATOM      4  C   UNL     1      12.634  -3.042   1.413  1.00  0.00     0.177 C 
ATOM      5  C   UNL     1      11.400  -3.945   1.654  1.00  0.00     0.178 C 
ATOM      6  O   UNL     1      10.821  -3.678   2.923  1.00  0.00    -0.341 OA
ENDROOT
BRANCH   1   7
ATOM      7  O   UNL     1      12.090  -5.346   3.985  1.00  0.00    -0.350 OA
BRANCH   7   8
ATOM      8  C   UNL     1      10.956  -6.187   4.094  1.00  0.00     0.160 C 
ATOM      9  C   UNL     1      11.103  -7.390   3.170  1.00  0.00     0.035 C 
ENDBRANCH   7   8
ENDBRANCH   1   7
BRANCH   2  10
ATOM     10  O   UNL     1      12.589  -1.749   4.125  1.00  0.00    -0.385 OA
ATOM     11  H   UNL     1      13.397  -1.266   4.443  1.00  0.00     0.211 HD
ENDBRANCH   2  10
BRANCH   3  12
ATOM     12  O   UNL     1      14.700  -2.320   2.414  1.00  0.00    -0.387 OA
ATOM     13  H   UNL     1      14.470  -1.545   2.991  1.00  0.00     0.211 HD
ENDBRANCH   3  12
BRANCH   5  14
ATOM     14  C   UNL     1      10.319  -3.709   0.589  1.00  0.00     0.191 C 
BRANCH  14  15
ATOM     15  O   UNL     1       9.215  -4.542   0.816  1.00  0.00    -0.394 OA
ATOM     16  H   UNL     1       8.420  -4.036   0.504  1.00  0.00     0.210 HD
ENDBRANCH  14  15
ENDBRANCH   5  14
BRANCH   4  17
ATOM     17  O   UNL     1      13.233  -3.368   0.185  1.00  0.00    -0.387 OA
ATOM     18  H   UNL     1      13.108  -2.587  -0.414  1.00  0.00     0.211 HD
ENDBRANCH   4  17
TORSDOF 7
ENDMDL
MODEL 4
REMARK VINA RESULT:    -3.569      1.811      4.478
REMARK INTER + INTRA:          -5.023
REMARK INTER:                  -4.622
REMARK INTRA:                  -0.401
REMARK UNBOUND:                -0.411
REMARK SMILES CCO[C@@H]1O[C@@H](CO)[C@H](O)[C@@H](O)[C@H]1O
REMARK SMILES IDX 4 1 13 2 11 3 9 4 6 5 5 6 3 7 2 8 1 9 14 10 12 12 7 14 8 15
REMARK SMILES IDX 10 17
REMARK H PARENT 14 11 12 13 8 16 10 18
REMARK Flexibility Score: inf
ROOT
ATOM      1  C   UNL     1       9.030  -5.341   3.369  1.00  0.00     0.281 C 
ATOM      2  C   UNL     1       8.837  -5.090   1.864  1.00  0.00     0.202 C 
ATOM      3  C   UNL     1       9.812  -3.999   1.382  1.00  0.00     0.179 C 
ATOM      4  C   UNL     1      11.249  -4.335   1.817  1.00  0.00     0.177 C 
ATOM      5  C   UNL     1      11.276  -4.633   3.336  1.00  0.00     0.178 C 
ATOM      6  O   UNL     1      10.379  -5.686   3.657  1.00  0.00    -0.341 OA
ENDROOT
BRANCH   1   7
ATOM      7  O   UNL     1       8.613  -4.203   4.109  1.00  0.00    -0.350 OA
BRANCH   7   8
ATOM      8  C   UNL     1       7.201  -4.094   4.125  1.00  0.00     0.160 C 
ATOM      9  C   UNL     1       6.780  -2.676   3.759  1.00  0.00     0.035 C 
ENDBRANCH   7   8
ENDBRANCH   1   7
BRANCH   2  10
ATOM     10  O   UNL     1       9.063  -6.291   1.168  1.00  0.00    -0.385 OA
ATOM     11  H   UNL     1       9.087  -6.066   0.201  1.00  0.00     0.211 HD
ENDBRANCH   2  10
BRANCH   3  12
ATOM     12  O   UNL     1       9.760  -3.879  -0.017  1.00  0.00    -0.387 OA
ATOM     13  H   UNL     1       8.802  -3.771  -0.258  1.00  0.00     0.211 HD
ENDBRANCH   3  12
BRANCH   5  14
ATOM     14  C   UNL     1      12.678  -5.057   3.797  1.00  0.00     0.191 C 
BRANCH  14  15
ATOM     15  O   UNL     1      13.536  -3.949   3.843  1.00  0.00    -0.394 OA
ATOM     16  H   UNL     1      14.457  -4.317   3.886  1.00  0.00     0.210 HD
ENDBRANCH  14  15
ENDBRANCH   5  14
BRANCH   4  17
ATOM     17  O   UNL     1      12.089  -3.247   1.529  1.00  0.00    -0.387 OA
ATOM     18  H   UNL     1      11.613  -2.679   0.869  1.00  0.00     0.211 HD
ENDBRANCH   4  17
TORSDOF 7
ENDMDL
MODEL 5
REMARK VINA RESULT:    -3.504      1.784      4.080
REMARK INTER + INTRA:          -4.939
REMARK INTER:                  -4.532
REMARK INTRA:                  -0.408
REMARK UNBOUND:                -0.411
REMARK SMILES CCO[C@@H]1O[C@@H](CO)[C@H](O)[C@@H](O)[C@H]1O
REMARK SMILES IDX 4 1 13 2 11 3 9 4 6 5 5 6 3 7 2 8 1 9 14 10 12 12 7 14 8 15
REMARK SMILES IDX 10 17
REMARK H PARENT 14 11 12 13 8 16 10 18
REMARK Flexibility Score: inf
ROOT
ATOM      1  C   UNL     1       8.507  -4.391   2.266  1.00  0.00     0.281 C 
ATOM      2  C   UNL     1       9.745  -3.651   1.732  1.00  0.00     0.202 C 
ATOM      3  C   UNL     1      11.020  -4.205   2.399  1.00  0.00     0.179 C 
ATOM      4  C   UNL     1      11.063  -5.738   2.278  1.00  0.00     0.177 C 
ATOM      5  C   UNL     1       9.728  -6.337   2.784  1.00  0.00     0.178 C 
ATOM      6  O   UNL     1       8.629  -5.793   2.067  1.00  0.00    -0.341 OA
ENDROOT
BRANCH   1   7
ATOM      7  O   UNL     1       8.305  -4.074   3.635  1.00  0.00    -0.350 OA
BRANCH   7   8
ATOM      8  C   UNL     1       7.293  -3.095   3.788  1.00  0.00     0.160 C 
ATOM      9  C   UNL     1       5.934  -3.684   3.427  1.00  0.00     0.035 C 
ENDBRANCH   7   8
ENDBRANCH   1   7
BRANCH   2  10
ATOM     10  O   UNL     1       9.810  -3.817   0.337  1.00  0.00    -0.385 OA
ATOM     11  H   UNL     1      10.686  -4.240   0.136  1.00  0.00     0.211 HD
ENDBRANCH   2  10
BRANCH   3  12
ATOM     12  O   UNL     1      12.164  -3.653   1.800  1.00  0.00    -0.387 OA
ATOM     13  H   UNL     1      12.198  -4.004   0.872  1.00  0.00     0.211 HD
ENDBRANCH   3  12
BRANCH   5  14
ATOM     14  C   UNL     1       9.696  -7.861   2.602  1.00  0.00     0.191 C 
BRANCH  14  15
ATOM     15  O   UNL     1      10.556  -8.251   1.566  1.00  0.00    -0.394 OA
ATOM     16  H   UNL     1      10.085  -8.973   1.074  1.00  0.00     0.210 HD
ENDBRANCH  14  15
ENDBRANCH   5  14
BRANCH   4  17
ATOM     17  O   UNL     1      12.130  -6.235   3.044  1.00  0.00    -0.387 OA
ATOM     18  H   UNL     1      12.965  -6.014   2.555  1.00  0.00     0.211 HD
ENDBRANCH   4  17
TORSDOF 7
ENDMDL
MODEL 6
REMARK VINA RESULT:    -3.477      1.714      4.222
REMARK INTER + INTRA:          -4.904
REMARK INTER:                  -4.579
REMARK INTRA:                  -0.325
REMARK UNBOUND:                -0.411
REMARK SMILES CCO[C@@H]1O[C@@H](CO)[C@H](O)[C@@H](O)[C@H]1O
REMARK SMILES IDX 4 1 13 2 11 3 9 4 6 5 5 6 3 7 2 8 1 9 14 10 12 12 7 14 8 15
REMARK SMILES IDX 10 17
REMARK H PARENT 14 11 12 13 8 16 10 18
REMARK Flexibility Score: inf
ROOT
ATOM      1  C   UNL     1       7.586  -6.459   2.590  1.00  0.00     0.281 C 
ATOM      2  C   UNL     1       6.211  -5.771   2.547  1.00  0.00     0.202 C 
ATOM      3  C   UNL     1       6.225  -4.509   3.433  1.00  0.00     0.179 C 
ATOM      4  C   UNL     1       7.424  -3.615   3.071  1.00  0.00     0.177 C 
ATOM      5  C   UNL     1       8.723  -4.457   3.083  1.00  0.00     0.178 C 
ATOM      6  O   UNL     1       8.615  -5.561   2.197  1.00  0.00    -0.341 OA
ENDROOT
BRANCH   1   7
ATOM      7  O   UNL     1       7.823  -6.991   3.884  1.00  0.00    -0.350 OA
BRANCH   7   8
ATOM      8  C   UNL     1       7.801  -8.406   3.867  1.00  0.00     0.160 C 
ATOM      9  C   UNL     1       9.059  -8.943   3.196  1.00  0.00     0.035 C 
ENDBRANCH   7   8
ENDBRANCH   1   7
BRANCH   2  10
ATOM     10  O   UNL     1       5.911  -5.431   1.216  1.00  0.00    -0.385 OA
ATOM     11  H   UNL     1       5.441  -6.210   0.818  1.00  0.00     0.211 HD
ENDBRANCH   2  10
BRANCH   3  12
ATOM     12  O   UNL     1       5.032  -3.786   3.272  1.00  0.00    -0.387 OA
ATOM     13  H   UNL     1       5.258  -2.978   2.739  1.00  0.00     0.211 HD
ENDBRANCH   3  12
BRANCH   5  14
ATOM     14  C   UNL     1       9.934  -3.622   2.644  1.00  0.00     0.191 C 
BRANCH  14  15
ATOM     15  O   UNL     1       9.603  -2.816   1.546  1.00  0.00    -0.394 OA
ATOM     16  H   UNL     1      10.254  -2.067   1.549  1.00  0.00     0.210 HD
ENDBRANCH  14  15
ENDBRANCH   5  14
BRANCH   4  17
ATOM     17  O   UNL     1       7.523  -2.570   4.003  1.00  0.00    -0.387 OA
ATOM     18  H   UNL     1       6.681  -2.047   3.943  1.00  0.00     0.211 HD
ENDBRANCH   4  17
TORSDOF 7
ENDMDL
MODEL 7
REMARK VINA RESULT:    -3.476      2.001      3.308
REMARK INTER + INTRA:          -4.903
REMARK INTER:                  -4.516
REMARK INTRA:                  -0.387
REMARK UNBOUND:                -0.411
REMARK SMILES CCO[C@@H]1O[C@@H](CO)[C@H](O)[C@@H](O)[C@H]1O
REMARK SMILES IDX 4 1 13 2 11 3 9 4 6 5 5 6 3 7 2 8 1 9 14 10 12 12 7 14 8 15
REMARK SMILES IDX 10 17
REMARK H PARENT 14 11 12 13 8 16 10 18
REMARK Flexibility Score: inf
ROOT
ATOM      1  C   UNL     1      11.395  -6.430   2.743  1.00  0.00     0.281 C 
ATOM      2  C   UNL     1      10.067  -7.192   2.887  1.00  0.00     0.202 C 
ATOM      3  C   UNL     1       8.909  -6.199   3.106  1.00  0.00     0.179 C 
ATOM      4  C   UNL     1       8.930  -5.106   2.024  1.00  0.00     0.177 C 
ATOM      5  C   UNL     1      10.343  -4.480   1.944  1.00  0.00     0.178 C 
ATOM      6  O   UNL     1      11.321  -5.478   1.689  1.00  0.00    -0.341 OA
ENDROOT
BRANCH   1   7
ATOM      7  O   UNL     1      11.739  -5.818   3.976  1.00  0.00    -0.350 OA
BRANCH   7   8
ATOM      8  C   UNL     1      13.144  -5.715   4.120  1.00  0.00     0.160 C 
ATOM      9  C   UNL     1      13.582  -4.263   3.970  1.00  0.00     0.035 C 
ENDBRANCH   7   8
ENDBRANCH   1   7
BRANCH   2  10
ATOM     10  O   UNL     1       9.847  -7.952   1.723  1.00  0.00    -0.385 OA
ATOM     11  H   UNL     1       9.714  -8.892   2.012  1.00  0.00     0.211 HD
ENDBRANCH   2  10
BRANCH   3  12
ATOM     12  O   UNL     1       7.675  -6.870   3.074  1.00  0.00    -0.387 OA
ATOM     13  H   UNL     1       7.627  -7.417   3.902  1.00  0.00     0.211 HD
ENDBRANCH   3  12
BRANCH   5  14
ATOM     14  C   UNL     1      10.431  -3.442   0.816  1.00  0.00     0.191 C 
BRANCH  14  15
ATOM     15  O   UNL     1       9.544  -3.765  -0.220  1.00  0.00    -0.394 OA
ATOM     16  H   UNL     1      10.033  -3.591  -1.066  1.00  0.00     0.210 HD
ENDBRANCH  14  15
ENDBRANCH   5  14
BRANCH   4  17
ATOM     17  O   UNL     1       7.986  -4.116   2.343  1.00  0.00    -0.387 OA
ATOM     18  H   UNL     1       7.261  -4.178   1.669  1.00  0.00     0.211 HD
ENDBRANCH   4  17
TORSDOF 7
ENDMDL
MODEL 8
REMARK VINA RESULT:    -3.396      1.430      4.185
REMARK INTER + INTRA:          -4.800
REMARK INTER:                  -4.451
REMARK INTRA:                  -0.349
REMARK UNBOUND:                -0.411
REMARK SMILES CCO[C@@H]1O[C@@H](CO)[C@H](O)[C@@H](O)[C@H]1O
REMARK SMILES IDX 4 1 13 2 11 3 9 4 6 5 5 6 3 7 2 8 1 9 14 10 12 12 7 14 8 15
REMARK SMILES IDX 10 17
REMARK H PARENT 14 11 12 13 8 16 10 18
REMARK Flexibility Score: inf
ROOT
ATOM      1  C   UNL     1       8.494  -4.034   3.958  1.00  0.00     0.281 C 
ATOM      2  C   UNL     1       8.387  -5.401   3.263  1.00  0.00     0.202 C 
ATOM      3  C   UNL     1       8.862  -5.288   1.801  1.00  0.00     0.179 C 
ATOM      4  C   UNL     1      10.247  -4.622   1.738  1.00  0.00     0.177 C 
ATOM      5  C   UNL     1      10.223  -3.297   2.539  1.00  0.00     0.178 C 
ATOM      6  O   UNL     1       9.820  -3.528   3.881  1.00  0.00    -0.341 OA
ENDROOT
BRANCH   1   7
ATOM      7  O   UNL     1       7.557  -3.128   3.396  1.00  0.00    -0.350 OA
BRANCH   7   8
ATOM      8  C   UNL     1       6.343  -3.131   4.125  1.00  0.00     0.160 C 
ATOM      9  C   UNL     1       5.219  -3.709   3.273  1.00  0.00     0.035 C 
ENDBRANCH   7   8
ENDBRANCH   1   7
BRANCH   2  10
ATOM     10  O   UNL     1       9.174  -6.333   3.963  1.00  0.00    -0.385 OA
ATOM     11  H   UNL     1       8.550  -6.919   4.465  1.00  0.00     0.211 HD
ENDBRANCH   2  10
BRANCH   3  12
ATOM     12  O   UNL     1       8.924  -6.560   1.207  1.00  0.00    -0.387 OA
ATOM     13  H   UNL     1       8.649  -7.213   1.903  1.00  0.00     0.211 HD
ENDBRANCH   3  12
BRANCH   5  14
ATOM     14  C   UNL     1      11.611  -2.640   2.574  1.00  0.00     0.191 C 
BRANCH  14  15
ATOM     15  O   UNL     1      12.594  -3.548   2.157  1.00  0.00    -0.394 OA
ATOM     16  H   UNL     1      13.372  -3.405   2.756  1.00  0.00     0.210 HD
ENDBRANCH  14  15
ENDBRANCH   5  14
BRANCH   4  17
ATOM     17  O   UNL     1      10.580  -4.364   0.398  1.00  0.00    -0.387 OA
ATOM     18  H   UNL     1      10.840  -3.407   0.344  1.00  0.00     0.211 HD
ENDBRANCH   4  17
TORSDOF 7
ENDMDL
MODEL 9
REMARK VINA RESULT:    -3.281      2.268      4.023
REMARK INTER + INTRA:          -4.651
REMARK INTER:                  -4.266
REMARK INTRA:                  -0.386
REMARK UNBOUND:                -0.411
REMARK SMILES CCO[C@@H]1O[C@@H](CO)[C@H](O)[C@@H](O)[C@H]1O
REMARK SMILES IDX 4 1 13 2 11 3 9 4 6 5 5 6 3 7 2 8 1 9 14 10 12 12 7 14 8 15
REMARK SMILES IDX 10 17
REMARK H PARENT 14 11 12 13 8 16 10 18
REMARK Flexibility Score: inf
ROOT
ATOM      1  C   UNL     1      11.324  -3.465   2.734  1.00  0.00     0.281 C 
ATOM      2  C   UNL     1       9.923  -3.643   2.127  1.00  0.00     0.202 C 
ATOM      3  C   UNL     1       9.807  -5.030   1.464  1.00  0.00     0.179 C 
ATOM      4  C   UNL     1      10.246  -6.129   2.446  1.00  0.00     0.177 C 
ATOM      5  C   UNL     1      11.637  -5.780   3.031  1.00  0.00     0.178 C 
ATOM      6  O   UNL     1      11.613  -4.506   3.658  1.00  0.00    -0.341 OA
ENDROOT
BRANCH   1   7
ATOM      7  O   UNL     1      12.297  -3.399   1.702  1.00  0.00    -0.350 OA
BRANCH   7   8
ATOM      8  C   UNL     1      13.272  -2.412   1.982  1.00  0.00     0.160 C 
ATOM      9  C   UNL     1      14.606  -3.071   2.313  1.00  0.00     0.035 C 
ENDBRANCH   7   8
ENDBRANCH   1   7
BRANCH   2  10
ATOM     10  O   UNL     1       8.962  -3.504   3.144  1.00  0.00    -0.385 OA
ATOM     11  H   UNL     1       8.071  -3.590   2.715  1.00  0.00     0.211 HD
ENDBRANCH   2  10
BRANCH   3  12
ATOM     12  O   UNL     1       8.485  -5.266   1.052  1.00  0.00    -0.387 OA
ATOM     13  H   UNL     1       8.497  -6.108   0.526  1.00  0.00     0.211 HD
ENDBRANCH   3  12
BRANCH   5  14
ATOM     14  C   UNL     1      12.076  -6.810   4.081  1.00  0.00     0.191 C 
BRANCH  14  15
ATOM     15  O   UNL     1      12.415  -8.024   3.468  1.00  0.00    -0.394 OA
ATOM     16  H   UNL     1      11.562  -8.513   3.337  1.00  0.00     0.210 HD
ENDBRANCH  14  15
ENDBRANCH   5  14
BRANCH   4  17
ATOM     17  O   UNL     1      10.307  -7.360   1.771  1.00  0.00    -0.387 OA
ATOM     18  H   UNL     1      10.744  -8.006   2.386  1.00  0.00     0.211 HD
ENDBRANCH   4  17
TORSDOF 7
ENDMDL
