MODEL 1
REMARK VINA RESULT:    -4.978      0.000      0.000
REMARK INTER + INTRA:         -10.703
REMARK INTER:                  -8.761
REMARK INTRA:                  -1.942
REMARK UNBOUND:                -1.942
REMARK SMILES CCCCCCCCCCCCCCC(=O)[O-]
REMARK SMILES IDX 9 1 10 2 11 3 12 4 13 5 14 6 15 7 16 8 17 9 8 10 7 11 6 12
REMARK SMILES IDX 5 13 4 14 3 15 2 16 1 17
REMARK H PARENT
REMARK Flexibility Score: inf
ROOT
ATOM      1  C   UNL     1      53.488  35.466  45.433  1.00  0.00     0.000 C 
ENDROOT
BRANCH   1   2
ATOM      2  C   UNL     1      52.192  34.845  44.884  1.00  0.00     0.000 C 
BRANCH   2   3
ATOM      3  C   UNL     1      51.932  35.222  43.416  1.00  0.00     0.000 C 
BRANCH   3   4
ATOM      4  C   UNL     1      51.909  33.995  42.488  1.00  0.00     0.000 C 
BRANCH   4   5
ATOM      5  C   UNL     1      51.195  32.790  43.120  1.00  0.00     0.006 C 
BRANCH   5   6
ATOM      6  C   UNL     1      50.534  31.879  42.078  1.00  0.00     0.053 C 
BRANCH   6   7
ATOM      7  C   UNL     1      50.892  30.449  42.332  1.00  0.00     0.041 C 
ATOM      8  O   UNL     1      50.415  29.844  43.329  1.00  0.00    -0.550 OA
ATOM      9  O   UNL     1      51.711  29.768  41.441  1.00  0.00    -0.550 OA
ENDBRANCH   6   7
ENDBRANCH   5   6
ENDBRANCH   4   5
ENDBRANCH   3   4
ENDBRANCH   2   3
ENDBRANCH   1   2
BRANCH   1  10
ATOM     10  C   UNL     1      53.729  36.891  44.909  1.00  0.00     0.000 C 
BRANCH  10  11
ATOM     11  C   UNL     1      55.116  37.063  44.271  1.00  0.00    -0.000 C 
BRANCH  11  12
ATOM     12  C   UNL     1      55.007  37.180  42.744  1.00  0.00    -0.000 C 
BRANCH  12  13
ATOM     13  C   UNL     1      55.077  35.816  42.039  1.00  0.00    -0.000 C 
BRANCH  13  14
ATOM     14  C   UNL     1      56.043  34.841  42.734  1.00  0.00    -0.000 C 
BRANCH  14  15
ATOM     15  C   UNL     1      55.744  33.368  42.403  1.00  0.00    -0.000 C 
BRANCH  15  16
ATOM     16  C   UNL     1      55.012  32.594  43.514  1.00  0.00    -0.003 C 
ATOM     17  C   UNL     1      54.971  31.087  43.267  1.00  0.00     0.004 C 
ENDBRANCH  15  16
ENDBRANCH  14  15
ENDBRANCH  13  14
ENDBRANCH  12  13
ENDBRANCH  11  12
ENDBRANCH  10  11
ENDBRANCH   1  10
TORSDOF 13
ENDMDL
MODEL 2
REMARK VINA RESULT:    -4.918      7.387      9.576
REMARK INTER + INTRA:         -10.598
REMARK INTER:                  -8.874
REMARK INTRA:                  -1.724
REMARK UNBOUND:                -1.942
REMARK SMILES CCCCCCCCCCCCCCC(=O)[O-]
REMARK SMILES IDX 9 1 10 2 11 3 12 4 13 5 14 6 15 7 16 8 17 9 8 10 7 11 6 12
REMARK SMILES IDX 5 13 4 14 3 15 2 16 1 17
REMARK H PARENT
REMARK Flexibility Score: inf
ROOT
ATOM      1  C   UNL     1      59.640  38.134  37.806  1.00  0.00     0.000 C 
ENDROOT
BRANCH   1   2
ATOM      2  C   UNL     1      58.272  38.479  38.422  1.00  0.00     0.000 C 
BRANCH   2   3
ATOM      3  C   UNL     1      57.116  37.710  37.760  1.00  0.00     0.000 C 
BRANCH   3   4
ATOM      4  C   UNL     1      56.012  37.329  38.762  1.00  0.00     0.000 C 
BRANCH   4   5
ATOM      5  C   UNL     1      56.199  38.003  40.131  1.00  0.00     0.006 C 
BRANCH   5   6
ATOM      6  C   UNL     1      56.011  37.030  41.302  1.00  0.00     0.053 C 
BRANCH   6   7
ATOM      7  C   UNL     1      54.668  37.224  41.932  1.00  0.00     0.041 C 
ATOM      8  O   UNL     1      54.113  38.354  41.905  1.00  0.00    -0.550 OA
ATOM      9  O   UNL     1      54.006  36.145  42.505  1.00  0.00    -0.550 OA
ENDBRANCH   6   7
ENDBRANCH   5   6
ENDBRANCH   4   5
ENDBRANCH   3   4
ENDBRANCH   2   3
ENDBRANCH   1   2
BRANCH   1  10
ATOM     10  C   UNL     1      59.552  37.004  36.769  1.00  0.00     0.000 C 
BRANCH  10  11
ATOM     11  C   UNL     1      60.901  36.713  36.091  1.00  0.00    -0.000 C 
BRANCH  11  12
ATOM     12  C   UNL     1      60.944  37.313  34.678  1.00  0.00    -0.000 C 
BRANCH  12  13
ATOM     13  C   UNL     1      61.457  38.762  34.665  1.00  0.00    -0.000 C 
BRANCH  13  14
ATOM     14  C   UNL     1      60.466  39.735  34.003  1.00  0.00    -0.000 C 
BRANCH  14  15
ATOM     15  C   UNL     1      59.753  40.644  35.021  1.00  0.00    -0.000 C 
BRANCH  15  16
ATOM     16  C   UNL     1      58.249  40.364  35.190  1.00  0.00    -0.003 C 
ATOM     17  C   UNL     1      57.741  39.250  34.277  1.00  0.00     0.004 C 
ENDBRANCH  15  16
ENDBRANCH  14  15
ENDBRANCH  13  14
ENDBRANCH  12  13
ENDBRANCH  11  12
ENDBRANCH  10  11
ENDBRANCH   1  10
TORSDOF 13
ENDMDL
MODEL 3
REMARK VINA RESULT:    -4.842      7.085      9.374
REMARK INTER + INTRA:         -10.464
REMARK INTER:                  -8.847
REMARK INTRA:                  -1.617
REMARK UNBOUND:                -1.942
REMARK SMILES CCCCCCCCCCCCCCC(=O)[O-]
REMARK SMILES IDX 9 1 10 2 11 3 12 4 13 5 14 6 15 7 16 8 17 9 8 10 7 11 6 12
REMARK SMILES IDX 5 13 4 14 3 15 2 16 1 17
REMARK H PARENT
REMARK Flexibility Score: inf
ROOT
ATOM      1  C   UNL     1      60.142  39.182  37.979  1.00  0.00     0.000 C 
ENDROOT
BRANCH   1   2
ATOM      2  C   UNL     1      59.250  38.166  38.714  1.00  0.00     0.000 C 
BRANCH   2   3
ATOM      3  C   UNL     1      57.751  38.461  38.539  1.00  0.00     0.000 C 
BRANCH   3   4
ATOM      4  C   UNL     1      56.991  38.465  39.878  1.00  0.00     0.000 C 
BRANCH   4   5
ATOM      5  C   UNL     1      55.865  37.419  39.921  1.00  0.00     0.006 C 
BRANCH   5   6
ATOM      6  C   UNL     1      55.202  37.320  41.301  1.00  0.00     0.053 C 
BRANCH   6   7
ATOM      7  C   UNL     1      55.863  36.259  42.123  1.00  0.00     0.041 C 
ATOM      8  O   UNL     1      55.595  35.045  41.925  1.00  0.00    -0.550 OA
ATOM      9  O   UNL     1      56.814  36.609  43.074  1.00  0.00    -0.550 OA
ENDBRANCH   6   7
ENDBRANCH   5   6
ENDBRANCH   4   5
ENDBRANCH   3   4
ENDBRANCH   2   3
ENDBRANCH   1   2
BRANCH   1  10
ATOM     10  C   UNL     1      61.110  38.513  36.991  1.00  0.00     0.000 C 
BRANCH  10  11
ATOM     11  C   UNL     1      60.612  37.142  36.507  1.00  0.00    -0.000 C 
BRANCH  11  12
ATOM     12  C   UNL     1      60.773  37.007  34.985  1.00  0.00    -0.000 C 
BRANCH  12  13
ATOM     13  C   UNL     1      59.425  36.984  34.248  1.00  0.00    -0.000 C 
BRANCH  13  14
ATOM     14  C   UNL     1      58.236  37.277  35.179  1.00  0.00    -0.000 C 
BRANCH  14  15
ATOM     15  C   UNL     1      57.447  38.532  34.762  1.00  0.00    -0.000 C 
BRANCH  15  16
ATOM     16  C   UNL     1      58.285  39.616  34.060  1.00  0.00    -0.003 C 
ATOM     17  C   UNL     1      58.750  40.721  35.008  1.00  0.00     0.004 C 
ENDBRANCH  15  16
ENDBRANCH  14  15
ENDBRANCH  13  14
ENDBRANCH  12  13
ENDBRANCH  11  12
ENDBRANCH  10  11
ENDBRANCH   1  10
TORSDOF 13
ENDMDL
MODEL 4
REMARK VINA RESULT:    -4.829      2.428      5.646
REMARK INTER + INTRA:         -10.441
REMARK INTER:                  -9.256
REMARK INTRA:                  -1.184
REMARK UNBOUND:                -1.942
REMARK SMILES CCCCCCCCCCCCCCC(=O)[O-]
REMARK SMILES IDX 9 1 10 2 11 3 12 4 13 5 14 6 15 7 16 8 17 9 8 10 7 11 6 12
REMARK SMILES IDX 5 13 4 14 3 15 2 16 1 17
REMARK H PARENT
REMARK Flexibility Score: inf
ROOT
ATOM      1  C   UNL     1      55.786  33.516  42.381  1.00  0.00     0.000 C 
ENDROOT
BRANCH   1   2
ATOM      2  C   UNL     1      55.555  35.026  42.194  1.00  0.00     0.000 C 
BRANCH   2   3
ATOM      3  C   UNL     1      56.350  35.874  43.201  1.00  0.00     0.000 C 
BRANCH   3   4
ATOM      4  C   UNL     1      55.493  36.974  43.852  1.00  0.00     0.000 C 
BRANCH   4   5
ATOM      5  C   UNL     1      54.056  36.510  44.139  1.00  0.00     0.006 C 
BRANCH   5   6
ATOM      6  C   UNL     1      53.741  36.449  45.639  1.00  0.00     0.053 C 
BRANCH   6   7
ATOM      7  C   UNL     1      52.414  35.797  45.868  1.00  0.00     0.041 C 
ATOM      8  O   UNL     1      51.998  34.911  45.076  1.00  0.00    -0.550 OA
ATOM      9  O   UNL     1      51.658  36.132  46.985  1.00  0.00    -0.550 OA
ENDBRANCH   6   7
ENDBRANCH   5   6
ENDBRANCH   4   5
ENDBRANCH   3   4
ENDBRANCH   2   3
ENDBRANCH   1   2
BRANCH   1  10
ATOM     10  C   UNL     1      54.811  32.890  43.390  1.00  0.00     0.000 C 
BRANCH  10  11
ATOM     11  C   UNL     1      55.253  31.494  43.856  1.00  0.00    -0.000 C 
BRANCH  11  12
ATOM     12  C   UNL     1      54.823  30.418  42.848  1.00  0.00    -0.000 C 
BRANCH  12  13
ATOM     13  C   UNL     1      53.485  29.761  43.219  1.00  0.00    -0.000 C 
BRANCH  13  14
ATOM     14  C   UNL     1      52.414  29.942  42.128  1.00  0.00    -0.000 C 
BRANCH  14  15
ATOM     15  C   UNL     1      50.991  30.058  42.703  1.00  0.00    -0.000 C 
BRANCH  15  16
ATOM     16  C   UNL     1      50.329  31.435  42.510  1.00  0.00    -0.003 C 
ATOM     17  C   UNL     1      51.339  32.579  42.436  1.00  0.00     0.004 C 
ENDBRANCH  15  16
ENDBRANCH  14  15
ENDBRANCH  13  14
ENDBRANCH  12  13
ENDBRANCH  11  12
ENDBRANCH  10  11
ENDBRANCH   1  10
TORSDOF 13
ENDMDL
MODEL 5
REMARK VINA RESULT:    -4.794      1.535      2.611
REMARK INTER + INTRA:         -10.380
REMARK INTER:                  -8.570
REMARK INTRA:                  -1.809
REMARK UNBOUND:                -1.942
REMARK SMILES CCCCCCCCCCCCCCC(=O)[O-]
REMARK SMILES IDX 9 1 10 2 11 3 12 4 13 5 14 6 15 7 16 8 17 9 8 10 7 11 6 12
REMARK SMILES IDX 5 13 4 14 3 15 2 16 1 17
REMARK H PARENT
REMARK Flexibility Score: inf
ROOT
ATOM      1  C   UNL     1      53.839  35.863  45.724  1.00  0.00     0.000 C 
ENDROOT
BRANCH   1   2
ATOM      2  C   UNL     1      53.515  34.720  44.746  1.00  0.00     0.000 C 
BRANCH   2   3
ATOM      3  C   UNL     1      52.074  34.791  44.212  1.00  0.00     0.000 C 
BRANCH   3   4
ATOM      4  C   UNL     1      51.955  34.280  42.766  1.00  0.00     0.000 C 
BRANCH   4   5
ATOM      5  C   UNL     1      52.062  32.750  42.669  1.00  0.00     0.006 C 
BRANCH   5   6
ATOM      6  C   UNL     1      50.711  32.078  42.392  1.00  0.00     0.053 C 
BRANCH   6   7
ATOM      7  C   UNL     1      50.842  30.590  42.469  1.00  0.00     0.041 C 
ATOM      8  O   UNL     1      50.256  29.948  43.380  1.00  0.00    -0.550 OA
ATOM      9  O   UNL     1      51.571  29.905  41.504  1.00  0.00    -0.550 OA
ENDBRANCH   6   7
ENDBRANCH   5   6
ENDBRANCH   4   5
ENDBRANCH   3   4
ENDBRANCH   2   3
ENDBRANCH   1   2
BRANCH   1  10
ATOM     10  C   UNL     1      52.730  36.926  45.779  1.00  0.00     0.000 C 
BRANCH  10  11
ATOM     11  C   UNL     1      53.176  38.280  45.205  1.00  0.00    -0.000 C 
BRANCH  11  12
ATOM     12  C   UNL     1      52.278  38.700  44.032  1.00  0.00    -0.000 C 
BRANCH  12  13
ATOM     13  C   UNL     1      53.065  38.904  42.728  1.00  0.00    -0.000 C 
BRANCH  13  14
ATOM     14  C   UNL     1      53.415  37.576  42.034  1.00  0.00    -0.000 C 
BRANCH  14  15
ATOM     15  C   UNL     1      54.914  37.453  41.703  1.00  0.00    -0.000 C 
BRANCH  15  16
ATOM     16  C   UNL     1      55.574  36.147  42.182  1.00  0.00    -0.003 C 
ATOM     17  C   UNL     1      56.628  36.372  43.265  1.00  0.00     0.004 C 
ENDBRANCH  15  16
ENDBRANCH  14  15
ENDBRANCH  13  14
ENDBRANCH  12  13
ENDBRANCH  11  12
ENDBRANCH  10  11
ENDBRANCH   1  10
TORSDOF 13
ENDMDL
MODEL 6
REMARK VINA RESULT:    -4.783      3.118      5.325
REMARK INTER + INTRA:         -10.360
REMARK INTER:                  -8.810
REMARK INTRA:                  -1.550
REMARK UNBOUND:                -1.942
REMARK SMILES CCCCCCCCCCCCCCC(=O)[O-]
REMARK SMILES IDX 9 1 10 2 11 3 12 4 13 5 14 6 15 7 16 8 17 9 8 10 7 11 6 12
REMARK SMILES IDX 5 13 4 14 3 15 2 16 1 17
REMARK H PARENT
REMARK Flexibility Score: inf
ROOT
ATOM      1  C   UNL     1      51.687  34.262  43.372  1.00  0.00     0.000 C 
ENDROOT
BRANCH   1   2
ATOM      2  C   UNL     1      51.979  34.886  44.747  1.00  0.00     0.000 C 
BRANCH   2   3
ATOM      3  C   UNL     1      51.279  36.242  44.942  1.00  0.00     0.000 C 
BRANCH   3   4
ATOM      4  C   UNL     1      52.273  37.384  45.218  1.00  0.00     0.000 C 
BRANCH   4   5
ATOM      5  C   UNL     1      53.728  36.894  45.297  1.00  0.00     0.006 C 
BRANCH   5   6
ATOM      6  C   UNL     1      54.668  37.679  44.372  1.00  0.00     0.053 C 
BRANCH   6   7
ATOM      7  C   UNL     1      54.051  37.847  43.020  1.00  0.00     0.041 C 
ATOM      8  O   UNL     1      53.665  38.982  42.637  1.00  0.00    -0.550 OA
ATOM      9  O   UNL     1      53.949  36.758  42.163  1.00  0.00    -0.550 OA
ENDBRANCH   6   7
ENDBRANCH   5   6
ENDBRANCH   4   5
ENDBRANCH   3   4
ENDBRANCH   2   3
ENDBRANCH   1   2
BRANCH   1  10
ATOM     10  C   UNL     1      52.880  33.469  42.816  1.00  0.00     0.000 C 
BRANCH  10  11
ATOM     11  C   UNL     1      54.145  33.619  43.677  1.00  0.00    -0.000 C 
BRANCH  11  12
ATOM     12  C   UNL     1      55.269  32.707  43.162  1.00  0.00    -0.000 C 
BRANCH  12  13
ATOM     13  C   UNL     1      55.226  31.305  43.790  1.00  0.00    -0.000 C 
BRANCH  13  14
ATOM     14  C   UNL     1      54.722  30.233  42.808  1.00  0.00    -0.000 C 
BRANCH  14  15
ATOM     15  C   UNL     1      53.359  29.644  43.216  1.00  0.00    -0.000 C 
BRANCH  15  16
ATOM     16  C   UNL     1      52.322  29.575  42.080  1.00  0.00    -0.003 C 
ATOM     17  C   UNL     1      51.053  30.371  42.379  1.00  0.00     0.004 C 
ENDBRANCH  15  16
ENDBRANCH  14  15
ENDBRANCH  13  14
ENDBRANCH  12  13
ENDBRANCH  11  12
ENDBRANCH  10  11
ENDBRANCH   1  10
TORSDOF 13
ENDMDL
MODEL 7
REMARK VINA RESULT:    -4.769      1.830      4.154
REMARK INTER + INTRA:         -10.335
REMARK INTER:                  -8.755
REMARK INTRA:                  -1.579
REMARK UNBOUND:                -1.942
REMARK SMILES CCCCCCCCCCCCCCC(=O)[O-]
REMARK SMILES IDX 9 1 10 2 11 3 12 4 13 5 14 6 15 7 16 8 17 9 8 10 7 11 6 12
REMARK SMILES IDX 5 13 4 14 3 15 2 16 1 17
REMARK H PARENT
REMARK Flexibility Score: inf
ROOT
ATOM      1  C   UNL     1      53.368  35.295  45.321  1.00  0.00     0.000 C 
ENDROOT
BRANCH   1   2
ATOM      2  C   UNL     1      53.517  35.335  43.790  1.00  0.00     0.000 C 
BRANCH   2   3
ATOM      3  C   UNL     1      53.256  33.967  43.136  1.00  0.00     0.000 C 
BRANCH   3   4
ATOM      4  C   UNL     1      51.892  33.903  42.428  1.00  0.00     0.000 C 
BRANCH   4   5
ATOM      5  C   UNL     1      50.956  32.851  43.045  1.00  0.00     0.006 C 
BRANCH   5   6
ATOM      6  C   UNL     1      50.410  31.862  42.007  1.00  0.00     0.053 C 
BRANCH   6   7
ATOM      7  C   UNL     1      50.848  30.469  42.332  1.00  0.00     0.041 C 
ATOM      8  O   UNL     1      50.355  29.864  43.321  1.00  0.00    -0.550 OA
ATOM      9  O   UNL     1      51.764  29.819  41.514  1.00  0.00    -0.550 OA
ENDBRANCH   6   7
ENDBRANCH   5   6
ENDBRANCH   4   5
ENDBRANCH   3   4
ENDBRANCH   2   3
ENDBRANCH   1   2
BRANCH   1  10
ATOM     10  C   UNL     1      51.968  35.722  45.790  1.00  0.00     0.000 C 
BRANCH  10  11
ATOM     11  C   UNL     1      52.007  36.616  47.039  1.00  0.00    -0.000 C 
BRANCH  11  12
ATOM     12  C   UNL     1      53.430  37.133  47.299  1.00  0.00    -0.000 C 
BRANCH  12  13
ATOM     13  C   UNL     1      53.456  38.613  47.710  1.00  0.00    -0.000 C 
BRANCH  13  14
ATOM     14  C   UNL     1      53.873  39.541  46.556  1.00  0.00    -0.000 C 
BRANCH  14  15
ATOM     15  C   UNL     1      54.377  38.769  45.323  1.00  0.00    -0.000 C 
BRANCH  15  16
ATOM     16  C   UNL     1      53.633  39.089  44.014  1.00  0.00    -0.003 C 
ATOM     17  C   UNL     1      52.113  39.065  44.169  1.00  0.00     0.004 C 
ENDBRANCH  15  16
ENDBRANCH  14  15
ENDBRANCH  13  14
ENDBRANCH  12  13
ENDBRANCH  11  12
ENDBRANCH  10  11
ENDBRANCH   1  10
TORSDOF 13
ENDMDL
MODEL 8
REMARK VINA RESULT:    -4.717      1.394      3.597
REMARK INTER + INTRA:         -10.244
REMARK INTER:                  -8.503
REMARK INTRA:                  -1.742
REMARK UNBOUND:                -1.942
REMARK SMILES CCCCCCCCCCCCCCC(=O)[O-]
REMARK SMILES IDX 9 1 10 2 11 3 12 4 13 5 14 6 15 7 16 8 17 9 8 10 7 11 6 12
REMARK SMILES IDX 5 13 4 14 3 15 2 16 1 17
REMARK H PARENT
REMARK Flexibility Score: inf
ROOT
ATOM      1  C   UNL     1      55.338  35.497  43.448  1.00  0.00     0.000 C 
ENDROOT
BRANCH   1   2
ATOM      2  C   UNL     1      54.525  34.611  42.488  1.00  0.00     0.000 C 
BRANCH   2   3
ATOM      3  C   UNL     1      53.449  33.786  43.215  1.00  0.00     0.000 C 
BRANCH   3   4
ATOM      4  C   UNL     1      52.118  33.745  42.445  1.00  0.00     0.000 C 
BRANCH   4   5
ATOM      5  C   UNL     1      51.089  32.803  43.093  1.00  0.00     0.006 C 
BRANCH   5   6
ATOM      6  C   UNL     1      50.447  31.843  42.084  1.00  0.00     0.053 C 
BRANCH   6   7
ATOM      7  C   UNL     1      50.856  30.433  42.372  1.00  0.00     0.041 C 
ATOM      8  O   UNL     1      50.415  29.841  43.392  1.00  0.00    -0.550 OA
ATOM      9  O   UNL     1      51.684  29.754  41.486  1.00  0.00    -0.550 OA
ENDBRANCH   6   7
ENDBRANCH   5   6
ENDBRANCH   4   5
ENDBRANCH   3   4
ENDBRANCH   2   3
ENDBRANCH   1   2
BRANCH   1  10
ATOM     10  C   UNL     1      55.179  36.995  43.147  1.00  0.00     0.000 C 
BRANCH  10  11
ATOM     11  C   UNL     1      53.778  37.351  42.627  1.00  0.00    -0.000 C 
BRANCH  11  12
ATOM     12  C   UNL     1      52.879  37.850  43.769  1.00  0.00    -0.000 C 
BRANCH  12  13
ATOM     13  C   UNL     1      51.679  36.926  44.024  1.00  0.00    -0.000 C 
BRANCH  13  14
ATOM     14  C   UNL     1      51.612  36.433  45.481  1.00  0.00    -0.000 C 
BRANCH  14  15
ATOM     15  C   UNL     1      52.997  36.087  46.058  1.00  0.00    -0.000 C 
BRANCH  15  16
ATOM     16  C   UNL     1      53.262  36.641  47.470  1.00  0.00    -0.003 C 
ATOM     17  C   UNL     1      53.265  38.168  47.522  1.00  0.00     0.004 C 
ENDBRANCH  15  16
ENDBRANCH  14  15
ENDBRANCH  13  14
ENDBRANCH  12  13
ENDBRANCH  11  12
ENDBRANCH  10  11
ENDBRANCH   1  10
TORSDOF 13
ENDMDL
MODEL 9
REMARK VINA RESULT:    -4.713      4.160      6.216
REMARK INTER + INTRA:         -10.237
REMARK INTER:                  -8.276
REMARK INTRA:                  -1.961
REMARK UNBOUND:                -1.942
REMARK SMILES CCCCCCCCCCCCCCC(=O)[O-]
REMARK SMILES IDX 9 1 10 2 11 3 12 4 13 5 14 6 15 7 16 8 17 9 8 10 7 11 6 12
REMARK SMILES IDX 5 13 4 14 3 15 2 16 1 17
REMARK H PARENT
REMARK Flexibility Score: inf
ROOT
ATOM      1  C   UNL     1      54.396  37.082  41.980  1.00  0.00     0.000 C 
ENDROOT
BRANCH   1   2
ATOM      2  C   UNL     1      53.076  37.758  42.388  1.00  0.00     0.000 C 
BRANCH   2   3
ATOM      3  C   UNL     1      53.116  39.285  42.213  1.00  0.00     0.000 C 
BRANCH   3   4
ATOM      4  C   UNL     1      52.880  40.036  43.535  1.00  0.00     0.000 C 
BRANCH   4   5
ATOM      5  C   UNL     1      52.808  39.092  44.746  1.00  0.00     0.006 C 
BRANCH   5   6
ATOM      6  C   UNL     1      54.083  39.122  45.598  1.00  0.00     0.053 C 
BRANCH   6   7
ATOM      7  C   UNL     1      53.738  39.213  47.051  1.00  0.00     0.041 C 
ATOM      8  O   UNL     1      53.106  38.280  47.612  1.00  0.00    -0.550 OA
ATOM      9  O   UNL     1      54.159  40.306  47.799  1.00  0.00    -0.550 OA
ENDBRANCH   6   7
ENDBRANCH   5   6
ENDBRANCH   4   5
ENDBRANCH   3   4
ENDBRANCH   2   3
ENDBRANCH   1   2
BRANCH   1  10
ATOM     10  C   UNL     1      55.393  36.981  43.146  1.00  0.00     0.000 C 
BRANCH  10  11
ATOM     11  C   UNL     1      56.257  35.712  43.080  1.00  0.00    -0.000 C 
BRANCH  11  12
ATOM     12  C   UNL     1      55.650  34.685  42.113  1.00  0.00    -0.000 C 
BRANCH  12  13
ATOM     13  C   UNL     1      55.260  33.373  42.812  1.00  0.00    -0.000 C 
BRANCH  13  14
ATOM     14  C   UNL     1      54.146  33.569  43.855  1.00  0.00    -0.000 C 
BRANCH  14  15
ATOM     15  C   UNL     1      52.801  33.974  43.224  1.00  0.00    -0.000 C 
BRANCH  15  16
ATOM     16  C   UNL     1      51.852  34.736  44.166  1.00  0.00    -0.003 C 
ATOM     17  C   UNL     1      52.585  35.481  45.280  1.00  0.00     0.004 C 
ENDBRANCH  15  16
ENDBRANCH  14  15
ENDBRANCH  13  14
ENDBRANCH  12  13
ENDBRANCH  11  12
ENDBRANCH  10  11
ENDBRANCH   1  10
TORSDOF 13
ENDMDL
