MODEL 1
REMARK VINA RESULT:    -3.626      0.000      0.000
REMARK INTER + INTRA:          -4.601
REMARK INTER:                  -4.473
REMARK INTRA:                  -0.128
REMARK UNBOUND:                -0.128
REMARK SMILES CCCCCC(=O)[O-]
REMARK SMILES IDX 4 1 5 2 6 3 7 4 8 5 3 6 2 7 1 8
REMARK H PARENT
REMARK Flexibility Score: inf
ROOT
ATOM      1  C   UNL     1       1.802  28.923  57.462  1.00  0.00     0.006 C 
ENDROOT
BRANCH   1   2
ATOM      2  C   UNL     1       2.914  28.232  56.662  1.00  0.00     0.053 C 
BRANCH   2   3
ATOM      3  C   UNL     1       3.822  27.474  57.578  1.00  0.00     0.041 C 
ATOM      4  O   UNL     1       3.378  26.991  58.653  1.00  0.00    -0.550 OA
ATOM      5  O   UNL     1       5.169  27.343  57.270  1.00  0.00    -0.550 OA
ENDBRANCH   2   3
ENDBRANCH   1   2
BRANCH   1   6
ATOM      6  C   UNL     1       0.399  28.435  57.067  1.00  0.00     0.000 C 
BRANCH   6   7
ATOM      7  C   UNL     1      -0.427  29.522  56.361  1.00  0.00    -0.003 C 
ATOM      8  C   UNL     1      -0.468  29.287  54.854  1.00  0.00     0.004 C 
ENDBRANCH   6   7
ENDBRANCH   1   6
TORSDOF 4
ENDMDL
MODEL 2
REMARK VINA RESULT:    -3.609      1.041      1.681
REMARK INTER + INTRA:          -4.581
REMARK INTER:                  -4.469
REMARK INTRA:                  -0.112
REMARK UNBOUND:                -0.128
REMARK SMILES CCCCCC(=O)[O-]
REMARK SMILES IDX 4 1 5 2 6 3 7 4 8 5 3 6 2 7 1 8
REMARK H PARENT
REMARK Flexibility Score: inf
ROOT
ATOM      1  C   UNL     1       2.475  28.311  56.021  1.00  0.00     0.006 C 
ENDROOT
BRANCH   1   2
ATOM      2  C   UNL     1       2.840  28.122  57.498  1.00  0.00     0.053 C 
BRANCH   2   3
ATOM      3  C   UNL     1       4.152  27.416  57.626  1.00  0.00     0.041 C 
ATOM      4  O   UNL     1       4.916  27.314  56.630  1.00  0.00    -0.550 OA
ATOM      5  O   UNL     1       4.510  26.826  58.831  1.00  0.00    -0.550 OA
ENDBRANCH   2   3
ENDBRANCH   1   2
BRANCH   1   6
ATOM      6  C   UNL     1       1.009  28.729  55.822  1.00  0.00     0.000 C 
BRANCH   6   7
ATOM      7  C   UNL     1       0.211  28.724  57.135  1.00  0.00    -0.003 C 
ATOM      8  C   UNL     1      -0.883  29.789  57.115  1.00  0.00     0.004 C 
ENDBRANCH   6   7
ENDBRANCH   1   6
TORSDOF 4
ENDMDL
MODEL 3
REMARK VINA RESULT:    -3.588      1.129      1.613
REMARK INTER + INTRA:          -4.555
REMARK INTER:                  -4.451
REMARK INTRA:                  -0.104
REMARK UNBOUND:                -0.128
REMARK SMILES CCCCCC(=O)[O-]
REMARK SMILES IDX 4 1 5 2 6 3 7 4 8 5 3 6 2 7 1 8
REMARK H PARENT
REMARK Flexibility Score: inf
ROOT
ATOM      1  C   UNL     1       2.774  28.554  57.132  1.00  0.00     0.006 C 
ENDROOT
BRANCH   1   2
ATOM      2  C   UNL     1       4.092  27.774  57.207  1.00  0.00     0.053 C 
BRANCH   2   3
ATOM      3  C   UNL     1       4.176  27.014  58.493  1.00  0.00     0.041 C 
ATOM      4  O   UNL     1       3.126  26.651  59.084  1.00  0.00    -0.550 OA
ATOM      5  O   UNL     1       5.414  26.751  59.065  1.00  0.00    -0.550 OA
ENDBRANCH   2   3
ENDBRANCH   1   2
BRANCH   1   6
ATOM      6  C   UNL     1       2.097  28.443  55.757  1.00  0.00     0.000 C 
BRANCH   6   7
ATOM      7  C   UNL     1       0.564  28.448  55.851  1.00  0.00    -0.003 C 
ATOM      8  C   UNL     1       0.095  29.123  57.136  1.00  0.00     0.004 C 
ENDBRANCH   6   7
ENDBRANCH   1   6
TORSDOF 4
ENDMDL
MODEL 4
REMARK VINA RESULT:    -3.572      3.075      4.611
REMARK INTER + INTRA:          -4.535
REMARK INTER:                  -4.413
REMARK INTRA:                  -0.122
REMARK UNBOUND:                -0.128
REMARK SMILES CCCCCC(=O)[O-]
REMARK SMILES IDX 4 1 5 2 6 3 7 4 8 5 3 6 2 7 1 8
REMARK H PARENT
REMARK Flexibility Score: inf
ROOT
ATOM      1  C   UNL     1       1.890  28.855  57.447  1.00  0.00     0.006 C 
ENDROOT
BRANCH   1   2
ATOM      2  C   UNL     1       0.478  28.345  57.133  1.00  0.00     0.053 C 
BRANCH   2   3
ATOM      3  C   UNL     1      -0.384  29.462  56.638  1.00  0.00     0.041 C 
ATOM      4  O   UNL     1      -1.181  30.042  57.422  1.00  0.00    -0.550 OA
ATOM      5  O   UNL     1      -0.344  29.832  55.300  1.00  0.00    -0.550 OA
ENDBRANCH   2   3
ENDBRANCH   1   2
BRANCH   1   6
ATOM      6  C   UNL     1       2.965  28.207  56.561  1.00  0.00     0.000 C 
BRANCH   6   7
ATOM      7  C   UNL     1       4.161  27.683  57.371  1.00  0.00    -0.003 C 
ATOM      8  C   UNL     1       3.694  26.939  58.619  1.00  0.00     0.004 C 
ENDBRANCH   6   7
ENDBRANCH   1   6
TORSDOF 4
ENDMDL
MODEL 5
REMARK VINA RESULT:    -3.508      2.763      4.184
REMARK INTER + INTRA:          -4.456
REMARK INTER:                  -4.250
REMARK INTRA:                  -0.207
REMARK UNBOUND:                -0.128
REMARK SMILES CCCCCC(=O)[O-]
REMARK SMILES IDX 4 1 5 2 6 3 7 4 8 5 3 6 2 7 1 8
REMARK H PARENT
REMARK Flexibility Score: inf
ROOT
ATOM      1  C   UNL     1       2.067  28.941  57.447  1.00  0.00     0.006 C 
ENDROOT
BRANCH   1   2
ATOM      2  C   UNL     1       0.626  28.553  57.093  1.00  0.00     0.053 C 
BRANCH   2   3
ATOM      3  C   UNL     1       0.401  28.670  55.619  1.00  0.00     0.041 C 
ATOM      4  O   UNL     1       0.610  27.682  54.866  1.00  0.00    -0.550 OA
ATOM      5  O   UNL     1       0.009  29.883  55.068  1.00  0.00    -0.550 OA
ENDBRANCH   2   3
ENDBRANCH   1   2
BRANCH   1   6
ATOM      6  C   UNL     1       2.934  27.726  57.811  1.00  0.00     0.000 C 
BRANCH   6   7
ATOM      7  C   UNL     1       4.295  27.736  57.096  1.00  0.00    -0.003 C 
ATOM      8  C   UNL     1       4.121  27.882  55.588  1.00  0.00     0.004 C 
ENDBRANCH   6   7
ENDBRANCH   1   6
TORSDOF 4
ENDMDL
MODEL 6
REMARK VINA RESULT:    -3.488      1.140      1.375
REMARK INTER + INTRA:          -4.432
REMARK INTER:                  -4.293
REMARK INTRA:                  -0.138
REMARK UNBOUND:                -0.128
REMARK SMILES CCCCCC(=O)[O-]
REMARK SMILES IDX 4 1 5 2 6 3 7 4 8 5 3 6 2 7 1 8
REMARK H PARENT
REMARK Flexibility Score: inf
ROOT
ATOM      1  C   UNL     1       2.018  28.851  57.386  1.00  0.00     0.006 C 
ENDROOT
BRANCH   1   2
ATOM      2  C   UNL     1       2.931  27.713  57.859  1.00  0.00     0.053 C 
BRANCH   2   3
ATOM      3  C   UNL     1       4.180  27.671  57.037  1.00  0.00     0.041 C 
ATOM      4  O   UNL     1       5.308  27.657  57.598  1.00  0.00    -0.550 OA
ATOM      5  O   UNL     1       4.103  27.698  55.651  1.00  0.00    -0.550 OA
ENDBRANCH   2   3
ENDBRANCH   1   2
BRANCH   1   6
ATOM      6  C   UNL     1       0.671  28.344  56.848  1.00  0.00     0.000 C 
BRANCH   6   7
ATOM      7  C   UNL     1       0.601  28.369  55.313  1.00  0.00    -0.003 C 
ATOM      8  C   UNL     1      -0.222  29.556  54.821  1.00  0.00     0.004 C 
ENDBRANCH   6   7
ENDBRANCH   1   6
TORSDOF 4
ENDMDL
MODEL 7
REMARK VINA RESULT:    -3.389      1.830      2.565
REMARK INTER + INTRA:          -4.309
REMARK INTER:                  -4.252
REMARK INTRA:                  -0.057
REMARK UNBOUND:                -0.128
REMARK SMILES CCCCCC(=O)[O-]
REMARK SMILES IDX 4 1 5 2 6 3 7 4 8 5 3 6 2 7 1 8
REMARK H PARENT
REMARK Flexibility Score: inf
ROOT
ATOM      1  C   UNL     1       3.106  28.128  56.788  1.00  0.00     0.006 C 
ENDROOT
BRANCH   1   2
ATOM      2  C   UNL     1       4.180  28.139  55.694  1.00  0.00     0.053 C 
BRANCH   2   3
ATOM      3  C   UNL     1       5.272  29.098  56.044  1.00  0.00     0.041 C 
ATOM      4  O   UNL     1       5.982  29.609  55.138  1.00  0.00    -0.550 OA
ATOM      5  O   UNL     1       5.542  29.390  57.375  1.00  0.00    -0.550 OA
ENDBRANCH   2   3
ENDBRANCH   1   2
BRANCH   1   6
ATOM      6  C   UNL     1       1.746  28.640  56.289  1.00  0.00     0.000 C 
BRANCH   6   7
ATOM      7  C   UNL     1       0.881  29.220  57.419  1.00  0.00    -0.003 C 
ATOM      8  C   UNL     1      -0.567  29.389  56.970  1.00  0.00     0.004 C 
ENDBRANCH   6   7
ENDBRANCH   1   6
TORSDOF 4
ENDMDL
MODEL 8
REMARK VINA RESULT:    -3.343      2.502      4.324
REMARK INTER + INTRA:          -4.253
REMARK INTER:                  -4.053
REMARK INTRA:                  -0.199
REMARK UNBOUND:                -0.128
REMARK SMILES CCCCCC(=O)[O-]
REMARK SMILES IDX 4 1 5 2 6 3 7 4 8 5 3 6 2 7 1 8
REMARK H PARENT
REMARK Flexibility Score: inf
ROOT
ATOM      1  C   UNL     1       4.152  28.592  56.684  1.00  0.00     0.006 C 
ENDROOT
BRANCH   1   2
ATOM      2  C   UNL     1       3.256  28.309  55.472  1.00  0.00     0.053 C 
BRANCH   2   3
ATOM      3  C   UNL     1       1.814  28.419  55.852  1.00  0.00     0.041 C 
ATOM      4  O   UNL     1       1.482  29.001  56.918  1.00  0.00    -0.550 OA
ATOM      5  O   UNL     1       0.838  27.834  55.055  1.00  0.00    -0.550 OA
ENDBRANCH   2   3
ENDBRANCH   1   2
BRANCH   1   6
ATOM      6  C   UNL     1       5.004  27.379  57.087  1.00  0.00     0.000 C 
BRANCH   6   7
ATOM      7  C   UNL     1       4.856  27.021  58.574  1.00  0.00    -0.003 C 
ATOM      8  C   UNL     1       3.397  26.749  58.930  1.00  0.00     0.004 C 
ENDBRANCH   6   7
ENDBRANCH   1   6
TORSDOF 4
ENDMDL
MODEL 9
REMARK VINA RESULT:    -3.305      2.607      4.346
REMARK INTER + INTRA:          -4.206
REMARK INTER:                  -3.972
REMARK INTRA:                  -0.233
REMARK UNBOUND:                -0.128
REMARK SMILES CCCCCC(=O)[O-]
REMARK SMILES IDX 4 1 5 2 6 3 7 4 8 5 3 6 2 7 1 8
REMARK H PARENT
REMARK Flexibility Score: inf
ROOT
ATOM      1  C   UNL     1       2.421  28.891  54.703  1.00  0.00     0.006 C 
ENDROOT
BRANCH   1   2
ATOM      2  C   UNL     1       1.185  28.216  55.312  1.00  0.00     0.053 C 
BRANCH   2   3
ATOM      3  C   UNL     1       0.659  29.025  56.454  1.00  0.00     0.041 C 
ATOM      4  O   UNL     1       1.392  29.270  57.449  1.00  0.00    -0.550 OA
ATOM      5  O   UNL     1      -0.658  29.467  56.446  1.00  0.00    -0.550 OA
ENDBRANCH   2   3
ENDBRANCH   1   2
BRANCH   1   6
ATOM      6  C   UNL     1       3.700  28.060  54.887  1.00  0.00     0.000 C 
BRANCH   6   7
ATOM      7  C   UNL     1       4.543  28.529  56.083  1.00  0.00    -0.003 C 
ATOM      8  C   UNL     1       4.495  27.513  57.220  1.00  0.00     0.004 C 
ENDBRANCH   6   7
ENDBRANCH   1   6
TORSDOF 4
ENDMDL
