MODEL 1
REMARK VINA RESULT:    -5.410      0.000      0.000
REMARK INTER + INTRA:          -9.001
REMARK INTER:                  -8.256
REMARK INTRA:                  -0.745
REMARK UNBOUND:                -0.745
REMARK SMILES OC[C@@H]1O[C@H](O[C@]2(CO)O[C@@H](CO)[C@@H](O)[C@@H]2O)[C@H](O)[C@H](O)[C@H]1O
REMARK SMILES IDX 6 1 5 2 3 3 22 4 4 5 20 6 18 7 2 8 1 9 23 11 21 13 19 15
REMARK SMILES IDX 7 17 16 18 10 19 14 20 11 21 8 22 9 23 17 25 15 27 12 29
REMARK SMILES IDX 13 30
REMARK H PARENT 1 10 23 12 21 14 19 16 9 24 17 26 15 28 13 31
REMARK Flexibility Score: inf
ROOT
ATOM      1  O   UNL     1     -43.284  42.986 -52.694  1.00  0.00    -0.313 OA
ENDROOT
BRANCH   1   2
ATOM      2  C   UNL     1     -42.758  41.686 -52.984  1.00  0.00     0.285 C 
ATOM      3  C   UNL     1     -41.783  39.786 -52.115  1.00  0.00     0.178 C 
ATOM      4  C   UNL     1     -43.003  38.882 -52.021  1.00  0.00     0.177 C 
ATOM      5  O   UNL     1     -42.216  41.098 -51.819  1.00  0.00    -0.341 OA
ATOM      6  C   UNL     1     -44.118  39.392 -52.976  1.00  0.00     0.179 C 
ATOM      7  C   UNL     1     -43.898  40.819 -53.624  1.00  0.00     0.202 C 
BRANCH   3   8
ATOM      8  C   UNL     1     -40.631  39.394 -51.163  1.00  0.00     0.191 C 
BRANCH   8   9
ATOM      9  O   UNL     1     -41.066  38.447 -50.210  1.00  0.00    -0.394 OA
ATOM     10  H   UNL     1     -41.835  37.982 -50.639  1.00  0.00     0.210 HD
ENDBRANCH   8   9
ENDBRANCH   3   8
BRANCH   4  11
ATOM     11  O   UNL     1     -42.662  37.551 -52.345  1.00  0.00    -0.387 OA
ATOM     12  H   UNL     1     -41.774  37.366 -51.961  1.00  0.00     0.211 HD
ENDBRANCH   4  11
BRANCH   6  13
ATOM     13  O   UNL     1     -45.343  39.354 -52.278  1.00  0.00    -0.387 OA
ATOM     14  H   UNL     1     -45.714  40.276 -52.304  1.00  0.00     0.211 HD
ENDBRANCH   6  13
BRANCH   7  15
ATOM     15  O   UNL     1     -45.103  41.545 -53.613  1.00  0.00    -0.385 OA
ATOM     16  H   UNL     1     -45.753  41.105 -53.005  1.00  0.00     0.211 HD
ENDBRANCH   7  15
ENDBRANCH   1   2
BRANCH   1  17
ATOM     17  C   UNL     1     -42.483  44.097 -53.089  1.00  0.00     0.224 C 
ATOM     18  C   UNL     1     -41.349  44.390 -52.055  1.00  0.00     0.208 C 
ATOM     19  O   UNL     1     -41.837  43.739 -54.312  1.00  0.00    -0.337 OA
ATOM     20  C   UNL     1     -40.045  44.306 -52.843  1.00  0.00     0.180 C 
ATOM     21  C   UNL     1     -40.487  44.184 -54.297  1.00  0.00     0.179 C 
BRANCH  17  22
ATOM     22  C   UNL     1     -43.397  45.318 -53.447  1.00  0.00     0.225 C 
BRANCH  22  23
ATOM     23  O   UNL     1     -44.475  45.480 -52.551  1.00  0.00    -0.391 OA
ATOM     24  H   UNL     1     -44.928  44.595 -52.485  1.00  0.00     0.210 HD
ENDBRANCH  22  23
ENDBRANCH  17  22
BRANCH  18  25
ATOM     25  O   UNL     1     -41.287  43.491 -50.964  1.00  0.00    -0.385 OA
ATOM     26  H   UNL     1     -42.142  43.537 -50.461  1.00  0.00     0.211 HD
ENDBRANCH  18  25
BRANCH  20  27
ATOM     27  O   UNL     1     -39.168  45.372 -52.555  1.00  0.00    -0.387 OA
ATOM     28  H   UNL     1     -38.360  45.002 -52.103  1.00  0.00     0.211 HD
ENDBRANCH  20  27
BRANCH  21  29
ATOM     29  C   UNL     1     -40.298  45.474 -55.124  1.00  0.00     0.191 C 
BRANCH  29  30
ATOM     30  O   UNL     1     -40.694  46.601 -54.391  1.00  0.00    -0.394 OA
ATOM     31  H   UNL     1     -41.099  47.240 -55.041  1.00  0.00     0.210 HD
ENDBRANCH  29  30
ENDBRANCH  21  29
ENDBRANCH   1  17
TORSDOF 13
ENDMDL
MODEL 2
REMARK VINA RESULT:    -5.394      1.918      6.619
REMARK INTER + INTRA:          -8.977
REMARK INTER:                  -7.771
REMARK INTRA:                  -1.206
REMARK UNBOUND:                -0.745
REMARK SMILES OC[C@@H]1O[C@H](O[C@]2(CO)O[C@@H](CO)[C@@H](O)[C@@H]2O)[C@H](O)[C@H](O)[C@H]1O
REMARK SMILES IDX 6 1 5 2 3 3 22 4 4 5 20 6 18 7 2 8 1 9 23 11 21 13 19 15
REMARK SMILES IDX 7 17 16 18 10 19 14 20 11 21 8 22 9 23 17 25 15 27 12 29
REMARK SMILES IDX 13 30
REMARK H PARENT 1 10 23 12 21 14 19 16 9 24 17 26 15 28 13 31
REMARK Flexibility Score: inf
ROOT
ATOM      1  O   UNL     1     -42.769  39.495 -51.322  1.00  0.00    -0.313 OA
ENDROOT
BRANCH   1   2
ATOM      2  C   UNL     1     -42.058  40.584 -51.922  1.00  0.00     0.285 C 
ATOM      3  C   UNL     1     -42.182  42.762 -52.668  1.00  0.00     0.178 C 
ATOM      4  C   UNL     1     -41.573  43.485 -51.477  1.00  0.00     0.177 C 
ATOM      5  O   UNL     1     -42.925  41.674 -52.158  1.00  0.00    -0.341 OA
ATOM      6  C   UNL     1     -40.719  42.498 -50.635  1.00  0.00     0.179 C 
ATOM      7  C   UNL     1     -40.851  40.962 -50.993  1.00  0.00     0.202 C 
BRANCH   3   8
ATOM      8  C   UNL     1     -43.096  43.646 -53.546  1.00  0.00     0.191 C 
BRANCH   8   9
ATOM      9  O   UNL     1     -43.484  44.813 -52.852  1.00  0.00    -0.394 OA
ATOM     10  H   UNL     1     -44.095  45.295 -53.475  1.00  0.00     0.210 HD
ENDBRANCH   8   9
ENDBRANCH   3   8
BRANCH   4  11
ATOM     11  O   UNL     1     -40.777  44.568 -51.906  1.00  0.00    -0.387 OA
ATOM     12  H   UNL     1     -39.856  44.408 -51.592  1.00  0.00     0.211 HD
ENDBRANCH   4  11
BRANCH   6  13
ATOM     13  O   UNL     1     -41.019  42.711 -49.273  1.00  0.00    -0.387 OA
ATOM     14  H   UNL     1     -41.338  41.841 -48.913  1.00  0.00     0.211 HD
ENDBRANCH   6  13
BRANCH   7  15
ATOM     15  O   UNL     1     -40.906  40.194 -49.815  1.00  0.00    -0.385 OA
ATOM     16  H   UNL     1     -41.344  40.719 -49.095  1.00  0.00     0.211 HD
ENDBRANCH   7  15
ENDBRANCH   1   2
BRANCH   1  17
ATOM     17  C   UNL     1     -43.009  38.361 -52.151  1.00  0.00     0.224 C 
ATOM     18  C   UNL     1     -44.517  37.955 -52.154  1.00  0.00     0.208 C 
ATOM     19  O   UNL     1     -42.686  38.740 -53.491  1.00  0.00    -0.337 OA
ATOM     20  C   UNL     1     -44.951  38.002 -53.617  1.00  0.00     0.180 C 
ATOM     21  C   UNL     1     -43.655  38.219 -54.390  1.00  0.00     0.179 C 
BRANCH  17  22
ATOM     22  C   UNL     1     -42.005  37.212 -51.795  1.00  0.00     0.225 C 
BRANCH  22  23
ATOM     23  O   UNL     1     -41.548  37.275 -50.461  1.00  0.00    -0.391 OA
ATOM     24  H   UNL     1     -40.914  38.042 -50.411  1.00  0.00     0.210 HD
ENDBRANCH  22  23
ENDBRANCH  17  22
BRANCH  18  25
ATOM     25  O   UNL     1     -45.365  38.794 -51.394  1.00  0.00    -0.385 OA
ATOM     26  H   UNL     1     -45.614  39.582 -51.944  1.00  0.00     0.211 HD
ENDBRANCH  18  25
BRANCH  20  27
ATOM     27  O   UNL     1     -45.710  36.875 -53.994  1.00  0.00    -0.387 OA
ATOM     28  H   UNL     1     -45.165  36.058 -53.828  1.00  0.00     0.211 HD
ENDBRANCH  20  27
BRANCH  21  29
ATOM     29  C   UNL     1     -43.140  36.963 -55.125  1.00  0.00     0.191 C 
BRANCH  29  30
ATOM     30  O   UNL     1     -41.740  36.900 -55.089  1.00  0.00    -0.394 OA
ATOM     31  H   UNL     1     -41.497  36.328 -54.309  1.00  0.00     0.210 HD
ENDBRANCH  29  30
ENDBRANCH  21  29
ENDBRANCH   1  17
TORSDOF 13
ENDMDL
MODEL 3
REMARK VINA RESULT:    -5.378      1.449      6.364
REMARK INTER + INTRA:          -8.954
REMARK INTER:                  -7.827
REMARK INTRA:                  -1.127
REMARK UNBOUND:                -0.745
REMARK SMILES OC[C@@H]1O[C@H](O[C@]2(CO)O[C@@H](CO)[C@@H](O)[C@@H]2O)[C@H](O)[C@H](O)[C@H]1O
REMARK SMILES IDX 6 1 5 2 3 3 22 4 4 5 20 6 18 7 2 8 1 9 23 11 21 13 19 15
REMARK SMILES IDX 7 17 16 18 10 19 14 20 11 21 8 22 9 23 17 25 15 27 12 29
REMARK SMILES IDX 13 30
REMARK H PARENT 1 10 23 12 21 14 19 16 9 24 17 26 15 28 13 31
REMARK Flexibility Score: inf
ROOT
ATOM      1  O   UNL     1     -42.043  42.143 -51.711  1.00  0.00    -0.313 OA
ENDROOT
BRANCH   1   2
ATOM      2  C   UNL     1     -42.302  42.945 -52.868  1.00  0.00     0.285 C 
ATOM      3  C   UNL     1     -43.500  44.716 -53.732  1.00  0.00     0.178 C 
ATOM      4  C   UNL     1     -42.451  45.813 -53.644  1.00  0.00     0.177 C 
ATOM      5  O   UNL     1     -43.325  43.883 -52.604  1.00  0.00    -0.341 OA
ATOM      6  C   UNL     1     -41.032  45.187 -53.556  1.00  0.00     0.179 C 
ATOM      7  C   UNL     1     -40.960  43.624 -53.314  1.00  0.00     0.202 C 
BRANCH   3   8
ATOM      8  C   UNL     1     -44.956  45.234 -53.773  1.00  0.00     0.191 C 
BRANCH   8   9
ATOM      9  O   UNL     1     -45.326  45.789 -52.528  1.00  0.00    -0.394 OA
ATOM     10  H   UNL     1     -44.740  46.587 -52.416  1.00  0.00     0.210 HD
ENDBRANCH   8   9
ENDBRANCH   3   8
BRANCH   4  11
ATOM     11  O   UNL     1     -42.532  46.670 -54.762  1.00  0.00    -0.387 OA
ATOM     12  H   UNL     1     -42.309  47.581 -54.461  1.00  0.00     0.211 HD
ENDBRANCH   4  11
BRANCH   6  13
ATOM     13  O   UNL     1     -40.313  45.871 -52.554  1.00  0.00    -0.387 OA
ATOM     14  H   UNL     1     -39.954  45.178 -51.937  1.00  0.00     0.211 HD
ENDBRANCH   6  13
BRANCH   7  15
ATOM     15  O   UNL     1     -39.950  43.325 -52.381  1.00  0.00    -0.385 OA
ATOM     16  H   UNL     1     -39.196  43.962 -52.490  1.00  0.00     0.211 HD
ENDBRANCH   7  15
ENDBRANCH   1   2
BRANCH   1  17
ATOM     17  C   UNL     1     -42.220  40.736 -51.861  1.00  0.00     0.224 C 
ATOM     18  C   UNL     1     -40.961  39.941 -51.389  1.00  0.00     0.208 C 
ATOM     19  O   UNL     1     -43.293  40.351 -50.998  1.00  0.00    -0.337 OA
ATOM     20  C   UNL     1     -41.460  38.991 -50.304  1.00  0.00     0.180 C 
ATOM     21  C   UNL     1     -42.978  39.126 -50.349  1.00  0.00     0.179 C 
BRANCH  17  22
ATOM     22  C   UNL     1     -42.718  40.408 -53.309  1.00  0.00     0.225 C 
BRANCH  22  23
ATOM     23  O   UNL     1     -44.125  40.346 -53.406  1.00  0.00    -0.391 OA
ATOM     24  H   UNL     1     -44.380  40.871 -54.214  1.00  0.00     0.210 HD
ENDBRANCH  22  23
ENDBRANCH  17  22
BRANCH  18  25
ATOM     25  O   UNL     1     -39.915  40.734 -50.862  1.00  0.00    -0.385 OA
ATOM     26  H   UNL     1     -39.167  40.141 -50.591  1.00  0.00     0.211 HD
ENDBRANCH  18  25
BRANCH  20  27
ATOM     27  O   UNL     1     -40.956  37.682 -50.455  1.00  0.00    -0.387 OA
ATOM     28  H   UNL     1     -41.350  37.108 -49.742  1.00  0.00     0.211 HD
ENDBRANCH  20  27
BRANCH  21  29
ATOM     29  C   UNL     1     -43.700  37.928 -51.002  1.00  0.00     0.191 C 
BRANCH  29  30
ATOM     30  O   UNL     1     -44.962  38.305 -51.481  1.00  0.00    -0.394 OA
ATOM     31  H   UNL     1     -44.915  39.281 -51.683  1.00  0.00     0.210 HD
ENDBRANCH  29  30
ENDBRANCH  21  29
ENDBRANCH   1  17
TORSDOF 13
ENDMDL
MODEL 4
REMARK VINA RESULT:    -5.200      1.321      2.595
REMARK INTER + INTRA:          -8.681
REMARK INTER:                  -7.675
REMARK INTRA:                  -1.007
REMARK UNBOUND:                -0.745
REMARK SMILES OC[C@@H]1O[C@H](O[C@]2(CO)O[C@@H](CO)[C@@H](O)[C@@H]2O)[C@H](O)[C@H](O)[C@H]1O
REMARK SMILES IDX 6 1 5 2 3 3 22 4 4 5 20 6 18 7 2 8 1 9 23 11 21 13 19 15
REMARK SMILES IDX 7 17 16 18 10 19 14 20 11 21 8 22 9 23 17 25 15 27 12 29
REMARK SMILES IDX 13 30
REMARK H PARENT 1 10 23 12 21 14 19 16 9 24 17 26 15 28 13 31
REMARK Flexibility Score: inf
ROOT
ATOM      1  O   UNL     1     -41.762  42.081 -53.188  1.00  0.00    -0.313 OA
ENDROOT
BRANCH   1   2
ATOM      2  C   UNL     1     -42.742  41.390 -52.406  1.00  0.00     0.285 C 
ATOM      3  C   UNL     1     -44.362  39.749 -52.396  1.00  0.00     0.178 C 
ATOM      4  C   UNL     1     -43.576  38.604 -51.778  1.00  0.00     0.177 C 
ATOM      5  O   UNL     1     -43.465  40.478 -53.208  1.00  0.00    -0.341 OA
ATOM      6  C   UNL     1     -42.352  39.159 -50.997  1.00  0.00     0.179 C 
ATOM      7  C   UNL     1     -42.016  40.691 -51.203  1.00  0.00     0.202 C 
BRANCH   3   8
ATOM      8  C   UNL     1     -45.577  39.300 -53.240  1.00  0.00     0.191 C 
BRANCH   8   9
ATOM      9  O   UNL     1     -45.432  37.958 -53.654  1.00  0.00    -0.394 OA
ATOM     10  H   UNL     1     -46.320  37.705 -54.029  1.00  0.00     0.210 HD
ENDBRANCH   8   9
ENDBRANCH   3   8
BRANCH   4  11
ATOM     11  O   UNL     1     -44.396  37.846 -50.914  1.00  0.00    -0.387 OA
ATOM     12  H   UNL     1     -44.385  36.913 -51.231  1.00  0.00     0.211 HD
ENDBRANCH   4  11
BRANCH   6  13
ATOM     13  O   UNL     1     -41.232  38.364 -51.317  1.00  0.00    -0.387 OA
ATOM     14  H   UNL     1     -40.830  38.077 -50.453  1.00  0.00     0.211 HD
ENDBRANCH   6  13
BRANCH   7  15
ATOM     15  O   UNL     1     -40.625  40.868 -51.327  1.00  0.00    -0.385 OA
ATOM     16  H   UNL     1     -40.310  41.518 -50.645  1.00  0.00     0.211 HD
ENDBRANCH   7  15
ENDBRANCH   1   2
BRANCH   1  17
ATOM     17  C   UNL     1     -41.947  43.487 -53.337  1.00  0.00     0.224 C 
ATOM     18  C   UNL     1     -41.007  44.298 -52.388  1.00  0.00     0.208 C 
ATOM     19  O   UNL     1     -41.567  43.824 -54.673  1.00  0.00    -0.337 OA
ATOM     20  C   UNL     1     -40.189  45.207 -53.302  1.00  0.00     0.180 C 
ATOM     21  C   UNL     1     -40.827  45.038 -54.676  1.00  0.00     0.179 C 
BRANCH  17  22
ATOM     22  C   UNL     1     -43.469  43.843 -53.239  1.00  0.00     0.225 C 
BRANCH  22  23
ATOM     23  O   UNL     1     -43.711  45.033 -52.519  1.00  0.00    -0.391 OA
ATOM     24  H   UNL     1     -42.937  45.637 -52.696  1.00  0.00     0.210 HD
ENDBRANCH  22  23
ENDBRANCH  17  22
BRANCH  18  25
ATOM     25  O   UNL     1     -40.125  43.515 -51.607  1.00  0.00    -0.385 OA
ATOM     26  H   UNL     1     -39.336  43.274 -52.157  1.00  0.00     0.211 HD
ENDBRANCH  18  25
BRANCH  20  27
ATOM     27  O   UNL     1     -40.109  46.530 -52.820  1.00  0.00    -0.387 OA
ATOM     28  H   UNL     1     -40.437  47.145 -53.533  1.00  0.00     0.211 HD
ENDBRANCH  20  27
BRANCH  21  29
ATOM     29  C   UNL     1     -41.691  46.236 -55.123  1.00  0.00     0.191 C 
BRANCH  29  30
ATOM     30  O   UNL     1     -40.994  47.442 -54.964  1.00  0.00    -0.394 OA
ATOM     31  H   UNL     1     -40.559  47.407 -54.066  1.00  0.00     0.210 HD
ENDBRANCH  29  30
ENDBRANCH  21  29
ENDBRANCH   1  17
TORSDOF 13
ENDMDL
MODEL 5
REMARK VINA RESULT:    -4.862      2.297      5.525
REMARK INTER + INTRA:          -8.165
REMARK INTER:                  -6.760
REMARK INTRA:                  -1.405
REMARK UNBOUND:                -0.745
REMARK SMILES OC[C@@H]1O[C@H](O[C@]2(CO)O[C@@H](CO)[C@@H](O)[C@@H]2O)[C@H](O)[C@H](O)[C@H]1O
REMARK SMILES IDX 6 1 5 2 3 3 22 4 4 5 20 6 18 7 2 8 1 9 23 11 21 13 19 15
REMARK SMILES IDX 7 17 16 18 10 19 14 20 11 21 8 22 9 23 17 25 15 27 12 29
REMARK SMILES IDX 13 30
REMARK H PARENT 1 10 23 12 21 14 19 16 9 24 17 26 15 28 13 31
REMARK Flexibility Score: inf
ROOT
ATOM      1  O   UNL     1     -42.889  40.882 -53.738  1.00  0.00    -0.313 OA
ENDROOT
BRANCH   1   2
ATOM      2  C   UNL     1     -42.806  41.134 -52.331  1.00  0.00     0.285 C 
ATOM      3  C   UNL     1     -41.778  40.559 -50.349  1.00  0.00     0.178 C 
ATOM      4  C   UNL     1     -40.749  41.674 -50.250  1.00  0.00     0.177 C 
ATOM      5  O   UNL     1     -41.907  40.233 -51.717  1.00  0.00    -0.341 OA
ATOM      6  C   UNL     1     -41.183  42.878 -51.131  1.00  0.00     0.179 C 
ATOM      7  C   UNL     1     -42.396  42.634 -52.118  1.00  0.00     0.202 C 
BRANCH   3   8
ATOM      8  C   UNL     1     -41.415  39.289 -49.546  1.00  0.00     0.191 C 
BRANCH   8   9
ATOM      9  O   UNL     1     -40.144  39.422 -48.944  1.00  0.00    -0.394 OA
ATOM     10  H   UNL     1     -40.311  39.343 -47.965  1.00  0.00     0.210 HD
ENDBRANCH   8   9
ENDBRANCH   3   8
BRANCH   4  11
ATOM     11  O   UNL     1     -40.591  42.089 -48.911  1.00  0.00    -0.387 OA
ATOM     12  H   UNL     1     -40.052  41.407 -48.446  1.00  0.00     0.211 HD
ENDBRANCH   4  11
BRANCH   6  13
ATOM     13  O   UNL     1     -40.053  43.327 -51.846  1.00  0.00    -0.387 OA
ATOM     14  H   UNL     1     -40.080  44.321 -51.825  1.00  0.00     0.211 HD
ENDBRANCH   6  13
BRANCH   7  15
ATOM     15  O   UNL     1     -42.133  43.231 -53.365  1.00  0.00    -0.385 OA
ATOM     16  H   UNL     1     -42.123  42.534 -54.073  1.00  0.00     0.211 HD
ENDBRANCH   7  15
ENDBRANCH   1   2
BRANCH   1  17
ATOM     17  C   UNL     1     -44.188  40.611 -54.258  1.00  0.00     0.224 C 
ATOM     18  C   UNL     1     -44.252  39.216 -54.959  1.00  0.00     0.208 C 
ATOM     19  O   UNL     1     -45.084  40.549 -53.146  1.00  0.00    -0.337 OA
ATOM     20  C   UNL     1     -45.352  38.444 -54.236  1.00  0.00     0.180 C 
ATOM     21  C   UNL     1     -45.999  39.476 -53.318  1.00  0.00     0.179 C 
BRANCH  17  22
ATOM     22  C   UNL     1     -44.685  41.820 -55.121  1.00  0.00     0.225 C 
BRANCH  22  23
ATOM     23  O   UNL     1     -45.107  42.917 -54.339  1.00  0.00    -0.391 OA
ATOM     24  H   UNL     1     -44.844  42.716 -53.399  1.00  0.00     0.210 HD
ENDBRANCH  22  23
ENDBRANCH  17  22
BRANCH  18  25
ATOM     25  O   UNL     1     -43.054  38.466 -54.910  1.00  0.00    -0.385 OA
ATOM     26  H   UNL     1     -42.403  38.937 -54.327  1.00  0.00     0.211 HD
ENDBRANCH  18  25
BRANCH  20  27
ATOM     27  O   UNL     1     -46.223  37.780 -55.125  1.00  0.00    -0.387 OA
ATOM     28  H   UNL     1     -47.140  38.151 -55.002  1.00  0.00     0.211 HD
ENDBRANCH  20  27
BRANCH  21  29
ATOM     29  C   UNL     1     -47.381  39.969 -53.798  1.00  0.00     0.191 C 
BRANCH  29  30
ATOM     30  O   UNL     1     -47.609  41.291 -53.391  1.00  0.00    -0.394 OA
ATOM     31  H   UNL     1     -47.520  41.863 -54.203  1.00  0.00     0.210 HD
ENDBRANCH  29  30
ENDBRANCH  21  29
ENDBRANCH   1  17
TORSDOF 13
ENDMDL
MODEL 6
REMARK VINA RESULT:    -4.757      1.854      3.421
REMARK INTER + INTRA:          -8.005
REMARK INTER:                  -7.463
REMARK INTRA:                  -0.542
REMARK UNBOUND:                -0.745
REMARK SMILES OC[C@@H]1O[C@H](O[C@]2(CO)O[C@@H](CO)[C@@H](O)[C@@H]2O)[C@H](O)[C@H](O)[C@H]1O
REMARK SMILES IDX 6 1 5 2 3 3 22 4 4 5 20 6 18 7 2 8 1 9 23 11 21 13 19 15
REMARK SMILES IDX 7 17 16 18 10 19 14 20 11 21 8 22 9 23 17 25 15 27 12 29
REMARK SMILES IDX 13 30
REMARK H PARENT 1 10 23 12 21 14 19 16 9 24 17 26 15 28 13 31
REMARK Flexibility Score: inf
ROOT
ATOM      1  O   UNL     1     -44.158  41.542 -53.249  1.00  0.00    -0.313 OA
ENDROOT
BRANCH   1   2
ATOM      2  C   UNL     1     -42.978  40.921 -52.729  1.00  0.00     0.285 C 
ATOM      3  C   UNL     1     -41.616  40.658 -50.887  1.00  0.00     0.178 C 
ATOM      4  C   UNL     1     -42.120  39.317 -50.374  1.00  0.00     0.177 C 
ATOM      5  O   UNL     1     -42.733  41.350 -51.405  1.00  0.00    -0.341 OA
ATOM      6  C   UNL     1     -42.845  38.550 -51.514  1.00  0.00     0.179 C 
ATOM      7  C   UNL     1     -43.147  39.364 -52.837  1.00  0.00     0.202 C 
BRANCH   3   8
ATOM      8  C   UNL     1     -40.921  41.525 -49.813  1.00  0.00     0.191 C 
BRANCH   8   9
ATOM      9  O   UNL     1     -41.375  42.861 -49.876  1.00  0.00    -0.394 OA
ATOM     10  H   UNL     1     -41.413  43.167 -48.928  1.00  0.00     0.210 HD
ENDBRANCH   8   9
ENDBRANCH   3   8
BRANCH   4  11
ATOM     11  O   UNL     1     -41.052  38.543 -49.874  1.00  0.00    -0.387 OA
ATOM     12  H   UNL     1     -41.186  38.435 -48.903  1.00  0.00     0.211 HD
ENDBRANCH   4  11
BRANCH   6  13
ATOM     13  O   UNL     1     -44.038  38.010 -50.988  1.00  0.00    -0.387 OA
ATOM     14  H   UNL     1     -44.744  38.698 -51.122  1.00  0.00     0.211 HD
ENDBRANCH   6  13
BRANCH   7  15
ATOM     15  O   UNL     1     -44.439  39.063 -53.306  1.00  0.00    -0.385 OA
ATOM     16  H   UNL     1     -44.374  38.545 -54.151  1.00  0.00     0.211 HD
ENDBRANCH   7  15
ENDBRANCH   1   2
BRANCH   1  17
ATOM     17  C   UNL     1     -43.964  42.723 -54.024  1.00  0.00     0.224 C 
ATOM     18  C   UNL     1     -45.318  43.306 -54.540  1.00  0.00     0.208 C 
ATOM     19  O   UNL     1     -43.399  43.709 -53.158  1.00  0.00    -0.337 OA
ATOM     20  C   UNL     1     -45.378  44.735 -54.007  1.00  0.00     0.180 C 
ATOM     21  C   UNL     1     -43.997  44.974 -53.406  1.00  0.00     0.179 C 
BRANCH  17  22
ATOM     22  C   UNL     1     -42.878  42.471 -55.125  1.00  0.00     0.225 C 
BRANCH  22  23
ATOM     23  O   UNL     1     -41.691  43.203 -54.904  1.00  0.00    -0.391 OA
ATOM     24  H   UNL     1     -41.114  42.641 -54.316  1.00  0.00     0.210 HD
ENDBRANCH  22  23
ENDBRANCH  17  22
BRANCH  18  25
ATOM     25  O   UNL     1     -46.472  42.607 -54.115  1.00  0.00    -0.385 OA
ATOM     26  H   UNL     1     -47.182  43.264 -53.893  1.00  0.00     0.211 HD
ENDBRANCH  18  25
BRANCH  20  27
ATOM     27  O   UNL     1     -45.790  45.663 -54.987  1.00  0.00    -0.387 OA
ATOM     28  H   UNL     1     -45.689  46.581 -54.613  1.00  0.00     0.211 HD
ENDBRANCH  20  27
BRANCH  21  29
ATOM     29  C   UNL     1     -43.086  45.883 -54.257  1.00  0.00     0.191 C 
BRANCH  29  30
ATOM     30  O   UNL     1     -41.773  45.877 -53.766  1.00  0.00    -0.394 OA
ATOM     31  H   UNL     1     -41.691  46.660 -53.153  1.00  0.00     0.210 HD
ENDBRANCH  29  30
ENDBRANCH  21  29
ENDBRANCH   1  17
TORSDOF 13
ENDMDL
MODEL 7
REMARK VINA RESULT:    -4.753      3.018      5.418
REMARK INTER + INTRA:          -8.000
REMARK INTER:                  -8.142
REMARK INTRA:                   0.142
REMARK UNBOUND:                -0.745
REMARK SMILES OC[C@@H]1O[C@H](O[C@]2(CO)O[C@@H](CO)[C@@H](O)[C@@H]2O)[C@H](O)[C@H](O)[C@H]1O
REMARK SMILES IDX 6 1 5 2 3 3 22 4 4 5 20 6 18 7 2 8 1 9 23 11 21 13 19 15
REMARK SMILES IDX 7 17 16 18 10 19 14 20 11 21 8 22 9 23 17 25 15 27 12 29
REMARK SMILES IDX 13 30
REMARK H PARENT 1 10 23 12 21 14 19 16 9 24 17 26 15 28 13 31
REMARK Flexibility Score: inf
ROOT
ATOM      1  O   UNL     1     -43.197  38.933 -53.470  1.00  0.00    -0.313 OA
ENDROOT
BRANCH   1   2
ATOM      2  C   UNL     1     -42.004  39.212 -52.729  1.00  0.00     0.285 C 
ATOM      3  C   UNL     1     -41.057  40.466 -51.042  1.00  0.00     0.178 C 
ATOM      4  C   UNL     1     -41.104  39.457 -49.904  1.00  0.00     0.177 C 
ATOM      5  O   UNL     1     -42.221  40.270 -51.818  1.00  0.00    -0.341 OA
ATOM      6  C   UNL     1     -41.228  38.018 -50.475  1.00  0.00     0.179 C 
ATOM      7  C   UNL     1     -41.538  37.892 -52.021  1.00  0.00     0.202 C 
BRANCH   3   8
ATOM      8  C   UNL     1     -40.985  41.939 -50.579  1.00  0.00     0.191 C 
BRANCH   8   9
ATOM      9  O   UNL     1     -41.024  42.026 -49.170  1.00  0.00    -0.394 OA
ATOM     10  H   UNL     1     -40.086  41.865 -48.874  1.00  0.00     0.210 HD
ENDBRANCH   8   9
ENDBRANCH   3   8
BRANCH   4  11
ATOM     11  O   UNL     1     -39.949  39.560 -49.100  1.00  0.00    -0.387 OA
ATOM     12  H   UNL     1     -39.166  39.390 -49.674  1.00  0.00     0.211 HD
ENDBRANCH   4  11
BRANCH   6  13
ATOM     13  O   UNL     1     -42.204  37.332 -49.722  1.00  0.00    -0.387 OA
ATOM     14  H   UNL     1     -41.713  36.725 -49.105  1.00  0.00     0.211 HD
ENDBRANCH   6  13
BRANCH   7  15
ATOM     15  O   UNL     1     -42.489  36.879 -52.243  1.00  0.00    -0.385 OA
ATOM     16  H   UNL     1     -42.504  36.260 -51.466  1.00  0.00     0.211 HD
ENDBRANCH   7  15
ENDBRANCH   1   2
BRANCH   1  17
ATOM     17  C   UNL     1     -44.364  39.657 -53.088  1.00  0.00     0.224 C 
ATOM     18  C   UNL     1     -44.313  41.139 -53.578  1.00  0.00     0.208 C 
ATOM     19  O   UNL     1     -45.475  39.047 -53.750  1.00  0.00    -0.337 OA
ATOM     20  C   UNL     1     -45.558  41.330 -54.440  1.00  0.00     0.180 C 
ATOM     21  C   UNL     1     -46.359  40.047 -54.237  1.00  0.00     0.179 C 
BRANCH  17  22
ATOM     22  C   UNL     1     -44.640  39.464 -51.559  1.00  0.00     0.225 C 
BRANCH  22  23
ATOM     23  O   UNL     1     -44.823  38.111 -51.199  1.00  0.00    -0.391 OA
ATOM     24  H   UNL     1     -45.516  38.096 -50.483  1.00  0.00     0.210 HD
ENDBRANCH  22  23
ENDBRANCH  17  22
BRANCH  18  25
ATOM     25  O   UNL     1     -43.170  41.479 -54.339  1.00  0.00    -0.385 OA
ATOM     26  H   UNL     1     -43.443  42.082 -55.078  1.00  0.00     0.211 HD
ENDBRANCH  18  25
BRANCH  20  27
ATOM     27  O   UNL     1     -46.239  42.531 -54.151  1.00  0.00    -0.387 OA
ATOM     28  H   UNL     1     -46.669  42.858 -54.989  1.00  0.00     0.211 HD
ENDBRANCH  20  27
BRANCH  21  29
ATOM     29  C   UNL     1     -47.597  40.212 -53.330  1.00  0.00     0.191 C 
BRANCH  29  30
ATOM     30  O   UNL     1     -47.290  40.986 -52.202  1.00  0.00    -0.394 OA
ATOM     31  H   UNL     1     -47.920  41.760 -52.203  1.00  0.00     0.210 HD
ENDBRANCH  29  30
ENDBRANCH  21  29
ENDBRANCH   1  17
TORSDOF 13
ENDMDL
MODEL 8
REMARK VINA RESULT:    -4.444      1.611      6.356
REMARK INTER + INTRA:          -7.528
REMARK INTER:                  -6.389
REMARK INTRA:                  -1.138
REMARK UNBOUND:                -0.745
REMARK SMILES OC[C@@H]1O[C@H](O[C@]2(CO)O[C@@H](CO)[C@@H](O)[C@@H]2O)[C@H](O)[C@H](O)[C@H]1O
REMARK SMILES IDX 6 1 5 2 3 3 22 4 4 5 20 6 18 7 2 8 1 9 23 11 21 13 19 15
REMARK SMILES IDX 7 17 16 18 10 19 14 20 11 21 8 22 9 23 17 25 15 27 12 29
REMARK SMILES IDX 13 30
REMARK H PARENT 1 10 23 12 21 14 19 16 9 24 17 26 15 28 13 31
REMARK Flexibility Score: inf
ROOT
ATOM      1  O   UNL     1     -42.038  41.388 -51.622  1.00  0.00    -0.313 OA
ENDROOT
BRANCH   1   2
ATOM      2  C   UNL     1     -42.187  42.137 -52.833  1.00  0.00     0.285 C 
ATOM      3  C   UNL     1     -43.552  43.542 -54.050  1.00  0.00     0.178 C 
ATOM      4  C   UNL     1     -42.917  44.883 -53.715  1.00  0.00     0.177 C 
ATOM      5  O   UNL     1     -43.464  42.741 -52.890  1.00  0.00    -0.341 OA
ATOM      6  C   UNL     1     -41.459  44.674 -53.222  1.00  0.00     0.179 C 
ATOM      7  C   UNL     1     -41.021  43.184 -52.918  1.00  0.00     0.202 C 
BRANCH   3   8
ATOM      8  C   UNL     1     -45.026  43.635 -54.504  1.00  0.00     0.191 C 
BRANCH   8   9
ATOM      9  O   UNL     1     -45.718  44.620 -53.766  1.00  0.00    -0.394 OA
ATOM     10  H   UNL     1     -46.682  44.386 -53.860  1.00  0.00     0.210 HD
ENDBRANCH   8   9
ENDBRANCH   3   8
BRANCH   4  11
ATOM     11  O   UNL     1     -42.928  45.734 -54.842  1.00  0.00    -0.387 OA
ATOM     12  H   UNL     1     -42.024  46.114 -54.941  1.00  0.00     0.211 HD
ENDBRANCH   4  11
BRANCH   6  13
ATOM     13  O   UNL     1     -41.261  45.485 -52.085  1.00  0.00    -0.387 OA
ATOM     14  H   UNL     1     -40.978  46.378 -52.420  1.00  0.00     0.211 HD
ENDBRANCH   6  13
BRANCH   7  15
ATOM     15  O   UNL     1     -40.260  43.136 -51.735  1.00  0.00    -0.385 OA
ATOM     16  H   UNL     1     -40.656  43.745 -51.058  1.00  0.00     0.211 HD
ENDBRANCH   7  15
ENDBRANCH   1   2
BRANCH   1  17
ATOM     17  C   UNL     1     -41.913  39.975 -51.763  1.00  0.00     0.224 C 
ATOM     18  C   UNL     1     -43.248  39.239 -51.417  1.00  0.00     0.208 C 
ATOM     19  O   UNL     1     -41.646  39.708 -53.141  1.00  0.00    -0.337 OA
ATOM     20  C   UNL     1     -43.609  38.438 -52.665  1.00  0.00     0.180 C 
ATOM     21  C   UNL     1     -42.389  38.575 -53.570  1.00  0.00     0.179 C 
BRANCH  17  22
ATOM     22  C   UNL     1     -40.647  39.467 -50.993  1.00  0.00     0.225 C 
BRANCH  22  23
ATOM     23  O   UNL     1     -40.924  38.379 -50.136  1.00  0.00    -0.391 OA
ATOM     24  H   UNL     1     -40.190  37.718 -50.268  1.00  0.00     0.210 HD
ENDBRANCH  22  23
ENDBRANCH  17  22
BRANCH  18  25
ATOM     25  O   UNL     1     -44.330  40.087 -51.085  1.00  0.00    -0.385 OA
ATOM     26  H   UNL     1     -44.787  40.368 -51.920  1.00  0.00     0.211 HD
ENDBRANCH  18  25
BRANCH  20  27
ATOM     27  O   UNL     1     -44.006  37.118 -52.366  1.00  0.00    -0.387 OA
ATOM     28  H   UNL     1     -44.332  36.690 -53.205  1.00  0.00     0.211 HD
ENDBRANCH  20  27
BRANCH  21  29
ATOM     29  C   UNL     1     -41.511  37.307 -53.644  1.00  0.00     0.191 C 
BRANCH  29  30
ATOM     30  O   UNL     1     -40.251  37.602 -54.181  1.00  0.00    -0.394 OA
ATOM     31  H   UNL     1     -40.307  38.522 -54.562  1.00  0.00     0.210 HD
ENDBRANCH  29  30
ENDBRANCH  21  29
ENDBRANCH   1  17
TORSDOF 13
ENDMDL
