MODEL 1
REMARK VINA RESULT:    -2.284      0.000      0.000
REMARK INTER + INTRA:          -2.284
REMARK INTER:                  -2.284
REMARK INTRA:                   0.000
REMARK UNBOUND:                 0.000
REMARK SMILES CC(=O)[O-]
REMARK SMILES IDX 1 1 2 2 3 3 4 4
REMARK H PARENT
REMARK Flexibility Score: inf
ROOT
ATOM      1  C   UNL     1      -7.429  -4.321  10.085  1.00  0.00     0.063 C 
ATOM      2  C   UNL     1      -7.335  -3.451   8.878  1.00  0.00     0.038 C 
ATOM      3  O   UNL     1      -7.942  -3.768   7.822  1.00  0.00    -0.550 OA
ATOM      4  O   UNL     1      -6.533  -2.316   8.896  1.00  0.00    -0.550 OA
ENDROOT
TORSDOF 0
ENDMDL
MODEL 2
REMARK VINA RESULT:    -2.254     22.668     22.940
REMARK INTER + INTRA:          -2.254
REMARK INTER:                  -2.254
REMARK INTRA:                   0.000
REMARK UNBOUND:                 0.000
REMARK SMILES CC(=O)[O-]
REMARK SMILES IDX 1 1 2 2 3 3 4 4
REMARK H PARENT
REMARK Flexibility Score: inf
ROOT
ATOM      1  C   UNL     1      11.378  -4.744  -3.108  1.00  0.00     0.063 C 
ATOM      2  C   UNL     1      11.381  -3.955  -4.374  1.00  0.00     0.038 C 
ATOM      3  O   UNL     1      10.752  -4.372  -5.380  1.00  0.00    -0.550 OA
ATOM      4  O   UNL     1      12.125  -2.784  -4.463  1.00  0.00    -0.550 OA
ENDROOT
TORSDOF 0
ENDMDL
MODEL 3
REMARK VINA RESULT:    -2.205     22.543     22.843
REMARK INTER + INTRA:          -2.205
REMARK INTER:                  -2.205
REMARK INTRA:                   0.000
REMARK UNBOUND:                 0.000
REMARK SMILES CC(=O)[O-]
REMARK SMILES IDX 1 1 2 2 3 3 4 4
REMARK H PARENT
REMARK Flexibility Score: inf
ROOT
ATOM      1  C   UNL     1      11.977  -3.445  -3.936  1.00  0.00     0.063 C 
ATOM      2  C   UNL     1      11.065  -4.520  -4.420  1.00  0.00     0.038 C 
ATOM      3  O   UNL     1      10.670  -5.417  -3.631  1.00  0.00    -0.550 OA
ATOM      4  O   UNL     1      10.692  -4.567  -5.758  1.00  0.00    -0.550 OA
ENDROOT
TORSDOF 0
ENDMDL
MODEL 4
REMARK VINA RESULT:    -2.119     14.126     14.667
REMARK INTER + INTRA:          -2.119
REMARK INTER:                  -2.119
REMARK INTRA:                   0.000
REMARK UNBOUND:                 0.000
REMARK SMILES CC(=O)[O-]
REMARK SMILES IDX 1 1 2 2 3 3 4 4
REMARK H PARENT
REMARK Flexibility Score: inf
ROOT
ATOM      1  C   UNL     1       0.377   9.447   9.510  1.00  0.00     0.063 C 
ATOM      2  C   UNL     1      -0.863   9.614   8.698  1.00  0.00     0.038 C 
ATOM      3  O   UNL     1      -1.317   8.649   8.031  1.00  0.00    -0.550 OA
ATOM      4  O   UNL     1      -1.491  10.852   8.633  1.00  0.00    -0.550 OA
ENDROOT
TORSDOF 0
ENDMDL
MODEL 5
REMARK VINA RESULT:    -2.066      1.637      1.919
REMARK INTER + INTRA:          -2.066
REMARK INTER:                  -2.066
REMARK INTRA:                   0.000
REMARK UNBOUND:                 0.000
REMARK SMILES CC(=O)[O-]
REMARK SMILES IDX 1 1 2 2 3 3 4 4
REMARK H PARENT
REMARK Flexibility Score: inf
ROOT
ATOM      1  C   UNL     1      -7.563  -3.759   9.101  1.00  0.00     0.063 C 
ATOM      2  C   UNL     1      -6.932  -2.438   9.384  1.00  0.00     0.038 C 
ATOM      3  O   UNL     1      -5.759  -2.201   8.996  1.00  0.00    -0.550 OA
ATOM      4  O   UNL     1      -7.619  -1.483  10.125  1.00  0.00    -0.550 OA
ENDROOT
TORSDOF 0
ENDMDL
MODEL 6
REMARK VINA RESULT:    -2.055     22.372     22.670
REMARK INTER + INTRA:          -2.055
REMARK INTER:                  -2.055
REMARK INTRA:                   0.000
REMARK UNBOUND:                 0.000
REMARK SMILES CC(=O)[O-]
REMARK SMILES IDX 1 1 2 2 3 3 4 4
REMARK H PARENT
REMARK Flexibility Score: inf
ROOT
ATOM      1  C   UNL     1       7.904  -4.979  -7.922  1.00  0.00     0.063 C 
ATOM      2  C   UNL     1       8.747  -5.479  -6.798  1.00  0.00     0.038 C 
ATOM      3  O   UNL     1       9.849  -4.929  -6.541  1.00  0.00    -0.550 OA
ATOM      4  O   UNL     1       8.342  -6.588  -6.064  1.00  0.00    -0.550 OA
ENDROOT
TORSDOF 0
ENDMDL
MODEL 7
REMARK VINA RESULT:    -2.039     22.360     22.612
REMARK INTER + INTRA:          -2.039
REMARK INTER:                  -2.039
REMARK INTRA:                   0.000
REMARK UNBOUND:                 0.000
REMARK SMILES CC(=O)[O-]
REMARK SMILES IDX 1 1 2 2 3 3 4 4
REMARK H PARENT
REMARK Flexibility Score: inf
ROOT
ATOM      1  C   UNL     1       7.898  -4.989  -7.771  1.00  0.00     0.063 C 
ATOM      2  C   UNL     1       8.782  -5.575  -6.723  1.00  0.00     0.038 C 
ATOM      3  O   UNL     1       8.403  -6.580  -6.066  1.00  0.00    -0.550 OA
ATOM      4  O   UNL     1      10.003  -4.981  -6.430  1.00  0.00    -0.550 OA
ENDROOT
TORSDOF 0
ENDMDL
MODEL 8
REMARK VINA RESULT:    -1.905     22.505     22.842
REMARK INTER + INTRA:          -1.905
REMARK INTER:                  -1.905
REMARK INTRA:                   0.000
REMARK UNBOUND:                 0.000
REMARK SMILES CC(=O)[O-]
REMARK SMILES IDX 1 1 2 2 3 3 4 4
REMARK H PARENT
REMARK Flexibility Score: inf
ROOT
ATOM      1  C   UNL     1      10.748  -5.406  -5.884  1.00  0.00     0.063 C 
ATOM      2  C   UNL     1      10.933  -4.665  -4.603  1.00  0.00     0.038 C 
ATOM      3  O   UNL     1      11.396  -3.496  -4.611  1.00  0.00    -0.550 OA
ATOM      4  O   UNL     1      10.646  -5.285  -3.392  1.00  0.00    -0.550 OA
ENDROOT
TORSDOF 0
ENDMDL
MODEL 9
REMARK VINA RESULT:    -1.847     22.614     22.862
REMARK INTER + INTRA:          -1.847
REMARK INTER:                  -1.847
REMARK INTRA:                   0.000
REMARK UNBOUND:                 0.000
REMARK SMILES CC(=O)[O-]
REMARK SMILES IDX 1 1 2 2 3 3 4 4
REMARK H PARENT
REMARK Flexibility Score: inf
ROOT
ATOM      1  C   UNL     1      10.907  -6.586  -5.410  1.00  0.00     0.063 C 
ATOM      2  C   UNL     1       9.703  -5.992  -6.057  1.00  0.00     0.038 C 
ATOM      3  O   UNL     1       9.790  -4.894  -6.667  1.00  0.00    -0.550 OA
ATOM      4  O   UNL     1       8.469  -6.620  -5.942  1.00  0.00    -0.550 OA
ENDROOT
TORSDOF 0
ENDMDL
