MODEL 1
REMARK VINA RESULT:    -2.394      0.000      0.000
REMARK INTER + INTRA:          -2.705
REMARK INTER:                  -2.674
REMARK INTRA:                  -0.031
REMARK UNBOUND:                -0.031
REMARK SMILES CCCC(=O)[O-]
REMARK SMILES IDX 3 1 4 2 5 3 6 4 2 5 1 6
REMARK H PARENT
REMARK Flexibility Score: inf
ROOT
ATOM      1  C   UNL     1      45.984  18.669  76.010  1.00  0.00     0.052 C 
ENDROOT
BRANCH   1   2
ATOM      2  C   UNL     1      46.010  17.175  75.941  1.00  0.00     0.041 C 
ATOM      3  O   UNL     1      45.961  16.491  76.997  1.00  0.00    -0.550 OA
ATOM      4  O   UNL     1      46.037  16.537  74.708  1.00  0.00    -0.550 OA
ENDBRANCH   1   2
BRANCH   1   5
ATOM      5  C   UNL     1      46.213  19.144  77.447  1.00  0.00     0.003 C 
ATOM      6  C   UNL     1      44.921  19.671  78.065  1.00  0.00     0.004 C 
ENDBRANCH   1   5
TORSDOF 2
ENDMDL
MODEL 2
REMARK VINA RESULT:    -2.390      7.535      8.624
REMARK INTER + INTRA:          -2.700
REMARK INTER:                  -2.690
REMARK INTRA:                  -0.010
REMARK UNBOUND:                -0.031
REMARK SMILES CCCC(=O)[O-]
REMARK SMILES IDX 3 1 4 2 5 3 6 4 2 5 1 6
REMARK H PARENT
REMARK Flexibility Score: inf
ROOT
ATOM      1  C   UNL     1      38.801  20.342  80.280  1.00  0.00     0.052 C 
ENDROOT
BRANCH   1   2
ATOM      2  C   UNL     1      37.828  19.378  80.882  1.00  0.00     0.041 C 
ATOM      3  O   UNL     1      37.354  19.589  82.029  1.00  0.00    -0.550 OA
ATOM      4  O   UNL     1      37.406  18.272  80.155  1.00  0.00    -0.550 OA
ENDBRANCH   1   2
BRANCH   1   5
ATOM      5  C   UNL     1      39.852  19.597  79.452  1.00  0.00     0.003 C 
ATOM      6  C   UNL     1      41.261  20.066  79.802  1.00  0.00     0.004 C 
ENDBRANCH   1   5
TORSDOF 2
ENDMDL
MODEL 3
REMARK VINA RESULT:    -2.363     11.855     12.720
REMARK INTER + INTRA:          -2.670
REMARK INTER:                  -2.618
REMARK INTRA:                  -0.052
REMARK UNBOUND:                -0.031
REMARK SMILES CCCC(=O)[O-]
REMARK SMILES IDX 3 1 4 2 5 3 6 4 2 5 1 6
REMARK H PARENT
REMARK Flexibility Score: inf
ROOT
ATOM      1  C   UNL     1      55.270  18.788  84.853  1.00  0.00     0.052 C 
ENDROOT
BRANCH   1   2
ATOM      2  C   UNL     1      53.863  18.699  85.352  1.00  0.00     0.041 C 
ATOM      3  O   UNL     1      52.917  18.488  84.548  1.00  0.00    -0.550 OA
ATOM      4  O   UNL     1      53.601  18.799  86.713  1.00  0.00    -0.550 OA
ENDBRANCH   1   2
BRANCH   1   5
ATOM      5  C   UNL     1      55.795  17.400  84.476  1.00  0.00     0.003 C 
ATOM      6  C   UNL     1      56.125  16.580  85.719  1.00  0.00     0.004 C 
ENDBRANCH   1   5
TORSDOF 2
ENDMDL
MODEL 4
REMARK VINA RESULT:    -2.336      2.663      3.403
REMARK INTER + INTRA:          -2.640
REMARK INTER:                  -2.623
REMARK INTRA:                  -0.017
REMARK UNBOUND:                -0.031
REMARK SMILES CCCC(=O)[O-]
REMARK SMILES IDX 3 1 4 2 5 3 6 4 2 5 1 6
REMARK H PARENT
REMARK Flexibility Score: inf
ROOT
ATOM      1  C   UNL     1      45.906  18.968  75.957  1.00  0.00     0.052 C 
ENDROOT
BRANCH   1   2
ATOM      2  C   UNL     1      46.987  19.952  76.273  1.00  0.00     0.041 C 
ATOM      3  O   UNL     1      47.601  20.538  75.343  1.00  0.00    -0.550 OA
ATOM      4  O   UNL     1      47.283  20.260  77.595  1.00  0.00    -0.550 OA
ENDBRANCH   1   2
BRANCH   1   5
ATOM      5  C   UNL     1      45.769  17.941  77.085  1.00  0.00     0.003 C 
ATOM      6  C   UNL     1      45.964  16.521  76.564  1.00  0.00     0.004 C 
ENDBRANCH   1   5
TORSDOF 2
ENDMDL
MODEL 5
REMARK VINA RESULT:    -2.313     19.232     20.115
REMARK INTER + INTRA:          -2.615
REMARK INTER:                  -2.599
REMARK INTRA:                  -0.016
REMARK UNBOUND:                -0.031
REMARK SMILES CCCC(=O)[O-]
REMARK SMILES IDX 3 1 4 2 5 3 6 4 2 5 1 6
REMARK H PARENT
REMARK Flexibility Score: inf
ROOT
ATOM      1  C   UNL     1      45.291  30.374  91.479  1.00  0.00     0.052 C 
ENDROOT
BRANCH   1   2
ATOM      2  C   UNL     1      44.074  30.746  92.264  1.00  0.00     0.041 C 
ATOM      3  O   UNL     1      44.130  31.663  93.125  1.00  0.00    -0.550 OA
ATOM      4  O   UNL     1      42.863  30.113  92.010  1.00  0.00    -0.550 OA
ENDBRANCH   1   2
BRANCH   1   5
ATOM      5  C   UNL     1      45.970  31.627  90.917  1.00  0.00     0.003 C 
ATOM      6  C   UNL     1      45.999  31.601  89.392  1.00  0.00     0.004 C 
ENDBRANCH   1   5
TORSDOF 2
ENDMDL
MODEL 6
REMARK VINA RESULT:    -2.265      8.977      9.346
REMARK INTER + INTRA:          -2.560
REMARK INTER:                  -2.525
REMARK INTRA:                  -0.035
REMARK UNBOUND:                -0.031
REMARK SMILES CCCC(=O)[O-]
REMARK SMILES IDX 3 1 4 2 5 3 6 4 2 5 1 6
REMARK H PARENT
REMARK Flexibility Score: inf
ROOT
ATOM      1  C   UNL     1      53.893  18.981  73.131  1.00  0.00     0.052 C 
ENDROOT
BRANCH   1   2
ATOM      2  C   UNL     1      55.029  18.239  73.762  1.00  0.00     0.041 C 
ATOM      3  O   UNL     1      55.079  16.982  73.695  1.00  0.00    -0.550 OA
ATOM      4  O   UNL     1      56.058  18.938  74.380  1.00  0.00    -0.550 OA
ENDBRANCH   1   2
BRANCH   1   5
ATOM      5  C   UNL     1      54.109  20.492  73.249  1.00  0.00     0.003 C 
ATOM      6  C   UNL     1      53.028  21.138  74.110  1.00  0.00     0.004 C 
ENDBRANCH   1   5
TORSDOF 2
ENDMDL
MODEL 7
REMARK VINA RESULT:    -2.260      9.149      9.780
REMARK INTER + INTRA:          -2.555
REMARK INTER:                  -2.531
REMARK INTRA:                  -0.024
REMARK UNBOUND:                -0.031
REMARK SMILES CCCC(=O)[O-]
REMARK SMILES IDX 3 1 4 2 5 3 6 4 2 5 1 6
REMARK H PARENT
REMARK Flexibility Score: inf
ROOT
ATOM      1  C   UNL     1      54.062  18.866  72.953  1.00  0.00     0.052 C 
ENDROOT
BRANCH   1   2
ATOM      2  C   UNL     1      53.929  20.006  73.913  1.00  0.00     0.041 C 
ATOM      3  O   UNL     1      53.127  20.947  73.673  1.00  0.00    -0.550 OA
ATOM      4  O   UNL     1      54.654  20.005  75.098  1.00  0.00    -0.550 OA
ENDBRANCH   1   2
BRANCH   1   5
ATOM      5  C   UNL     1      55.508  18.363  72.915  1.00  0.00     0.003 C 
ATOM      6  C   UNL     1      55.560  16.839  72.875  1.00  0.00     0.004 C 
ENDBRANCH   1   5
TORSDOF 2
ENDMDL
MODEL 8
REMARK VINA RESULT:    -2.218      1.656      2.329
REMARK INTER + INTRA:          -2.508
REMARK INTER:                  -2.499
REMARK INTRA:                  -0.009
REMARK UNBOUND:                -0.031
REMARK SMILES CCCC(=O)[O-]
REMARK SMILES IDX 3 1 4 2 5 3 6 4 2 5 1 6
REMARK H PARENT
REMARK Flexibility Score: inf
ROOT
ATOM      1  C   UNL     1      46.150  19.152  77.919  1.00  0.00     0.052 C 
ENDROOT
BRANCH   1   2
ATOM      2  C   UNL     1      45.943  18.258  76.738  1.00  0.00     0.041 C 
ATOM      3  O   UNL     1      46.041  18.718  75.570  1.00  0.00    -0.550 OA
ATOM      4  O   UNL     1      45.694  16.905  76.926  1.00  0.00    -0.550 OA
ENDBRANCH   1   2
BRANCH   1   5
ATOM      5  C   UNL     1      47.494  19.879  77.814  1.00  0.00     0.003 C 
ATOM      6  C   UNL     1      48.267  19.799  79.126  1.00  0.00     0.004 C 
ENDBRANCH   1   5
TORSDOF 2
ENDMDL
