MODEL 1
REMARK VINA RESULT:    -7.828      0.000      0.000
REMARK INTER + INTRA:          -9.615
REMARK INTER:                  -9.430
REMARK INTRA:                  -0.186
REMARK UNBOUND:                -0.186
REMARK SMILES O=c1c(O)c(-c2ccc(O)c(O)c2)oc2cc(O)cc(O)c12
REMARK SMILES IDX 5 1 3 2 2 3 1 4 22 5 20 6 19 7 17 8 16 9 15 10 14 11 6 12
REMARK SMILES IDX 7 13 8 14 9 15 13 16 11 17 10 18 12 20 4 22 21 24 18 26
REMARK H PARENT 10 19 12 21 4 23 21 25 18 27
REMARK Flexibility Score: inf
ROOT
ATOM      1  C   UNL     1     -60.079  20.589 -29.342  1.00  0.00     0.180 A 
ATOM      2  C   UNL     1     -60.805  21.531 -30.091  1.00  0.00     0.208 A 
ATOM      3  C   UNL     1     -60.529  22.897 -29.919  1.00  0.00     0.238 A 
ATOM      4  O   UNL     1     -61.221  23.737 -30.552  1.00  0.00    -0.285 OA
ATOM      5  C   UNL     1     -59.521  23.302 -29.013  1.00  0.00     0.111 A 
ATOM      6  C   UNL     1     -59.131  24.658 -28.789  1.00  0.00     0.134 A 
ATOM      7  C   UNL     1     -58.212  24.953 -27.774  1.00  0.00     0.093 A 
ATOM      8  C   UNL     1     -57.621  23.936 -27.020  1.00  0.00     0.123 A 
ATOM      9  C   UNL     1     -57.951  22.606 -27.271  1.00  0.00     0.094 A 
ATOM     10  C   UNL     1     -58.892  22.283 -28.253  1.00  0.00     0.146 A 
ATOM     11  O   UNL     1     -59.185  21.004 -28.452  1.00  0.00    -0.452 OA
ENDROOT
BRANCH   1  12
ATOM     12  C   UNL     1     -60.295  19.131 -29.487  1.00  0.00     0.025 A 
ATOM     13  C   UNL     1     -60.875  18.371 -28.456  1.00  0.00     0.016 A 
ATOM     14  C   UNL     1     -61.091  17.001 -28.624  1.00  0.00     0.051 A 
ATOM     15  C   UNL     1     -60.744  16.373 -29.827  1.00  0.00     0.157 A 
ATOM     16  C   UNL     1     -59.967  18.500 -30.698  1.00  0.00     0.062 A 
ATOM     17  C   UNL     1     -60.182  17.128 -30.870  1.00  0.00     0.158 A 
BRANCH  15  18
ATOM     18  O   UNL     1     -60.959  15.005 -29.991  1.00  0.00    -0.504 OA
ATOM     19  H   UNL     1     -61.839  14.571 -29.738  1.00  0.00     0.293 HD
ENDBRANCH  15  18
BRANCH  17  20
ATOM     20  O   UNL     1     -59.832  16.534 -32.082  1.00  0.00    -0.504 OA
ATOM     21  H   UNL     1     -58.914  16.654 -32.494  1.00  0.00     0.293 HD
ENDBRANCH  17  20
ENDBRANCH   1  12
BRANCH   2  22
ATOM     22  O   UNL     1     -61.812  21.108 -30.964  1.00  0.00    -0.502 OA
ATOM     23  H   UNL     1     -62.230  21.725 -31.650  1.00  0.00     0.293 HD
ENDBRANCH   2  22
BRANCH   6  24
ATOM     24  O   UNL     1     -59.591  25.738 -29.548  1.00  0.00    -0.507 OA
ATOM     25  H   UNL     1     -60.035  26.560 -29.167  1.00  0.00     0.293 HD
ENDBRANCH   6  24
BRANCH   8  26
ATOM     26  O   UNL     1     -56.696  24.237 -26.022  1.00  0.00    -0.508 OA
ATOM     27  H   UNL     1     -55.968  23.583 -25.759  1.00  0.00     0.293 HD
ENDBRANCH   8  26
TORSDOF 6
ENDMDL
MODEL 2
REMARK VINA RESULT:    -7.663      1.650      3.366
REMARK INTER + INTRA:          -9.416
REMARK INTER:                  -9.082
REMARK INTRA:                  -0.334
REMARK UNBOUND:                -0.186
REMARK SMILES O=c1c(O)c(-c2ccc(O)c(O)c2)oc2cc(O)cc(O)c12
REMARK SMILES IDX 5 1 3 2 2 3 1 4 22 5 20 6 19 7 17 8 16 9 15 10 14 11 6 12
REMARK SMILES IDX 7 13 8 14 9 15 13 16 11 17 10 18 12 20 4 22 21 24 18 26
REMARK H PARENT 10 19 12 21 4 23 21 25 18 27
REMARK Flexibility Score: inf
ROOT
ATOM      1  C   UNL     1     -60.420  20.334 -29.954  1.00  0.00     0.180 A 
ATOM      2  C   UNL     1     -59.318  21.020 -29.414  1.00  0.00     0.208 A 
ATOM      3  C   UNL     1     -59.294  22.422 -29.474  1.00  0.00     0.238 A 
ATOM      4  O   UNL     1     -58.279  23.028 -29.039  1.00  0.00    -0.285 OA
ATOM      5  C   UNL     1     -60.378  23.121 -30.056  1.00  0.00     0.111 A 
ATOM      6  C   UNL     1     -60.477  24.544 -30.133  1.00  0.00     0.134 A 
ATOM      7  C   UNL     1     -61.533  25.125 -30.847  1.00  0.00     0.093 A 
ATOM      8  C   UNL     1     -62.528  24.336 -31.430  1.00  0.00     0.123 A 
ATOM      9  C   UNL     1     -62.472  22.949 -31.309  1.00  0.00     0.094 A 
ATOM     10  C   UNL     1     -61.411  22.340 -30.634  1.00  0.00     0.146 A 
ATOM     11  O   UNL     1     -61.390  21.015 -30.551  1.00  0.00    -0.452 OA
ENDROOT
BRANCH   1  12
ATOM     12  C   UNL     1     -60.530  18.857 -29.906  1.00  0.00     0.025 A 
ATOM     13  C   UNL     1     -61.109  18.201 -28.806  1.00  0.00     0.016 A 
ATOM     14  C   UNL     1     -61.223  16.809 -28.794  1.00  0.00     0.051 A 
ATOM     15  C   UNL     1     -60.774  16.053 -29.884  1.00  0.00     0.157 A 
ATOM     16  C   UNL     1     -60.100  18.097 -31.006  1.00  0.00     0.062 A 
ATOM     17  C   UNL     1     -60.212  16.701 -30.997  1.00  0.00     0.158 A 
BRANCH  15  18
ATOM     18  O   UNL     1     -60.887  14.663 -29.869  1.00  0.00    -0.504 OA
ATOM     19  H   UNL     1     -60.134  14.066 -30.187  1.00  0.00     0.293 HD
ENDBRANCH  15  18
BRANCH  17  20
ATOM     20  O   UNL     1     -59.761  15.979 -32.101  1.00  0.00    -0.504 OA
ATOM     21  H   UNL     1     -60.129  16.134 -33.032  1.00  0.00     0.293 HD
ENDBRANCH  17  20
ENDBRANCH   1  12
BRANCH   2  22
ATOM     22  O   UNL     1     -58.248  20.308 -28.864  1.00  0.00    -0.502 OA
ATOM     23  H   UNL     1     -57.443  20.028 -29.411  1.00  0.00     0.293 HD
ENDBRANCH   2  22
BRANCH   6  24
ATOM     24  O   UNL     1     -59.587  25.423 -29.508  1.00  0.00    -0.507 OA
ATOM     25  H   UNL     1     -59.392  26.362 -29.821  1.00  0.00     0.293 HD
ENDBRANCH   6  24
BRANCH   8  26
ATOM     26  O   UNL     1     -63.582  24.923 -32.125  1.00  0.00    -0.508 OA
ATOM     27  H   UNL     1     -63.702  24.785 -33.122  1.00  0.00     0.293 HD
ENDBRANCH   8  26
TORSDOF 6
ENDMDL
MODEL 3
REMARK VINA RESULT:    -7.510      6.434      9.722
REMARK INTER + INTRA:          -9.233
REMARK INTER:                  -9.624
REMARK INTRA:                   0.392
REMARK UNBOUND:                -0.186
REMARK SMILES O=c1c(O)c(-c2ccc(O)c(O)c2)oc2cc(O)cc(O)c12
REMARK SMILES IDX 5 1 3 2 2 3 1 4 22 5 20 6 19 7 17 8 16 9 15 10 14 11 6 12
REMARK SMILES IDX 7 13 8 14 9 15 13 16 11 17 10 18 12 20 4 22 21 24 18 26
REMARK H PARENT 10 19 12 21 4 23 21 25 18 27
REMARK Flexibility Score: inf
ROOT
ATOM      1  C   UNL     1     -57.730  26.924 -22.704  1.00  0.00     0.180 A 
ATOM      2  C   UNL     1     -58.815  27.631 -22.158  1.00  0.00     0.208 A 
ATOM      3  C   UNL     1     -58.560  28.711 -21.298  1.00  0.00     0.238 A 
ATOM      4  O   UNL     1     -59.536  29.305 -20.768  1.00  0.00    -0.285 OA
ATOM      5  C   UNL     1     -57.225  29.080 -21.008  1.00  0.00     0.111 A 
ATOM      6  C   UNL     1     -56.851  30.183 -20.181  1.00  0.00     0.134 A 
ATOM      7  C   UNL     1     -55.502  30.377 -19.858  1.00  0.00     0.093 A 
ATOM      8  C   UNL     1     -54.509  29.547 -20.384  1.00  0.00     0.123 A 
ATOM      9  C   UNL     1     -54.859  28.504 -21.239  1.00  0.00     0.094 A 
ATOM     10  C   UNL     1     -56.200  28.264 -21.551  1.00  0.00     0.146 A 
ATOM     11  O   UNL     1     -56.490  27.253 -22.361  1.00  0.00    -0.452 OA
ENDROOT
BRANCH   1  12
ATOM     12  C   UNL     1     -57.918  25.790 -23.638  1.00  0.00     0.025 A 
ATOM     13  C   UNL     1     -59.143  25.106 -23.722  1.00  0.00     0.016 A 
ATOM     14  C   UNL     1     -59.305  24.055 -24.628  1.00  0.00     0.051 A 
ATOM     15  C   UNL     1     -58.251  23.680 -25.471  1.00  0.00     0.157 A 
ATOM     16  C   UNL     1     -56.871  25.423 -24.500  1.00  0.00     0.062 A 
ATOM     17  C   UNL     1     -57.029  24.370 -25.409  1.00  0.00     0.158 A 
BRANCH  15  18
ATOM     18  O   UNL     1     -58.415  22.629 -26.373  1.00  0.00    -0.504 OA
ATOM     19  H   UNL     1     -57.756  21.860 -26.417  1.00  0.00     0.293 HD
ENDBRANCH  15  18
BRANCH  17  20
ATOM     20  O   UNL     1     -55.963  24.026 -26.238  1.00  0.00    -0.504 OA
ATOM     21  H   UNL     1     -55.916  23.131 -26.711  1.00  0.00     0.293 HD
ENDBRANCH  17  20
ENDBRANCH   1  12
BRANCH   2  22
ATOM     22  O   UNL     1     -60.125  27.235 -22.441  1.00  0.00    -0.502 OA
ATOM     23  H   UNL     1     -60.892  27.396 -21.798  1.00  0.00     0.293 HD
ENDBRANCH   2  22
BRANCH   6  24
ATOM     24  O   UNL     1     -57.755  31.125 -19.680  1.00  0.00    -0.507 OA
ATOM     25  H   UNL     1     -58.700  31.248 -20.012  1.00  0.00     0.293 HD
ENDBRANCH   6  24
BRANCH   8  26
ATOM     26  O   UNL     1     -53.168  29.757 -20.069  1.00  0.00    -0.508 OA
ATOM     27  H   UNL     1     -52.882  30.490 -19.431  1.00  0.00     0.293 HD
ENDBRANCH   8  26
TORSDOF 6
ENDMDL
MODEL 4
REMARK VINA RESULT:    -7.415      0.691      1.444
REMARK INTER + INTRA:          -9.117
REMARK INTER:                  -8.871
REMARK INTRA:                  -0.247
REMARK UNBOUND:                -0.186
REMARK SMILES O=c1c(O)c(-c2ccc(O)c(O)c2)oc2cc(O)cc(O)c12
REMARK SMILES IDX 5 1 3 2 2 3 1 4 22 5 20 6 19 7 17 8 16 9 15 10 14 11 6 12
REMARK SMILES IDX 7 13 8 14 9 15 13 16 11 17 10 18 12 20 4 22 21 24 18 26
REMARK H PARENT 10 19 12 21 4 23 21 25 18 27
REMARK Flexibility Score: inf
ROOT
ATOM      1  C   UNL     1     -60.026  20.892 -29.687  1.00  0.00     0.180 A 
ATOM      2  C   UNL     1     -60.839  21.887 -30.255  1.00  0.00     0.208 A 
ATOM      3  C   UNL     1     -60.613  23.230 -29.911  1.00  0.00     0.238 A 
ATOM      4  O   UNL     1     -61.380  24.111 -30.380  1.00  0.00    -0.285 OA
ATOM      5  C   UNL     1     -59.566  23.560 -29.017  1.00  0.00     0.111 A 
ATOM      6  C   UNL     1     -59.222  24.891 -28.631  1.00  0.00     0.134 A 
ATOM      7  C   UNL     1     -58.253  25.093 -27.640  1.00  0.00     0.093 A 
ATOM      8  C   UNL     1     -57.570  24.015 -27.070  1.00  0.00     0.123 A 
ATOM      9  C   UNL     1     -57.858  22.717 -27.483  1.00  0.00     0.094 A 
ATOM     10  C   UNL     1     -58.845  22.482 -28.444  1.00  0.00     0.146 A 
ATOM     11  O   UNL     1     -59.095  21.228 -28.802  1.00  0.00    -0.452 OA
ENDROOT
BRANCH   1  12
ATOM     12  C   UNL     1     -60.187  19.457 -30.020  1.00  0.00     0.025 A 
ATOM     13  C   UNL     1     -59.834  18.956 -31.285  1.00  0.00     0.016 A 
ATOM     14  C   UNL     1     -59.972  17.594 -31.569  1.00  0.00     0.051 A 
ATOM     15  C   UNL     1     -60.451  16.714 -30.591  1.00  0.00     0.157 A 
ATOM     16  C   UNL     1     -60.648  18.567 -29.037  1.00  0.00     0.062 A 
ATOM     17  C   UNL     1     -60.788  17.203 -29.317  1.00  0.00     0.158 A 
BRANCH  15  18
ATOM     18  O   UNL     1     -60.591  15.356 -30.878  1.00  0.00    -0.504 OA
ATOM     19  H   UNL     1     -60.960  15.036 -31.766  1.00  0.00     0.293 HD
ENDBRANCH  15  18
BRANCH  17  20
ATOM     20  O   UNL     1     -61.262  16.351 -28.320  1.00  0.00    -0.504 OA
ATOM     21  H   UNL     1     -62.138  16.520 -27.841  1.00  0.00     0.293 HD
ENDBRANCH  17  20
ENDBRANCH   1  12
BRANCH   2  22
ATOM     22  O   UNL     1     -61.881  21.536 -31.118  1.00  0.00    -0.502 OA
ATOM     23  H   UNL     1     -62.832  21.400 -30.795  1.00  0.00     0.293 HD
ENDBRANCH   2  22
BRANCH   6  24
ATOM     24  O   UNL     1     -59.777  26.039 -29.204  1.00  0.00    -0.507 OA
ATOM     25  H   UNL     1     -59.272  26.894 -29.382  1.00  0.00     0.293 HD
ENDBRANCH   6  24
BRANCH   8  26
ATOM     26  O   UNL     1     -56.597  24.226 -26.096  1.00  0.00    -0.508 OA
ATOM     27  H   UNL     1     -55.610  24.129 -26.303  1.00  0.00     0.293 HD
ENDBRANCH   8  26
TORSDOF 6
ENDMDL
MODEL 5
REMARK VINA RESULT:    -7.371      1.447      3.237
REMARK INTER + INTRA:          -9.065
REMARK INTER:                  -8.963
REMARK INTRA:                  -0.102
REMARK UNBOUND:                -0.186
REMARK SMILES O=c1c(O)c(-c2ccc(O)c(O)c2)oc2cc(O)cc(O)c12
REMARK SMILES IDX 5 1 3 2 2 3 1 4 22 5 20 6 19 7 17 8 16 9 15 10 14 11 6 12
REMARK SMILES IDX 7 13 8 14 9 15 13 16 11 17 10 18 12 20 4 22 21 24 18 26
REMARK H PARENT 10 19 12 21 4 23 21 25 18 27
REMARK Flexibility Score: inf
ROOT
ATOM      1  C   UNL     1     -59.922  20.411 -29.630  1.00  0.00     0.180 A 
ATOM      2  C   UNL     1     -59.039  20.736 -28.584  1.00  0.00     0.208 A 
ATOM      3  C   UNL     1     -58.938  22.074 -28.171  1.00  0.00     0.238 A 
ATOM      4  O   UNL     1     -58.105  22.367 -27.272  1.00  0.00    -0.285 OA
ATOM      5  C   UNL     1     -59.730  23.066 -28.795  1.00  0.00     0.111 A 
ATOM      6  C   UNL     1     -59.737  24.446 -28.429  1.00  0.00     0.134 A 
ATOM      7  C   UNL     1     -60.463  25.362 -29.201  1.00  0.00     0.093 A 
ATOM      8  C   UNL     1     -61.234  24.937 -30.286  1.00  0.00     0.123 A 
ATOM      9  C   UNL     1     -61.280  23.585 -30.615  1.00  0.00     0.094 A 
ATOM     10  C   UNL     1     -60.538  22.652 -29.885  1.00  0.00     0.146 A 
ATOM     11  O   UNL     1     -60.602  21.374 -30.239  1.00  0.00    -0.452 OA
ENDROOT
BRANCH   1  12
ATOM     12  C   UNL     1     -60.103  19.020 -30.104  1.00  0.00     0.025 A 
ATOM     13  C   UNL     1     -59.797  18.652 -31.427  1.00  0.00     0.016 A 
ATOM     14  C   UNL     1     -59.953  17.328 -31.845  1.00  0.00     0.051 A 
ATOM     15  C   UNL     1     -60.403  16.351 -30.948  1.00  0.00     0.157 A 
ATOM     16  C   UNL     1     -60.534  18.033 -29.203  1.00  0.00     0.062 A 
ATOM     17  C   UNL     1     -60.692  16.706 -29.620  1.00  0.00     0.158 A 
BRANCH  15  18
ATOM     18  O   UNL     1     -60.560  15.031 -31.370  1.00  0.00    -0.504 OA
ATOM     19  H   UNL     1     -60.273  14.732 -32.294  1.00  0.00     0.293 HD
ENDBRANCH  15  18
BRANCH  17  20
ATOM     20  O   UNL     1     -61.136  15.756 -28.700  1.00  0.00    -0.504 OA
ATOM     21  H   UNL     1     -62.121  15.567 -28.555  1.00  0.00     0.293 HD
ENDBRANCH  17  20
ENDBRANCH   1  12
BRANCH   2  22
ATOM     22  O   UNL     1     -58.250  19.743 -27.997  1.00  0.00    -0.502 OA
ATOM     23  H   UNL     1     -58.230  18.790 -28.341  1.00  0.00     0.293 HD
ENDBRANCH   2  22
BRANCH   6  24
ATOM     24  O   UNL     1     -59.076  24.960 -27.309  1.00  0.00    -0.507 OA
ATOM     25  H   UNL     1     -59.172  24.602 -26.370  1.00  0.00     0.293 HD
ENDBRANCH   6  24
BRANCH   8  26
ATOM     26  O   UNL     1     -61.965  25.853 -31.039  1.00  0.00    -0.508 OA
ATOM     27  H   UNL     1     -62.895  26.146 -30.760  1.00  0.00     0.293 HD
ENDBRANCH   8  26
TORSDOF 6
ENDMDL
MODEL 6
REMARK VINA RESULT:    -7.319      2.098      6.950
REMARK INTER + INTRA:          -9.002
REMARK INTER:                  -9.343
REMARK INTRA:                   0.341
REMARK UNBOUND:                -0.186
REMARK SMILES O=c1c(O)c(-c2ccc(O)c(O)c2)oc2cc(O)cc(O)c12
REMARK SMILES IDX 5 1 3 2 2 3 1 4 22 5 20 6 19 7 17 8 16 9 15 10 14 11 6 12
REMARK SMILES IDX 7 13 8 14 9 15 13 16 11 17 10 18 12 20 4 22 21 24 18 26
REMARK H PARENT 10 19 12 21 4 23 21 25 18 27
REMARK Flexibility Score: inf
ROOT
ATOM      1  C   UNL     1     -58.680  21.445 -28.019  1.00  0.00     0.180 A 
ATOM      2  C   UNL     1     -58.238  21.557 -29.349  1.00  0.00     0.208 A 
ATOM      3  C   UNL     1     -58.619  20.575 -30.278  1.00  0.00     0.238 A 
ATOM      4  O   UNL     1     -58.174  20.651 -31.454  1.00  0.00    -0.285 OA
ATOM      5  C   UNL     1     -59.450  19.505 -29.870  1.00  0.00     0.111 A 
ATOM      6  C   UNL     1     -59.930  18.476 -30.737  1.00  0.00     0.134 A 
ATOM      7  C   UNL     1     -60.639  17.395 -30.198  1.00  0.00     0.093 A 
ATOM      8  C   UNL     1     -60.941  17.339 -28.835  1.00  0.00     0.123 A 
ATOM      9  C   UNL     1     -60.527  18.367 -27.991  1.00  0.00     0.094 A 
ATOM     10  C   UNL     1     -59.787  19.441 -28.494  1.00  0.00     0.146 A 
ATOM     11  O   UNL     1     -59.404  20.395 -27.653  1.00  0.00    -0.452 OA
ENDROOT
BRANCH   1  12
ATOM     12  C   UNL     1     -58.341  22.453 -26.989  1.00  0.00     0.025 A 
ATOM     13  C   UNL     1     -57.198  23.263 -27.105  1.00  0.00     0.016 A 
ATOM     14  C   UNL     1     -56.911  24.225 -26.133  1.00  0.00     0.051 A 
ATOM     15  C   UNL     1     -57.767  24.400 -25.038  1.00  0.00     0.157 A 
ATOM     16  C   UNL     1     -59.207  22.647 -25.900  1.00  0.00     0.062 A 
ATOM     17  C   UNL     1     -58.922  23.609 -24.923  1.00  0.00     0.158 A 
BRANCH  15  18
ATOM     18  O   UNL     1     -57.477  25.359 -24.068  1.00  0.00    -0.504 OA
ATOM     19  H   UNL     1     -56.576  25.388 -23.604  1.00  0.00     0.293 HD
ENDBRANCH  15  18
BRANCH  17  20
ATOM     20  O   UNL     1     -59.798  23.763 -23.849  1.00  0.00    -0.504 OA
ATOM     21  H   UNL     1     -59.609  24.405 -23.089  1.00  0.00     0.293 HD
ENDBRANCH  17  20
ENDBRANCH   1  12
BRANCH   2  22
ATOM     22  O   UNL     1     -57.399  22.611 -29.725  1.00  0.00    -0.502 OA
ATOM     23  H   UNL     1     -57.009  22.689 -30.656  1.00  0.00     0.293 HD
ENDBRANCH   2  22
BRANCH   6  24
ATOM     24  O   UNL     1     -59.763  18.484 -32.125  1.00  0.00    -0.507 OA
ATOM     25  H   UNL     1     -60.507  18.623 -32.792  1.00  0.00     0.293 HD
ENDBRANCH   6  24
BRANCH   8  26
ATOM     26  O   UNL     1     -61.659  16.267 -28.310  1.00  0.00    -0.508 OA
ATOM     27  H   UNL     1     -61.213  15.382 -28.099  1.00  0.00     0.293 HD
ENDBRANCH   8  26
TORSDOF 6
ENDMDL
MODEL 7
REMARK VINA RESULT:    -7.123      6.811     11.967
REMARK INTER + INTRA:          -8.766
REMARK INTER:                  -8.673
REMARK INTRA:                  -0.093
REMARK UNBOUND:                -0.186
REMARK SMILES O=c1c(O)c(-c2ccc(O)c(O)c2)oc2cc(O)cc(O)c12
REMARK SMILES IDX 5 1 3 2 2 3 1 4 22 5 20 6 19 7 17 8 16 9 15 10 14 11 6 12
REMARK SMILES IDX 7 13 8 14 9 15 13 16 11 17 10 18 12 20 4 22 21 24 18 26
REMARK H PARENT 10 19 12 21 4 23 21 25 18 27
REMARK Flexibility Score: inf
ROOT
ATOM      1  C   UNL     1     -57.299  28.878 -22.562  1.00  0.00     0.180 A 
ATOM      2  C   UNL     1     -57.991  29.651 -23.511  1.00  0.00     0.208 A 
ATOM      3  C   UNL     1     -58.651  29.002 -24.566  1.00  0.00     0.238 A 
ATOM      4  O   UNL     1     -59.222  29.702 -25.444  1.00  0.00    -0.285 OA
ATOM      5  C   UNL     1     -58.626  27.590 -24.650  1.00  0.00     0.111 A 
ATOM      6  C   UNL     1     -59.294  26.826 -25.655  1.00  0.00     0.134 A 
ATOM      7  C   UNL     1     -59.093  25.441 -25.717  1.00  0.00     0.093 A 
ATOM      8  C   UNL     1     -58.300  24.785 -24.771  1.00  0.00     0.123 A 
ATOM      9  C   UNL     1     -57.692  25.515 -23.753  1.00  0.00     0.094 A 
ATOM     10  C   UNL     1     -57.845  26.902 -23.686  1.00  0.00     0.146 A 
ATOM     11  O   UNL     1     -57.239  27.560 -22.705  1.00  0.00    -0.452 OA
ENDROOT
BRANCH   1  12
ATOM     12  C   UNL     1     -56.600  29.488 -21.407  1.00  0.00     0.025 A 
ATOM     13  C   UNL     1     -57.275  30.328 -20.504  1.00  0.00     0.016 A 
ATOM     14  C   UNL     1     -56.600  30.873 -19.408  1.00  0.00     0.051 A 
ATOM     15  C   UNL     1     -55.249  30.578 -19.191  1.00  0.00     0.157 A 
ATOM     16  C   UNL     1     -55.250  29.179 -21.174  1.00  0.00     0.062 A 
ATOM     17  C   UNL     1     -54.571  29.724 -20.078  1.00  0.00     0.158 A 
BRANCH  15  18
ATOM     18  O   UNL     1     -54.578  31.125 -18.098  1.00  0.00    -0.504 OA
ATOM     19  H   UNL     1     -54.557  30.657 -17.200  1.00  0.00     0.293 HD
ENDBRANCH  15  18
BRANCH  17  20
ATOM     20  O   UNL     1     -53.227  29.405 -19.887  1.00  0.00    -0.504 OA
ATOM     21  H   UNL     1     -52.850  28.498 -20.134  1.00  0.00     0.293 HD
ENDBRANCH  17  20
ENDBRANCH   1  12
BRANCH   2  22
ATOM     22  O   UNL     1     -57.984  31.046 -23.421  1.00  0.00    -0.502 OA
ATOM     23  H   UNL     1     -57.769  31.641 -24.212  1.00  0.00     0.293 HD
ENDBRANCH   2  22
BRANCH   6  24
ATOM     24  O   UNL     1     -60.180  27.371 -26.589  1.00  0.00    -0.507 OA
ATOM     25  H   UNL     1     -61.109  27.022 -26.771  1.00  0.00     0.293 HD
ENDBRANCH   6  24
BRANCH   8  26
ATOM     26  O   UNL     1     -58.118  23.406 -24.832  1.00  0.00    -0.508 OA
ATOM     27  H   UNL     1     -58.762  22.808 -25.336  1.00  0.00     0.293 HD
ENDBRANCH   8  26
TORSDOF 6
ENDMDL
MODEL 8
REMARK VINA RESULT:    -6.883      4.272      6.976
REMARK INTER + INTRA:          -8.478
REMARK INTER:                  -8.203
REMARK INTRA:                  -0.275
REMARK UNBOUND:                -0.186
REMARK SMILES O=c1c(O)c(-c2ccc(O)c(O)c2)oc2cc(O)cc(O)c12
REMARK SMILES IDX 5 1 3 2 2 3 1 4 22 5 20 6 19 7 17 8 16 9 15 10 14 11 6 12
REMARK SMILES IDX 7 13 8 14 9 15 13 16 11 17 10 18 12 20 4 22 21 24 18 26
REMARK H PARENT 10 19 12 21 4 23 21 25 18 27
REMARK Flexibility Score: inf
ROOT
ATOM      1  C   UNL     1     -58.631  25.421 -25.470  1.00  0.00     0.180 A 
ATOM      2  C   UNL     1     -59.916  25.949 -25.251  1.00  0.00     0.208 A 
ATOM      3  C   UNL     1     -60.118  26.820 -24.169  1.00  0.00     0.238 A 
ATOM      4  O   UNL     1     -61.282  27.246 -23.946  1.00  0.00    -0.285 OA
ATOM      5  C   UNL     1     -59.032  27.165 -23.330  1.00  0.00     0.111 A 
ATOM      6  C   UNL     1     -59.115  28.071 -22.229  1.00  0.00     0.134 A 
ATOM      7  C   UNL     1     -58.008  28.239 -21.388  1.00  0.00     0.093 A 
ATOM      8  C   UNL     1     -56.801  27.583 -21.647  1.00  0.00     0.123 A 
ATOM      9  C   UNL     1     -56.693  26.743 -22.753  1.00  0.00     0.094 A 
ATOM     10  C   UNL     1     -57.792  26.529 -23.590  1.00  0.00     0.146 A 
ATOM     11  O   UNL     1     -57.648  25.712 -24.627  1.00  0.00    -0.452 OA
ENDROOT
BRANCH   1  12
ATOM     12  C   UNL     1     -58.334  24.516 -26.604  1.00  0.00     0.025 A 
ATOM     13  C   UNL     1     -58.219  23.127 -26.421  1.00  0.00     0.016 A 
ATOM     14  C   UNL     1     -57.962  22.290 -27.511  1.00  0.00     0.051 A 
ATOM     15  C   UNL     1     -57.828  22.825 -28.797  1.00  0.00     0.157 A 
ATOM     16  C   UNL     1     -58.219  25.046 -27.900  1.00  0.00     0.062 A 
ATOM     17  C   UNL     1     -57.961  24.211 -28.993  1.00  0.00     0.158 A 
BRANCH  15  18
ATOM     18  O   UNL     1     -57.569  21.988 -29.882  1.00  0.00    -0.504 OA
ATOM     19  H   UNL     1     -56.687  21.497 -29.974  1.00  0.00     0.293 HD
ENDBRANCH  15  18
BRANCH  17  20
ATOM     20  O   UNL     1     -57.840  24.775 -30.262  1.00  0.00    -0.504 OA
ATOM     21  H   UNL     1     -58.150  25.718 -30.463  1.00  0.00     0.293 HD
ENDBRANCH  17  20
ENDBRANCH   1  12
BRANCH   2  22
ATOM     22  O   UNL     1     -60.979  25.577 -26.080  1.00  0.00    -0.502 OA
ATOM     23  H   UNL     1     -60.885  25.507 -27.086  1.00  0.00     0.293 HD
ENDBRANCH   2  22
BRANCH   6  24
ATOM     24  O   UNL     1     -60.243  28.844 -21.938  1.00  0.00    -0.507 OA
ATOM     25  H   UNL     1     -60.471  29.207 -21.024  1.00  0.00     0.293 HD
ENDBRANCH   6  24
BRANCH   8  26
ATOM     26  O   UNL     1     -55.700  27.767 -20.814  1.00  0.00    -0.508 OA
ATOM     27  H   UNL     1     -54.802  27.345 -21.021  1.00  0.00     0.293 HD
ENDBRANCH   8  26
TORSDOF 6
ENDMDL
MODEL 9
REMARK VINA RESULT:    -6.841      3.155      7.728
REMARK INTER + INTRA:          -8.426
REMARK INTER:                  -8.116
REMARK INTRA:                  -0.310
REMARK UNBOUND:                -0.186
REMARK SMILES O=c1c(O)c(-c2ccc(O)c(O)c2)oc2cc(O)cc(O)c12
REMARK SMILES IDX 5 1 3 2 2 3 1 4 22 5 20 6 19 7 17 8 16 9 15 10 14 11 6 12
REMARK SMILES IDX 7 13 8 14 9 15 13 16 11 17 10 18 12 20 4 22 21 24 18 26
REMARK H PARENT 10 19 12 21 4 23 21 25 18 27
REMARK Flexibility Score: inf
ROOT
ATOM      1  C   UNL     1     -58.698  24.410 -26.387  1.00  0.00     0.180 A 
ATOM      2  C   UNL     1     -58.312  25.016 -27.596  1.00  0.00     0.208 A 
ATOM      3  C   UNL     1     -58.247  24.232 -28.759  1.00  0.00     0.238 A 
ATOM      4  O   UNL     1     -57.847  24.768 -29.827  1.00  0.00    -0.285 OA
ATOM      5  C   UNL     1     -58.584  22.859 -28.704  1.00  0.00     0.111 A 
ATOM      6  C   UNL     1     -58.592  21.981 -29.829  1.00  0.00     0.134 A 
ATOM      7  C   UNL     1     -58.816  20.612 -29.635  1.00  0.00     0.093 A 
ATOM      8  C   UNL     1     -59.096  20.101 -28.365  1.00  0.00     0.123 A 
ATOM      9  C   UNL     1     -59.149  20.960 -27.270  1.00  0.00     0.094 A 
ATOM     10  C   UNL     1     -58.894  22.325 -27.427  1.00  0.00     0.146 A 
ATOM     11  O   UNL     1     -58.944  23.106 -26.355  1.00  0.00    -0.452 OA
ENDROOT
BRANCH   1  12
ATOM     12  C   UNL     1     -58.814  25.175 -25.124  1.00  0.00     0.025 A 
ATOM     13  C   UNL     1     -57.755  25.227 -24.201  1.00  0.00     0.016 A 
ATOM     14  C   UNL     1     -57.879  25.976 -23.027  1.00  0.00     0.051 A 
ATOM     15  C   UNL     1     -59.054  26.691 -22.765  1.00  0.00     0.157 A 
ATOM     16  C   UNL     1     -59.982  25.910 -24.867  1.00  0.00     0.062 A 
ATOM     17  C   UNL     1     -60.110  26.660 -23.691  1.00  0.00     0.158 A 
BRANCH  15  18
ATOM     18  O   UNL     1     -59.175  27.434 -21.591  1.00  0.00    -0.504 OA
ATOM     19  H   UNL     1     -58.731  27.141 -20.729  1.00  0.00     0.293 HD
ENDBRANCH  15  18
BRANCH  17  20
ATOM     20  O   UNL     1     -61.290  27.366 -23.463  1.00  0.00    -0.504 OA
ATOM     21  H   UNL     1     -61.289  28.312 -23.101  1.00  0.00     0.293 HD
ENDBRANCH  17  20
ENDBRANCH   1  12
BRANCH   2  22
ATOM     22  O   UNL     1     -57.962  26.369 -27.623  1.00  0.00    -0.502 OA
ATOM     23  H   UNL     1     -58.501  27.079 -27.143  1.00  0.00     0.293 HD
ENDBRANCH   2  22
BRANCH   6  24
ATOM     24  O   UNL     1     -58.416  22.403 -31.151  1.00  0.00    -0.507 OA
ATOM     25  H   UNL     1     -59.068  22.979 -31.662  1.00  0.00     0.293 HD
ENDBRANCH   6  24
BRANCH   8  26
ATOM     26  O   UNL     1     -59.333  18.741 -28.183  1.00  0.00    -0.508 OA
ATOM     27  H   UNL     1     -59.607  18.366 -27.283  1.00  0.00     0.293 HD
ENDBRANCH   8  26
TORSDOF 6
ENDMDL
