MODEL 1
REMARK VINA RESULT:    -4.762      0.000      0.000
REMARK INTER + INTRA:          -4.762
REMARK INTER:                  -4.762
REMARK INTRA:                   0.000
REMARK UNBOUND:                 0.000
REMARK SMILES CC(C)=C1CC[C@H](C)CC1=O
REMARK SMILES IDX 8 1 7 2 6 3 5 4 4 5 2 6 1 7 3 8 10 9 11 10 9 11
REMARK H PARENT
REMARK Flexibility Score: inf
ROOT
ATOM      1  C   UNL     1      43.501  60.000  28.900  1.00  0.00     0.008 C 
ATOM      2  C   UNL     1      42.992  59.250  27.658  1.00  0.00    -0.006 C 
ATOM      3  C   UNL     1      44.134  58.574  26.877  1.00  0.00     0.008 C 
ATOM      4  C   UNL     1      44.794  57.423  27.654  1.00  0.00     0.039 C 
ATOM      5  C   UNL     1      43.785  56.440  28.233  1.00  0.00    -0.006 C 
ATOM      6  C   UNL     1      44.101  55.123  28.406  1.00  0.00    -0.070 C 
ATOM      7  C   UNL     1      45.470  54.592  28.046  1.00  0.00     0.039 C 
ATOM      8  C   UNL     1      43.093  54.125  28.927  1.00  0.00     0.039 C 
ATOM      9  C   UNL     1      42.494  57.021  28.706  1.00  0.00     0.159 C 
ATOM     10  O   UNL     1      41.876  56.530  29.689  1.00  0.00    -0.295 OA
ATOM     11  C   UNL     1      41.910  58.220  28.017  1.00  0.00     0.084 C 
ENDROOT
TORSDOF 0
ENDMDL
MODEL 2
REMARK VINA RESULT:    -4.747      2.489      3.926
REMARK INTER + INTRA:          -4.747
REMARK INTER:                  -4.747
REMARK INTRA:                   0.000
REMARK UNBOUND:                 0.000
REMARK SMILES CC(C)=C1CC[C@H](C)CC1=O
REMARK SMILES IDX 8 1 7 2 6 3 5 4 4 5 2 6 1 7 3 8 10 9 11 10 9 11
REMARK H PARENT
REMARK Flexibility Score: inf
ROOT
ATOM      1  C   UNL     1      44.099  58.128  26.898  1.00  0.00     0.008 C 
ATOM      2  C   UNL     1      43.005  59.056  27.450  1.00  0.00    -0.006 C 
ATOM      3  C   UNL     1      41.875  58.275  28.146  1.00  0.00     0.008 C 
ATOM      4  C   UNL     1      42.333  57.577  29.437  1.00  0.00     0.039 C 
ATOM      5  C   UNL     1      43.104  58.501  30.372  1.00  0.00    -0.006 C 
ATOM      6  C   UNL     1      43.074  58.321  31.725  1.00  0.00    -0.070 C 
ATOM      7  C   UNL     1      42.291  57.187  32.347  1.00  0.00     0.039 C 
ATOM      8  C   UNL     1      43.786  59.262  32.669  1.00  0.00     0.039 C 
ATOM      9  C   UNL     1      43.976  59.522  29.721  1.00  0.00     0.159 C 
ATOM     10  O   UNL     1      45.055  59.898  30.254  1.00  0.00    -0.295 OA
ATOM     11  C   UNL     1      43.581  60.117  28.400  1.00  0.00     0.084 C 
ENDROOT
TORSDOF 0
ENDMDL
MODEL 3
REMARK VINA RESULT:    -4.607     18.264     19.760
REMARK INTER + INTRA:          -4.607
REMARK INTER:                  -4.607
REMARK INTRA:                   0.000
REMARK UNBOUND:                 0.000
REMARK SMILES CC(C)=C1CC[C@H](C)CC1=O
REMARK SMILES IDX 8 1 7 2 6 3 5 4 4 5 2 6 1 7 3 8 10 9 11 10 9 11
REMARK H PARENT
REMARK Flexibility Score: inf
ROOT
ATOM      1  C   UNL     1      56.297  70.792  32.678  1.00  0.00     0.008 C 
ATOM      2  C   UNL     1      56.549  70.304  31.243  1.00  0.00    -0.006 C 
ATOM      3  C   UNL     1      57.776  70.978  30.605  1.00  0.00     0.008 C 
ATOM      4  C   UNL     1      59.099  70.578  31.277  1.00  0.00     0.039 C 
ATOM      5  C   UNL     1      59.249  69.072  31.447  1.00  0.00    -0.006 C 
ATOM      6  C   UNL     1      60.479  68.479  31.439  1.00  0.00    -0.070 C 
ATOM      7  C   UNL     1      61.741  69.296  31.278  1.00  0.00     0.039 C 
ATOM      8  C   UNL     1      60.642  66.981  31.550  1.00  0.00     0.039 C 
ATOM      9  C   UNL     1      57.999  68.312  31.741  1.00  0.00     0.159 C 
ATOM     10  O   UNL     1      58.013  67.283  32.470  1.00  0.00    -0.295 OA
ATOM     11  C   UNL     1      56.687  68.775  31.177  1.00  0.00     0.084 C 
ENDROOT
TORSDOF 0
ENDMDL
MODEL 4
REMARK VINA RESULT:    -4.589     23.507     24.559
REMARK INTER + INTRA:          -4.589
REMARK INTER:                  -4.589
REMARK INTRA:                   0.000
REMARK UNBOUND:                 0.000
REMARK SMILES CC(C)=C1CC[C@H](C)CC1=O
REMARK SMILES IDX 8 1 7 2 6 3 5 4 4 5 2 6 1 7 3 8 10 9 11 10 9 11
REMARK H PARENT
REMARK Flexibility Score: inf
ROOT
ATOM      1  C   UNL     1      61.002  59.373  44.141  1.00  0.00     0.008 C 
ATOM      2  C   UNL     1      59.647  59.917  44.621  1.00  0.00    -0.006 C 
ATOM      3  C   UNL     1      59.682  60.350  46.097  1.00  0.00     0.008 C 
ATOM      4  C   UNL     1      60.582  61.571  46.345  1.00  0.00     0.039 C 
ATOM      5  C   UNL     1      60.308  62.717  45.379  1.00  0.00    -0.006 C 
ATOM      6  C   UNL     1      60.509  64.016  45.749  1.00  0.00    -0.070 C 
ATOM      7  C   UNL     1      61.027  64.367  47.125  1.00  0.00     0.039 C 
ATOM      8  C   UNL     1      60.190  65.166  44.822  1.00  0.00     0.039 C 
ATOM      9  C   UNL     1      59.932  62.332  43.987  1.00  0.00     0.159 C 
ATOM     10  O   UNL     1      60.264  63.041  42.998  1.00  0.00    -0.295 OA
ATOM     11  C   UNL     1      59.152  61.073  43.739  1.00  0.00     0.084 C 
ENDROOT
TORSDOF 0
ENDMDL
MODEL 5
REMARK VINA RESULT:    -4.585     23.303     24.357
REMARK INTER + INTRA:          -4.585
REMARK INTER:                  -4.585
REMARK INTRA:                   0.000
REMARK UNBOUND:                 0.000
REMARK SMILES CC(C)=C1CC[C@H](C)CC1=O
REMARK SMILES IDX 8 1 7 2 6 3 5 4 4 5 2 6 1 7 3 8 10 9 11 10 9 11
REMARK H PARENT
REMARK Flexibility Score: inf
ROOT
ATOM      1  C   UNL     1      60.632  65.755  41.132  1.00  0.00     0.008 C 
ATOM      2  C   UNL     1      59.337  65.552  41.936  1.00  0.00    -0.006 C 
ATOM      3  C   UNL     1      59.069  64.068  42.244  1.00  0.00     0.008 C 
ATOM      4  C   UNL     1      60.100  63.457  43.206  1.00  0.00     0.039 C 
ATOM      5  C   UNL     1      60.329  64.307  44.450  1.00  0.00    -0.006 C 
ATOM      6  C   UNL     1      60.684  63.738  45.639  1.00  0.00    -0.070 C 
ATOM      7  C   UNL     1      60.882  62.244  45.764  1.00  0.00     0.039 C 
ATOM      8  C   UNL     1      60.861  64.560  46.894  1.00  0.00     0.039 C 
ATOM      9  C   UNL     1      60.263  65.786  44.261  1.00  0.00     0.159 C 
ATOM     10  O   UNL     1      60.980  66.567  44.943  1.00  0.00    -0.295 OA
ATOM     11  C   UNL     1      59.338  66.373  43.235  1.00  0.00     0.084 C 
ENDROOT
TORSDOF 0
ENDMDL
MODEL 6
REMARK VINA RESULT:    -4.502      2.361      4.588
REMARK INTER + INTRA:          -4.502
REMARK INTER:                  -4.502
REMARK INTRA:                   0.000
REMARK UNBOUND:                 0.000
REMARK SMILES CC(C)=C1CC[C@H](C)CC1=O
REMARK SMILES IDX 8 1 7 2 6 3 5 4 4 5 2 6 1 7 3 8 10 9 11 10 9 11
REMARK H PARENT
REMARK Flexibility Score: inf
ROOT
ATOM      1  C   UNL     1      42.248  58.641  27.661  1.00  0.00     0.008 C 
ATOM      2  C   UNL     1      43.726  58.446  28.038  1.00  0.00    -0.006 C 
ATOM      3  C   UNL     1      44.509  59.771  28.028  1.00  0.00     0.008 C 
ATOM      4  C   UNL     1      44.060  60.744  29.131  1.00  0.00     0.039 C 
ATOM      5  C   UNL     1      43.982  60.090  30.505  1.00  0.00    -0.006 C 
ATOM      6  C   UNL     1      44.201  60.811  31.643  1.00  0.00    -0.070 C 
ATOM      7  C   UNL     1      44.511  62.290  31.586  1.00  0.00     0.039 C 
ATOM      8  C   UNL     1      44.183  60.167  33.010  1.00  0.00     0.039 C 
ATOM      9  C   UNL     1      43.539  58.665  30.534  1.00  0.00     0.159 C 
ATOM     10  O   UNL     1      42.868  58.208  31.499  1.00  0.00    -0.295 OA
ATOM     11  C   UNL     1      43.880  57.747  29.397  1.00  0.00     0.084 C 
ENDROOT
TORSDOF 0
ENDMDL
MODEL 7
REMARK VINA RESULT:    -4.411     10.300     11.212
REMARK INTER + INTRA:          -4.411
REMARK INTER:                  -4.411
REMARK INTRA:                   0.000
REMARK UNBOUND:                 0.000
REMARK SMILES CC(C)=C1CC[C@H](C)CC1=O
REMARK SMILES IDX 8 1 7 2 6 3 5 4 4 5 2 6 1 7 3 8 10 9 11 10 9 11
REMARK H PARENT
REMARK Flexibility Score: inf
ROOT
ATOM      1  C   UNL     1      43.200  55.761  36.089  1.00  0.00     0.008 C 
ATOM      2  C   UNL     1      44.378  56.027  37.040  1.00  0.00    -0.006 C 
ATOM      3  C   UNL     1      44.534  57.522  37.370  1.00  0.00     0.008 C 
ATOM      4  C   UNL     1      43.368  58.080  38.201  1.00  0.00     0.039 C 
ATOM      5  C   UNL     1      43.035  57.219  39.412  1.00  0.00    -0.006 C 
ATOM      6  C   UNL     1      42.514  57.769  40.548  1.00  0.00    -0.070 C 
ATOM      7  C   UNL     1      42.230  59.251  40.642  1.00  0.00     0.039 C 
ATOM      8  C   UNL     1      42.231  56.937  41.778  1.00  0.00     0.039 C 
ATOM      9  C   UNL     1      43.196  55.745  39.240  1.00  0.00     0.159 C 
ATOM     10  O   UNL     1      42.442  54.929  39.836  1.00  0.00    -0.295 OA
ATOM     11  C   UNL     1      44.264  55.206  38.334  1.00  0.00     0.084 C 
ENDROOT
TORSDOF 0
ENDMDL
MODEL 8
REMARK VINA RESULT:    -4.404      1.807      4.179
REMARK INTER + INTRA:          -4.404
REMARK INTER:                  -4.404
REMARK INTRA:                   0.000
REMARK UNBOUND:                 0.000
REMARK SMILES CC(C)=C1CC[C@H](C)CC1=O
REMARK SMILES IDX 8 1 7 2 6 3 5 4 4 5 2 6 1 7 3 8 10 9 11 10 9 11
REMARK H PARENT
REMARK Flexibility Score: inf
ROOT
ATOM      1  C   UNL     1      43.170  54.841  30.079  1.00  0.00     0.008 C 
ATOM      2  C   UNL     1      42.642  55.327  28.719  1.00  0.00    -0.006 C 
ATOM      3  C   UNL     1      41.875  56.657  28.833  1.00  0.00     0.008 C 
ATOM      4  C   UNL     1      42.775  57.839  29.227  1.00  0.00     0.039 C 
ATOM      5  C   UNL     1      44.038  57.933  28.381  1.00  0.00    -0.006 C 
ATOM      6  C   UNL     1      44.632  59.136  28.131  1.00  0.00    -0.070 C 
ATOM      7  C   UNL     1      44.070  60.421  28.698  1.00  0.00     0.039 C 
ATOM      8  C   UNL     1      45.853  59.253  27.247  1.00  0.00     0.039 C 
ATOM      9  C   UNL     1      44.644  56.639  27.952  1.00  0.00     0.159 C 
ATOM     10  O   UNL     1      45.892  56.512  27.819  1.00  0.00    -0.295 OA
ATOM     11  C   UNL     1      43.768  55.450  27.681  1.00  0.00     0.084 C 
ENDROOT
TORSDOF 0
ENDMDL
