MODEL 1
REMARK VINA RESULT:    -4.686      0.000      0.000
REMARK INTER + INTRA:          -5.131
REMARK INTER:                  -5.097
REMARK INTRA:                  -0.035
REMARK UNBOUND:                -0.035
REMARK SMILES O=C([O-])c1ccc(O)cc1
REMARK SMILES IDX 4 1 5 2 10 3 6 4 9 5 7 6 2 7 1 8 3 9 8 10
REMARK H PARENT 8 11
REMARK Flexibility Score: inf
ROOT
ATOM      1  C   UNL     1      11.902 -16.196   7.376  1.00  0.00    -0.003 A 
ATOM      2  C   UNL     1      11.832 -14.863   7.820  1.00  0.00     0.014 A 
ATOM      3  C   UNL     1      13.102 -16.662   6.807  1.00  0.00     0.014 A 
ATOM      4  C   UNL     1      12.938 -14.017   7.698  1.00  0.00     0.047 A 
ATOM      5  C   UNL     1      14.206 -15.813   6.687  1.00  0.00     0.047 A 
ATOM      6  C   UNL     1      14.126 -14.487   7.133  1.00  0.00     0.115 A 
ENDROOT
BRANCH   1   7
ATOM      7  C   UNL     1      10.731 -17.090   7.506  1.00  0.00     0.071 C 
ATOM      8  O   UNL     1      10.632 -18.125   6.794  1.00  0.00    -0.545 OA
ATOM      9  O   UNL     1       9.720 -16.799   8.415  1.00  0.00    -0.545 OA
ENDBRANCH   1   7
BRANCH   6  10
ATOM     10  O   UNL     1      15.221 -13.632   7.017  1.00  0.00    -0.508 OA
ATOM     11  H   UNL     1      15.865 -13.700   6.239  1.00  0.00     0.293 HD
ENDBRANCH   6  10
TORSDOF 2
ENDMDL
MODEL 2
REMARK VINA RESULT:    -4.628      0.234      1.044
REMARK INTER + INTRA:          -5.068
REMARK INTER:                  -5.037
REMARK INTRA:                  -0.032
REMARK UNBOUND:                -0.035
REMARK SMILES O=C([O-])c1ccc(O)cc1
REMARK SMILES IDX 4 1 5 2 10 3 6 4 9 5 7 6 2 7 1 8 3 9 8 10
REMARK H PARENT 8 11
REMARK Flexibility Score: inf
ROOT
ATOM      1  C   UNL     1      11.881 -16.161   7.487  1.00  0.00    -0.003 A 
ATOM      2  C   UNL     1      11.727 -14.771   7.639  1.00  0.00     0.014 A 
ATOM      3  C   UNL     1      13.160 -16.679   7.211  1.00  0.00     0.014 A 
ATOM      4  C   UNL     1      12.829 -13.919   7.517  1.00  0.00     0.047 A 
ATOM      5  C   UNL     1      14.259 -15.823   7.089  1.00  0.00     0.047 A 
ATOM      6  C   UNL     1      14.095 -14.440   7.242  1.00  0.00     0.115 A 
ENDROOT
BRANCH   1   7
ATOM      7  C   UNL     1      10.714 -17.061   7.618  1.00  0.00     0.071 C 
ATOM      8  O   UNL     1       9.864 -16.881   8.530  1.00  0.00    -0.545 OA
ATOM      9  O   UNL     1      10.541 -18.121   6.735  1.00  0.00    -0.545 OA
ENDBRANCH   1   7
BRANCH   6  10
ATOM     10  O   UNL     1      15.185 -13.579   7.123  1.00  0.00    -0.508 OA
ATOM     11  H   UNL     1      16.117 -13.928   6.934  1.00  0.00     0.293 HD
ENDBRANCH   6  10
TORSDOF 2
ENDMDL
MODEL 3
REMARK VINA RESULT:    -4.131      1.336      4.122
REMARK INTER + INTRA:          -4.528
REMARK INTER:                  -4.494
REMARK INTRA:                  -0.034
REMARK UNBOUND:                -0.035
REMARK SMILES O=C([O-])c1ccc(O)cc1
REMARK SMILES IDX 4 1 5 2 10 3 6 4 9 5 7 6 2 7 1 8 3 9 8 10
REMARK H PARENT 8 11
REMARK Flexibility Score: inf
ROOT
ATOM      1  C   UNL     1      12.651 -15.675   7.622  1.00  0.00    -0.003 A 
ATOM      2  C   UNL     1      11.653 -14.686   7.560  1.00  0.00     0.014 A 
ATOM      3  C   UNL     1      12.273 -17.029   7.553  1.00  0.00     0.014 A 
ATOM      4  C   UNL     1      10.308 -15.044   7.433  1.00  0.00     0.047 A 
ATOM      5  C   UNL     1      10.926 -17.383   7.426  1.00  0.00     0.047 A 
ATOM      6  C   UNL     1       9.940 -16.390   7.365  1.00  0.00     0.115 A 
ENDROOT
BRANCH   1   7
ATOM      7  C   UNL     1      14.074 -15.295   7.757  1.00  0.00     0.071 C 
ATOM      8  O   UNL     1      14.897 -16.075   8.305  1.00  0.00    -0.545 OA
ATOM      9  O   UNL     1      14.523 -14.068   7.281  1.00  0.00    -0.545 OA
ENDBRANCH   1   7
BRANCH   6  10
ATOM     10  O   UNL     1       8.595 -16.732   7.238  1.00  0.00    -0.508 OA
ATOM     11  H   UNL     1       7.881 -16.027   7.094  1.00  0.00     0.293 HD
ENDBRANCH   6  10
TORSDOF 2
ENDMDL
MODEL 4
REMARK VINA RESULT:    -4.106      1.316      4.377
REMARK INTER + INTRA:          -4.501
REMARK INTER:                  -4.467
REMARK INTRA:                  -0.034
REMARK UNBOUND:                -0.035
REMARK SMILES O=C([O-])c1ccc(O)cc1
REMARK SMILES IDX 4 1 5 2 10 3 6 4 9 5 7 6 2 7 1 8 3 9 8 10
REMARK H PARENT 8 11
REMARK Flexibility Score: inf
ROOT
ATOM      1  C   UNL     1      12.621 -15.665   7.607  1.00  0.00    -0.003 A 
ATOM      2  C   UNL     1      12.290 -17.030   7.536  1.00  0.00     0.014 A 
ATOM      3  C   UNL     1      11.588 -14.710   7.563  1.00  0.00     0.014 A 
ATOM      4  C   UNL     1      10.955 -17.430   7.423  1.00  0.00     0.047 A 
ATOM      5  C   UNL     1      10.254 -15.114   7.449  1.00  0.00     0.047 A 
ATOM      6  C   UNL     1       9.935 -16.476   7.379  1.00  0.00     0.115 A 
ENDROOT
BRANCH   1   7
ATOM      7  C   UNL     1      14.033 -15.243   7.727  1.00  0.00     0.071 C 
ATOM      8  O   UNL     1      14.878 -15.984   8.297  1.00  0.00    -0.545 OA
ATOM      9  O   UNL     1      14.449 -14.019   7.213  1.00  0.00    -0.545 OA
ENDBRANCH   1   7
BRANCH   6  10
ATOM     10  O   UNL     1       8.609 -16.890   7.266  1.00  0.00    -0.508 OA
ATOM     11  H   UNL     1       7.959 -16.802   8.039  1.00  0.00     0.293 HD
ENDBRANCH   6  10
TORSDOF 2
ENDMDL
MODEL 5
REMARK VINA RESULT:    -4.063      1.580      2.106
REMARK INTER + INTRA:          -4.454
REMARK INTER:                  -4.427
REMARK INTRA:                  -0.027
REMARK UNBOUND:                -0.035
REMARK SMILES O=C([O-])c1ccc(O)cc1
REMARK SMILES IDX 4 1 5 2 10 3 6 4 9 5 7 6 2 7 1 8 3 9 8 10
REMARK H PARENT 8 11
REMARK Flexibility Score: inf
ROOT
ATOM      1  C   UNL     1      10.325 -15.914   7.466  1.00  0.00    -0.003 A 
ATOM      2  C   UNL     1      10.881 -14.622   7.507  1.00  0.00     0.014 A 
ATOM      3  C   UNL     1      11.186 -17.027   7.496  1.00  0.00     0.014 A 
ATOM      4  C   UNL     1      12.267 -14.450   7.576  1.00  0.00     0.047 A 
ATOM      5  C   UNL     1      12.571 -16.850   7.565  1.00  0.00     0.047 A 
ATOM      6  C   UNL     1      13.114 -15.560   7.605  1.00  0.00     0.115 A 
ENDROOT
BRANCH   1   7
ATOM      7  C   UNL     1       8.859 -16.095   7.394  1.00  0.00     0.071 C 
ATOM      8  O   UNL     1       8.167 -16.152   8.445  1.00  0.00    -0.545 OA
ATOM      9  O   UNL     1       8.223 -16.209   6.162  1.00  0.00    -0.545 OA
ENDBRANCH   1   7
BRANCH   6  10
ATOM     10  O   UNL     1      14.494 -15.372   7.674  1.00  0.00    -0.508 OA
ATOM     11  H   UNL     1      15.140 -16.053   7.293  1.00  0.00     0.293 HD
ENDBRANCH   6  10
TORSDOF 2
ENDMDL
MODEL 6
REMARK VINA RESULT:    -3.904      0.147      1.538
REMARK INTER + INTRA:          -4.281
REMARK INTER:                  -4.247
REMARK INTRA:                  -0.033
REMARK UNBOUND:                -0.035
REMARK SMILES O=C([O-])c1ccc(O)cc1
REMARK SMILES IDX 4 1 5 2 10 3 6 4 9 5 7 6 2 7 1 8 3 9 8 10
REMARK H PARENT 8 11
REMARK Flexibility Score: inf
ROOT
ATOM      1  C   UNL     1      11.977 -16.251   7.438  1.00  0.00    -0.003 A 
ATOM      2  C   UNL     1      13.194 -16.686   6.881  1.00  0.00     0.014 A 
ATOM      3  C   UNL     1      11.861 -14.914   7.862  1.00  0.00     0.014 A 
ATOM      4  C   UNL     1      14.270 -15.802   6.753  1.00  0.00     0.047 A 
ATOM      5  C   UNL     1      12.939 -14.033   7.732  1.00  0.00     0.047 A 
ATOM      6  C   UNL     1      14.147 -14.476   7.176  1.00  0.00     0.115 A 
ENDROOT
BRANCH   1   7
ATOM      7  C   UNL     1      10.840 -17.186   7.573  1.00  0.00     0.071 C 
ATOM      8  O   UNL     1      10.680 -18.125   6.748  1.00  0.00    -0.545 OA
ATOM      9  O   UNL     1       9.928 -17.041   8.613  1.00  0.00    -0.545 OA
ENDBRANCH   1   7
BRANCH   6  10
ATOM     10  O   UNL     1      15.228 -13.607   7.041  1.00  0.00    -0.508 OA
ATOM     11  H   UNL     1      16.152 -13.855   7.376  1.00  0.00     0.293 HD
ENDBRANCH   6  10
TORSDOF 2
ENDMDL
MODEL 7
REMARK VINA RESULT:    -3.657      2.221      2.818
REMARK INTER + INTRA:          -4.012
REMARK INTER:                  -3.978
REMARK INTRA:                  -0.034
REMARK UNBOUND:                -0.035
REMARK SMILES O=C([O-])c1ccc(O)cc1
REMARK SMILES IDX 4 1 5 2 10 3 6 4 9 5 7 6 2 7 1 8 3 9 8 10
REMARK H PARENT 8 11
REMARK Flexibility Score: inf
ROOT
ATOM      1  C   UNL     1      12.025 -15.444   7.412  1.00  0.00    -0.003 A 
ATOM      2  C   UNL     1      13.320 -14.996   7.730  1.00  0.00     0.014 A 
ATOM      3  C   UNL     1      11.828 -16.808   7.123  1.00  0.00     0.014 A 
ATOM      4  C   UNL     1      14.393 -15.892   7.757  1.00  0.00     0.047 A 
ATOM      5  C   UNL     1      12.904 -17.700   7.151  1.00  0.00     0.047 A 
ATOM      6  C   UNL     1      14.189 -17.244   7.469  1.00  0.00     0.115 A 
ENDROOT
BRANCH   1   7
ATOM      7  C   UNL     1      10.891 -14.496   7.384  1.00  0.00     0.071 C 
ATOM      8  O   UNL     1       9.715 -14.895   7.599  1.00  0.00    -0.545 OA
ATOM      9  O   UNL     1      11.106 -13.148   7.116  1.00  0.00    -0.545 OA
ENDBRANCH   1   7
BRANCH   6  10
ATOM     10  O   UNL     1      15.268 -18.125   7.500  1.00  0.00    -0.508 OA
ATOM     11  H   UNL     1      15.615 -18.507   8.372  1.00  0.00     0.293 HD
ENDBRANCH   6  10
TORSDOF 2
ENDMDL
MODEL 8
REMARK VINA RESULT:    -3.535      2.532      5.285
REMARK INTER + INTRA:          -3.879
REMARK INTER:                  -3.843
REMARK INTRA:                  -0.036
REMARK UNBOUND:                -0.035
REMARK SMILES O=C([O-])c1ccc(O)cc1
REMARK SMILES IDX 4 1 5 2 10 3 6 4 9 5 7 6 2 7 1 8 3 9 8 10
REMARK H PARENT 8 11
REMARK Flexibility Score: inf
ROOT
ATOM      1  C   UNL     1      10.045 -16.554   7.615  1.00  0.00    -0.003 A 
ATOM      2  C   UNL     1       9.130 -15.845   8.414  1.00  0.00     0.014 A 
ATOM      3  C   UNL     1       9.602 -17.696   6.921  1.00  0.00     0.014 A 
ATOM      4  C   UNL     1       7.801 -16.270   8.515  1.00  0.00     0.047 A 
ATOM      5  C   UNL     1       8.273 -18.117   7.025  1.00  0.00     0.047 A 
ATOM      6  C   UNL     1       7.370 -17.404   7.824  1.00  0.00     0.115 A 
ENDROOT
BRANCH   1   7
ATOM      7  C   UNL     1      11.450 -16.104   7.508  1.00  0.00     0.071 C 
ATOM      8  O   UNL     1      11.834 -15.056   8.093  1.00  0.00    -0.545 OA
ATOM      9  O   UNL     1      12.367 -16.831   6.757  1.00  0.00    -0.545 OA
ENDBRANCH   1   7
BRANCH   6  10
ATOM     10  O   UNL     1       6.042 -17.815   7.934  1.00  0.00    -0.508 OA
ATOM     11  H   UNL     1       5.381 -17.317   8.518  1.00  0.00     0.293 HD
ENDBRANCH   6  10
TORSDOF 2
ENDMDL
MODEL 9
REMARK VINA RESULT:    -3.407      1.895      2.802
REMARK INTER + INTRA:          -3.740
REMARK INTER:                  -3.705
REMARK INTRA:                  -0.035
REMARK UNBOUND:                -0.035
REMARK SMILES O=C([O-])c1ccc(O)cc1
REMARK SMILES IDX 4 1 5 2 10 3 6 4 9 5 7 6 2 7 1 8 3 9 8 10
REMARK H PARENT 8 11
REMARK Flexibility Score: inf
ROOT
ATOM      1  C   UNL     1      10.382 -17.047   7.634  1.00  0.00    -0.003 A 
ATOM      2  C   UNL     1      11.363 -17.804   6.967  1.00  0.00     0.014 A 
ATOM      3  C   UNL     1      10.790 -16.029   8.516  1.00  0.00     0.014 A 
ATOM      4  C   UNL     1      12.721 -17.547   7.179  1.00  0.00     0.047 A 
ATOM      5  C   UNL     1      12.149 -15.775   8.725  1.00  0.00     0.047 A 
ATOM      6  C   UNL     1      13.118 -16.534   8.056  1.00  0.00     0.115 A 
ENDROOT
BRANCH   1   7
ATOM      7  C   UNL     1       8.946 -17.319   7.409  1.00  0.00     0.071 C 
ATOM      8  O   UNL     1       8.074 -16.839   8.180  1.00  0.00    -0.545 OA
ATOM      9  O   UNL     1       8.538 -18.112   6.341  1.00  0.00    -0.545 OA
ENDBRANCH   1   7
BRANCH   6  10
ATOM     10  O   UNL     1      14.475 -16.290   8.257  1.00  0.00    -0.508 OA
ATOM     11  H   UNL     1      15.096 -17.008   8.611  1.00  0.00     0.293 HD
ENDBRANCH   6  10
TORSDOF 2
ENDMDL
