MODEL 1
REMARK VINA RESULT:    -6.347      0.000      0.000
REMARK INTER + INTRA:         -20.086
REMARK INTER:                 -16.737
REMARK INTRA:                  -3.349
REMARK UNBOUND:                -3.349
REMARK SMILES CCCCCCCCCCCCCCCCCCCCCCCCCCCCCC(=O)[O-]
REMARK SMILES IDX 16 1 17 2 18 3 19 4 20 5 21 6 22 7 23 8 24 9 25 10 26 11
REMARK SMILES IDX 27 12 28 13 29 14 30 15 31 16 32 17 15 18 14 19 13 20 12 21
REMARK SMILES IDX 11 22 10 23 9 24 8 25 7 26 6 27 5 28 4 29 3 30 2 31 1 32
REMARK H PARENT
REMARK Flexibility Score: inf
ROOT
ATOM      1  C   UNL     1      -2.658  42.190 103.129  1.00  0.00     0.000 C 
ENDROOT
BRANCH   1   2
ATOM      2  C   UNL     1      -1.244  41.575 103.178  1.00  0.00     0.000 C 
BRANCH   2   3
ATOM      3  C   UNL     1      -1.179  40.150 102.595  1.00  0.00     0.000 C 
BRANCH   3   4
ATOM      4  C   UNL     1      -2.550  39.634 102.128  1.00  0.00     0.000 C 
BRANCH   4   5
ATOM      5  C   UNL     1      -2.450  38.630 100.968  1.00  0.00     0.000 C 
BRANCH   5   6
ATOM      6  C   UNL     1      -2.510  37.168 101.445  1.00  0.00     0.000 C 
BRANCH   6   7
ATOM      7  C   UNL     1      -3.878  36.721 101.999  1.00  0.00     0.000 C 
BRANCH   7   8
ATOM      8  C   UNL     1      -5.038  36.746 100.983  1.00  0.00     0.000 C 
BRANCH   8   9
ATOM      9  C   UNL     1      -5.435  35.371 100.414  1.00  0.00     0.000 C 
BRANCH   9  10
ATOM     10  C   UNL     1      -4.220  34.490 100.085  1.00  0.00     0.000 C 
BRANCH  10  11
ATOM     11  C   UNL     1      -3.893  34.543  98.584  1.00  0.00     0.000 C 
BRANCH  11  12
ATOM     12  C   UNL     1      -2.902  35.665  98.225  1.00  0.00     0.000 C 
BRANCH  12  13
ATOM     13  C   UNL     1      -3.371  36.629  97.118  1.00  0.00     0.006 C 
BRANCH  13  14
ATOM     14  C   UNL     1      -4.899  36.691  96.944  1.00  0.00     0.053 C 
BRANCH  14  15
ATOM     15  C   UNL     1      -5.483  37.989  97.416  1.00  0.00     0.041 C 
ATOM     16  O   UNL     1      -6.668  38.298  97.121  1.00  0.00    -0.550 OA
ATOM     17  O   UNL     1      -4.705  38.879  98.149  1.00  0.00    -0.550 OA
ENDBRANCH  14  15
ENDBRANCH  13  14
ENDBRANCH  12  13
ENDBRANCH  11  12
ENDBRANCH  10  11
ENDBRANCH   9  10
ENDBRANCH   8   9
ENDBRANCH   7   8
ENDBRANCH   6   7
ENDBRANCH   5   6
ENDBRANCH   4   5
ENDBRANCH   3   4
ENDBRANCH   2   3
ENDBRANCH   1   2
BRANCH   1  18
ATOM     18  C   UNL     1      -2.738  43.646 103.633  1.00  0.00     0.000 C 
BRANCH  18  19
ATOM     19  C   UNL     1      -4.152  44.163 103.954  1.00  0.00     0.000 C 
BRANCH  19  20
ATOM     20  C   UNL     1      -5.100  43.141 104.617  1.00  0.00     0.000 C 
BRANCH  20  21
ATOM     21  C   UNL     1      -6.575  43.573 104.702  1.00  0.00     0.000 C 
BRANCH  21  22
ATOM     22  C   UNL     1      -7.196  43.855 103.323  1.00  0.00     0.000 C 
BRANCH  22  23
ATOM     23  C   UNL     1      -7.421  45.354 103.073  1.00  0.00     0.000 C 
BRANCH  23  24
ATOM     24  C   UNL     1      -8.167  45.640 101.761  1.00  0.00    -0.000 C 
BRANCH  24  25
ATOM     25  C   UNL     1      -7.500  44.914 100.584  1.00  0.00    -0.000 C 
BRANCH  25  26
ATOM     26  C   UNL     1      -6.723  45.865  99.661  1.00  0.00    -0.000 C 
BRANCH  26  27
ATOM     27  C   UNL     1      -5.201  45.746  99.831  1.00  0.00    -0.000 C 
BRANCH  27  28
ATOM     28  C   UNL     1      -4.806  44.326 100.254  1.00  0.00    -0.000 C 
BRANCH  28  29
ATOM     29  C   UNL     1      -4.373  43.488  99.041  1.00  0.00    -0.000 C 
BRANCH  29  30
ATOM     30  C   UNL     1      -4.070  44.348  97.805  1.00  0.00    -0.000 C 
BRANCH  30  31
ATOM     31  C   UNL     1      -4.142  43.552  96.494  1.00  0.00    -0.003 C 
ATOM     32  C   UNL     1      -5.582  43.435  96.000  1.00  0.00     0.004 C 
ENDBRANCH  30  31
ENDBRANCH  29  30
ENDBRANCH  28  29
ENDBRANCH  27  28
ENDBRANCH  26  27
ENDBRANCH  25  26
ENDBRANCH  24  25
ENDBRANCH  23  24
ENDBRANCH  22  23
ENDBRANCH  21  22
ENDBRANCH  20  21
ENDBRANCH  19  20
ENDBRANCH  18  19
ENDBRANCH   1  18
TORSDOF 28
ENDMDL
MODEL 2
REMARK VINA RESULT:    -6.306      2.172      7.931
REMARK INTER + INTRA:         -19.979
REMARK INTER:                 -15.586
REMARK INTRA:                  -4.393
REMARK UNBOUND:                -3.349
REMARK SMILES CCCCCCCCCCCCCCCCCCCCCCCCCCCCCC(=O)[O-]
REMARK SMILES IDX 16 1 17 2 18 3 19 4 20 5 21 6 22 7 23 8 24 9 25 10 26 11
REMARK SMILES IDX 27 12 28 13 29 14 30 15 31 16 32 17 15 18 14 19 13 20 12 21
REMARK SMILES IDX 11 22 10 23 9 24 8 25 7 26 6 27 5 28 4 29 3 30 2 31 1 32
REMARK H PARENT
REMARK Flexibility Score: inf
ROOT
ATOM      1  C   UNL     1      -3.216  42.343 102.407  1.00  0.00     0.000 C 
ENDROOT
BRANCH   1   2
ATOM      2  C   UNL     1      -2.429  43.627 102.739  1.00  0.00     0.000 C 
BRANCH   2   3
ATOM      3  C   UNL     1      -1.956  43.691 104.204  1.00  0.00     0.000 C 
BRANCH   3   4
ATOM      4  C   UNL     1      -2.561  44.877 104.974  1.00  0.00     0.000 C 
BRANCH   4   5
ATOM      5  C   UNL     1      -4.059  45.076 104.689  1.00  0.00     0.000 C 
BRANCH   5   6
ATOM      6  C   UNL     1      -4.936  44.013 105.374  1.00  0.00     0.000 C 
BRANCH   6   7
ATOM      7  C   UNL     1      -6.083  43.458 104.505  1.00  0.00     0.000 C 
BRANCH   7   8
ATOM      8  C   UNL     1      -6.265  44.148 103.139  1.00  0.00     0.000 C 
BRANCH   8   9
ATOM      9  C   UNL     1      -7.725  44.433 102.741  1.00  0.00     0.000 C 
BRANCH   9  10
ATOM     10  C   UNL     1      -7.845  45.146 101.386  1.00  0.00     0.000 C 
BRANCH  10  11
ATOM     11  C   UNL     1      -6.456  45.446 100.798  1.00  0.00     0.000 C 
BRANCH  11  12
ATOM     12  C   UNL     1      -6.437  45.418  99.259  1.00  0.00     0.000 C 
BRANCH  12  13
ATOM     13  C   UNL     1      -5.505  44.364  98.631  1.00  0.00     0.006 C 
BRANCH  13  14
ATOM     14  C   UNL     1      -4.229  44.087  99.447  1.00  0.00     0.053 C 
BRANCH  14  15
ATOM     15  C   UNL     1      -3.149  45.095  99.191  1.00  0.00     0.041 C 
ATOM     16  O   UNL     1      -2.817  45.914 100.089  1.00  0.00    -0.550 OA
ATOM     17  O   UNL     1      -2.535  45.159  97.945  1.00  0.00    -0.550 OA
ENDBRANCH  14  15
ENDBRANCH  13  14
ENDBRANCH  12  13
ENDBRANCH  11  12
ENDBRANCH  10  11
ENDBRANCH   9  10
ENDBRANCH   8   9
ENDBRANCH   7   8
ENDBRANCH   6   7
ENDBRANCH   5   6
ENDBRANCH   4   5
ENDBRANCH   3   4
ENDBRANCH   2   3
ENDBRANCH   1   2
BRANCH   1  18
ATOM     18  C   UNL     1      -3.177  41.266 103.511  1.00  0.00     0.000 C 
BRANCH  18  19
ATOM     19  C   UNL     1      -2.709  39.870 103.063  1.00  0.00     0.000 C 
BRANCH  19  20
ATOM     20  C   UNL     1      -2.450  39.708 101.549  1.00  0.00     0.000 C 
BRANCH  20  21
ATOM     21  C   UNL     1      -2.715  38.301 100.984  1.00  0.00     0.000 C 
BRANCH  21  22
ATOM     22  C   UNL     1      -2.905  37.241 102.083  1.00  0.00     0.000 C 
BRANCH  22  23
ATOM     23  C   UNL     1      -4.365  36.778 102.209  1.00  0.00     0.000 C 
BRANCH  23  24
ATOM     24  C   UNL     1      -5.105  36.744 100.865  1.00  0.00    -0.000 C 
BRANCH  24  25
ATOM     25  C   UNL     1      -5.554  35.316 100.523  1.00  0.00    -0.000 C 
BRANCH  25  26
ATOM     26  C   UNL     1      -4.933  34.794  99.218  1.00  0.00    -0.000 C 
BRANCH  26  27
ATOM     27  C   UNL     1      -3.398  34.754  99.263  1.00  0.00    -0.000 C 
BRANCH  27  28
ATOM     28  C   UNL     1      -2.795  35.503  98.068  1.00  0.00    -0.000 C 
BRANCH  28  29
ATOM     29  C   UNL     1      -3.854  36.368  97.367  1.00  0.00    -0.000 C 
BRANCH  29  30
ATOM     30  C   UNL     1      -3.688  37.866  97.665  1.00  0.00    -0.000 C 
BRANCH  30  31
ATOM     31  C   UNL     1      -5.030  38.603  97.779  1.00  0.00    -0.003 C 
ATOM     32  C   UNL     1      -6.158  37.793  97.145  1.00  0.00     0.004 C 
ENDBRANCH  30  31
ENDBRANCH  29  30
ENDBRANCH  28  29
ENDBRANCH  27  28
ENDBRANCH  26  27
ENDBRANCH  25  26
ENDBRANCH  24  25
ENDBRANCH  23  24
ENDBRANCH  22  23
ENDBRANCH  21  22
ENDBRANCH  20  21
ENDBRANCH  19  20
ENDBRANCH  18  19
ENDBRANCH   1  18
TORSDOF 28
ENDMDL
MODEL 3
REMARK VINA RESULT:    -6.229      2.653      9.026
REMARK INTER + INTRA:         -19.774
REMARK INTER:                 -15.913
REMARK INTRA:                  -3.861
REMARK UNBOUND:                -3.349
REMARK SMILES CCCCCCCCCCCCCCCCCCCCCCCCCCCCCC(=O)[O-]
REMARK SMILES IDX 16 1 17 2 18 3 19 4 20 5 21 6 22 7 23 8 24 9 25 10 26 11
REMARK SMILES IDX 27 12 28 13 29 14 30 15 31 16 32 17 15 18 14 19 13 20 12 21
REMARK SMILES IDX 11 22 10 23 9 24 8 25 7 26 6 27 5 28 4 29 3 30 2 31 1 32
REMARK H PARENT
REMARK Flexibility Score: inf
ROOT
ATOM      1  C   UNL     1      -4.702  38.895  98.270  1.00  0.00     0.000 C 
ENDROOT
BRANCH   1   2
ATOM      2  C   UNL     1      -4.756  40.320  97.680  1.00  0.00     0.000 C 
BRANCH   2   3
ATOM      3  C   UNL     1      -5.500  40.394  96.333  1.00  0.00     0.000 C 
BRANCH   3   4
ATOM      4  C   UNL     1      -5.594  41.827  95.783  1.00  0.00     0.000 C 
BRANCH   4   5
ATOM      5  C   UNL     1      -4.605  42.794  96.457  1.00  0.00     0.000 C 
BRANCH   5   6
ATOM      6  C   UNL     1      -5.292  44.064  96.990  1.00  0.00     0.000 C 
BRANCH   6   7
ATOM      7  C   UNL     1      -5.178  44.276  98.513  1.00  0.00     0.000 C 
BRANCH   7   8
ATOM      8  C   UNL     1      -4.237  43.296  99.243  1.00  0.00     0.000 C 
BRANCH   8   9
ATOM      9  C   UNL     1      -4.116  43.519 100.762  1.00  0.00     0.000 C 
BRANCH   9  10
ATOM     10  C   UNL     1      -3.564  44.908 101.117  1.00  0.00     0.000 C 
BRANCH  10  11
ATOM     11  C   UNL     1      -4.389  45.556 102.242  1.00  0.00     0.000 C 
BRANCH  11  12
ATOM     12  C   UNL     1      -5.541  44.661 102.733  1.00  0.00     0.000 C 
BRANCH  12  13
ATOM     13  C   UNL     1      -6.918  45.347 102.816  1.00  0.00     0.006 C 
BRANCH  13  14
ATOM     14  C   UNL     1      -7.861  45.010 101.647  1.00  0.00     0.053 C 
BRANCH  14  15
ATOM     15  C   UNL     1      -9.108  45.842 101.651  1.00  0.00     0.041 C 
ATOM     16  O   UNL     1      -9.141  46.942 101.037  1.00  0.00    -0.550 OA
ATOM     17  O   UNL     1     -10.224  45.423 102.367  1.00  0.00    -0.550 OA
ENDBRANCH  14  15
ENDBRANCH  13  14
ENDBRANCH  12  13
ENDBRANCH  11  12
ENDBRANCH  10  11
ENDBRANCH   9  10
ENDBRANCH   8   9
ENDBRANCH   7   8
ENDBRANCH   6   7
ENDBRANCH   5   6
ENDBRANCH   4   5
ENDBRANCH   3   4
ENDBRANCH   2   3
ENDBRANCH   1   2
BRANCH   1  18
ATOM     18  C   UNL     1      -5.556  37.858  97.512  1.00  0.00     0.000 C 
BRANCH  18  19
ATOM     19  C   UNL     1      -4.800  36.621  96.995  1.00  0.00     0.000 C 
BRANCH  19  20
ATOM     20  C   UNL     1      -3.277  36.617  97.252  1.00  0.00     0.000 C 
BRANCH  20  21
ATOM     21  C   UNL     1      -2.790  35.594  98.295  1.00  0.00     0.000 C 
BRANCH  21  22
ATOM     22  C   UNL     1      -3.873  34.574  98.684  1.00  0.00     0.000 C 
BRANCH  22  23
ATOM     23  C   UNL     1      -4.182  34.585 100.190  1.00  0.00     0.000 C 
BRANCH  23  24
ATOM     24  C   UNL     1      -5.468  35.349 100.535  1.00  0.00    -0.000 C 
BRANCH  24  25
ATOM     25  C   UNL     1      -5.143  36.738 101.103  1.00  0.00    -0.000 C 
BRANCH  25  26
ATOM     26  C   UNL     1      -3.791  36.782 101.831  1.00  0.00    -0.000 C 
BRANCH  26  27
ATOM     27  C   UNL     1      -3.008  38.075 101.555  1.00  0.00    -0.000 C 
BRANCH  27  28
ATOM     28  C   UNL     1      -2.829  38.891 102.842  1.00  0.00    -0.000 C 
BRANCH  28  29
ATOM     29  C   UNL     1      -2.432  40.341 102.525  1.00  0.00    -0.000 C 
BRANCH  29  30
ATOM     30  C   UNL     1      -0.913  40.564 102.578  1.00  0.00    -0.000 C 
BRANCH  30  31
ATOM     31  C   UNL     1      -0.523  41.817 103.375  1.00  0.00    -0.003 C 
ATOM     32  C   UNL     1      -1.684  42.806 103.448  1.00  0.00     0.004 C 
ENDBRANCH  30  31
ENDBRANCH  29  30
ENDBRANCH  28  29
ENDBRANCH  27  28
ENDBRANCH  26  27
ENDBRANCH  25  26
ENDBRANCH  24  25
ENDBRANCH  23  24
ENDBRANCH  22  23
ENDBRANCH  21  22
ENDBRANCH  20  21
ENDBRANCH  19  20
ENDBRANCH  18  19
ENDBRANCH   1  18
TORSDOF 28
ENDMDL
MODEL 4
REMARK VINA RESULT:    -6.164      1.789      7.531
REMARK INTER + INTRA:         -19.602
REMARK INTER:                 -16.459
REMARK INTRA:                  -3.143
REMARK UNBOUND:                -3.349
REMARK SMILES CCCCCCCCCCCCCCCCCCCCCCCCCCCCCC(=O)[O-]
REMARK SMILES IDX 16 1 17 2 18 3 19 4 20 5 21 6 22 7 23 8 24 9 25 10 26 11
REMARK SMILES IDX 27 12 28 13 29 14 30 15 31 16 32 17 15 18 14 19 13 20 12 21
REMARK SMILES IDX 11 22 10 23 9 24 8 25 7 26 6 27 5 28 4 29 3 30 2 31 1 32
REMARK H PARENT
REMARK Flexibility Score: inf
ROOT
ATOM      1  C   UNL     1      -2.439  44.380 102.765  1.00  0.00     0.000 C 
ENDROOT
BRANCH   1   2
ATOM      2  C   UNL     1      -3.263  45.232 103.752  1.00  0.00     0.000 C 
BRANCH   2   3
ATOM      3  C   UNL     1      -3.654  44.473 105.035  1.00  0.00     0.000 C 
BRANCH   3   4
ATOM      4  C   UNL     1      -4.980  43.707 104.892  1.00  0.00     0.000 C 
BRANCH   4   5
ATOM      5  C   UNL     1      -6.118  44.577 104.333  1.00  0.00     0.000 C 
BRANCH   5   6
ATOM      6  C   UNL     1      -7.105  43.773 103.468  1.00  0.00     0.000 C 
BRANCH   6   7
ATOM      7  C   UNL     1      -7.600  44.499 102.201  1.00  0.00     0.000 C 
BRANCH   7   8
ATOM      8  C   UNL     1      -6.545  45.369 101.488  1.00  0.00     0.000 C 
BRANCH   8   9
ATOM      9  C   UNL     1      -6.731  45.502  99.965  1.00  0.00     0.000 C 
BRANCH   9  10
ATOM     10  C   UNL     1      -5.641  44.771  99.166  1.00  0.00     0.000 C 
BRANCH  10  11
ATOM     11  C   UNL     1      -5.795  45.032  97.659  1.00  0.00     0.000 C 
BRANCH  11  12
ATOM     12  C   UNL     1      -4.772  44.259  96.808  1.00  0.00     0.000 C 
BRANCH  12  13
ATOM     13  C   UNL     1      -4.752  42.733  97.028  1.00  0.00     0.006 C 
BRANCH  13  14
ATOM     14  C   UNL     1      -5.328  41.921  95.854  1.00  0.00     0.053 C 
BRANCH  14  15
ATOM     15  C   UNL     1      -5.146  42.605  94.533  1.00  0.00     0.041 C 
ATOM     16  O   UNL     1      -4.041  42.544  93.930  1.00  0.00    -0.550 OA
ATOM     17  O   UNL     1      -6.185  43.349  93.983  1.00  0.00    -0.550 OA
ENDBRANCH  14  15
ENDBRANCH  13  14
ENDBRANCH  12  13
ENDBRANCH  11  12
ENDBRANCH  10  11
ENDBRANCH   9  10
ENDBRANCH   8   9
ENDBRANCH   7   8
ENDBRANCH   6   7
ENDBRANCH   5   6
ENDBRANCH   4   5
ENDBRANCH   3   4
ENDBRANCH   2   3
ENDBRANCH   1   2
BRANCH   1  18
ATOM     18  C   UNL     1      -1.323  43.542 103.422  1.00  0.00     0.000 C 
BRANCH  18  19
ATOM     19  C   UNL     1      -1.362  42.032 103.126  1.00  0.00     0.000 C 
BRANCH  19  20
ATOM     20  C   UNL     1      -2.771  41.413 103.007  1.00  0.00     0.000 C 
BRANCH  20  21
ATOM     21  C   UNL     1      -2.815  39.873 103.011  1.00  0.00     0.000 C 
BRANCH  21  22
ATOM     22  C   UNL     1      -2.821  39.271 101.597  1.00  0.00     0.000 C 
BRANCH  22  23
ATOM     23  C   UNL     1      -2.410  37.790 101.584  1.00  0.00     0.000 C 
BRANCH  23  24
ATOM     24  C   UNL     1      -3.449  36.871 102.241  1.00  0.00    -0.000 C 
BRANCH  24  25
ATOM     25  C   UNL     1      -4.710  36.761 101.371  1.00  0.00    -0.000 C 
BRANCH  25  26
ATOM     26  C   UNL     1      -4.934  35.343 100.823  1.00  0.00    -0.000 C 
BRANCH  26  27
ATOM     27  C   UNL     1      -5.674  35.335  99.478  1.00  0.00    -0.000 C 
BRANCH  27  28
ATOM     28  C   UNL     1      -4.822  34.674  98.388  1.00  0.00    -0.000 C 
BRANCH  28  29
ATOM     29  C   UNL     1      -3.436  35.329  98.296  1.00  0.00    -0.000 C 
BRANCH  29  30
ATOM     30  C   UNL     1      -3.425  36.569  97.389  1.00  0.00    -0.000 C 
BRANCH  30  31
ATOM     31  C   UNL     1      -3.435  37.884  98.180  1.00  0.00    -0.003 C 
ATOM     32  C   UNL     1      -4.764  38.617  98.010  1.00  0.00     0.004 C 
ENDBRANCH  30  31
ENDBRANCH  29  30
ENDBRANCH  28  29
ENDBRANCH  27  28
ENDBRANCH  26  27
ENDBRANCH  25  26
ENDBRANCH  24  25
ENDBRANCH  23  24
ENDBRANCH  22  23
ENDBRANCH  21  22
ENDBRANCH  20  21
ENDBRANCH  19  20
ENDBRANCH  18  19
ENDBRANCH   1  18
TORSDOF 28
ENDMDL
MODEL 5
REMARK VINA RESULT:    -6.069      1.790      8.360
REMARK INTER + INTRA:         -19.352
REMARK INTER:                 -15.189
REMARK INTRA:                  -4.163
REMARK UNBOUND:                -3.349
REMARK SMILES CCCCCCCCCCCCCCCCCCCCCCCCCCCCCC(=O)[O-]
REMARK SMILES IDX 16 1 17 2 18 3 19 4 20 5 21 6 22 7 23 8 24 9 25 10 26 11
REMARK SMILES IDX 27 12 28 13 29 14 30 15 31 16 32 17 15 18 14 19 13 20 12 21
REMARK SMILES IDX 11 22 10 23 9 24 8 25 7 26 6 27 5 28 4 29 3 30 2 31 1 32
REMARK H PARENT
REMARK Flexibility Score: inf
ROOT
ATOM      1  C   UNL     1      -3.492  43.189 102.275  1.00  0.00     0.000 C 
ENDROOT
BRANCH   1   2
ATOM      2  C   UNL     1      -3.618  44.658 102.727  1.00  0.00     0.000 C 
BRANCH   2   3
ATOM      3  C   UNL     1      -5.008  45.006 103.294  1.00  0.00     0.000 C 
BRANCH   3   4
ATOM      4  C   UNL     1      -5.982  43.817 103.251  1.00  0.00     0.000 C 
BRANCH   4   5
ATOM      5  C   UNL     1      -7.386  44.172 103.769  1.00  0.00     0.000 C 
BRANCH   5   6
ATOM      6  C   UNL     1      -7.509  45.653 104.170  1.00  0.00     0.000 C 
BRANCH   6   7
ATOM      7  C   UNL     1      -8.868  46.304 103.842  1.00  0.00     0.000 C 
BRANCH   7   8
ATOM      8  C   UNL     1      -9.031  46.788 102.387  1.00  0.00     0.000 C 
BRANCH   8   9
ATOM      9  C   UNL     1      -7.722  47.199 101.687  1.00  0.00     0.000 C 
BRANCH   9  10
ATOM     10  C   UNL     1      -7.665  46.745 100.220  1.00  0.00     0.000 C 
BRANCH  10  11
ATOM     11  C   UNL     1      -7.023  45.353 100.100  1.00  0.00     0.000 C 
BRANCH  11  12
ATOM     12  C   UNL     1      -5.552  45.407  99.651  1.00  0.00     0.000 C 
BRANCH  12  13
ATOM     13  C   UNL     1      -5.004  44.107  99.030  1.00  0.00     0.006 C 
BRANCH  13  14
ATOM     14  C   UNL     1      -5.026  44.087  97.491  1.00  0.00     0.053 C 
BRANCH  14  15
ATOM     15  C   UNL     1      -3.657  44.193  96.891  1.00  0.00     0.041 C 
ATOM     16  O   UNL     1      -2.745  44.821  97.492  1.00  0.00    -0.550 OA
ATOM     17  O   UNL     1      -3.396  43.632  95.645  1.00  0.00    -0.550 OA
ENDBRANCH  14  15
ENDBRANCH  13  14
ENDBRANCH  12  13
ENDBRANCH  11  12
ENDBRANCH  10  11
ENDBRANCH   9  10
ENDBRANCH   8   9
ENDBRANCH   7   8
ENDBRANCH   6   7
ENDBRANCH   5   6
ENDBRANCH   4   5
ENDBRANCH   3   4
ENDBRANCH   2   3
ENDBRANCH   1   2
BRANCH   1  18
ATOM     18  C   UNL     1      -2.515  42.343 103.117  1.00  0.00     0.000 C 
BRANCH  18  19
ATOM     19  C   UNL     1      -2.893  40.860 103.287  1.00  0.00     0.000 C 
BRANCH  19  20
ATOM     20  C   UNL     1      -2.040  39.859 102.479  1.00  0.00     0.000 C 
BRANCH  20  21
ATOM     21  C   UNL     1      -2.829  38.952 101.516  1.00  0.00     0.000 C 
BRANCH  21  22
ATOM     22  C   UNL     1      -2.141  37.600 101.268  1.00  0.00     0.000 C 
BRANCH  22  23
ATOM     23  C   UNL     1      -3.018  36.407 101.680  1.00  0.00     0.000 C 
BRANCH  23  24
ATOM     24  C   UNL     1      -4.521  36.713 101.613  1.00  0.00    -0.000 C 
BRANCH  24  25
ATOM     25  C   UNL     1      -5.228  35.767 100.631  1.00  0.00    -0.000 C 
BRANCH  25  26
ATOM     26  C   UNL     1      -4.356  34.569 100.227  1.00  0.00    -0.000 C 
BRANCH  26  27
ATOM     27  C   UNL     1      -4.112  34.496  98.712  1.00  0.00    -0.000 C 
BRANCH  27  28
ATOM     28  C   UNL     1      -2.909  35.359  98.309  1.00  0.00    -0.000 C 
BRANCH  28  29
ATOM     29  C   UNL     1      -3.324  36.454  97.314  1.00  0.00    -0.000 C 
BRANCH  29  30
ATOM     30  C   UNL     1      -3.522  37.821  97.986  1.00  0.00    -0.000 C 
BRANCH  30  31
ATOM     31  C   UNL     1      -5.001  38.198  98.145  1.00  0.00    -0.003 C 
ATOM     32  C   UNL     1      -5.869  37.462  97.126  1.00  0.00     0.004 C 
ENDBRANCH  30  31
ENDBRANCH  29  30
ENDBRANCH  28  29
ENDBRANCH  27  28
ENDBRANCH  26  27
ENDBRANCH  25  26
ENDBRANCH  24  25
ENDBRANCH  23  24
ENDBRANCH  22  23
ENDBRANCH  21  22
ENDBRANCH  20  21
ENDBRANCH  19  20
ENDBRANCH  18  19
ENDBRANCH   1  18
TORSDOF 28
ENDMDL
MODEL 6
REMARK VINA RESULT:    -6.051      3.602      9.102
REMARK INTER + INTRA:         -19.305
REMARK INTER:                 -15.292
REMARK INTRA:                  -4.013
REMARK UNBOUND:                -3.349
REMARK SMILES CCCCCCCCCCCCCCCCCCCCCCCCCCCCCC(=O)[O-]
REMARK SMILES IDX 16 1 17 2 18 3 19 4 20 5 21 6 22 7 23 8 24 9 25 10 26 11
REMARK SMILES IDX 27 12 28 13 29 14 30 15 31 16 32 17 15 18 14 19 13 20 12 21
REMARK SMILES IDX 11 22 10 23 9 24 8 25 7 26 6 27 5 28 4 29 3 30 2 31 1 32
REMARK H PARENT
REMARK Flexibility Score: inf
ROOT
ATOM      1  C   UNL     1      -4.315  42.279 103.770  1.00  0.00     0.000 C 
ENDROOT
BRANCH   1   2
ATOM      2  C   UNL     1      -4.939  43.378 104.654  1.00  0.00     0.000 C 
BRANCH   2   3
ATOM      3  C   UNL     1      -3.925  44.449 105.102  1.00  0.00     0.000 C 
BRANCH   3   4
ATOM      4  C   UNL     1      -4.150  45.806 104.416  1.00  0.00     0.000 C 
BRANCH   4   5
ATOM      5  C   UNL     1      -3.050  46.153 103.398  1.00  0.00     0.000 C 
BRANCH   5   6
ATOM      6  C   UNL     1      -3.558  46.119 101.946  1.00  0.00     0.000 C 
BRANCH   6   7
ATOM      7  C   UNL     1      -3.485  44.738 101.263  1.00  0.00     0.000 C 
BRANCH   7   8
ATOM      8  C   UNL     1      -4.747  44.327 100.477  1.00  0.00     0.000 C 
BRANCH   8   9
ATOM      9  C   UNL     1      -5.954  45.269 100.642  1.00  0.00     0.000 C 
BRANCH   9  10
ATOM     10  C   UNL     1      -7.134  44.603 101.367  1.00  0.00     0.000 C 
BRANCH  10  11
ATOM     11  C   UNL     1      -7.401  45.282 102.720  1.00  0.00     0.000 C 
BRANCH  11  12
ATOM     12  C   UNL     1      -8.880  45.659 102.920  1.00  0.00     0.000 C 
BRANCH  12  13
ATOM     13  C   UNL     1      -9.546  45.065 104.177  1.00  0.00     0.006 C 
BRANCH  13  14
ATOM     14  C   UNL     1     -11.060  45.324 104.268  1.00  0.00     0.053 C 
BRANCH  14  15
ATOM     15  C   UNL     1     -11.419  46.287 105.361  1.00  0.00     0.041 C 
ATOM     16  O   UNL     1     -11.813  45.862 106.479  1.00  0.00    -0.550 OA
ATOM     17  O   UNL     1     -11.358  47.657 105.131  1.00  0.00    -0.550 OA
ENDBRANCH  14  15
ENDBRANCH  13  14
ENDBRANCH  12  13
ENDBRANCH  11  12
ENDBRANCH  10  11
ENDBRANCH   9  10
ENDBRANCH   8   9
ENDBRANCH   7   8
ENDBRANCH   6   7
ENDBRANCH   5   6
ENDBRANCH   4   5
ENDBRANCH   3   4
ENDBRANCH   2   3
ENDBRANCH   1   2
BRANCH   1  18
ATOM     18  C   UNL     1      -2.773  42.293 103.727  1.00  0.00     0.000 C 
BRANCH  18  19
ATOM     19  C   UNL     1      -2.124  41.279 102.767  1.00  0.00     0.000 C 
BRANCH  19  20
ATOM     20  C   UNL     1      -2.700  39.848 102.822  1.00  0.00     0.000 C 
BRANCH  20  21
ATOM     21  C   UNL     1      -2.922  39.177 101.454  1.00  0.00     0.000 C 
BRANCH  21  22
ATOM     22  C   UNL     1      -2.062  37.916 101.259  1.00  0.00     0.000 C 
BRANCH  22  23
ATOM     23  C   UNL     1      -2.823  36.625 101.597  1.00  0.00     0.000 C 
BRANCH  23  24
ATOM     24  C   UNL     1      -4.341  36.830 101.702  1.00  0.00    -0.000 C 
BRANCH  24  25
ATOM     25  C   UNL     1      -5.076  36.048 100.604  1.00  0.00    -0.000 C 
BRANCH  25  26
ATOM     26  C   UNL     1      -4.338  34.764 100.194  1.00  0.00    -0.000 C 
BRANCH  26  27
ATOM     27  C   UNL     1      -4.160  34.641  98.673  1.00  0.00    -0.000 C 
BRANCH  27  28
ATOM     28  C   UNL     1      -2.881  35.352  98.213  1.00  0.00    -0.000 C 
BRANCH  28  29
ATOM     29  C   UNL     1      -3.208  36.675  97.504  1.00  0.00    -0.000 C 
BRANCH  29  30
ATOM     30  C   UNL     1      -4.609  36.678  96.873  1.00  0.00    -0.000 C 
BRANCH  30  31
ATOM     31  C   UNL     1      -5.478  37.847  97.359  1.00  0.00    -0.003 C 
ATOM     32  C   UNL     1      -4.663  38.822  98.206  1.00  0.00     0.004 C 
ENDBRANCH  30  31
ENDBRANCH  29  30
ENDBRANCH  28  29
ENDBRANCH  27  28
ENDBRANCH  26  27
ENDBRANCH  25  26
ENDBRANCH  24  25
ENDBRANCH  23  24
ENDBRANCH  22  23
ENDBRANCH  21  22
ENDBRANCH  20  21
ENDBRANCH  19  20
ENDBRANCH  18  19
ENDBRANCH   1  18
TORSDOF 28
ENDMDL
MODEL 7
REMARK VINA RESULT:    -6.033      2.445      7.628
REMARK INTER + INTRA:         -19.258
REMARK INTER:                 -15.563
REMARK INTRA:                  -3.695
REMARK UNBOUND:                -3.349
REMARK SMILES CCCCCCCCCCCCCCCCCCCCCCCCCCCCCC(=O)[O-]
REMARK SMILES IDX 16 1 17 2 18 3 19 4 20 5 21 6 22 7 23 8 24 9 25 10 26 11
REMARK SMILES IDX 27 12 28 13 29 14 30 15 31 16 32 17 15 18 14 19 13 20 12 21
REMARK SMILES IDX 11 22 10 23 9 24 8 25 7 26 6 27 5 28 4 29 3 30 2 31 1 32
REMARK H PARENT
REMARK Flexibility Score: inf
ROOT
ATOM      1  C   UNL     1      -3.163  35.241  98.242  1.00  0.00     0.000 C 
ENDROOT
BRANCH   1   2
ATOM      2  C   UNL     1      -3.583  36.536  97.517  1.00  0.00     0.000 C 
BRANCH   2   3
ATOM      3  C   UNL     1      -3.199  37.817  98.284  1.00  0.00     0.000 C 
BRANCH   3   4
ATOM      4  C   UNL     1      -4.391  38.766  98.492  1.00  0.00     0.000 C 
BRANCH   4   5
ATOM      5  C   UNL     1      -5.701  38.224  97.895  1.00  0.00     0.000 C 
BRANCH   5   6
ATOM      6  C   UNL     1      -6.232  39.099  96.746  1.00  0.00     0.000 C 
BRANCH   6   7
ATOM      7  C   UNL     1      -5.203  40.077  96.144  1.00  0.00     0.000 C 
BRANCH   7   8
ATOM      8  C   UNL     1      -5.711  41.518  95.933  1.00  0.00     0.000 C 
BRANCH   8   9
ATOM      9  C   UNL     1      -4.646  42.616  96.107  1.00  0.00     0.000 C 
BRANCH   9  10
ATOM     10  C   UNL     1      -5.244  43.958  96.560  1.00  0.00     0.000 C 
BRANCH  10  11
ATOM     11  C   UNL     1      -4.209  45.088  96.441  1.00  0.00     0.000 C 
BRANCH  11  12
ATOM     12  C   UNL     1      -2.766  44.609  96.677  1.00  0.00     0.000 C 
BRANCH  12  13
ATOM     13  C   UNL     1      -1.793  44.848  95.506  1.00  0.00     0.006 C 
BRANCH  13  14
ATOM     14  C   UNL     1      -1.353  43.564  94.781  1.00  0.00     0.053 C 
BRANCH  14  15
ATOM     15  C   UNL     1      -1.910  43.463  93.393  1.00  0.00     0.041 C 
ATOM     16  O   UNL     1      -1.174  43.103  92.436  1.00  0.00    -0.550 OA
ATOM     17  O   UNL     1      -3.235  43.807  93.146  1.00  0.00    -0.550 OA
ENDBRANCH  14  15
ENDBRANCH  13  14
ENDBRANCH  12  13
ENDBRANCH  11  12
ENDBRANCH  10  11
ENDBRANCH   9  10
ENDBRANCH   8   9
ENDBRANCH   7   8
ENDBRANCH   6   7
ENDBRANCH   5   6
ENDBRANCH   4   5
ENDBRANCH   3   4
ENDBRANCH   2   3
ENDBRANCH   1   2
BRANCH   1  18
ATOM     18  C   UNL     1      -4.338  34.331  98.654  1.00  0.00     0.000 C 
BRANCH  18  19
ATOM     19  C   UNL     1      -5.541  35.046  99.297  1.00  0.00     0.000 C 
BRANCH  19  20
ATOM     20  C   UNL     1      -5.455  35.252 100.824  1.00  0.00     0.000 C 
BRANCH  20  21
ATOM     21  C   UNL     1      -4.892  36.613 101.272  1.00  0.00     0.000 C 
BRANCH  21  22
ATOM     22  C   UNL     1      -3.394  36.558 101.616  1.00  0.00     0.000 C 
BRANCH  22  23
ATOM     23  C   UNL     1      -2.953  37.720 102.520  1.00  0.00     0.000 C 
BRANCH  23  24
ATOM     24  C   UNL     1      -2.616  38.997 101.739  1.00  0.00    -0.000 C 
BRANCH  24  25
ATOM     25  C   UNL     1      -1.366  39.677 102.314  1.00  0.00    -0.000 C 
BRANCH  25  26
ATOM     26  C   UNL     1      -1.686  40.987 103.051  1.00  0.00    -0.000 C 
BRANCH  26  27
ATOM     27  C   UNL     1      -3.190  41.298 103.084  1.00  0.00    -0.000 C 
BRANCH  27  28
ATOM     28  C   UNL     1      -3.534  42.446 102.127  1.00  0.00    -0.000 C 
BRANCH  28  29
ATOM     29  C   UNL     1      -4.554  43.406 102.759  1.00  0.00    -0.000 C 
BRANCH  29  30
ATOM     30  C   UNL     1      -4.994  44.519 101.797  1.00  0.00    -0.000 C 
BRANCH  30  31
ATOM     31  C   UNL     1      -4.364  44.386 100.403  1.00  0.00    -0.003 C 
ATOM     32  C   UNL     1      -3.382  45.524 100.133  1.00  0.00     0.004 C 
ENDBRANCH  30  31
ENDBRANCH  29  30
ENDBRANCH  28  29
ENDBRANCH  27  28
ENDBRANCH  26  27
ENDBRANCH  25  26
ENDBRANCH  24  25
ENDBRANCH  23  24
ENDBRANCH  22  23
ENDBRANCH  21  22
ENDBRANCH  20  21
ENDBRANCH  19  20
ENDBRANCH  18  19
ENDBRANCH   1  18
TORSDOF 28
ENDMDL
MODEL 8
REMARK VINA RESULT:    -6.023      1.861      7.819
REMARK INTER + INTRA:         -19.232
REMARK INTER:                 -16.017
REMARK INTRA:                  -3.215
REMARK UNBOUND:                -3.349
REMARK SMILES CCCCCCCCCCCCCCCCCCCCCCCCCCCCCC(=O)[O-]
REMARK SMILES IDX 16 1 17 2 18 3 19 4 20 5 21 6 22 7 23 8 24 9 25 10 26 11
REMARK SMILES IDX 27 12 28 13 29 14 30 15 31 16 32 17 15 18 14 19 13 20 12 21
REMARK SMILES IDX 11 22 10 23 9 24 8 25 7 26 6 27 5 28 4 29 3 30 2 31 1 32
REMARK H PARENT
REMARK Flexibility Score: inf
ROOT
ATOM      1  C   UNL     1      -4.375  43.223 104.378  1.00  0.00     0.000 C 
ENDROOT
BRANCH   1   2
ATOM      2  C   UNL     1      -5.834  43.103 104.862  1.00  0.00     0.000 C 
BRANCH   2   3
ATOM      3  C   UNL     1      -6.828  43.921 104.015  1.00  0.00     0.000 C 
BRANCH   3   4
ATOM      4  C   UNL     1      -6.757  45.429 104.305  1.00  0.00     0.000 C 
BRANCH   4   5
ATOM      5  C   UNL     1      -7.367  46.285 103.183  1.00  0.00     0.000 C 
BRANCH   5   6
ATOM      6  C   UNL     1      -8.071  45.436 102.109  1.00  0.00     0.000 C 
BRANCH   6   7
ATOM      7  C   UNL     1      -7.514  45.601 100.681  1.00  0.00     0.000 C 
BRANCH   7   8
ATOM      8  C   UNL     1      -6.246  44.781 100.371  1.00  0.00     0.000 C 
BRANCH   8   9
ATOM      9  C   UNL     1      -4.961  45.610 100.188  1.00  0.00     0.000 C 
BRANCH   9  10
ATOM     10  C   UNL     1      -3.861  44.845  99.436  1.00  0.00     0.000 C 
BRANCH  10  11
ATOM     11  C   UNL     1      -4.212  44.703  97.946  1.00  0.00     0.000 C 
BRANCH  11  12
ATOM     12  C   UNL     1      -4.713  43.295  97.579  1.00  0.00     0.000 C 
BRANCH  12  13
ATOM     13  C   UNL     1      -4.333  42.807  96.167  1.00  0.00     0.006 C 
BRANCH  13  14
ATOM     14  C   UNL     1      -5.521  42.277  95.345  1.00  0.00     0.053 C 
BRANCH  14  15
ATOM     15  C   UNL     1      -6.414  43.372  94.844  1.00  0.00     0.041 C 
ATOM     16  O   UNL     1      -7.556  43.542  95.347  1.00  0.00    -0.550 OA
ATOM     17  O   UNL     1      -6.002  44.180  93.789  1.00  0.00    -0.550 OA
ENDBRANCH  14  15
ENDBRANCH  13  14
ENDBRANCH  12  13
ENDBRANCH  11  12
ENDBRANCH  10  11
ENDBRANCH   9  10
ENDBRANCH   8   9
ENDBRANCH   7   8
ENDBRANCH   6   7
ENDBRANCH   5   6
ENDBRANCH   4   5
ENDBRANCH   3   4
ENDBRANCH   2   3
ENDBRANCH   1   2
BRANCH   1  18
ATOM     18  C   UNL     1      -4.200  43.127 102.848  1.00  0.00     0.000 C 
BRANCH  18  19
ATOM     19  C   UNL     1      -3.319  41.967 102.349  1.00  0.00     0.000 C 
BRANCH  19  20
ATOM     20  C   UNL     1      -2.890  40.947 103.426  1.00  0.00     0.000 C 
BRANCH  20  21
ATOM     21  C   UNL     1      -2.887  39.476 102.971  1.00  0.00     0.000 C 
BRANCH  21  22
ATOM     22  C   UNL     1      -2.188  39.270 101.617  1.00  0.00     0.000 C 
BRANCH  22  23
ATOM     23  C   UNL     1      -3.165  38.850 100.506  1.00  0.00     0.000 C 
BRANCH  23  24
ATOM     24  C   UNL     1      -3.764  37.454 100.728  1.00  0.00    -0.000 C 
BRANCH  24  25
ATOM     25  C   UNL     1      -2.658  36.416 100.967  1.00  0.00    -0.000 C 
BRANCH  25  26
ATOM     26  C   UNL     1      -3.082  34.993 100.572  1.00  0.00    -0.000 C 
BRANCH  26  27
ATOM     27  C   UNL     1      -3.146  34.793  99.050  1.00  0.00    -0.000 C 
BRANCH  27  28
ATOM     28  C   UNL     1      -4.552  34.361  98.613  1.00  0.00    -0.000 C 
BRANCH  28  29
ATOM     29  C   UNL     1      -5.312  35.529  97.965  1.00  0.00    -0.000 C 
BRANCH  29  30
ATOM     30  C   UNL     1      -4.393  36.460  97.160  1.00  0.00    -0.000 C 
BRANCH  30  31
ATOM     31  C   UNL     1      -5.171  37.464  96.298  1.00  0.00    -0.003 C 
ATOM     32  C   UNL     1      -5.453  38.750  97.072  1.00  0.00     0.004 C 
ENDBRANCH  30  31
ENDBRANCH  29  30
ENDBRANCH  28  29
ENDBRANCH  27  28
ENDBRANCH  26  27
ENDBRANCH  25  26
ENDBRANCH  24  25
ENDBRANCH  23  24
ENDBRANCH  22  23
ENDBRANCH  21  22
ENDBRANCH  20  21
ENDBRANCH  19  20
ENDBRANCH  18  19
ENDBRANCH   1  18
TORSDOF 28
ENDMDL
MODEL 9
REMARK VINA RESULT:    -6.004      4.144     10.129
REMARK INTER + INTRA:         -19.180
REMARK INTER:                 -16.133
REMARK INTRA:                  -3.047
REMARK UNBOUND:                -3.349
REMARK SMILES CCCCCCCCCCCCCCCCCCCCCCCCCCCCCC(=O)[O-]
REMARK SMILES IDX 16 1 17 2 18 3 19 4 20 5 21 6 22 7 23 8 24 9 25 10 26 11
REMARK SMILES IDX 27 12 28 13 29 14 30 15 31 16 32 17 15 18 14 19 13 20 12 21
REMARK SMILES IDX 11 22 10 23 9 24 8 25 7 26 6 27 5 28 4 29 3 30 2 31 1 32
REMARK H PARENT
REMARK Flexibility Score: inf
ROOT
ATOM      1  C   UNL     1      -4.343  44.053 104.829  1.00  0.00     0.000 C 
ENDROOT
BRANCH   1   2
ATOM      2  C   UNL     1      -5.519  43.060 104.933  1.00  0.00     0.000 C 
BRANCH   2   3
ATOM      3  C   UNL     1      -6.756  43.492 104.122  1.00  0.00     0.000 C 
BRANCH   3   4
ATOM      4  C   UNL     1      -6.587  44.874 103.470  1.00  0.00     0.000 C 
BRANCH   4   5
ATOM      5  C   UNL     1      -6.506  44.808 101.936  1.00  0.00     0.000 C 
BRANCH   5   6
ATOM      6  C   UNL     1      -7.894  44.830 101.270  1.00  0.00     0.000 C 
BRANCH   6   7
ATOM      7  C   UNL     1      -8.656  46.165 101.398  1.00  0.00     0.000 C 
BRANCH   7   8
ATOM      8  C   UNL     1     -10.085  46.053 101.966  1.00  0.00     0.000 C 
BRANCH   8   9
ATOM      9  C   UNL     1     -10.172  45.978 103.502  1.00  0.00     0.000 C 
BRANCH   9  10
ATOM     10  C   UNL     1      -9.553  47.203 104.193  1.00  0.00     0.000 C 
BRANCH  10  11
ATOM     11  C   UNL     1     -10.642  48.093 104.814  1.00  0.00     0.000 C 
BRANCH  11  12
ATOM     12  C   UNL     1     -12.054  47.491 104.685  1.00  0.00     0.000 C 
BRANCH  12  13
ATOM     13  C   UNL     1     -12.755  47.166 106.019  1.00  0.00     0.006 C 
BRANCH  13  14
ATOM     14  C   UNL     1     -11.930  46.271 106.961  1.00  0.00     0.053 C 
BRANCH  14  15
ATOM     15  C   UNL     1     -12.428  44.857 107.000  1.00  0.00     0.041 C 
ATOM     16  O   UNL     1     -13.367  44.534 107.774  1.00  0.00    -0.550 OA
ATOM     17  O   UNL     1     -11.826  43.883 106.210  1.00  0.00    -0.550 OA
ENDBRANCH  14  15
ENDBRANCH  13  14
ENDBRANCH  12  13
ENDBRANCH  11  12
ENDBRANCH  10  11
ENDBRANCH   9  10
ENDBRANCH   8   9
ENDBRANCH   7   8
ENDBRANCH   6   7
ENDBRANCH   5   6
ENDBRANCH   4   5
ENDBRANCH   3   4
ENDBRANCH   2   3
ENDBRANCH   1   2
BRANCH   1  18
ATOM     18  C   UNL     1      -3.093  43.490 104.122  1.00  0.00     0.000 C 
BRANCH  18  19
ATOM     19  C   UNL     1      -3.261  43.172 102.625  1.00  0.00     0.000 C 
BRANCH  19  20
ATOM     20  C   UNL     1      -3.294  41.671 102.264  1.00  0.00     0.000 C 
BRANCH  20  21
ATOM     21  C   UNL     1      -2.097  40.847 102.773  1.00  0.00     0.000 C 
BRANCH  21  22
ATOM     22  C   UNL     1      -2.119  39.391 102.278  1.00  0.00     0.000 C 
BRANCH  22  23
ATOM     23  C   UNL     1      -2.897  38.458 103.220  1.00  0.00     0.000 C 
BRANCH  23  24
ATOM     24  C   UNL     1      -3.381  37.175 102.531  1.00  0.00    -0.000 C 
BRANCH  24  25
ATOM     25  C   UNL     1      -2.599  36.921 101.234  1.00  0.00    -0.000 C 
BRANCH  25  26
ATOM     26  C   UNL     1      -2.734  35.476 100.731  1.00  0.00    -0.000 C 
BRANCH  26  27
ATOM     27  C   UNL     1      -2.897  35.391  99.205  1.00  0.00    -0.000 C 
BRANCH  27  28
ATOM     28  C   UNL     1      -4.214  34.700  98.833  1.00  0.00    -0.000 C 
BRANCH  28  29
ATOM     29  C   UNL     1      -5.063  35.588  97.910  1.00  0.00    -0.000 C 
BRANCH  29  30
ATOM     30  C   UNL     1      -4.243  36.703  97.242  1.00  0.00    -0.000 C 
BRANCH  30  31
ATOM     31  C   UNL     1      -4.864  38.094  97.431  1.00  0.00    -0.003 C 
ATOM     32  C   UNL     1      -4.284  38.793  98.658  1.00  0.00     0.004 C 
ENDBRANCH  30  31
ENDBRANCH  29  30
ENDBRANCH  28  29
ENDBRANCH  27  28
ENDBRANCH  26  27
ENDBRANCH  25  26
ENDBRANCH  24  25
ENDBRANCH  23  24
ENDBRANCH  22  23
ENDBRANCH  21  22
ENDBRANCH  20  21
ENDBRANCH  19  20
ENDBRANCH  18  19
ENDBRANCH   1  18
TORSDOF 28
ENDMDL
