MODEL 1
REMARK VINA RESULT:    16.903      0.000      0.000
REMARK INTER + INTRA:          31.725
REMARK INTER:                  32.713
REMARK INTRA:                  -0.988
REMARK UNBOUND:                -0.988
REMARK SMILES CCCCCCCCCCCCCCCCCC(=O)[O-]
REMARK SMILES IDX 10 1 11 2 12 3 13 4 14 5 15 6 16 7 17 8 18 9 19 10 20 11
REMARK SMILES IDX 9 12 8 13 7 14 6 15 5 16 4 17 3 18 2 19 1 20
REMARK H PARENT
REMARK Flexibility Score: inf
ROOT
ATOM      1  C   UNL     1     -15.479 -12.117 -22.500  1.00  0.00     0.000 C 
ENDROOT
BRANCH   1   2
ATOM      2  C   UNL     1     -16.139 -13.501 -22.517  1.00  0.00     0.000 C 
BRANCH   2   3
ATOM      3  C   UNL     1     -16.993 -13.687 -23.780  1.00  0.00     0.000 C 
BRANCH   3   4
ATOM      4  C   UNL     1     -18.442 -13.212 -23.589  1.00  0.00     0.000 C 
BRANCH   4   5
ATOM      5  C   UNL     1     -19.112 -12.807 -24.913  1.00  0.00     0.000 C 
BRANCH   5   6
ATOM      6  C   UNL     1     -20.650 -12.933 -24.851  1.00  0.00     0.000 C 
BRANCH   6   7
ATOM      7  C   UNL     1     -21.142 -14.386 -24.707  1.00  0.00     0.006 C 
BRANCH   7   8
ATOM      8  C   UNL     1     -22.496 -14.520 -23.994  1.00  0.00     0.053 C 
BRANCH   8   9
ATOM      9  C   UNL     1     -22.339 -14.604 -22.506  1.00  0.00     0.041 C 
ATOM     10  O   UNL     1     -22.626 -15.669 -21.899  1.00  0.00    -0.550 OA
ATOM     11  O   UNL     1     -21.855 -13.516 -21.791  1.00  0.00    -0.550 OA
ENDBRANCH   8   9
ENDBRANCH   7   8
ENDBRANCH   6   7
ENDBRANCH   5   6
ENDBRANCH   4   5
ENDBRANCH   3   4
ENDBRANCH   2   3
ENDBRANCH   1   2
BRANCH   1  12
ATOM     12  C   UNL     1     -14.547 -11.937 -23.709  1.00  0.00     0.000 C 
BRANCH  12  13
ATOM     13  C   UNL     1     -13.629 -10.712 -23.570  1.00  0.00    -0.000 C 
BRANCH  13  14
ATOM     14  C   UNL     1     -14.413  -9.390 -23.490  1.00  0.00    -0.000 C 
BRANCH  14  15
ATOM     15  C   UNL     1     -13.711  -8.341 -22.613  1.00  0.00    -0.000 C 
BRANCH  15  16
ATOM     16  C   UNL     1     -12.343  -8.824 -22.099  1.00  0.00    -0.000 C 
BRANCH  16  17
ATOM     17  C   UNL     1     -12.297  -8.939 -20.566  1.00  0.00    -0.000 C 
BRANCH  17  18
ATOM     18  C   UNL     1     -12.908  -7.719 -19.863  1.00  0.00    -0.000 C 
BRANCH  18  19
ATOM     19  C   UNL     1     -13.083  -7.981 -18.363  1.00  0.00    -0.003 C 
ATOM     20  C   UNL     1     -12.708  -9.416 -18.005  1.00  0.00     0.004 C 
ENDBRANCH  18  19
ENDBRANCH  17  18
ENDBRANCH  16  17
ENDBRANCH  15  16
ENDBRANCH  14  15
ENDBRANCH  13  14
ENDBRANCH  12  13
ENDBRANCH   1  12
TORSDOF 16
ENDMDL
MODEL 2
REMARK VINA RESULT:    17.718      3.629      8.983
REMARK INTER + INTRA:          33.303
REMARK INTER:                  34.392
REMARK INTRA:                  -1.088
REMARK UNBOUND:                -0.988
REMARK SMILES CCCCCCCCCCCCCCCCCC(=O)[O-]
REMARK SMILES IDX 10 1 11 2 12 3 13 4 14 5 15 6 16 7 17 8 18 9 19 10 20 11
REMARK SMILES IDX 9 12 8 13 7 14 6 15 5 16 4 17 3 18 2 19 1 20
REMARK H PARENT
REMARK Flexibility Score: inf
ROOT
ATOM      1  C   UNL     1     -15.476 -12.116 -22.375  1.00  0.00     0.000 C 
ENDROOT
BRANCH   1   2
ATOM      2  C   UNL     1     -14.301 -12.183 -23.359  1.00  0.00     0.000 C 
BRANCH   2   3
ATOM      3  C   UNL     1     -13.721 -10.785 -23.619  1.00  0.00     0.000 C 
BRANCH   3   4
ATOM      4  C   UNL     1     -14.743  -9.665 -23.370  1.00  0.00     0.000 C 
BRANCH   4   5
ATOM      5  C   UNL     1     -14.081  -8.292 -23.163  1.00  0.00     0.000 C 
BRANCH   5   6
ATOM      6  C   UNL     1     -12.891  -8.360 -22.181  1.00  0.00     0.000 C 
BRANCH   6   7
ATOM      7  C   UNL     1     -13.242  -7.889 -20.756  1.00  0.00     0.006 C 
BRANCH   7   8
ATOM      8  C   UNL     1     -12.161  -8.201 -19.711  1.00  0.00     0.053 C 
BRANCH   8   9
ATOM      9  C   UNL     1     -12.755  -8.629 -18.403  1.00  0.00     0.041 C 
ATOM     10  O   UNL     1     -13.277  -7.776 -17.637  1.00  0.00    -0.550 OA
ATOM     11  O   UNL     1     -12.752  -9.969 -18.038  1.00  0.00    -0.550 OA
ENDBRANCH   8   9
ENDBRANCH   7   8
ENDBRANCH   6   7
ENDBRANCH   5   6
ENDBRANCH   4   5
ENDBRANCH   3   4
ENDBRANCH   2   3
ENDBRANCH   1   2
BRANCH   1  12
ATOM     12  C   UNL     1     -16.407 -13.326 -22.548  1.00  0.00     0.000 C 
BRANCH  12  13
ATOM     13  C   UNL     1     -16.244 -14.008 -23.915  1.00  0.00    -0.000 C 
BRANCH  13  14
ATOM     14  C   UNL     1     -17.543 -13.998 -24.741  1.00  0.00    -0.000 C 
BRANCH  14  15
ATOM     15  C   UNL     1     -18.554 -12.957 -24.236  1.00  0.00    -0.000 C 
BRANCH  15  16
ATOM     16  C   UNL     1     -19.897 -13.028 -24.984  1.00  0.00    -0.000 C 
BRANCH  16  17
ATOM     17  C   UNL     1     -21.102 -13.071 -24.030  1.00  0.00    -0.000 C 
BRANCH  17  18
ATOM     18  C   UNL     1     -22.002 -14.292 -24.268  1.00  0.00    -0.000 C 
BRANCH  18  19
ATOM     19  C   UNL     1     -22.444 -14.916 -22.940  1.00  0.00    -0.003 C 
ATOM     20  C   UNL     1     -22.026 -14.048 -21.756  1.00  0.00     0.004 C 
ENDBRANCH  18  19
ENDBRANCH  17  18
ENDBRANCH  16  17
ENDBRANCH  15  16
ENDBRANCH  14  15
ENDBRANCH  13  14
ENDBRANCH  12  13
ENDBRANCH   1  12
TORSDOF 16
ENDMDL
MODEL 3
REMARK VINA RESULT:    18.280      2.233      3.224
REMARK INTER + INTRA:          34.391
REMARK INTER:                  34.896
REMARK INTRA:                  -0.505
REMARK UNBOUND:                -0.988
REMARK SMILES CCCCCCCCCCCCCCCCCC(=O)[O-]
REMARK SMILES IDX 10 1 11 2 12 3 13 4 14 5 15 6 16 7 17 8 18 9 19 10 20 11
REMARK SMILES IDX 9 12 8 13 7 14 6 15 5 16 4 17 3 18 2 19 1 20
REMARK H PARENT
REMARK Flexibility Score: inf
ROOT
ATOM      1  C   UNL     1     -15.194 -12.556 -22.451  1.00  0.00     0.000 C 
ENDROOT
BRANCH   1   2
ATOM      2  C   UNL     1     -16.487 -13.376 -22.383  1.00  0.00     0.000 C 
BRANCH   2   3
ATOM      3  C   UNL     1     -17.076 -13.591 -23.786  1.00  0.00     0.000 C 
BRANCH   3   4
ATOM      4  C   UNL     1     -18.602 -13.776 -23.764  1.00  0.00     0.000 C 
BRANCH   4   5
ATOM      5  C   UNL     1     -19.312 -12.971 -24.866  1.00  0.00     0.000 C 
BRANCH   5   6
ATOM      6  C   UNL     1     -20.842 -12.929 -24.664  1.00  0.00     0.000 C 
BRANCH   6   7
ATOM      7  C   UNL     1     -21.524 -14.298 -24.849  1.00  0.00     0.006 C 
BRANCH   7   8
ATOM      8  C   UNL     1     -22.701 -14.544 -23.893  1.00  0.00     0.053 C 
BRANCH   8   9
ATOM      9  C   UNL     1     -22.275 -14.500 -22.457  1.00  0.00     0.041 C 
ATOM     10  O   UNL     1     -21.873 -13.420 -21.950  1.00  0.00    -0.550 OA
ATOM     11  O   UNL     1     -22.342 -15.644 -21.672  1.00  0.00    -0.550 OA
ENDBRANCH   8   9
ENDBRANCH   7   8
ENDBRANCH   6   7
ENDBRANCH   5   6
ENDBRANCH   4   5
ENDBRANCH   3   4
ENDBRANCH   2   3
ENDBRANCH   1   2
BRANCH   1  12
ATOM     12  C   UNL     1     -14.630 -12.535 -23.881  1.00  0.00     0.000 C 
BRANCH  12  13
ATOM     13  C   UNL     1     -13.698 -11.339 -24.131  1.00  0.00    -0.000 C 
BRANCH  13  14
ATOM     14  C   UNL     1     -14.069 -10.110 -23.281  1.00  0.00    -0.000 C 
BRANCH  14  15
ATOM     15  C   UNL     1     -13.774  -8.785 -24.001  1.00  0.00    -0.000 C 
BRANCH  15  16
ATOM     16  C   UNL     1     -14.727  -7.656 -23.570  1.00  0.00    -0.000 C 
BRANCH  16  17
ATOM     17  C   UNL     1     -15.557  -7.105 -24.742  1.00  0.00    -0.000 C 
BRANCH  17  18
ATOM     18  C   UNL     1     -15.162  -5.672 -25.124  1.00  0.00    -0.000 C 
BRANCH  18  19
ATOM     19  C   UNL     1     -13.639  -5.497 -25.101  1.00  0.00    -0.003 C 
ATOM     20  C   UNL     1     -13.223  -4.400 -24.126  1.00  0.00     0.004 C 
ENDBRANCH  18  19
ENDBRANCH  17  18
ENDBRANCH  16  17
ENDBRANCH  15  16
ENDBRANCH  14  15
ENDBRANCH  13  14
ENDBRANCH  12  13
ENDBRANCH   1  12
TORSDOF 16
ENDMDL
MODEL 4
REMARK VINA RESULT:    18.358      0.966      2.215
REMARK INTER + INTRA:          34.542
REMARK INTER:                  35.536
REMARK INTRA:                  -0.995
REMARK UNBOUND:                -0.988
REMARK SMILES CCCCCCCCCCCCCCCCCC(=O)[O-]
REMARK SMILES IDX 10 1 11 2 12 3 13 4 14 5 15 6 16 7 17 8 18 9 19 10 20 11
REMARK SMILES IDX 9 12 8 13 7 14 6 15 5 16 4 17 3 18 2 19 1 20
REMARK H PARENT
REMARK Flexibility Score: inf
ROOT
ATOM      1  C   UNL     1     -13.982 -10.749 -24.091  1.00  0.00     0.000 C 
ENDROOT
BRANCH   1   2
ATOM      2  C   UNL     1     -14.100 -12.215 -23.656  1.00  0.00     0.000 C 
BRANCH   2   3
ATOM      3  C   UNL     1     -15.326 -12.424 -22.755  1.00  0.00     0.000 C 
BRANCH   3   4
ATOM      4  C   UNL     1     -16.175 -13.632 -23.183  1.00  0.00     0.000 C 
BRANCH   4   5
ATOM      5  C   UNL     1     -17.685 -13.354 -23.098  1.00  0.00     0.000 C 
BRANCH   5   6
ATOM      6  C   UNL     1     -18.362 -13.376 -24.486  1.00  0.00     0.000 C 
BRANCH   6   7
ATOM      7  C   UNL     1     -19.707 -12.626 -24.526  1.00  0.00     0.006 C 
BRANCH   7   8
ATOM      8  C   UNL     1     -20.885 -13.481 -25.016  1.00  0.00     0.053 C 
BRANCH   8   9
ATOM      9  C   UNL     1     -21.722 -13.986 -23.880  1.00  0.00     0.041 C 
ATOM     10  O   UNL     1     -21.747 -13.360 -22.787  1.00  0.00    -0.550 OA
ATOM     11  O   UNL     1     -22.490 -15.133 -24.033  1.00  0.00    -0.550 OA
ENDBRANCH   8   9
ENDBRANCH   7   8
ENDBRANCH   6   7
ENDBRANCH   5   6
ENDBRANCH   4   5
ENDBRANCH   3   4
ENDBRANCH   2   3
ENDBRANCH   1   2
BRANCH   1  12
ATOM     12  C   UNL     1     -14.787  -9.832 -23.157  1.00  0.00     0.000 C 
BRANCH  12  13
ATOM     13  C   UNL     1     -14.486  -8.343 -23.387  1.00  0.00    -0.000 C 
BRANCH  13  14
ATOM     14  C   UNL     1     -13.614  -7.736 -22.273  1.00  0.00    -0.000 C 
BRANCH  14  15
ATOM     15  C   UNL     1     -12.279  -8.476 -22.100  1.00  0.00    -0.000 C 
BRANCH  15  16
ATOM     16  C   UNL     1     -12.041  -8.929 -20.648  1.00  0.00    -0.000 C 
BRANCH  16  17
ATOM     17  C   UNL     1     -12.593  -7.928 -19.620  1.00  0.00    -0.000 C 
BRANCH  17  18
ATOM     18  C   UNL     1     -12.397  -8.398 -18.172  1.00  0.00    -0.000 C 
BRANCH  18  19
ATOM     19  C   UNL     1     -13.685  -9.015 -17.616  1.00  0.00    -0.003 C 
ATOM     20  C   UNL     1     -14.837  -8.016 -17.652  1.00  0.00     0.004 C 
ENDBRANCH  18  19
ENDBRANCH  17  18
ENDBRANCH  16  17
ENDBRANCH  15  16
ENDBRANCH  14  15
ENDBRANCH  13  14
ENDBRANCH  12  13
ENDBRANCH   1  12
TORSDOF 16
ENDMDL
MODEL 5
REMARK VINA RESULT:    18.726      4.294      6.872
REMARK INTER + INTRA:          35.254
REMARK INTER:                  34.796
REMARK INTRA:                   0.459
REMARK UNBOUND:                -0.988
REMARK SMILES CCCCCCCCCCCCCCCCCC(=O)[O-]
REMARK SMILES IDX 10 1 11 2 12 3 13 4 14 5 15 6 16 7 17 8 18 9 19 10 20 11
REMARK SMILES IDX 9 12 8 13 7 14 6 15 5 16 4 17 3 18 2 19 1 20
REMARK H PARENT
REMARK Flexibility Score: inf
ROOT
ATOM      1  C   UNL     1     -16.489 -13.511 -21.579  1.00  0.00     0.000 C 
ENDROOT
BRANCH   1   2
ATOM      2  C   UNL     1     -15.880 -13.617 -22.982  1.00  0.00     0.000 C 
BRANCH   2   3
ATOM      3  C   UNL     1     -16.978 -13.701 -24.053  1.00  0.00     0.000 C 
BRANCH   3   4
ATOM      4  C   UNL     1     -18.283 -13.017 -23.616  1.00  0.00     0.000 C 
BRANCH   4   5
ATOM      5  C   UNL     1     -19.344 -12.998 -24.729  1.00  0.00     0.000 C 
BRANCH   5   6
ATOM      6  C   UNL     1     -20.782 -12.950 -24.166  1.00  0.00     0.000 C 
BRANCH   6   7
ATOM      7  C   UNL     1     -21.754 -13.906 -24.883  1.00  0.00     0.006 C 
BRANCH   7   8
ATOM      8  C   UNL     1     -22.258 -15.060 -24.003  1.00  0.00     0.053 C 
BRANCH   8   9
ATOM      9  C   UNL     1     -22.303 -14.680 -22.554  1.00  0.00     0.041 C 
ATOM     10  O   UNL     1     -22.781 -15.480 -21.706  1.00  0.00    -0.550 OA
ATOM     11  O   UNL     1     -21.799 -13.456 -22.135  1.00  0.00    -0.550 OA
ENDBRANCH   8   9
ENDBRANCH   7   8
ENDBRANCH   6   7
ENDBRANCH   5   6
ENDBRANCH   4   5
ENDBRANCH   3   4
ENDBRANCH   2   3
ENDBRANCH   1   2
BRANCH   1  12
ATOM     12  C   UNL     1     -16.115 -14.732 -20.724  1.00  0.00     0.000 C 
BRANCH  12  13
ATOM     13  C   UNL     1     -17.272 -15.207 -19.832  1.00  0.00    -0.000 C 
BRANCH  13  14
ATOM     14  C   UNL     1     -16.789 -16.003 -18.606  1.00  0.00    -0.000 C 
BRANCH  14  15
ATOM     15  C   UNL     1     -17.266 -15.389 -17.281  1.00  0.00    -0.000 C 
BRANCH  15  16
ATOM     16  C   UNL     1     -17.035 -16.326 -16.081  1.00  0.00    -0.000 C 
BRANCH  16  17
ATOM     17  C   UNL     1     -18.345 -16.717 -15.378  1.00  0.00    -0.000 C 
BRANCH  17  18
ATOM     18  C   UNL     1     -19.311 -17.469 -16.304  1.00  0.00    -0.000 C 
BRANCH  18  19
ATOM     19  C   UNL     1     -20.756 -17.348 -15.805  1.00  0.00    -0.003 C 
ATOM     20  C   UNL     1     -21.328 -18.712 -15.430  1.00  0.00     0.004 C 
ENDBRANCH  18  19
ENDBRANCH  17  18
ENDBRANCH  16  17
ENDBRANCH  15  16
ENDBRANCH  14  15
ENDBRANCH  13  14
ENDBRANCH  12  13
ENDBRANCH   1  12
TORSDOF 16
ENDMDL
MODEL 6
REMARK VINA RESULT:    18.901      3.831      4.796
REMARK INTER + INTRA:          35.592
REMARK INTER:                  36.350
REMARK INTRA:                  -0.758
REMARK UNBOUND:                -0.988
REMARK SMILES CCCCCCCCCCCCCCCCCC(=O)[O-]
REMARK SMILES IDX 10 1 11 2 12 3 13 4 14 5 15 6 16 7 17 8 18 9 19 10 20 11
REMARK SMILES IDX 9 12 8 13 7 14 6 15 5 16 4 17 3 18 2 19 1 20
REMARK H PARENT
REMARK Flexibility Score: inf
ROOT
ATOM      1  C   UNL     1     -14.677 -12.272 -22.924  1.00  0.00     0.000 C 
ENDROOT
BRANCH   1   2
ATOM      2  C   UNL     1     -15.779 -13.233 -23.386  1.00  0.00     0.000 C 
BRANCH   2   3
ATOM      3  C   UNL     1     -16.679 -13.644 -22.211  1.00  0.00     0.000 C 
BRANCH   3   4
ATOM      4  C   UNL     1     -15.886 -13.888 -20.916  1.00  0.00     0.000 C 
BRANCH   4   5
ATOM      5  C   UNL     1     -16.185 -15.259 -20.287  1.00  0.00     0.000 C 
BRANCH   5   6
ATOM      6  C   UNL     1     -17.436 -15.227 -19.383  1.00  0.00     0.000 C 
BRANCH   6   7
ATOM      7  C   UNL     1     -17.406 -16.275 -18.254  1.00  0.00     0.006 C 
BRANCH   7   8
ATOM      8  C   UNL     1     -17.285 -15.675 -16.846  1.00  0.00     0.053 C 
BRANCH   8   9
ATOM      9  C   UNL     1     -17.688 -16.652 -15.784  1.00  0.00     0.041 C 
ATOM     10  O   UNL     1     -16.843 -17.053 -14.941  1.00  0.00    -0.550 OA
ATOM     11  O   UNL     1     -18.999 -17.104 -15.710  1.00  0.00    -0.550 OA
ENDBRANCH   8   9
ENDBRANCH   7   8
ENDBRANCH   6   7
ENDBRANCH   5   6
ENDBRANCH   4   5
ENDBRANCH   3   4
ENDBRANCH   2   3
ENDBRANCH   1   2
BRANCH   1  12
ATOM     12  C   UNL     1     -14.164 -11.420 -24.096  1.00  0.00     0.000 C 
BRANCH  12  13
ATOM     13  C   UNL     1     -13.689 -10.028 -23.651  1.00  0.00    -0.000 C 
BRANCH  13  14
ATOM     14  C   UNL     1     -14.800  -8.966 -23.738  1.00  0.00    -0.000 C 
BRANCH  14  15
ATOM     15  C   UNL     1     -14.503  -7.730 -22.875  1.00  0.00    -0.000 C 
BRANCH  15  16
ATOM     16  C   UNL     1     -13.120  -7.800 -22.204  1.00  0.00    -0.000 C 
BRANCH  16  17
ATOM     17  C   UNL     1     -13.166  -7.415 -20.716  1.00  0.00    -0.000 C 
BRANCH  17  18
ATOM     18  C   UNL     1     -12.267  -8.304 -19.846  1.00  0.00    -0.000 C 
BRANCH  18  19
ATOM     19  C   UNL     1     -12.596  -8.131 -18.359  1.00  0.00    -0.003 C 
ATOM     20  C   UNL     1     -13.053  -9.447 -17.737  1.00  0.00     0.004 C 
ENDBRANCH  18  19
ENDBRANCH  17  18
ENDBRANCH  16  17
ENDBRANCH  15  16
ENDBRANCH  14  15
ENDBRANCH  13  14
ENDBRANCH  12  13
ENDBRANCH   1  12
TORSDOF 16
ENDMDL
MODEL 7
REMARK VINA RESULT:    19.108      4.970      8.947
REMARK INTER + INTRA:          35.993
REMARK INTER:                  36.767
REMARK INTRA:                  -0.774
REMARK UNBOUND:                -0.988
REMARK SMILES CCCCCCCCCCCCCCCCCC(=O)[O-]
REMARK SMILES IDX 10 1 11 2 12 3 13 4 14 5 15 6 16 7 17 8 18 9 19 10 20 11
REMARK SMILES IDX 9 12 8 13 7 14 6 15 5 16 4 17 3 18 2 19 1 20
REMARK H PARENT
REMARK Flexibility Score: inf
ROOT
ATOM      1  C   UNL     1     -15.331 -12.159 -22.245  1.00  0.00     0.000 C 
ENDROOT
BRANCH   1   2
ATOM      2  C   UNL     1     -14.542 -11.965 -23.545  1.00  0.00     0.000 C 
BRANCH   2   3
ATOM      3  C   UNL     1     -13.758 -10.645 -23.520  1.00  0.00     0.000 C 
BRANCH   3   4
ATOM      4  C   UNL     1     -14.658  -9.419 -23.740  1.00  0.00     0.000 C 
BRANCH   4   5
ATOM      5  C   UNL     1     -14.110  -8.151 -23.062  1.00  0.00     0.000 C 
BRANCH   5   6
ATOM      6  C   UNL     1     -12.944  -8.462 -22.098  1.00  0.00     0.000 C 
BRANCH   6   7
ATOM      7  C   UNL     1     -13.067  -7.751 -20.737  1.00  0.00     0.006 C 
BRANCH   7   8
ATOM      8  C   UNL     1     -12.200  -8.368 -19.629  1.00  0.00     0.053 C 
BRANCH   8   9
ATOM      9  C   UNL     1     -12.995  -8.654 -18.391  1.00  0.00     0.041 C 
ATOM     10  O   UNL     1     -12.775  -9.701 -17.727  1.00  0.00    -0.550 OA
ATOM     11  O   UNL     1     -13.961  -7.756 -17.956  1.00  0.00    -0.550 OA
ENDBRANCH   8   9
ENDBRANCH   7   8
ENDBRANCH   6   7
ENDBRANCH   5   6
ENDBRANCH   4   5
ENDBRANCH   3   4
ENDBRANCH   2   3
ENDBRANCH   1   2
BRANCH   1  12
ATOM     12  C   UNL     1     -16.249 -13.389 -22.338  1.00  0.00     0.000 C 
BRANCH  12  13
ATOM     13  C   UNL     1     -15.881 -14.479 -21.319  1.00  0.00    -0.000 C 
BRANCH  13  14
ATOM     14  C   UNL     1     -16.993 -14.720 -20.282  1.00  0.00    -0.000 C 
BRANCH  14  15
ATOM     15  C   UNL     1     -16.507 -15.543 -19.078  1.00  0.00    -0.000 C 
BRANCH  15  16
ATOM     16  C   UNL     1     -17.664 -16.003 -18.174  1.00  0.00    -0.000 C 
BRANCH  16  17
ATOM     17  C   UNL     1     -17.383 -15.753 -16.683  1.00  0.00    -0.000 C 
BRANCH  17  18
ATOM     18  C   UNL     1     -18.076 -16.776 -15.771  1.00  0.00    -0.000 C 
BRANCH  18  19
ATOM     19  C   UNL     1     -19.128 -17.577 -16.545  1.00  0.00    -0.003 C 
ATOM     20  C   UNL     1     -20.442 -17.655 -15.774  1.00  0.00     0.004 C 
ENDBRANCH  18  19
ENDBRANCH  17  18
ENDBRANCH  16  17
ENDBRANCH  15  16
ENDBRANCH  14  15
ENDBRANCH  13  14
ENDBRANCH  12  13
ENDBRANCH   1  12
TORSDOF 16
ENDMDL
