MODEL 1
REMARK VINA RESULT:    -2.741      0.000      0.000
REMARK INTER + INTRA:          -2.981
REMARK INTER:                  -2.981
REMARK INTRA:                   0.000
REMARK UNBOUND:                 0.000
REMARK SMILES [NH3+]CC(=O)[O-]
REMARK SMILES IDX 2 1 1 2 3 6 4 7 5 8
REMARK H PARENT 1 3 1 4 1 5
REMARK Flexibility Score: inf
ROOT
ATOM      1  C   UNL     1     -45.418 444.871  -1.267  1.00  0.00     0.312 C 
ENDROOT
BRANCH   1   2
ATOM      2  N   UNL     1     -44.716 445.590  -0.206  1.00  0.00    -0.353 N 
ATOM      3  H   UNL     1     -43.806 445.119   0.005  1.00  0.00     0.344 HD
ATOM      4  H   UNL     1     -45.306 445.588   0.657  1.00  0.00     0.344 HD
ATOM      5  H   UNL     1     -44.543 446.580  -0.496  1.00  0.00     0.344 HD
ENDBRANCH   1   2
BRANCH   1   6
ATOM      6  C   UNL     1     -45.789 443.492  -0.815  1.00  0.00     0.096 C 
ATOM      7  O   UNL     1     -46.864 442.966  -1.204  1.00  0.00    -0.544 OA
ATOM      8  O   UNL     1     -44.971 442.809   0.078  1.00  0.00    -0.544 OA
ENDBRANCH   1   6
TORSDOF 2
ENDMDL
MODEL 2
REMARK VINA RESULT:    -2.722      0.086      1.450
REMARK INTER + INTRA:          -2.961
REMARK INTER:                  -2.961
REMARK INTRA:                   0.000
REMARK UNBOUND:                 0.000
REMARK SMILES [NH3+]CC(=O)[O-]
REMARK SMILES IDX 2 1 1 2 3 6 4 7 5 8
REMARK H PARENT 1 3 1 4 1 5
REMARK Flexibility Score: inf
ROOT
ATOM      1  C   UNL     1     -45.398 444.894  -1.237  1.00  0.00     0.312 C 
ENDROOT
BRANCH   1   2
ATOM      2  N   UNL     1     -44.691 445.598  -0.171  1.00  0.00    -0.353 N 
ATOM      3  H   UNL     1     -43.663 445.410  -0.237  1.00  0.00     0.344 HD
ATOM      4  H   UNL     1     -45.038 445.257   0.755  1.00  0.00     0.344 HD
ATOM      5  H   UNL     1     -44.867 446.627  -0.241  1.00  0.00     0.344 HD
ENDBRANCH   1   2
BRANCH   1   6
ATOM      6  C   UNL     1     -45.774 443.512  -0.799  1.00  0.00     0.096 C 
ATOM      7  O   UNL     1     -45.000 442.850  -0.059  1.00  0.00    -0.544 OA
ATOM      8  O   UNL     1     -46.955 442.936  -1.250  1.00  0.00    -0.544 OA
ENDBRANCH   1   6
TORSDOF 2
ENDMDL
MODEL 3
REMARK VINA RESULT:    -2.635      2.146      2.372
REMARK INTER + INTRA:          -2.866
REMARK INTER:                  -2.866
REMARK INTRA:                   0.000
REMARK UNBOUND:                 0.000
REMARK SMILES [NH3+]CC(=O)[O-]
REMARK SMILES IDX 2 1 1 2 3 6 4 7 5 8
REMARK H PARENT 1 3 1 4 1 5
REMARK Flexibility Score: inf
ROOT
ATOM      1  C   UNL     1     -46.181 443.810  -1.599  1.00  0.00     0.312 C 
ENDROOT
BRANCH   1   2
ATOM      2  N   UNL     1     -47.377 443.007  -1.356  1.00  0.00    -0.353 N 
ATOM      3  H   UNL     1     -48.181 443.628  -1.104  1.00  0.00     0.344 HD
ATOM      4  H   UNL     1     -47.194 442.351  -0.562  1.00  0.00     0.344 HD
ATOM      5  H   UNL     1     -47.615 442.450  -2.209  1.00  0.00     0.344 HD
ENDBRANCH   1   2
BRANCH   1   6
ATOM      6  C   UNL     1     -45.312 443.847  -0.379  1.00  0.00     0.096 C 
ATOM      7  O   UNL     1     -44.950 442.775   0.172  1.00  0.00    -0.544 OA
ATOM      8  O   UNL     1     -44.946 445.066   0.177  1.00  0.00    -0.544 OA
ENDBRANCH   1   6
TORSDOF 2
ENDMDL
MODEL 4
REMARK VINA RESULT:    -2.568      2.407      2.583
REMARK INTER + INTRA:          -2.793
REMARK INTER:                  -2.793
REMARK INTRA:                   0.000
REMARK UNBOUND:                 0.000
REMARK SMILES [NH3+]CC(=O)[O-]
REMARK SMILES IDX 2 1 1 2 3 6 4 7 5 8
REMARK H PARENT 1 3 1 4 1 5
REMARK Flexibility Score: inf
ROOT
ATOM      1  C   UNL     1     -46.044 443.165  -0.785  1.00  0.00     0.312 C 
ENDROOT
BRANCH   1   2
ATOM      2  N   UNL     1     -47.396 443.089  -1.334  1.00  0.00    -0.353 N 
ATOM      3  H   UNL     1     -47.626 442.099  -1.586  1.00  0.00     0.344 HD
ATOM      4  H   UNL     1     -47.449 443.678  -2.197  1.00  0.00     0.344 HD
ATOM      5  H   UNL     1     -48.088 443.447  -0.637  1.00  0.00     0.344 HD
ENDBRANCH   1   2
BRANCH   1   6
ATOM      6  C   UNL     1     -45.372 444.434  -1.209  1.00  0.00     0.096 C 
ATOM      7  O   UNL     1     -45.140 444.652  -2.426  1.00  0.00    -0.544 OA
ATOM      8  O   UNL     1     -44.956 445.353  -0.253  1.00  0.00    -0.544 OA
ENDBRANCH   1   6
TORSDOF 2
ENDMDL
MODEL 5
REMARK VINA RESULT:    -2.396     12.232     12.585
REMARK INTER + INTRA:          -2.606
REMARK INTER:                  -2.606
REMARK INTRA:                   0.000
REMARK UNBOUND:                 0.000
REMARK SMILES [NH3+]CC(=O)[O-]
REMARK SMILES IDX 2 1 1 2 3 6 4 7 5 8
REMARK H PARENT 1 3 1 4 1 5
REMARK Flexibility Score: inf
ROOT
ATOM      1  C   UNL     1     -53.571 447.982  -9.389  1.00  0.00     0.312 C 
ENDROOT
BRANCH   1   2
ATOM      2  N   UNL     1     -52.733 447.673  -8.233  1.00  0.00    -0.353 N 
ATOM      3  H   UNL     1     -52.532 446.647  -8.199  1.00  0.00     0.344 HD
ATOM      4  H   UNL     1     -53.240 447.947  -7.360  1.00  0.00     0.344 HD
ATOM      5  H   UNL     1     -51.836 448.208  -8.286  1.00  0.00     0.344 HD
ENDBRANCH   1   2
BRANCH   1   6
ATOM      6  C   UNL     1     -53.836 446.747 -10.194  1.00  0.00     0.096 C 
ATOM      7  O   UNL     1     -53.715 446.769 -11.447  1.00  0.00    -0.544 OA
ATOM      8  O   UNL     1     -54.266 445.585  -9.565  1.00  0.00    -0.544 OA
ENDBRANCH   1   6
TORSDOF 2
ENDMDL
MODEL 6
REMARK VINA RESULT:    -2.264     14.716     14.912
REMARK INTER + INTRA:          -2.462
REMARK INTER:                  -2.462
REMARK INTRA:                   0.000
REMARK UNBOUND:                 0.000
REMARK SMILES [NH3+]CC(=O)[O-]
REMARK SMILES IDX 2 1 1 2 3 6 4 7 5 8
REMARK H PARENT 1 3 1 4 1 5
REMARK Flexibility Score: inf
ROOT
ATOM      1  C   UNL     1     -51.040 453.285 -11.586  1.00  0.00     0.312 C 
ENDROOT
BRANCH   1   2
ATOM      2  N   UNL     1     -51.612 453.074 -10.258  1.00  0.00    -0.353 N 
ATOM      3  H   UNL     1     -51.583 453.965  -9.709  1.00  0.00     0.344 HD
ATOM      4  H   UNL     1     -51.051 452.349  -9.755  1.00  0.00     0.344 HD
ATOM      5  H   UNL     1     -52.600 452.741 -10.340  1.00  0.00     0.344 HD
ENDBRANCH   1   2
BRANCH   1   6
ATOM      6  C   UNL     1     -49.547 453.180 -11.541  1.00  0.00     0.096 C 
ATOM      7  O   UNL     1     -48.869 454.050 -10.935  1.00  0.00    -0.544 OA
ATOM      8  O   UNL     1     -48.902 452.149 -12.213  1.00  0.00    -0.544 OA
ENDBRANCH   1   6
TORSDOF 2
ENDMDL
MODEL 7
REMARK VINA RESULT:    -2.256     12.595     12.992
REMARK INTER + INTRA:          -2.454
REMARK INTER:                  -2.454
REMARK INTRA:                   0.000
REMARK UNBOUND:                 0.000
REMARK SMILES [NH3+]CC(=O)[O-]
REMARK SMILES IDX 2 1 1 2 3 6 4 7 5 8
REMARK H PARENT 1 3 1 4 1 5
REMARK Flexibility Score: inf
ROOT
ATOM      1  C   UNL     1     -53.493 447.676  -9.315  1.00  0.00     0.312 C 
ENDROOT
BRANCH   1   2
ATOM      2  N   UNL     1     -52.700 447.696  -8.088  1.00  0.00    -0.353 N 
ATOM      3  H   UNL     1     -53.186 447.151  -7.338  1.00  0.00     0.344 HD
ATOM      4  H   UNL     1     -52.589 448.685  -7.768  1.00  0.00     0.344 HD
ATOM      5  H   UNL     1     -51.753 447.288  -8.265  1.00  0.00     0.344 HD
ENDBRANCH   1   2
BRANCH   1   6
ATOM      6  C   UNL     1     -53.873 449.067  -9.721  1.00  0.00     0.096 C 
ATOM      7  O   UNL     1     -53.838 449.404 -10.933  1.00  0.00    -0.544 OA
ATOM      8  O   UNL     1     -54.215 450.005  -8.755  1.00  0.00    -0.544 OA
ENDBRANCH   1   6
TORSDOF 2
ENDMDL
MODEL 8
REMARK VINA RESULT:    -2.226     13.494     13.834
REMARK INTER + INTRA:          -2.421
REMARK INTER:                  -2.421
REMARK INTRA:                   0.000
REMARK UNBOUND:                 0.000
REMARK SMILES [NH3+]CC(=O)[O-]
REMARK SMILES IDX 2 1 1 2 3 6 4 7 5 8
REMARK H PARENT 1 3 1 4 1 5
REMARK Flexibility Score: inf
ROOT
ATOM      1  C   UNL     1     -52.873 451.969 -10.357  1.00  0.00     0.312 C 
ENDROOT
BRANCH   1   2
ATOM      2  N   UNL     1     -51.805 452.955 -10.206  1.00  0.00    -0.353 N 
ATOM      3  H   UNL     1     -51.547 453.053  -9.196  1.00  0.00     0.344 HD
ATOM      4  H   UNL     1     -52.140 453.880 -10.561  1.00  0.00     0.344 HD
ATOM      5  H   UNL     1     -50.966 452.664 -10.759  1.00  0.00     0.344 HD
ENDBRANCH   1   2
BRANCH   1   6
ATOM      6  C   UNL     1     -53.297 451.441  -9.021  1.00  0.00     0.096 C 
ATOM      7  O   UNL     1     -54.364 450.783  -8.910  1.00  0.00    -0.544 OA
ATOM      8  O   UNL     1     -52.538 451.718  -7.891  1.00  0.00    -0.544 OA
ENDBRANCH   1   6
TORSDOF 2
ENDMDL
MODEL 9
REMARK VINA RESULT:    -2.180     12.068     12.604
REMARK INTER + INTRA:          -2.371
REMARK INTER:                  -2.371
REMARK INTRA:                   0.000
REMARK UNBOUND:                 0.000
REMARK SMILES [NH3+]CC(=O)[O-]
REMARK SMILES IDX 2 1 1 2 3 6 4 7 5 8
REMARK H PARENT 1 3 1 4 1 5
REMARK Flexibility Score: inf
ROOT
ATOM      1  C   UNL     1     -53.631 447.282 -10.213  1.00  0.00     0.312 C 
ENDROOT
BRANCH   1   2
ATOM      2  N   UNL     1     -53.774 445.908  -9.736  1.00  0.00    -0.353 N 
ATOM      3  H   UNL     1     -54.094 445.289 -10.517  1.00  0.00     0.344 HD
ATOM      4  H   UNL     1     -54.486 445.883  -8.971  1.00  0.00     0.344 HD
ATOM      5  H   UNL     1     -52.861 445.561  -9.361  1.00  0.00     0.344 HD
ENDBRANCH   1   2
BRANCH   1   6
ATOM      6  C   UNL     1     -53.501 448.230  -9.061  1.00  0.00     0.096 C 
ATOM      7  O   UNL     1     -53.323 447.790  -7.895  1.00  0.00    -0.544 OA
ATOM      8  O   UNL     1     -53.627 449.598  -9.268  1.00  0.00    -0.544 OA
ENDBRANCH   1   6
TORSDOF 2
ENDMDL
