MODEL 1
REMARK VINA RESULT:    -4.742      0.000      0.000
REMARK INTER + INTRA:          -7.002
REMARK INTER:                  -6.682
REMARK INTRA:                  -0.320
REMARK UNBOUND:                -0.320
REMARK SMILES C=CCCCCCCC(=O)[O-]
REMARK SMILES IDX 6 1 7 2 8 3 9 4 10 5 11 6 5 7 4 8 3 9 2 10 1 11
REMARK H PARENT
REMARK Flexibility Score: inf
ROOT
ATOM      1  C   UNL     1       4.215   3.116  18.769  1.00  0.00     0.000 C 
ENDROOT
BRANCH   1   2
ATOM      2  C   UNL     1       3.448   2.661  17.518  1.00  0.00     0.006 C 
BRANCH   2   3
ATOM      3  C   UNL     1       2.981   1.204  17.620  1.00  0.00     0.053 C 
BRANCH   3   4
ATOM      4  C   UNL     1       1.955   0.875  16.580  1.00  0.00     0.041 C 
ATOM      5  O   UNL     1       1.635  -0.323  16.361  1.00  0.00    -0.550 OA
ATOM      6  O   UNL     1       1.327   1.895  15.876  1.00  0.00    -0.550 OA
ENDBRANCH   3   4
ENDBRANCH   2   3
ENDBRANCH   1   2
BRANCH   1   7
ATOM      7  C   UNL     1       5.009   1.956  19.380  1.00  0.00     0.000 C 
BRANCH   7   8
ATOM      8  C   UNL     1       6.520   2.214  19.290  1.00  0.00     0.004 C 
BRANCH   8   9
ATOM      9  C   UNL     1       6.972   2.509  17.854  1.00  0.00     0.027 C 
BRANCH   9  10
ATOM     10  C   UNL     1       8.202   1.721  17.490  1.00  0.00    -0.035 C 
ATOM     11  C   UNL     1       8.305   1.071  16.327  1.00  0.00     0.004 C 
ENDBRANCH   9  10
ENDBRANCH   8   9
ENDBRANCH   7   8
ENDBRANCH   1   7
TORSDOF 7
ENDMDL
MODEL 2
REMARK VINA RESULT:    -4.567      1.671      2.632
REMARK INTER + INTRA:          -6.756
REMARK INTER:                  -6.399
REMARK INTRA:                  -0.357
REMARK UNBOUND:                -0.320
REMARK SMILES C=CCCCCCCC(=O)[O-]
REMARK SMILES IDX 6 1 7 2 8 3 9 4 10 5 11 6 5 7 4 8 3 9 2 10 1 11
REMARK H PARENT
REMARK Flexibility Score: inf
ROOT
ATOM      1  C   UNL     1       3.106   1.692  17.050  1.00  0.00     0.000 C 
ENDROOT
BRANCH   1   2
ATOM      2  C   UNL     1       1.953   0.757  16.653  1.00  0.00     0.006 C 
BRANCH   2   3
ATOM      3  C   UNL     1       2.391  -0.711  16.589  1.00  0.00     0.053 C 
BRANCH   3   4
ATOM      4  C   UNL     1       1.589  -1.571  17.516  1.00  0.00     0.041 C 
ATOM      5  O   UNL     1       1.200  -1.119  18.625  1.00  0.00    -0.550 OA
ATOM      6  O   UNL     1       1.242  -2.863  17.140  1.00  0.00    -0.550 OA
ENDBRANCH   3   4
ENDBRANCH   2   3
ENDBRANCH   1   2
BRANCH   1   7
ATOM      7  C   UNL     1       3.371   1.630  18.558  1.00  0.00     0.000 C 
BRANCH   7   8
ATOM      8  C   UNL     1       4.233   2.815  19.016  1.00  0.00     0.004 C 
BRANCH   8   9
ATOM      9  C   UNL     1       5.671   2.393  19.342  1.00  0.00     0.027 C 
BRANCH   9  10
ATOM     10  C   UNL     1       6.631   2.834  18.268  1.00  0.00    -0.035 C 
ATOM     11  C   UNL     1       7.629   2.049  17.849  1.00  0.00     0.004 C 
ENDBRANCH   9  10
ENDBRANCH   8   9
ENDBRANCH   7   8
ENDBRANCH   1   7
TORSDOF 7
ENDMDL
MODEL 3
REMARK VINA RESULT:    -4.003      2.499      3.848
REMARK INTER + INTRA:          -5.962
REMARK INTER:                  -5.659
REMARK INTRA:                  -0.303
REMARK UNBOUND:                -0.320
REMARK SMILES C=CCCCCCCC(=O)[O-]
REMARK SMILES IDX 6 1 7 2 8 3 9 4 10 5 11 6 5 7 4 8 3 9 2 10 1 11
REMARK H PARENT
REMARK Flexibility Score: inf
ROOT
ATOM      1  C   UNL     1       2.417   0.244  17.739  1.00  0.00     0.000 C 
ENDROOT
BRANCH   1   2
ATOM      2  C   UNL     1       1.303  -0.674  17.215  1.00  0.00     0.006 C 
BRANCH   2   3
ATOM      3  C   UNL     1       1.848  -1.803  16.332  1.00  0.00     0.053 C 
BRANCH   3   4
ATOM      4  C   UNL     1       1.481  -3.154  16.865  1.00  0.00     0.041 C 
ATOM      5  O   UNL     1       1.250  -4.106  16.076  1.00  0.00    -0.550 OA
ATOM      6  O   UNL     1       1.427  -3.367  18.237  1.00  0.00    -0.550 OA
ENDBRANCH   3   4
ENDBRANCH   2   3
ENDBRANCH   1   2
BRANCH   1   7
ATOM      7  C   UNL     1       2.469   1.555  16.946  1.00  0.00     0.000 C 
BRANCH   7   8
ATOM      8  C   UNL     1       3.736   2.354  17.283  1.00  0.00     0.004 C 
BRANCH   8   9
ATOM      9  C   UNL     1       3.923   2.532  18.795  1.00  0.00     0.027 C 
BRANCH   9  10
ATOM     10  C   UNL     1       5.338   2.230  19.215  1.00  0.00    -0.035 C 
ATOM     11  C   UNL     1       6.386   2.837  18.650  1.00  0.00     0.004 C 
ENDBRANCH   9  10
ENDBRANCH   8   9
ENDBRANCH   7   8
ENDBRANCH   1   7
TORSDOF 7
ENDMDL
MODEL 4
REMARK VINA RESULT:    -3.735     15.845     16.846
REMARK INTER + INTRA:          -5.584
REMARK INTER:                  -5.344
REMARK INTRA:                  -0.240
REMARK UNBOUND:                -0.320
REMARK SMILES C=CCCCCCCC(=O)[O-]
REMARK SMILES IDX 6 1 7 2 8 3 9 4 10 5 11 6 5 7 4 8 3 9 2 10 1 11
REMARK H PARENT
REMARK Flexibility Score: inf
ROOT
ATOM      1  C   UNL     1      11.833 -12.401  22.647  1.00  0.00     0.000 C 
ENDROOT
BRANCH   1   2
ATOM      2  C   UNL     1      10.487 -11.721  22.356  1.00  0.00     0.006 C 
BRANCH   2   3
ATOM      3  C   UNL     1      10.490 -10.976  21.015  1.00  0.00     0.053 C 
BRANCH   3   4
ATOM      4  C   UNL     1       9.142 -10.412  20.689  1.00  0.00     0.041 C 
ATOM      5  O   UNL     1       8.130 -11.160  20.668  1.00  0.00    -0.550 OA
ATOM      6  O   UNL     1       8.998  -9.052  20.442  1.00  0.00    -0.550 OA
ENDBRANCH   3   4
ENDBRANCH   2   3
ENDBRANCH   1   2
BRANCH   1   7
ATOM      7  C   UNL     1      11.679 -13.496  23.709  1.00  0.00     0.000 C 
BRANCH   7   8
ATOM      8  C   UNL     1      11.932 -12.937  25.117  1.00  0.00     0.004 C 
BRANCH   8   9
ATOM      9  C   UNL     1      12.552 -13.984  26.052  1.00  0.00     0.027 C 
BRANCH   9  10
ATOM     10  C   UNL     1      13.733 -14.664  25.410  1.00  0.00    -0.035 C 
ATOM     11  C   UNL     1      14.192 -15.840  25.848  1.00  0.00     0.004 C 
ENDBRANCH   9  10
ENDBRANCH   8   9
ENDBRANCH   7   8
ENDBRANCH   1   7
TORSDOF 7
ENDMDL
MODEL 5
REMARK VINA RESULT:    -3.714      3.496      5.046
REMARK INTER + INTRA:          -5.554
REMARK INTER:                  -5.266
REMARK INTRA:                  -0.288
REMARK UNBOUND:                -0.320
REMARK SMILES C=CCCCCCCC(=O)[O-]
REMARK SMILES IDX 6 1 7 2 8 3 9 4 10 5 11 6 5 7 4 8 3 9 2 10 1 11
REMARK H PARENT
REMARK Flexibility Score: inf
ROOT
ATOM      1  C   UNL     1       2.051  -0.752  18.311  1.00  0.00     0.000 C 
ENDROOT
BRANCH   1   2
ATOM      2  C   UNL     1       1.055  -1.918  18.217  1.00  0.00     0.006 C 
BRANCH   2   3
ATOM      3  C   UNL     1       1.178  -2.883  19.402  1.00  0.00     0.053 C 
BRANCH   3   4
ATOM      4  C   UNL     1       1.233  -4.311  18.953  1.00  0.00     0.041 C 
ATOM      5  O   UNL     1       1.629  -4.596  17.792  1.00  0.00    -0.550 OA
ATOM      6  O   UNL     1       0.878  -5.330  19.829  1.00  0.00    -0.550 OA
ENDBRANCH   3   4
ENDBRANCH   2   3
ENDBRANCH   1   2
BRANCH   1   7
ATOM      7  C   UNL     1       2.179  -0.028  16.966  1.00  0.00     0.000 C 
BRANCH   7   8
ATOM      8  C   UNL     1       2.763   1.381  17.151  1.00  0.00     0.004 C 
BRANCH   8   9
ATOM      9  C   UNL     1       3.252   1.621  18.585  1.00  0.00     0.027 C 
BRANCH   9  10
ATOM     10  C   UNL     1       4.107   2.857  18.676  1.00  0.00    -0.035 C 
ATOM     11  C   UNL     1       5.068   3.117  17.784  1.00  0.00     0.004 C 
ENDBRANCH   9  10
ENDBRANCH   8   9
ENDBRANCH   7   8
ENDBRANCH   1   7
TORSDOF 7
ENDMDL
MODEL 6
REMARK VINA RESULT:    -3.708     18.980     20.301
REMARK INTER + INTRA:          -5.546
REMARK INTER:                  -4.940
REMARK INTRA:                  -0.607
REMARK UNBOUND:                -0.320
REMARK SMILES C=CCCCCCCC(=O)[O-]
REMARK SMILES IDX 6 1 7 2 8 3 9 4 10 5 11 6 5 7 4 8 3 9 2 10 1 11
REMARK H PARENT
REMARK Flexibility Score: inf
ROOT
ATOM      1  C   UNL     1       9.672 -10.462  34.171  1.00  0.00     0.000 C 
ENDROOT
BRANCH   1   2
ATOM      2  C   UNL     1      10.617  -9.260  34.327  1.00  0.00     0.006 C 
BRANCH   2   3
ATOM      3  C   UNL     1       9.952  -7.941  33.916  1.00  0.00     0.053 C 
BRANCH   3   4
ATOM      4  C   UNL     1      10.520  -7.407  32.637  1.00  0.00     0.041 C 
ATOM      5  O   UNL     1      10.214  -7.937  31.537  1.00  0.00    -0.550 OA
ATOM      6  O   UNL     1      11.361  -6.301  32.659  1.00  0.00    -0.550 OA
ENDBRANCH   3   4
ENDBRANCH   2   3
ENDBRANCH   1   2
BRANCH   1   7
ATOM      7  C   UNL     1      10.173 -11.417  33.083  1.00  0.00     0.000 C 
BRANCH   7   8
ATOM      8  C   UNL     1       9.141 -11.556  31.954  1.00  0.00     0.004 C 
BRANCH   8   9
ATOM      9  C   UNL     1       7.922 -10.650  32.169  1.00  0.00     0.027 C 
BRANCH   9  10
ATOM     10  C   UNL     1       6.685 -11.454  32.476  1.00  0.00    -0.035 C 
ATOM     11  C   UNL     1       6.234 -11.604  33.725  1.00  0.00     0.004 C 
ENDBRANCH   9  10
ENDBRANCH   8   9
ENDBRANCH   7   8
ENDBRANCH   1   7
TORSDOF 7
ENDMDL
MODEL 7
REMARK VINA RESULT:    -3.692     16.096     17.248
REMARK INTER + INTRA:          -5.523
REMARK INTER:                  -5.204
REMARK INTRA:                  -0.319
REMARK UNBOUND:                -0.320
REMARK SMILES C=CCCCCCCC(=O)[O-]
REMARK SMILES IDX 6 1 7 2 8 3 9 4 10 5 11 6 5 7 4 8 3 9 2 10 1 11
REMARK H PARENT
REMARK Flexibility Score: inf
ROOT
ATOM      1  C   UNL     1      10.085  -9.471  28.953  1.00  0.00     0.000 C 
ENDROOT
BRANCH   1   2
ATOM      2  C   UNL     1      10.210  -8.646  27.663  1.00  0.00     0.006 C 
BRANCH   2   3
ATOM      3  C   UNL     1      11.208  -9.260  26.674  1.00  0.00     0.053 C 
BRANCH   3   4
ATOM      4  C   UNL     1      10.927  -8.838  25.265  1.00  0.00     0.041 C 
ATOM      5  O   UNL     1      11.281  -9.567  24.302  1.00  0.00    -0.550 OA
ATOM      6  O   UNL     1      10.242  -7.654  25.018  1.00  0.00    -0.550 OA
ENDBRANCH   3   4
ENDBRANCH   2   3
ENDBRANCH   1   2
BRANCH   1   7
ATOM      7  C   UNL     1       9.249  -8.730  30.002  1.00  0.00     0.000 C 
BRANCH   7   8
ATOM      8  C   UNL     1       9.886  -8.842  31.394  1.00  0.00     0.004 C 
BRANCH   8   9
ATOM      9  C   UNL     1       9.146  -9.841  32.292  1.00  0.00     0.027 C 
BRANCH   9  10
ATOM     10  C   UNL     1       9.961 -11.087  32.519  1.00  0.00    -0.035 C 
ATOM     11  C   UNL     1       9.980 -12.088  31.634  1.00  0.00     0.004 C 
ENDBRANCH   9  10
ENDBRANCH   8   9
ENDBRANCH   7   8
ENDBRANCH   1   7
TORSDOF 7
ENDMDL
MODEL 8
REMARK VINA RESULT:    -3.627     17.693     18.916
REMARK INTER + INTRA:          -5.432
REMARK INTER:                  -4.891
REMARK INTRA:                  -0.541
REMARK UNBOUND:                -0.320
REMARK SMILES C=CCCCCCCC(=O)[O-]
REMARK SMILES IDX 6 1 7 2 8 3 9 4 10 5 11 6 5 7 4 8 3 9 2 10 1 11
REMARK H PARENT
REMARK Flexibility Score: inf
ROOT
ATOM      1  C   UNL     1      10.122  -8.625  31.994  1.00  0.00     0.000 C 
ENDROOT
BRANCH   1   2
ATOM      2  C   UNL     1       9.666  -9.412  30.756  1.00  0.00     0.006 C 
BRANCH   2   3
ATOM      3  C   UNL     1       9.589  -8.530  29.504  1.00  0.00     0.053 C 
BRANCH   3   4
ATOM      4  C   UNL     1      10.055  -9.260  28.281  1.00  0.00     0.041 C 
ATOM      5  O   UNL     1      10.571 -10.403  28.383  1.00  0.00    -0.550 OA
ATOM      6  O   UNL     1       9.887  -8.689  27.025  1.00  0.00    -0.550 OA
ENDBRANCH   3   4
ENDBRANCH   2   3
ENDBRANCH   1   2
BRANCH   1   7
ATOM      7  C   UNL     1      10.633  -9.569  33.089  1.00  0.00     0.000 C 
BRANCH   7   8
ATOM      8  C   UNL     1       9.981 -10.954  32.970  1.00  0.00     0.004 C 
BRANCH   8   9
ATOM      9  C   UNL     1       8.868 -11.160  34.006  1.00  0.00     0.027 C 
BRANCH   9  10
ATOM     10  C   UNL     1       7.511 -10.864  33.423  1.00  0.00    -0.035 C 
ATOM     11  C   UNL     1       7.021 -11.556  32.390  1.00  0.00     0.004 C 
ENDBRANCH   9  10
ENDBRANCH   8   9
ENDBRANCH   7   8
ENDBRANCH   1   7
TORSDOF 7
ENDMDL
MODEL 9
REMARK VINA RESULT:    -3.617     16.729     17.917
REMARK INTER + INTRA:          -5.417
REMARK INTER:                  -4.844
REMARK INTRA:                  -0.573
REMARK UNBOUND:                -0.320
REMARK SMILES C=CCCCCCCC(=O)[O-]
REMARK SMILES IDX 6 1 7 2 8 3 9 4 10 5 11 6 5 7 4 8 3 9 2 10 1 11
REMARK H PARENT
REMARK Flexibility Score: inf
ROOT
ATOM      1  C   UNL     1       8.532  -9.640  31.252  1.00  0.00     0.000 C 
ENDROOT
BRANCH   1   2
ATOM      2  C   UNL     1       8.778  -8.751  30.023  1.00  0.00     0.006 C 
BRANCH   2   3
ATOM      3  C   UNL     1       9.966  -9.236  29.183  1.00  0.00     0.053 C 
BRANCH   3   4
ATOM      4  C   UNL     1       9.989  -8.594  27.830  1.00  0.00     0.041 C 
ATOM      5  O   UNL     1       8.979  -7.975  27.404  1.00  0.00    -0.550 OA
ATOM      6  O   UNL     1      11.139  -8.652  27.053  1.00  0.00    -0.550 OA
ENDBRANCH   3   4
ENDBRANCH   2   3
ENDBRANCH   1   2
BRANCH   1   7
ATOM      7  C   UNL     1       9.851 -10.001  31.943  1.00  0.00     0.000 C 
BRANCH   7   8
ATOM      8  C   UNL     1       9.729  -9.871  33.468  1.00  0.00     0.004 C 
BRANCH   8   9
ATOM      9  C   UNL     1       9.938  -8.428  33.945  1.00  0.00     0.027 C 
BRANCH   9  10
ATOM     10  C   UNL     1      10.938  -7.703  33.084  1.00  0.00    -0.035 C 
ATOM     11  C   UNL     1      10.774  -6.423  32.738  1.00  0.00     0.004 C 
ENDBRANCH   9  10
ENDBRANCH   8   9
ENDBRANCH   7   8
ENDBRANCH   1   7
TORSDOF 7
ENDMDL
