MODEL 1
REMARK VINA RESULT:    -6.174      0.000      0.000
REMARK INTER + INTRA:          -6.355
REMARK INTER:                  -6.355
REMARK INTRA:                   0.000
REMARK UNBOUND:                 0.000
REMARK SMILES Oc1ccc2[nH]ccc2c1
REMARK SMILES IDX 3 1 4 2 5 3 9 4 8 5 7 6 6 7 10 8 2 9 1 11
REMARK H PARENT 6 10 1 12
REMARK Flexibility Score: inf
ROOT
ATOM      1  C   UNL     1      32.510  62.943 149.243  1.00  0.00     0.048 A 
ATOM      2  C   UNL     1      33.534  62.005 149.018  1.00  0.00     0.030 A 
ATOM      3  C   UNL     1      33.757  61.038 149.997  1.00  0.00     0.046 A 
ATOM      4  C   UNL     1      33.011  60.990 151.145  1.00  0.00     0.003 A 
ATOM      5  C   UNL     1      33.477  59.933 151.895  1.00  0.00     0.028 A 
ATOM      6  C   UNL     1      34.509  59.380 151.142  1.00  0.00     0.083 A 
ATOM      7  N   UNL     1      34.675  60.059 149.984  1.00  0.00    -0.361 N 
ATOM      8  C   UNL     1      31.990  61.903 151.398  1.00  0.00     0.056 A 
ATOM      9  C   UNL     1      31.738  62.895 150.427  1.00  0.00     0.116 A 
ATOM     10  H   UNL     1      35.376  59.859 149.236  1.00  0.00     0.166 HD
ENDROOT
BRANCH   9  11
ATOM     11  O   UNL     1      30.729  63.836 150.625  1.00  0.00    -0.508 OA
ATOM     12  H   UNL     1      30.407  64.432 149.871  1.00  0.00     0.293 HD
ENDBRANCH   9  11
TORSDOF 1
ENDMDL
MODEL 2
REMARK VINA RESULT:    -6.005     15.982     17.036
REMARK INTER + INTRA:          -6.181
REMARK INTER:                  -6.181
REMARK INTRA:                   0.000
REMARK UNBOUND:                 0.000
REMARK SMILES Oc1ccc2[nH]ccc2c1
REMARK SMILES IDX 3 1 4 2 5 3 9 4 8 5 7 6 6 7 10 8 2 9 1 11
REMARK H PARENT 6 10 1 12
REMARK Flexibility Score: inf
ROOT
ATOM      1  C   UNL     1      48.085  65.481 145.996  1.00  0.00     0.048 A 
ATOM      2  C   UNL     1      46.941  65.518 145.177  1.00  0.00     0.030 A 
ATOM      3  C   UNL     1      46.746  66.647 144.383  1.00  0.00     0.046 A 
ATOM      4  C   UNL     1      47.630  67.693 144.389  1.00  0.00     0.003 A 
ATOM      5  C   UNL     1      47.155  68.638 143.506  1.00  0.00     0.028 A 
ATOM      6  C   UNL     1      45.976  68.102 142.999  1.00  0.00     0.083 A 
ATOM      7  N   UNL     1      45.731  66.885 143.537  1.00  0.00    -0.361 N 
ATOM      8  C   UNL     1      48.772  67.688 145.187  1.00  0.00     0.056 A 
ATOM      9  C   UNL     1      48.999  66.560 146.004  1.00  0.00     0.116 A 
ATOM     10  H   UNL     1      44.918  66.262 143.334  1.00  0.00     0.166 HD
ENDROOT
BRANCH   9  11
ATOM     11  O   UNL     1      50.124  66.498 146.824  1.00  0.00    -0.508 OA
ATOM     12  H   UNL     1      50.599  67.338 147.133  1.00  0.00     0.293 HD
ENDBRANCH   9  11
TORSDOF 1
ENDMDL
MODEL 3
REMARK VINA RESULT:    -5.416      1.196      2.017
REMARK INTER + INTRA:          -5.574
REMARK INTER:                  -5.574
REMARK INTRA:                   0.000
REMARK UNBOUND:                 0.000
REMARK SMILES Oc1ccc2[nH]ccc2c1
REMARK SMILES IDX 3 1 4 2 5 3 9 4 8 5 7 6 6 7 10 8 2 9 1 11
REMARK H PARENT 6 10 1 12
REMARK Flexibility Score: inf
ROOT
ATOM      1  C   UNL     1      31.596  62.763 150.654  1.00  0.00     0.048 A 
ATOM      2  C   UNL     1      32.001  61.870 151.662  1.00  0.00     0.030 A 
ATOM      3  C   UNL     1      33.039  60.986 151.369  1.00  0.00     0.046 A 
ATOM      4  C   UNL     1      33.654  60.977 150.145  1.00  0.00     0.003 A 
ATOM      5  C   UNL     1      34.624  60.000 150.179  1.00  0.00     0.028 A 
ATOM      6  C   UNL     1      34.545  59.453 151.456  1.00  0.00     0.083 A 
ATOM      7  N   UNL     1      33.576  60.059 152.179  1.00  0.00    -0.361 N 
ATOM      8  C   UNL     1      33.277  61.848 149.126  1.00  0.00     0.056 A 
ATOM      9  C   UNL     1      32.229  62.756 149.389  1.00  0.00     0.116 A 
ATOM     10  H   UNL     1      33.303  59.846 153.165  1.00  0.00     0.166 HD
ENDROOT
BRANCH   9  11
ATOM     11  O   UNL     1      31.809  63.652 148.408  1.00  0.00    -0.508 OA
ATOM     12  H   UNL     1      32.291  64.530 148.252  1.00  0.00     0.293 HD
ENDBRANCH   9  11
TORSDOF 1
ENDMDL
MODEL 4
REMARK VINA RESULT:    -5.322     16.137     17.017
REMARK INTER + INTRA:          -5.478
REMARK INTER:                  -5.478
REMARK INTRA:                   0.000
REMARK UNBOUND:                 0.000
REMARK SMILES Oc1ccc2[nH]ccc2c1
REMARK SMILES IDX 3 1 4 2 5 3 9 4 8 5 7 6 6 7 10 8 2 9 1 11
REMARK H PARENT 6 10 1 12
REMARK Flexibility Score: inf
ROOT
ATOM      1  C   UNL     1      49.058  66.773 145.897  1.00  0.00     0.048 A 
ATOM      2  C   UNL     1      48.771  67.978 145.229  1.00  0.00     0.030 A 
ATOM      3  C   UNL     1      47.655  68.008 144.394  1.00  0.00     0.046 A 
ATOM      4  C   UNL     1      46.855  66.910 144.220  1.00  0.00     0.003 A 
ATOM      5  C   UNL     1      45.852  67.265 143.346  1.00  0.00     0.028 A 
ATOM      6  C   UNL     1      46.103  68.596 143.026  1.00  0.00     0.083 A 
ATOM      7  N   UNL     1      47.205  69.045 143.670  1.00  0.00    -0.361 N 
ATOM      8  C   UNL     1      47.111  65.703 144.867  1.00  0.00     0.056 A 
ATOM      9  C   UNL     1      48.234  65.638 145.720  1.00  0.00     0.116 A 
ATOM     10  H   UNL     1      47.618  70.002 143.611  1.00  0.00     0.166 HD
ENDROOT
BRANCH   9  11
ATOM     11  O   UNL     1      48.541  64.457 146.393  1.00  0.00    -0.508 OA
ATOM     12  H   UNL     1      48.386  63.551 145.968  1.00  0.00     0.293 HD
ENDBRANCH   9  11
TORSDOF 1
ENDMDL
MODEL 5
REMARK VINA RESULT:    -4.773     16.026     16.838
REMARK INTER + INTRA:          -4.912
REMARK INTER:                  -4.912
REMARK INTRA:                   0.000
REMARK UNBOUND:                 0.000
REMARK SMILES Oc1ccc2[nH]ccc2c1
REMARK SMILES IDX 3 1 4 2 5 3 9 4 8 5 7 6 6 7 10 8 2 9 1 11
REMARK H PARENT 6 10 1 12
REMARK Flexibility Score: inf
ROOT
ATOM      1  C   UNL     1      46.743  68.368 143.774  1.00  0.00     0.048 A 
ATOM      2  C   UNL     1      47.971  68.669 144.393  1.00  0.00     0.030 A 
ATOM      3  C   UNL     1      48.563  67.681 145.177  1.00  0.00     0.046 A 
ATOM      4  C   UNL     1      47.981  66.452 145.349  1.00  0.00     0.003 A 
ATOM      5  C   UNL     1      48.808  65.716 146.168  1.00  0.00     0.028 A 
ATOM      6  C   UNL     1      49.876  66.558 146.459  1.00  0.00     0.083 A 
ATOM      7  N   UNL     1      49.722  67.757 145.850  1.00  0.00    -0.361 N 
ATOM      8  C   UNL     1      46.767  66.123 144.750  1.00  0.00     0.056 A 
ATOM      9  C   UNL     1      46.140  67.101 143.949  1.00  0.00     0.116 A 
ATOM     10  H   UNL     1      50.373  68.572 145.899  1.00  0.00     0.166 HD
ENDROOT
BRANCH   9  11
ATOM     11  O   UNL     1      44.925  66.829 143.325  1.00  0.00    -0.508 OA
ATOM     12  H   UNL     1      44.209  67.539 143.231  1.00  0.00     0.293 HD
ENDBRANCH   9  11
TORSDOF 1
ENDMDL
MODEL 6
REMARK VINA RESULT:    -4.709     16.293     17.093
REMARK INTER + INTRA:          -4.847
REMARK INTER:                  -4.847
REMARK INTRA:                   0.000
REMARK UNBOUND:                 0.000
REMARK SMILES Oc1ccc2[nH]ccc2c1
REMARK SMILES IDX 3 1 4 2 5 3 9 4 8 5 7 6 6 7 10 8 2 9 1 11
REMARK H PARENT 6 10 1 12
REMARK Flexibility Score: inf
ROOT
ATOM      1  C   UNL     1      46.583  67.206 144.283  1.00  0.00     0.048 A 
ATOM      2  C   UNL     1      46.904  65.976 144.887  1.00  0.00     0.030 A 
ATOM      3  C   UNL     1      48.136  65.868 145.529  1.00  0.00     0.046 A 
ATOM      4  C   UNL     1      49.016  66.917 145.579  1.00  0.00     0.003 A 
ATOM      5  C   UNL     1      50.125  66.491 146.276  1.00  0.00     0.028 A 
ATOM      6  C   UNL     1      49.852  65.171 146.622  1.00  0.00     0.083 A 
ATOM      7  N   UNL     1      48.636  64.796 146.164  1.00  0.00    -0.361 N 
ATOM      8  C   UNL     1      48.730  68.147 144.991  1.00  0.00     0.056 A 
ATOM      9  C   UNL     1      47.490  68.290 144.332  1.00  0.00     0.116 A 
ATOM     10  H   UNL     1      48.183  63.862 146.281  1.00  0.00     0.166 HD
ENDROOT
BRANCH   9  11
ATOM     11  O   UNL     1      47.148  69.497 143.726  1.00  0.00    -0.508 OA
ATOM     12  H   UNL     1      46.508  69.532 142.942  1.00  0.00     0.293 HD
ENDBRANCH   9  11
TORSDOF 1
ENDMDL
MODEL 7
REMARK VINA RESULT:    -4.507     18.605     19.196
REMARK INTER + INTRA:          -4.639
REMARK INTER:                  -4.639
REMARK INTRA:                   0.000
REMARK UNBOUND:                 0.000
REMARK SMILES Oc1ccc2[nH]ccc2c1
REMARK SMILES IDX 3 1 4 2 5 3 9 4 8 5 7 6 6 7 10 8 2 9 1 11
REMARK H PARENT 6 10 1 12
REMARK Flexibility Score: inf
ROOT
ATOM      1  C   UNL     1      47.988  72.244 154.085  1.00  0.00     0.048 A 
ATOM      2  C   UNL     1      46.874  72.026 153.254  1.00  0.00     0.030 A 
ATOM      3  C   UNL     1      46.791  72.759 152.071  1.00  0.00     0.046 A 
ATOM      4  C   UNL     1      47.756  73.665 151.716  1.00  0.00     0.003 A 
ATOM      5  C   UNL     1      47.382  74.212 150.509  1.00  0.00     0.028 A 
ATOM      6  C   UNL     1      46.178  73.593 150.186  1.00  0.00     0.083 A 
ATOM      7  N   UNL     1      45.822  72.706 151.143  1.00  0.00    -0.361 N 
ATOM      8  C   UNL     1      48.871  73.904 152.516  1.00  0.00     0.056 A 
ATOM      9  C   UNL     1      48.985  73.178 153.721  1.00  0.00     0.116 A 
ATOM     10  H   UNL     1      44.967  72.106 151.155  1.00  0.00     0.166 HD
ENDROOT
BRANCH   9  11
ATOM     11  O   UNL     1      50.078  73.375 154.562  1.00  0.00    -0.508 OA
ATOM     12  H   UNL     1      50.885  73.911 154.263  1.00  0.00     0.293 HD
ENDBRANCH   9  11
TORSDOF 1
ENDMDL
MODEL 8
REMARK VINA RESULT:    -4.462     18.347     18.868
REMARK INTER + INTRA:          -4.593
REMARK INTER:                  -4.593
REMARK INTRA:                   0.000
REMARK UNBOUND:                 0.000
REMARK SMILES Oc1ccc2[nH]ccc2c1
REMARK SMILES IDX 3 1 4 2 5 3 9 4 8 5 7 6 6 7 10 8 2 9 1 11
REMARK H PARENT 6 10 1 12
REMARK Flexibility Score: inf
ROOT
ATOM      1  C   UNL     1      46.931  75.009 148.816  1.00  0.00     0.048 A 
ATOM      2  C   UNL     1      47.975  75.115 149.753  1.00  0.00     0.030 A 
ATOM      3  C   UNL     1      47.940  74.270 150.862  1.00  0.00     0.046 A 
ATOM      4  C   UNL     1      46.931  73.363 151.046  1.00  0.00     0.003 A 
ATOM      5  C   UNL     1      47.188  72.693 152.221  1.00  0.00     0.028 A 
ATOM      6  C   UNL     1      48.372  73.243 152.702  1.00  0.00     0.083 A 
ATOM      7  N   UNL     1      48.828  74.206 151.867  1.00  0.00    -0.361 N 
ATOM      8  C   UNL     1      45.883  73.234 150.136  1.00  0.00     0.056 A 
ATOM      9  C   UNL     1      45.887  74.074 149.002  1.00  0.00     0.116 A 
ATOM     10  H   UNL     1      49.692  74.780 151.986  1.00  0.00     0.166 HD
ENDROOT
BRANCH   9  11
ATOM     11  O   UNL     1      44.866  73.990 148.059  1.00  0.00    -0.508 OA
ATOM     12  H   UNL     1      45.038  74.166 147.076  1.00  0.00     0.293 HD
ENDBRANCH   9  11
TORSDOF 1
ENDMDL
