MODEL 1
REMARK VINA RESULT:    -4.985      0.000      0.000
REMARK INTER + INTRA:          -7.898
REMARK INTER:                  -7.170
REMARK INTRA:                  -0.728
REMARK UNBOUND:                -0.728
REMARK SMILES O=C(CO)[C@@H](O)[C@@H](O)[C@H](O)CO
REMARK SMILES IDX 7 1 9 2 11 3 12 4 10 6 5 8 2 9 1 10 3 11 4 12 6 14 8 16
REMARK H PARENT 12 5 10 7 4 13 6 15 8 17
REMARK Flexibility Score: inf
ROOT
ATOM      1  C   UNL     1     -20.102  24.314 -26.043  1.00  0.00     0.181 C 
ENDROOT
BRANCH   1   2
ATOM      2  C   UNL     1     -19.778  24.487 -27.552  1.00  0.00     0.171 C 
BRANCH   2   3
ATOM      3  C   UNL     1     -19.372  25.920 -27.939  1.00  0.00     0.190 C 
BRANCH   3   4
ATOM      4  O   UNL     1     -18.036  26.161 -27.587  1.00  0.00    -0.394 OA
ATOM      5  H   UNL     1     -17.543  26.327 -28.433  1.00  0.00     0.210 HD
ENDBRANCH   3   4
ENDBRANCH   2   3
BRANCH   2   6
ATOM      6  O   UNL     1     -18.772  23.580 -27.929  1.00  0.00    -0.388 OA
ATOM      7  H   UNL     1     -19.121  22.669 -27.748  1.00  0.00     0.211 HD
ENDBRANCH   2   6
ENDBRANCH   1   2
BRANCH   1   8
ATOM      8  C   UNL     1     -21.156  23.212 -25.718  1.00  0.00     0.214 C 
BRANCH   8   9
ATOM      9  C   UNL     1     -22.517  23.736 -25.290  1.00  0.00     0.189 C 
ATOM     10  O   UNL     1     -22.834  24.876 -25.594  1.00  0.00    -0.294 OA
BRANCH   9  11
ATOM     11  C   UNL     1     -23.474  22.926 -24.458  1.00  0.00     0.234 C 
BRANCH  11  12
ATOM     12  O   UNL     1     -23.593  21.642 -25.004  1.00  0.00    -0.388 OA
ATOM     13  H   UNL     1     -24.565  21.446 -25.038  1.00  0.00     0.211 HD
ENDBRANCH  11  12
ENDBRANCH   9  11
ENDBRANCH   8   9
BRANCH   8  14
ATOM     14  O   UNL     1     -21.305  22.321 -26.796  1.00  0.00    -0.382 OA
ATOM     15  H   UNL     1     -21.474  21.415 -26.428  1.00  0.00     0.211 HD
ENDBRANCH   8  14
ENDBRANCH   1   8
BRANCH   1  16
ATOM     16  O   UNL     1     -18.922  24.110 -25.306  1.00  0.00    -0.387 OA
ATOM     17  H   UNL     1     -18.251  23.729 -25.930  1.00  0.00     0.211 HD
ENDBRANCH   1  16
TORSDOF 10
ENDMDL
MODEL 2
REMARK VINA RESULT:    -4.819      0.795      1.503
REMARK INTER + INTRA:          -7.660
REMARK INTER:                  -7.227
REMARK INTRA:                  -0.433
REMARK UNBOUND:                -0.728
REMARK SMILES O=C(CO)[C@@H](O)[C@@H](O)[C@H](O)CO
REMARK SMILES IDX 7 1 9 2 11 3 12 4 10 6 5 8 2 9 1 10 3 11 4 12 6 14 8 16
REMARK H PARENT 12 5 10 7 4 13 6 15 8 17
REMARK Flexibility Score: inf
ROOT
ATOM      1  C   UNL     1     -20.136  24.295 -25.822  1.00  0.00     0.181 C 
ENDROOT
BRANCH   1   2
ATOM      2  C   UNL     1     -19.860  24.557 -27.328  1.00  0.00     0.171 C 
BRANCH   2   3
ATOM      3  C   UNL     1     -19.552  26.030 -27.655  1.00  0.00     0.190 C 
BRANCH   3   4
ATOM      4  O   UNL     1     -18.172  26.215 -27.820  1.00  0.00    -0.394 OA
ATOM      5  H   UNL     1     -17.952  27.095 -27.417  1.00  0.00     0.210 HD
ENDBRANCH   3   4
ENDBRANCH   2   3
BRANCH   2   6
ATOM      6  O   UNL     1     -18.809  23.734 -27.769  1.00  0.00    -0.388 OA
ATOM      7  H   UNL     1     -19.167  22.810 -27.821  1.00  0.00     0.211 HD
ENDBRANCH   2   6
ENDBRANCH   1   2
BRANCH   1   8
ATOM      8  C   UNL     1     -21.228  23.221 -25.531  1.00  0.00     0.214 C 
BRANCH   8   9
ATOM      9  C   UNL     1     -22.608  23.779 -25.225  1.00  0.00     0.189 C 
ATOM     10  O   UNL     1     -23.416  23.072 -24.640  1.00  0.00    -0.294 OA
BRANCH   9  11
ATOM     11  C   UNL     1     -23.044  25.151 -25.661  1.00  0.00     0.234 C 
BRANCH  11  12
ATOM     12  O   UNL     1     -23.617  25.074 -26.936  1.00  0.00    -0.388 OA
ATOM     13  H   UNL     1     -23.351  25.905 -27.409  1.00  0.00     0.211 HD
ENDBRANCH  11  12
ENDBRANCH   9  11
ENDBRANCH   8   9
BRANCH   8  14
ATOM     14  O   UNL     1     -21.312  22.288 -26.580  1.00  0.00    -0.382 OA
ATOM     15  H   UNL     1     -21.383  21.381 -26.184  1.00  0.00     0.211 HD
ENDBRANCH   8  14
ENDBRANCH   1   8
BRANCH   1  16
ATOM     16  O   UNL     1     -18.941  23.988 -25.148  1.00  0.00    -0.387 OA
ATOM     17  H   UNL     1     -19.191  23.685 -24.237  1.00  0.00     0.211 HD
ENDBRANCH   1  16
TORSDOF 10
ENDMDL
MODEL 3
REMARK VINA RESULT:    -4.737      1.176      4.384
REMARK INTER + INTRA:          -7.543
REMARK INTER:                  -6.432
REMARK INTRA:                  -1.111
REMARK UNBOUND:                -0.728
REMARK SMILES O=C(CO)[C@@H](O)[C@@H](O)[C@H](O)CO
REMARK SMILES IDX 7 1 9 2 11 3 12 4 10 6 5 8 2 9 1 10 3 11 4 12 6 14 8 16
REMARK H PARENT 12 5 10 7 4 13 6 15 8 17
REMARK Flexibility Score: inf
ROOT
ATOM      1  C   UNL     1     -20.097  24.200 -25.914  1.00  0.00     0.181 C 
ENDROOT
BRANCH   1   2
ATOM      2  C   UNL     1     -21.174  23.217 -25.379  1.00  0.00     0.171 C 
BRANCH   2   3
ATOM      3  C   UNL     1     -22.506  23.896 -25.012  1.00  0.00     0.190 C 
BRANCH   3   4
ATOM      4  O   UNL     1     -23.065  24.515 -26.138  1.00  0.00    -0.394 OA
ATOM      5  H   UNL     1     -23.366  25.415 -25.849  1.00  0.00     0.210 HD
ENDBRANCH   3   4
ENDBRANCH   2   3
BRANCH   2   6
ATOM      6  O   UNL     1     -21.394  22.196 -26.319  1.00  0.00    -0.388 OA
ATOM      7  H   UNL     1     -21.864  22.608 -27.090  1.00  0.00     0.211 HD
ENDBRANCH   2   6
ENDBRANCH   1   2
BRANCH   1   8
ATOM      8  C   UNL     1     -19.981  24.267 -27.467  1.00  0.00     0.214 C 
BRANCH   8   9
ATOM      9  C   UNL     1     -20.209  25.644 -28.066  1.00  0.00     0.189 C 
ATOM     10  O   UNL     1     -21.327  26.135 -28.016  1.00  0.00    -0.294 OA
BRANCH   9  11
ATOM     11  C   UNL     1     -19.123  26.413 -28.771  1.00  0.00     0.234 C 
BRANCH  11  12
ATOM     12  O   UNL     1     -17.939  26.329 -28.030  1.00  0.00    -0.388 OA
ATOM     13  H   UNL     1     -17.470  25.515 -28.349  1.00  0.00     0.211 HD
ENDBRANCH  11  12
ENDBRANCH   9  11
ENDBRANCH   8   9
BRANCH   8  14
ATOM     14  O   UNL     1     -18.747  23.754 -27.905  1.00  0.00    -0.382 OA
ATOM     15  H   UNL     1     -18.620  24.018 -28.853  1.00  0.00     0.211 HD
ENDBRANCH   8  14
ENDBRANCH   1   8
BRANCH   1  16
ATOM     16  O   UNL     1     -20.287  25.483 -25.371  1.00  0.00    -0.387 OA
ATOM     17  H   UNL     1     -20.996  25.923 -25.907  1.00  0.00     0.211 HD
ENDBRANCH   1  16
TORSDOF 10
ENDMDL
MODEL 4
REMARK VINA RESULT:    -4.705      1.219      4.792
REMARK INTER + INTRA:          -7.496
REMARK INTER:                  -6.546
REMARK INTRA:                  -0.950
REMARK UNBOUND:                -0.728
REMARK SMILES O=C(CO)[C@@H](O)[C@@H](O)[C@H](O)CO
REMARK SMILES IDX 7 1 9 2 11 3 12 4 10 6 5 8 2 9 1 10 3 11 4 12 6 14 8 16
REMARK H PARENT 12 5 10 7 4 13 6 15 8 17
REMARK Flexibility Score: inf
ROOT
ATOM      1  C   UNL     1     -21.595  24.401 -25.768  1.00  0.00     0.181 C 
ENDROOT
BRANCH   1   2
ATOM      2  C   UNL     1     -21.602  23.184 -24.803  1.00  0.00     0.171 C 
BRANCH   2   3
ATOM      3  C   UNL     1     -22.990  22.862 -24.221  1.00  0.00     0.190 C 
BRANCH   3   4
ATOM      4  O   UNL     1     -23.684  21.987 -25.070  1.00  0.00    -0.394 OA
ATOM      5  H   UNL     1     -24.651  22.181 -24.951  1.00  0.00     0.210 HD
ENDBRANCH   3   4
ENDBRANCH   2   3
BRANCH   2   6
ATOM      6  O   UNL     1     -21.078  22.056 -25.457  1.00  0.00    -0.388 OA
ATOM      7  H   UNL     1     -20.089  22.122 -25.403  1.00  0.00     0.211 HD
ENDBRANCH   2   6
ENDBRANCH   1   2
BRANCH   1   8
ATOM      8  C   UNL     1     -20.422  24.419 -26.795  1.00  0.00     0.214 C 
BRANCH   8   9
ATOM      9  C   UNL     1     -20.312  25.693 -27.617  1.00  0.00     0.189 C 
ATOM     10  O   UNL     1     -21.227  26.503 -27.579  1.00  0.00    -0.294 OA
BRANCH   9  11
ATOM     11  C   UNL     1     -19.143  25.978 -28.520  1.00  0.00     0.234 C 
BRANCH  11  12
ATOM     12  O   UNL     1     -17.984  26.128 -27.749  1.00  0.00    -0.388 OA
ATOM     13  H   UNL     1     -18.275  26.532 -26.890  1.00  0.00     0.211 HD
ENDBRANCH  11  12
ENDBRANCH   9  11
ENDBRANCH   8   9
BRANCH   8  14
ATOM     14  O   UNL     1     -19.194  24.150 -26.165  1.00  0.00    -0.382 OA
ATOM     15  H   UNL     1     -18.803  23.339 -26.582  1.00  0.00     0.211 HD
ENDBRANCH   8  14
ENDBRANCH   1   8
BRANCH   1  16
ATOM     16  O   UNL     1     -22.834  24.518 -26.422  1.00  0.00    -0.387 OA
ATOM     17  H   UNL     1     -22.678  25.044 -27.249  1.00  0.00     0.211 HD
ENDBRANCH   1  16
TORSDOF 10
ENDMDL
MODEL 5
REMARK VINA RESULT:    -4.583      1.996      4.475
REMARK INTER + INTRA:          -7.322
REMARK INTER:                  -6.382
REMARK INTRA:                  -0.939
REMARK UNBOUND:                -0.728
REMARK SMILES O=C(CO)[C@@H](O)[C@@H](O)[C@H](O)CO
REMARK SMILES IDX 7 1 9 2 11 3 12 4 10 6 5 8 2 9 1 10 3 11 4 12 6 14 8 16
REMARK H PARENT 12 5 10 7 4 13 6 15 8 17
REMARK Flexibility Score: inf
ROOT
ATOM      1  C   UNL     1     -20.984  24.375 -26.776  1.00  0.00     0.181 C 
ENDROOT
BRANCH   1   2
ATOM      2  C   UNL     1     -20.889  25.006 -25.360  1.00  0.00     0.171 C 
BRANCH   2   3
ATOM      3  C   UNL     1     -20.163  24.118 -24.333  1.00  0.00     0.190 C 
BRANCH   3   4
ATOM      4  O   UNL     1     -18.846  23.871 -24.746  1.00  0.00    -0.394 OA
ATOM      5  H   UNL     1     -18.889  23.133 -25.409  1.00  0.00     0.210 HD
ENDBRANCH   3   4
ENDBRANCH   2   3
BRANCH   2   6
ATOM      6  O   UNL     1     -20.264  26.262 -25.440  1.00  0.00    -0.388 OA
ATOM      7  H   UNL     1     -20.958  26.944 -25.245  1.00  0.00     0.211 HD
ENDBRANCH   2   6
ENDBRANCH   1   2
BRANCH   1   8
ATOM      8  C   UNL     1     -19.990  24.961 -27.825  1.00  0.00     0.214 C 
BRANCH   8   9
ATOM      9  C   UNL     1     -20.466  26.226 -28.519  1.00  0.00     0.189 C 
ATOM     10  O   UNL     1     -21.611  26.273 -28.944  1.00  0.00    -0.294 OA
BRANCH   9  11
ATOM     11  C   UNL     1     -19.567  27.410 -28.755  1.00  0.00     0.234 C 
BRANCH  11  12
ATOM     12  O   UNL     1     -19.379  28.098 -27.550  1.00  0.00    -0.388 OA
ATOM     13  H   UNL     1     -20.178  27.907 -26.995  1.00  0.00     0.211 HD
ENDBRANCH  11  12
ENDBRANCH   9  11
ENDBRANCH   8   9
BRANCH   8  14
ATOM     14  O   UNL     1     -18.722  25.177 -27.255  1.00  0.00    -0.382 OA
ATOM     15  H   UNL     1     -18.168  25.675 -27.911  1.00  0.00     0.211 HD
ENDBRANCH   8  14
ENDBRANCH   1   8
BRANCH   1  16
ATOM     16  O   UNL     1     -20.864  22.976 -26.702  1.00  0.00    -0.387 OA
ATOM     17  H   UNL     1     -21.573  22.656 -26.086  1.00  0.00     0.211 HD
ENDBRANCH   1  16
TORSDOF 10
ENDMDL
MODEL 6
REMARK VINA RESULT:    -4.568      2.183      5.255
REMARK INTER + INTRA:          -7.299
REMARK INTER:                  -6.759
REMARK INTRA:                  -0.540
REMARK UNBOUND:                -0.728
REMARK SMILES O=C(CO)[C@@H](O)[C@@H](O)[C@H](O)CO
REMARK SMILES IDX 7 1 9 2 11 3 12 4 10 6 5 8 2 9 1 10 3 11 4 12 6 14 8 16
REMARK H PARENT 12 5 10 7 4 13 6 15 8 17
REMARK Flexibility Score: inf
ROOT
ATOM      1  C   UNL     1     -22.583  25.660 -27.051  1.00  0.00     0.181 C 
ENDROOT
BRANCH   1   2
ATOM      2  C   UNL     1     -23.259  25.079 -25.780  1.00  0.00     0.171 C 
BRANCH   2   3
ATOM      3  C   UNL     1     -23.394  26.094 -24.630  1.00  0.00     0.190 C 
BRANCH   3   4
ATOM      4  O   UNL     1     -24.727  26.507 -24.497  1.00  0.00    -0.394 OA
ATOM      5  H   UNL     1     -24.823  26.872 -23.579  1.00  0.00     0.210 HD
ENDBRANCH   3   4
ENDBRANCH   2   3
BRANCH   2   6
ATOM      6  O   UNL     1     -24.520  24.553 -26.110  1.00  0.00    -0.388 OA
ATOM      7  H   UNL     1     -24.361  23.755 -26.679  1.00  0.00     0.211 HD
ENDBRANCH   2   6
ENDBRANCH   1   2
BRANCH   1   8
ATOM      8  C   UNL     1     -21.098  25.235 -27.259  1.00  0.00     0.214 C 
BRANCH   8   9
ATOM      9  C   UNL     1     -20.373  25.968 -28.376  1.00  0.00     0.189 C 
ATOM     10  O   UNL     1     -20.978  26.813 -29.019  1.00  0.00    -0.294 OA
BRANCH   9  11
ATOM     11  C   UNL     1     -18.951  25.660 -28.761  1.00  0.00     0.234 C 
BRANCH  11  12
ATOM     12  O   UNL     1     -18.096  26.033 -27.718  1.00  0.00    -0.388 OA
ATOM     13  H   UNL     1     -17.804  25.190 -27.284  1.00  0.00     0.211 HD
ENDBRANCH  11  12
ENDBRANCH   9  11
ENDBRANCH   8   9
BRANCH   8  14
ATOM     14  O   UNL     1     -20.368  25.347 -26.062  1.00  0.00    -0.382 OA
ATOM     15  H   UNL     1     -20.859  25.958 -25.455  1.00  0.00     0.211 HD
ENDBRANCH   8  14
ENDBRANCH   1   8
BRANCH   1  16
ATOM     16  O   UNL     1     -23.350  25.371 -28.194  1.00  0.00    -0.387 OA
ATOM     17  H   UNL     1     -24.137  24.847 -27.891  1.00  0.00     0.211 HD
ENDBRANCH   1  16
TORSDOF 10
ENDMDL
MODEL 7
REMARK VINA RESULT:    -4.550      1.398      2.157
REMARK INTER + INTRA:          -7.273
REMARK INTER:                  -6.270
REMARK INTRA:                  -1.003
REMARK UNBOUND:                -0.728
REMARK SMILES O=C(CO)[C@@H](O)[C@@H](O)[C@H](O)CO
REMARK SMILES IDX 7 1 9 2 11 3 12 4 10 6 5 8 2 9 1 10 3 11 4 12 6 14 8 16
REMARK H PARENT 12 5 10 7 4 13 6 15 8 17
REMARK Flexibility Score: inf
ROOT
ATOM      1  C   UNL     1     -20.376  26.300 -26.917  1.00  0.00     0.181 C 
ENDROOT
BRANCH   1   2
ATOM      2  C   UNL     1     -19.743  25.237 -27.855  1.00  0.00     0.171 C 
BRANCH   2   3
ATOM      3  C   UNL     1     -19.022  25.838 -29.076  1.00  0.00     0.190 C 
BRANCH   3   4
ATOM      4  O   UNL     1     -17.757  26.317 -28.708  1.00  0.00    -0.394 OA
ATOM      5  H   UNL     1     -17.887  26.870 -27.893  1.00  0.00     0.210 HD
ENDBRANCH   3   4
ENDBRANCH   2   3
BRANCH   2   6
ATOM      6  O   UNL     1     -18.860  24.423 -27.124  1.00  0.00    -0.388 OA
ATOM      7  H   UNL     1     -18.407  25.008 -26.463  1.00  0.00     0.211 HD
ENDBRANCH   2   6
ENDBRANCH   1   2
BRANCH   1   8
ATOM      8  C   UNL     1     -20.988  25.733 -25.599  1.00  0.00     0.214 C 
BRANCH   8   9
ATOM      9  C   UNL     1     -22.119  24.738 -25.796  1.00  0.00     0.189 C 
ATOM     10  O   UNL     1     -23.172  25.126 -26.280  1.00  0.00    -0.294 OA
BRANCH   9  11
ATOM     11  C   UNL     1     -22.017  23.298 -25.369  1.00  0.00     0.234 C 
BRANCH  11  12
ATOM     12  O   UNL     1     -21.152  22.617 -26.233  1.00  0.00    -0.388 OA
ATOM     13  H   UNL     1     -20.967  23.238 -26.985  1.00  0.00     0.211 HD
ENDBRANCH  11  12
ENDBRANCH   9  11
ENDBRANCH   8   9
BRANCH   8  14
ATOM     14  O   UNL     1     -19.992  25.169 -24.781  1.00  0.00    -0.382 OA
ATOM     15  H   UNL     1     -19.656  24.348 -25.224  1.00  0.00     0.211 HD
ENDBRANCH   8  14
ENDBRANCH   1   8
BRANCH   1  16
ATOM     16  O   UNL     1     -19.454  27.324 -26.639  1.00  0.00    -0.387 OA
ATOM     17  H   UNL     1     -19.566  27.565 -25.683  1.00  0.00     0.211 HD
ENDBRANCH   1  16
TORSDOF 10
ENDMDL
MODEL 8
REMARK VINA RESULT:    -4.489      1.893      2.476
REMARK INTER + INTRA:          -7.185
REMARK INTER:                  -6.187
REMARK INTRA:                  -0.998
REMARK UNBOUND:                -0.728
REMARK SMILES O=C(CO)[C@@H](O)[C@@H](O)[C@H](O)CO
REMARK SMILES IDX 7 1 9 2 11 3 12 4 10 6 5 8 2 9 1 10 3 11 4 12 6 14 8 16
REMARK H PARENT 12 5 10 7 4 13 6 15 8 17
REMARK Flexibility Score: inf
ROOT
ATOM      1  C   UNL     1     -21.197  25.556 -26.829  1.00  0.00     0.181 C 
ENDROOT
BRANCH   1   2
ATOM      2  C   UNL     1     -20.018  24.613 -27.194  1.00  0.00     0.171 C 
BRANCH   2   3
ATOM      3  C   UNL     1     -19.038  25.213 -28.219  1.00  0.00     0.190 C 
BRANCH   3   4
ATOM      4  O   UNL     1     -18.144  26.088 -27.585  1.00  0.00    -0.394 OA
ATOM      5  H   UNL     1     -17.703  25.570 -26.862  1.00  0.00     0.210 HD
ENDBRANCH   3   4
ENDBRANCH   2   3
BRANCH   2   6
ATOM      6  O   UNL     1     -19.329  24.240 -26.027  1.00  0.00    -0.388 OA
ATOM      7  H   UNL     1     -18.450  23.879 -26.312  1.00  0.00     0.211 HD
ENDBRANCH   2   6
ENDBRANCH   1   2
BRANCH   1   8
ATOM      8  C   UNL     1     -22.461  24.840 -26.264  1.00  0.00     0.214 C 
BRANCH   8   9
ATOM      9  C   UNL     1     -22.624  24.927 -24.756  1.00  0.00     0.189 C 
ATOM     10  O   UNL     1     -21.670  24.659 -24.041  1.00  0.00    -0.294 OA
BRANCH   9  11
ATOM     11  C   UNL     1     -23.932  25.280 -24.099  1.00  0.00     0.234 C 
BRANCH  11  12
ATOM     12  O   UNL     1     -24.360  26.531 -24.557  1.00  0.00    -0.388 OA
ATOM     13  H   UNL     1     -24.085  26.586 -25.509  1.00  0.00     0.211 HD
ENDBRANCH  11  12
ENDBRANCH   9  11
ENDBRANCH   8   9
BRANCH   8  14
ATOM     14  O   UNL     1     -23.629  25.301 -26.898  1.00  0.00    -0.382 OA
ATOM     15  H   UNL     1     -24.071  25.954 -26.296  1.00  0.00     0.211 HD
ENDBRANCH   8  14
ENDBRANCH   1   8
BRANCH   1  16
ATOM     16  O   UNL     1     -20.765  26.571 -25.957  1.00  0.00    -0.387 OA
ATOM     17  H   UNL     1     -20.266  26.129 -25.221  1.00  0.00     0.211 HD
ENDBRANCH   1  16
TORSDOF 10
ENDMDL
MODEL 9
REMARK VINA RESULT:    -4.480      1.626      4.145
REMARK INTER + INTRA:          -7.172
REMARK INTER:                  -6.392
REMARK INTRA:                  -0.781
REMARK UNBOUND:                -0.728
REMARK SMILES O=C(CO)[C@@H](O)[C@@H](O)[C@H](O)CO
REMARK SMILES IDX 7 1 9 2 11 3 12 4 10 6 5 8 2 9 1 10 3 11 4 12 6 14 8 16
REMARK H PARENT 12 5 10 7 4 13 6 15 8 17
REMARK Flexibility Score: inf
ROOT
ATOM      1  C   UNL     1     -21.186  23.668 -25.230  1.00  0.00     0.181 C 
ENDROOT
BRANCH   1   2
ATOM      2  C   UNL     1     -21.394  22.130 -25.189  1.00  0.00     0.171 C 
BRANCH   2   3
ATOM      3  C   UNL     1     -22.649  21.694 -24.411  1.00  0.00     0.190 C 
BRANCH   3   4
ATOM      4  O   UNL     1     -23.806  22.005 -25.139  1.00  0.00    -0.394 OA
ATOM      5  H   UNL     1     -24.478  22.327 -24.482  1.00  0.00     0.210 HD
ENDBRANCH   3   4
ENDBRANCH   2   3
BRANCH   2   6
ATOM      6  O   UNL     1     -21.435  21.621 -26.499  1.00  0.00    -0.388 OA
ATOM      7  H   UNL     1     -21.396  20.632 -26.427  1.00  0.00     0.211 HD
ENDBRANCH   2   6
ENDBRANCH   1   2
BRANCH   1   8
ATOM      8  C   UNL     1     -20.638  24.223 -26.580  1.00  0.00     0.214 C 
BRANCH   8   9
ATOM      9  C   UNL     1     -21.228  25.555 -27.010  1.00  0.00     0.189 C 
ATOM     10  O   UNL     1     -20.857  26.576 -26.450  1.00  0.00    -0.294 OA
BRANCH   9  11
ATOM     11  C   UNL     1     -22.295  25.668 -28.066  1.00  0.00     0.234 C 
BRANCH  11  12
ATOM     12  O   UNL     1     -23.532  25.312 -27.516  1.00  0.00    -0.388 OA
ATOM     13  H   UNL     1     -24.059  26.151 -27.455  1.00  0.00     0.211 HD
ENDBRANCH  11  12
ENDBRANCH   9  11
ENDBRANCH   8   9
BRANCH   8  14
ATOM     14  O   UNL     1     -19.234  24.307 -26.560  1.00  0.00    -0.382 OA
ATOM     15  H   UNL     1     -18.966  25.129 -27.046  1.00  0.00     0.211 HD
ENDBRANCH   8  14
ENDBRANCH   1   8
BRANCH   1  16
ATOM     16  O   UNL     1     -22.366  24.335 -24.857  1.00  0.00    -0.387 OA
ATOM     17  H   UNL     1     -22.537  25.030 -25.545  1.00  0.00     0.211 HD
ENDBRANCH   1  16
TORSDOF 10
ENDMDL
