MODEL 1
REMARK VINA RESULT:    -4.088      0.000      0.000
REMARK INTER + INTRA:          -4.208
REMARK INTER:                  -4.208
REMARK INTRA:                   0.000
REMARK UNBOUND:                 0.000
REMARK SMILES CC1(C)[C@@H]2CC[C@@](C)(C2)[C@@H]1O
REMARK SMILES IDX 1 1 2 2 4 3 5 4 6 5 7 6 9 7 10 8 8 9 3 10 11 11
REMARK H PARENT 11 12
REMARK Flexibility Score: inf
ROOT
ATOM      1  C   UNL     1     116.640 119.119 112.036  1.00  0.00     0.014 C 
ATOM      2  C   UNL     1     117.159 118.317 113.257  1.00  0.00    -0.006 C 
ATOM      3  C   UNL     1     118.717 118.394 113.432  1.00  0.00    -0.002 C 
ATOM      4  C   UNL     1     119.443 118.092 112.104  1.00  0.00     0.005 C 
ATOM      5  C   UNL     1     119.142 116.601 111.884  1.00  0.00     0.010 C 
ATOM      6  C   UNL     1     118.378 116.213 113.173  1.00  0.00    -0.006 C 
ATOM      7  C   UNL     1     119.029 117.118 114.196  1.00  0.00     0.013 C 
ATOM      8  C   UNL     1     116.933 116.772 113.136  1.00  0.00     0.126 C 
ATOM      9  C   UNL     1     118.459 114.722 113.517  1.00  0.00     0.014 C 
ATOM     10  C   UNL     1     116.455 118.882 114.514  1.00  0.00     0.014 C 
ENDROOT
BRANCH   8  11
ATOM     11  O   UNL     1     116.267 116.389 111.959  1.00  0.00    -0.392 OA
ATOM     12  H   UNL     1     116.909 116.525 111.215  1.00  0.00     0.211 HD
ENDBRANCH   8  11
TORSDOF 1
ENDMDL
MODEL 2
REMARK VINA RESULT:    -4.053      1.632      3.183
REMARK INTER + INTRA:          -4.172
REMARK INTER:                  -4.172
REMARK INTRA:                   0.000
REMARK UNBOUND:                 0.000
REMARK SMILES CC1(C)[C@@H]2CC[C@@](C)(C2)[C@@H]1O
REMARK SMILES IDX 1 1 2 2 4 3 5 4 6 5 7 6 9 7 10 8 8 9 3 10 11 11
REMARK H PARENT 11 12
REMARK Flexibility Score: inf
ROOT
ATOM      1  C   UNL     1     114.111 116.645 112.072  1.00  0.00     0.014 C 
ATOM      2  C   UNL     1     114.910 117.167 113.295  1.00  0.00    -0.006 C 
ATOM      3  C   UNL     1     114.827 118.724 113.470  1.00  0.00    -0.002 C 
ATOM      4  C   UNL     1     115.128 119.452 112.143  1.00  0.00     0.005 C 
ATOM      5  C   UNL     1     116.620 119.157 111.925  1.00  0.00     0.010 C 
ATOM      6  C   UNL     1     117.009 118.393 113.213  1.00  0.00    -0.006 C 
ATOM      7  C   UNL     1     116.101 119.041 114.236  1.00  0.00     0.013 C 
ATOM      8  C   UNL     1     116.455 116.947 113.175  1.00  0.00     0.126 C 
ATOM      9  C   UNL     1     118.500 118.480 113.559  1.00  0.00     0.014 C 
ATOM     10  C   UNL     1     114.346 116.460 114.550  1.00  0.00     0.014 C 
ENDROOT
BRANCH   8  11
ATOM     11  O   UNL     1     116.843 116.282 111.999  1.00  0.00    -0.392 OA
ATOM     12  H   UNL     1     117.798 116.507 111.850  1.00  0.00     0.211 HD
ENDBRANCH   8  11
TORSDOF 1
ENDMDL
MODEL 3
REMARK VINA RESULT:    -4.035      1.682      3.222
REMARK INTER + INTRA:          -4.153
REMARK INTER:                  -4.153
REMARK INTRA:                   0.000
REMARK UNBOUND:                 0.000
REMARK SMILES CC1(C)[C@@H]2CC[C@@](C)(C2)[C@@H]1O
REMARK SMILES IDX 1 1 2 2 4 3 5 4 6 5 7 6 9 7 10 8 8 9 3 10 11 11
REMARK H PARENT 11 12
REMARK Flexibility Score: inf
ROOT
ATOM      1  C   UNL     1     119.179 116.500 112.082  1.00  0.00     0.014 C 
ATOM      2  C   UNL     1     118.343 115.989 113.285  1.00  0.00    -0.006 C 
ATOM      3  C   UNL     1     118.406 114.432 113.467  1.00  0.00    -0.002 C 
ATOM      4  C   UNL     1     118.133 113.703 112.134  1.00  0.00     0.005 C 
ATOM      5  C   UNL     1     116.650 114.013 111.875  1.00  0.00     0.010 C 
ATOM      6  C   UNL     1     116.235 114.784 113.151  1.00  0.00    -0.006 C 
ATOM      7  C   UNL     1     117.109 114.131 114.199  1.00  0.00     0.013 C 
ATOM      8  C   UNL     1     116.804 116.225 113.123  1.00  0.00     0.126 C 
ATOM      9  C   UNL     1     114.735 114.713 113.457  1.00  0.00     0.014 C 
ATOM     10  C   UNL     1     118.881 116.695 114.553  1.00  0.00     0.014 C 
ENDROOT
BRANCH   8  11
ATOM     11  O   UNL     1     116.455 116.889 111.935  1.00  0.00    -0.392 OA
ATOM     12  H   UNL     1     117.245 117.430 111.673  1.00  0.00     0.211 HD
ENDBRANCH   8  11
TORSDOF 1
ENDMDL
MODEL 4
REMARK VINA RESULT:    -4.032      2.472      4.518
REMARK INTER + INTRA:          -4.150
REMARK INTER:                  -4.150
REMARK INTRA:                   0.000
REMARK UNBOUND:                 0.000
REMARK SMILES CC1(C)[C@@H]2CC[C@@](C)(C2)[C@@H]1O
REMARK SMILES IDX 1 1 2 2 4 3 5 4 6 5 7 6 9 7 10 8 8 9 3 10 11 11
REMARK H PARENT 11 12
REMARK Flexibility Score: inf
ROOT
ATOM      1  C   UNL     1     116.586 113.991 112.115  1.00  0.00     0.014 C 
ATOM      2  C   UNL     1     116.082 114.845 113.307  1.00  0.00    -0.006 C 
ATOM      3  C   UNL     1     114.530 114.761 113.517  1.00  0.00    -0.002 C 
ATOM      4  C   UNL     1     113.774 114.992 112.191  1.00  0.00     0.005 C 
ATOM      5  C   UNL     1     114.055 116.474 111.894  1.00  0.00     0.010 C 
ATOM      6  C   UNL     1     114.840 116.930 113.147  1.00  0.00    -0.006 C 
ATOM      7  C   UNL     1     114.219 116.069 114.225  1.00  0.00     0.013 C 
ATOM      8  C   UNL     1     116.289 116.384 113.107  1.00  0.00     0.126 C 
ATOM      9  C   UNL     1     114.750 118.436 113.421  1.00  0.00     0.014 C 
ATOM     10  C   UNL     1     116.818 114.348 114.575  1.00  0.00     0.014 C 
ENDROOT
BRANCH   8  11
ATOM     11  O   UNL     1     116.929 116.717 111.901  1.00  0.00    -0.392 OA
ATOM     12  H   UNL     1     116.215 116.788 111.215  1.00  0.00     0.211 HD
ENDBRANCH   8  11
TORSDOF 1
ENDMDL
MODEL 5
REMARK VINA RESULT:    -3.974      1.438      2.785
REMARK INTER + INTRA:          -4.090
REMARK INTER:                  -4.090
REMARK INTRA:                   0.000
REMARK UNBOUND:                 0.000
REMARK SMILES CC1(C)[C@@H]2CC[C@@](C)(C2)[C@@H]1O
REMARK SMILES IDX 1 1 2 2 4 3 5 4 6 5 7 6 9 7 10 8 8 9 3 10 11 11
REMARK H PARENT 11 12
REMARK Flexibility Score: inf
ROOT
ATOM      1  C   UNL     1     119.882 118.036 112.005  1.00  0.00     0.014 C 
ATOM      2  C   UNL     1     118.948 117.831 113.226  1.00  0.00    -0.006 C 
ATOM      3  C   UNL     1     118.529 116.335 113.442  1.00  0.00    -0.002 C 
ATOM      4  C   UNL     1     118.023 115.703 112.128  1.00  0.00     0.005 C 
ATOM      5  C   UNL     1     116.705 116.451 111.876  1.00  0.00     0.010 C 
ATOM      6  C   UNL     1     116.568 117.335 113.138  1.00  0.00    -0.006 C 
ATOM      7  C   UNL     1     117.214 116.463 114.192  1.00  0.00     0.013 C 
ATOM      8  C   UNL     1     117.554 118.529 113.074  1.00  0.00     0.126 C 
ATOM      9  C   UNL     1     115.125 117.738 113.460  1.00  0.00     0.014 C 
ATOM     10  C   UNL     1     119.697 118.359 114.473  1.00  0.00     0.014 C 
ENDROOT
BRANCH   8  11
ATOM     11  O   UNL     1     117.409 119.248 111.875  1.00  0.00    -0.392 OA
ATOM     12  H   UNL     1     117.130 118.591 111.185  1.00  0.00     0.211 HD
ENDBRANCH   8  11
TORSDOF 1
ENDMDL
MODEL 6
REMARK VINA RESULT:    -3.959      1.774      4.000
REMARK INTER + INTRA:          -4.074
REMARK INTER:                  -4.074
REMARK INTRA:                   0.000
REMARK UNBOUND:                 0.000
REMARK SMILES CC1(C)[C@@H]2CC[C@@](C)(C2)[C@@H]1O
REMARK SMILES IDX 1 1 2 2 4 3 5 4 6 5 7 6 9 7 10 8 8 9 3 10 11 11
REMARK H PARENT 11 12
REMARK Flexibility Score: inf
ROOT
ATOM      1  C   UNL     1     117.850 113.093 112.087  1.00  0.00     0.014 C 
ATOM      2  C   UNL     1     117.717 114.060 113.292  1.00  0.00    -0.006 C 
ATOM      3  C   UNL     1     116.246 114.551 113.534  1.00  0.00    -0.002 C 
ATOM      4  C   UNL     1     115.606 115.058 112.224  1.00  0.00     0.005 C 
ATOM      5  C   UNL     1     116.407 116.336 111.927  1.00  0.00     0.010 C 
ATOM      6  C   UNL     1     117.327 116.458 113.165  1.00  0.00    -0.006 C 
ATOM      7  C   UNL     1     116.452 115.874 114.253  1.00  0.00     0.013 C 
ATOM      8  C   UNL     1     118.472 115.417 113.094  1.00  0.00     0.126 C 
ATOM      9  C   UNL     1     117.801 117.888 113.447  1.00  0.00     0.014 C 
ATOM     10  C   UNL     1     118.240 113.313 114.543  1.00  0.00     0.014 C 
ENDROOT
BRANCH   8  11
ATOM     11  O   UNL     1     119.168 115.505 111.876  1.00  0.00    -0.392 OA
ATOM     12  H   UNL     1     119.850 114.784 111.889  1.00  0.00     0.211 HD
ENDBRANCH   8  11
TORSDOF 1
ENDMDL
MODEL 7
REMARK VINA RESULT:    -3.928      1.355      2.239
REMARK INTER + INTRA:          -4.043
REMARK INTER:                  -4.043
REMARK INTRA:                   0.000
REMARK UNBOUND:                 0.000
REMARK SMILES CC1(C)[C@@H]2CC[C@@](C)(C2)[C@@H]1O
REMARK SMILES IDX 1 1 2 2 4 3 5 4 6 5 7 6 9 7 10 8 8 9 3 10 11 11
REMARK H PARENT 11 12
REMARK Flexibility Score: inf
ROOT
ATOM      1  C   UNL     1     117.529 118.583 115.039  1.00  0.00     0.014 C 
ATOM      2  C   UNL     1     118.649 117.888 114.221  1.00  0.00    -0.006 C 
ATOM      3  C   UNL     1     118.770 118.428 112.753  1.00  0.00    -0.002 C 
ATOM      4  C   UNL     1     117.393 118.470 112.058  1.00  0.00     0.005 C 
ATOM      5  C   UNL     1     117.044 116.981 111.905  1.00  0.00     0.010 C 
ATOM      6  C   UNL     1     118.319 116.277 112.429  1.00  0.00    -0.006 C 
ATOM      7  C   UNL     1     119.397 117.255 112.018  1.00  0.00     0.013 C 
ATOM      8  C   UNL     1     118.390 116.364 113.974  1.00  0.00     0.126 C 
ATOM      9  C   UNL     1     118.517 114.861 111.875  1.00  0.00     0.014 C 
ATOM     10  C   UNL     1     119.979 118.108 114.980  1.00  0.00     0.014 C 
ENDROOT
BRANCH   8  11
ATOM     11  O   UNL     1     117.209 115.887 114.568  1.00  0.00    -0.392 OA
ATOM     12  H   UNL     1     116.977 116.529 115.288  1.00  0.00     0.211 HD
ENDBRANCH   8  11
TORSDOF 1
ENDMDL
MODEL 8
REMARK VINA RESULT:    -3.906      3.070      4.624
REMARK INTER + INTRA:          -4.021
REMARK INTER:                  -4.021
REMARK INTRA:                   0.000
REMARK UNBOUND:                 0.000
REMARK SMILES CC1(C)[C@@H]2CC[C@@](C)(C2)[C@@H]1O
REMARK SMILES IDX 1 1 2 2 4 3 5 4 6 5 7 6 9 7 10 8 8 9 3 10 11 11
REMARK H PARENT 11 12
REMARK Flexibility Score: inf
ROOT
ATOM      1  C   UNL     1     115.669 114.509 115.135  1.00  0.00     0.014 C 
ATOM      2  C   UNL     1     114.529 115.229 114.368  1.00  0.00    -0.006 C 
ATOM      3  C   UNL     1     114.307 114.669 112.920  1.00  0.00    -0.002 C 
ATOM      4  C   UNL     1     115.641 114.567 112.150  1.00  0.00     0.005 C 
ATOM      5  C   UNL     1     116.030 116.041 111.950  1.00  0.00     0.010 C 
ATOM      6  C   UNL     1     114.812 116.797 112.531  1.00  0.00    -0.006 C 
ATOM      7  C   UNL     1     113.679 115.850 112.199  1.00  0.00     0.013 C 
ATOM      8  C   UNL     1     114.824 116.739 114.079  1.00  0.00     0.126 C 
ATOM      9  C   UNL     1     114.631 118.210 111.963  1.00  0.00     0.014 C 
ATOM     10  C   UNL     1     113.237 115.068 115.205  1.00  0.00     0.014 C 
ENDROOT
BRANCH   8  11
ATOM     11  O   UNL     1     116.053 117.185 114.598  1.00  0.00    -0.392 OA
ATOM     12  H   UNL     1     116.628 116.380 114.689  1.00  0.00     0.211 HD
ENDBRANCH   8  11
TORSDOF 1
ENDMDL
MODEL 9
REMARK VINA RESULT:    -3.899      2.076      3.420
REMARK INTER + INTRA:          -4.013
REMARK INTER:                  -4.013
REMARK INTRA:                   0.000
REMARK UNBOUND:                 0.000
REMARK SMILES CC1(C)[C@@H]2CC[C@@](C)(C2)[C@@H]1O
REMARK SMILES IDX 1 1 2 2 4 3 5 4 6 5 7 6 9 7 10 8 8 9 3 10 11 11
REMARK H PARENT 11 12
REMARK Flexibility Score: inf
ROOT
ATOM      1  C   UNL     1     114.549 117.521 115.125  1.00  0.00     0.014 C 
ATOM      2  C   UNL     1     115.284 118.628 114.325  1.00  0.00    -0.006 C 
ATOM      3  C   UNL     1     114.718 118.824 112.874  1.00  0.00    -0.002 C 
ATOM      4  C   UNL     1     114.589 117.473 112.139  1.00  0.00     0.005 C 
ATOM      5  C   UNL     1     116.054 117.053 111.940  1.00  0.00     0.010 C 
ATOM      6  C   UNL     1     116.835 118.272 112.485  1.00  0.00    -0.006 C 
ATOM      7  C   UNL     1     115.906 119.412 112.131  1.00  0.00     0.013 C 
ATOM      8  C   UNL     1     116.787 118.300 114.034  1.00  0.00     0.126 C 
ATOM      9  C   UNL     1     118.246 118.414 111.904  1.00  0.00     0.014 C 
ATOM     10  C   UNL     1     115.151 119.944 115.129  1.00  0.00     0.014 C 
ENDROOT
BRANCH   8  11
ATOM     11  O   UNL     1     117.215 117.077 114.580  1.00  0.00    -0.392 OA
ATOM     12  H   UNL     1     117.922 116.731 113.975  1.00  0.00     0.211 HD
ENDBRANCH   8  11
TORSDOF 1
ENDMDL
