MODEL 1
REMARK VINA RESULT:    -4.331      0.000      0.000
REMARK INTER + INTRA:          -4.331
REMARK INTER:                  -4.331
REMARK INTRA:                   0.000
REMARK UNBOUND:                 0.000
REMARK SMILES CC1=CC(=O)[C@H]2C[C@@H]1C2(C)C
REMARK SMILES IDX 1 1 2 2 3 3 4 4 5 5 6 6 7 7 8 8 9 9 10 10 11 11
REMARK H PARENT
REMARK Flexibility Score: inf
ROOT
ATOM      1  C   UNL     1     150.189 160.093 198.480  1.00  0.00     0.040 C 
ATOM      2  C   UNL     1     151.206 159.926 199.563  1.00  0.00    -0.066 C 
ATOM      3  C   UNL     1     151.620 158.699 199.991  1.00  0.00     0.047 C 
ATOM      4  C   UNL     1     152.643 158.688 201.085  1.00  0.00     0.159 C 
ATOM      5  O   UNL     1     153.073 157.621 201.594  1.00  0.00    -0.295 OA
ATOM      6  C   UNL     1     153.129 160.066 201.539  1.00  0.00     0.067 C 
ATOM      7  C   UNL     1     153.391 160.828 200.222  1.00  0.00     0.021 C 
ATOM      8  C   UNL     1     151.880 161.153 200.212  1.00  0.00     0.022 C 
ATOM      9  C   UNL     1     151.890 160.981 201.759  1.00  0.00    -0.019 C 
ATOM     10  C   UNL     1     150.632 160.369 202.438  1.00  0.00     0.012 C 
ATOM     11  C   UNL     1     152.251 162.295 202.495  1.00  0.00     0.012 C 
ENDROOT
TORSDOF 0
ENDMDL
MODEL 2
REMARK VINA RESULT:    -4.310      1.564      3.006
REMARK INTER + INTRA:          -4.310
REMARK INTER:                  -4.310
REMARK INTRA:                   0.000
REMARK UNBOUND:                 0.000
REMARK SMILES CC1=CC(=O)[C@H]2C[C@@H]1C2(C)C
REMARK SMILES IDX 1 1 2 2 3 3 4 4 5 5 6 6 7 7 8 8 9 9 10 10 11 11
REMARK H PARENT
REMARK Flexibility Score: inf
ROOT
ATOM      1  C   UNL     1     152.366 157.455 203.191  1.00  0.00     0.040 C 
ATOM      2  C   UNL     1     151.957 158.545 202.252  1.00  0.00    -0.066 C 
ATOM      3  C   UNL     1     151.859 158.347 200.906  1.00  0.00     0.047 C 
ATOM      4  C   UNL     1     151.440 159.533 200.091  1.00  0.00     0.159 C 
ATOM      5  O   UNL     1     151.353 159.490 198.837  1.00  0.00    -0.295 OA
ATOM      6  C   UNL     1     151.125 160.798 200.891  1.00  0.00     0.067 C 
ATOM      7  C   UNL     1     150.251 160.297 202.061  1.00  0.00     0.021 C 
ATOM      8  C   UNL     1     151.572 159.941 202.781  1.00  0.00     0.022 C 
ATOM      9  C   UNL     1     152.269 161.033 201.918  1.00  0.00    -0.019 C 
ATOM     10  C   UNL     1     153.734 160.783 201.460  1.00  0.00     0.012 C 
ATOM     11  C   UNL     1     152.196 162.436 202.570  1.00  0.00     0.012 C 
ENDROOT
TORSDOF 0
ENDMDL
MODEL 3
REMARK VINA RESULT:    -4.253      1.557      2.354
REMARK INTER + INTRA:          -4.253
REMARK INTER:                  -4.253
REMARK INTRA:                   0.000
REMARK UNBOUND:                 0.000
REMARK SMILES CC1=CC(=O)[C@H]2C[C@@H]1C2(C)C
REMARK SMILES IDX 1 1 2 2 3 3 4 4 5 5 6 6 7 7 8 8 9 9 10 10 11 11
REMARK H PARENT
REMARK Flexibility Score: inf
ROOT
ATOM      1  C   UNL     1     149.674 160.390 199.000  1.00  0.00     0.040 C 
ATOM      2  C   UNL     1     150.948 160.457 199.781  1.00  0.00    -0.066 C 
ATOM      3  C   UNL     1     152.156 160.667 199.186  1.00  0.00     0.047 C 
ATOM      4  C   UNL     1     153.346 160.708 200.096  1.00  0.00     0.159 C 
ATOM      5  O   UNL     1     154.518 160.854 199.665  1.00  0.00    -0.295 OA
ATOM      6  C   UNL     1     153.033 160.560 201.587  1.00  0.00     0.067 C 
ATOM      7  C   UNL     1     151.832 161.503 201.816  1.00  0.00     0.021 C 
ATOM      8  C   UNL     1     150.939 160.343 201.319  1.00  0.00     0.022 C 
ATOM      9  C   UNL     1     152.059 159.362 201.773  1.00  0.00    -0.019 C 
ATOM     10  C   UNL     1     152.298 158.079 200.927  1.00  0.00     0.012 C 
ATOM     11  C   UNL     1     151.913 158.947 203.258  1.00  0.00     0.012 C 
ENDROOT
TORSDOF 0
ENDMDL
MODEL 4
REMARK VINA RESULT:    -4.245      1.058      3.023
REMARK INTER + INTRA:          -4.245
REMARK INTER:                  -4.245
REMARK INTRA:                   0.000
REMARK UNBOUND:                 0.000
REMARK SMILES CC1=CC(=O)[C@H]2C[C@@H]1C2(C)C
REMARK SMILES IDX 1 1 2 2 3 3 4 4 5 5 6 6 7 7 8 8 9 9 10 10 11 11
REMARK H PARENT
REMARK Flexibility Score: inf
ROOT
ATOM      1  C   UNL     1     151.971 162.612 202.927  1.00  0.00     0.040 C 
ATOM      2  C   UNL     1     152.045 161.368 202.100  1.00  0.00    -0.066 C 
ATOM      3  C   UNL     1     151.835 160.129 202.629  1.00  0.00     0.047 C 
ATOM      4  C   UNL     1     151.945 158.975 201.679  1.00  0.00     0.159 C 
ATOM      5  O   UNL     1     151.814 157.781 202.053  1.00  0.00    -0.295 OA
ATOM      6  C   UNL     1     152.225 159.352 200.223  1.00  0.00     0.067 C 
ATOM      7  C   UNL     1     151.252 160.517 199.940  1.00  0.00     0.021 C 
ATOM      8  C   UNL     1     152.311 161.441 200.583  1.00  0.00     0.022 C 
ATOM      9  C   UNL     1     153.387 160.386 200.194  1.00  0.00    -0.019 C 
ATOM     10  C   UNL     1     154.589 160.172 201.156  1.00  0.00     0.012 C 
ATOM     11  C   UNL     1     153.941 160.608 198.764  1.00  0.00     0.012 C 
ENDROOT
TORSDOF 0
ENDMDL
MODEL 5
REMARK VINA RESULT:    -4.147      1.781      3.317
REMARK INTER + INTRA:          -4.147
REMARK INTER:                  -4.147
REMARK INTRA:                   0.000
REMARK UNBOUND:                 0.000
REMARK SMILES CC1=CC(=O)[C@H]2C[C@@H]1C2(C)C
REMARK SMILES IDX 1 1 2 2 3 3 4 4 5 5 6 6 7 7 8 8 9 9 10 10 11 11
REMARK H PARENT
REMARK Flexibility Score: inf
ROOT
ATOM      1  C   UNL     1     153.694 157.696 202.586  1.00  0.00     0.040 C 
ATOM      2  C   UNL     1     152.808 158.832 202.185  1.00  0.00    -0.066 C 
ATOM      3  C   UNL     1     151.571 159.018 202.727  1.00  0.00     0.047 C 
ATOM      4  C   UNL     1     150.797 160.199 202.225  1.00  0.00     0.159 C 
ATOM      5  O   UNL     1     149.629 160.453 202.616  1.00  0.00    -0.295 OA
ATOM      6  C   UNL     1     151.528 161.073 201.205  1.00  0.00     0.067 C 
ATOM      7  C   UNL     1     152.940 161.252 201.804  1.00  0.00     0.021 C 
ATOM      8  C   UNL     1     153.288 159.887 201.167  1.00  0.00     0.022 C 
ATOM      9  C   UNL     1     152.162 160.151 200.125  1.00  0.00    -0.019 C 
ATOM     10  C   UNL     1     151.335 158.937 199.614  1.00  0.00     0.012 C 
ATOM     11  C   UNL     1     152.671 160.945 198.896  1.00  0.00     0.012 C 
ENDROOT
TORSDOF 0
ENDMDL
MODEL 6
REMARK VINA RESULT:    -4.101      1.094      2.797
REMARK INTER + INTRA:          -4.101
REMARK INTER:                  -4.101
REMARK INTRA:                   0.000
REMARK UNBOUND:                 0.000
REMARK SMILES CC1=CC(=O)[C@H]2C[C@@H]1C2(C)C
REMARK SMILES IDX 1 1 2 2 3 3 4 4 5 5 6 6 7 7 8 8 9 9 10 10 11 11
REMARK H PARENT
REMARK Flexibility Score: inf
ROOT
ATOM      1  C   UNL     1     154.937 160.741 199.800  1.00  0.00     0.040 C 
ATOM      2  C   UNL     1     153.724 160.373 200.593  1.00  0.00    -0.066 C 
ATOM      3  C   UNL     1     153.763 159.452 201.597  1.00  0.00     0.047 C 
ATOM      4  C   UNL     1     152.468 159.184 202.303  1.00  0.00     0.159 C 
ATOM      5  O   UNL     1     152.365 158.327 203.217  1.00  0.00    -0.295 OA
ATOM      6  C   UNL     1     151.281 160.027 201.832  1.00  0.00     0.067 C 
ATOM      7  C   UNL     1     151.848 161.460 201.741  1.00  0.00     0.021 C 
ATOM      8  C   UNL     1     152.372 161.070 200.340  1.00  0.00     0.022 C 
ATOM      9  C   UNL     1     151.241 160.002 200.277  1.00  0.00    -0.019 C 
ATOM     10  C   UNL     1     151.539 158.659 199.553  1.00  0.00     0.012 C 
ATOM     11  C   UNL     1     149.918 160.577 199.713  1.00  0.00     0.012 C 
ENDROOT
TORSDOF 0
ENDMDL
MODEL 7
REMARK VINA RESULT:    -4.088      1.568      3.045
REMARK INTER + INTRA:          -4.088
REMARK INTER:                  -4.088
REMARK INTRA:                   0.000
REMARK UNBOUND:                 0.000
REMARK SMILES CC1=CC(=O)[C@H]2C[C@@H]1C2(C)C
REMARK SMILES IDX 1 1 2 2 3 3 4 4 5 5 6 6 7 7 8 8 9 9 10 10 11 11
REMARK H PARENT
REMARK Flexibility Score: inf
ROOT
ATOM      1  C   UNL     1     152.169 162.424 202.600  1.00  0.00     0.040 C 
ATOM      2  C   UNL     1     152.387 161.308 201.629  1.00  0.00    -0.066 C 
ATOM      3  C   UNL     1     151.373 160.777 200.889  1.00  0.00     0.047 C 
ATOM      4  C   UNL     1     151.743 159.662 199.959  1.00  0.00     0.159 C 
ATOM      5  O   UNL     1     150.891 159.062 199.255  1.00  0.00    -0.295 OA
ATOM      6  C   UNL     1     153.230 159.305 199.927  1.00  0.00     0.067 C 
ATOM      7  C   UNL     1     153.945 160.670 199.844  1.00  0.00     0.021 C 
ATOM      8  C   UNL     1     153.800 160.741 201.382  1.00  0.00     0.022 C 
ATOM      9  C   UNL     1     153.743 159.186 201.391  1.00  0.00    -0.019 C 
ATOM     10  C   UNL     1     152.829 158.490 202.439  1.00  0.00     0.012 C 
ATOM     11  C   UNL     1     155.151 158.544 201.471  1.00  0.00     0.012 C 
ENDROOT
TORSDOF 0
ENDMDL
MODEL 8
REMARK VINA RESULT:    -4.015      1.673      3.469
REMARK INTER + INTRA:          -4.015
REMARK INTER:                  -4.015
REMARK INTRA:                   0.000
REMARK UNBOUND:                 0.000
REMARK SMILES CC1=CC(=O)[C@H]2C[C@@H]1C2(C)C
REMARK SMILES IDX 1 1 2 2 3 3 4 4 5 5 6 6 7 7 8 8 9 9 10 10 11 11
REMARK H PARENT
REMARK Flexibility Score: inf
ROOT
ATOM      1  C   UNL     1     155.431 160.719 200.235  1.00  0.00     0.040 C 
ATOM      2  C   UNL     1     153.961 160.622 200.494  1.00  0.00    -0.066 C 
ATOM      3  C   UNL     1     153.400 161.026 201.670  1.00  0.00     0.047 C 
ATOM      4  C   UNL     1     151.915 160.867 201.785  1.00  0.00     0.159 C 
ATOM      5  O   UNL     1     151.286 161.163 202.834  1.00  0.00    -0.295 OA
ATOM      6  C   UNL     1     151.217 160.319 200.539  1.00  0.00     0.067 C 
ATOM      7  C   UNL     1     151.836 161.124 199.375  1.00  0.00     0.021 C 
ATOM      8  C   UNL     1     152.999 160.106 199.405  1.00  0.00     0.022 C 
ATOM      9  C   UNL     1     152.010 159.080 200.032  1.00  0.00    -0.019 C 
ATOM     10  C   UNL     1     152.561 158.076 201.083  1.00  0.00     0.012 C 
ATOM     11  C   UNL     1     151.230 158.282 198.958  1.00  0.00     0.012 C 
ENDROOT
TORSDOF 0
ENDMDL
MODEL 9
REMARK VINA RESULT:    -3.992      1.874      3.290
REMARK INTER + INTRA:          -3.992
REMARK INTER:                  -3.992
REMARK INTRA:                   0.000
REMARK UNBOUND:                 0.000
REMARK SMILES CC1=CC(=O)[C@H]2C[C@@H]1C2(C)C
REMARK SMILES IDX 1 1 2 2 3 3 4 4 5 5 6 6 7 7 8 8 9 9 10 10 11 11
REMARK H PARENT
REMARK Flexibility Score: inf
ROOT
ATOM      1  C   UNL     1     155.678 160.104 200.947  1.00  0.00     0.040 C 
ATOM      2  C   UNL     1     154.220 160.176 200.619  1.00  0.00    -0.066 C 
ATOM      3  C   UNL     1     153.755 160.809 199.505  1.00  0.00     0.047 C 
ATOM      4  C   UNL     1     152.270 160.802 199.309  1.00  0.00     0.159 C 
ATOM      5  O   UNL     1     151.715 161.387 198.344  1.00  0.00    -0.295 OA
ATOM      6  C   UNL     1     151.475 160.031 200.365  1.00  0.00     0.067 C 
ATOM      7  C   UNL     1     152.256 158.709 200.534  1.00  0.00     0.021 C 
ATOM      8  C   UNL     1     153.174 159.478 201.512  1.00  0.00     0.022 C 
ATOM      9  C   UNL     1     151.986 160.449 201.773  1.00  0.00    -0.019 C 
ATOM     10  C   UNL     1     152.306 161.950 202.026  1.00  0.00     0.012 C 
ATOM     11  C   UNL     1     151.057 159.952 202.909  1.00  0.00     0.012 C 
ENDROOT
TORSDOF 0
ENDMDL
