MODEL 1
REMARK VINA RESULT:    -4.508      0.000      0.000
REMARK INTER + INTRA:          -5.826
REMARK INTER:                  -6.352
REMARK INTRA:                   0.526
REMARK UNBOUND:                 0.526
REMARK SMILES CC1=CCC(=C(C)C)C(=O)CC(C)=CCC1
REMARK SMILES IDX 12 1 14 2 13 3 15 4 16 5 2 6 1 7 3 8 11 10 9 11 10 12 5 13
REMARK SMILES IDX 6 14 7 15 8 16 4 17
REMARK H PARENT
REMARK Flexibility Score: 60.00
ROOT
ATOM      1  C   UNL     1     100.623 118.310 124.885  1.00  0.00    -0.070 C 
ATOM      2  C   UNL     1     101.308 117.951 125.997  1.00  0.00    -0.027 C 
ATOM      3  C   UNL     1     100.261 119.767 124.732  1.00  0.00     0.039 C 
ENDROOT
BRANCH   2   4
ATOM      4  C   UNL     1     101.860 116.580 126.302  1.00  0.00     0.032 C 
BRANCH   4   5
ATOM      5  C   UNL     1     103.023 116.189 125.370  1.00  0.00     0.034 C 
BRANCH   5   6
ATOM      6  C   UNL     1     102.789 114.853 124.692  1.00  0.00    -0.077 C 
ATOM      7  C   UNL     1     102.537 113.645 125.559  1.00  0.00     0.039 C 
ATOM      8  C   UNL     1     102.820 114.676 123.352  1.00  0.00    -0.023 CG0
ATOM      9  G   UNL     1     103.092 115.750 122.326  1.00  0.00     0.000 G0
ENDBRANCH   5   6
ENDBRANCH   4   5
ENDBRANCH   2   4
BRANCH   1  10
ATOM     10  C   UNL     1     100.265 117.346 123.765  1.00  0.00     0.111 C 
BRANCH  10  11
ATOM     11  C   UNL     1     101.186 117.506 122.580  1.00  0.00     0.163 C 
ATOM     12  O   UNL     1     101.450 118.675 122.187  1.00  0.00    -0.294 OA
BRANCH  11  13
ATOM     13  C   UNL     1     101.739 116.328 121.842  1.00  0.00    -0.002 C 
ATOM     14  C   UNL     1     101.118 115.815 120.737  1.00  0.00    -0.069 C 
ATOM     15  C   UNL     1     101.664 114.599 120.019  1.00  0.00     0.039 C 
ATOM     16  C   UNL     1      99.878 116.456 120.157  1.00  0.00     0.039 C 
BRANCH  13  17
ATOM     17  C   UNL     1     103.064 115.770 122.330  1.00  0.00     0.066 CG0
ATOM     18  G   UNL     1     102.818 114.685 123.352  1.00  0.00     0.000 G0
ENDBRANCH  13  17
ENDBRANCH  11  13
ENDBRANCH  10  11
ENDBRANCH   1  10
TORSDOF 0
ENDMDL
MODEL 2
REMARK VINA RESULT:    -4.419      1.778      3.816
REMARK INTER + INTRA:          -5.701
REMARK INTER:                  -6.077
REMARK INTRA:                   0.376
REMARK UNBOUND:                 0.526
REMARK SMILES CC1=CCC(=C(C)C)C(=O)CC(C)=CCC1
REMARK SMILES IDX 12 1 14 2 13 3 15 4 16 5 2 6 1 7 3 8 11 10 9 11 10 12 5 13
REMARK SMILES IDX 6 14 7 15 8 16 4 17
REMARK H PARENT
REMARK Flexibility Score: 60.00
ROOT
ATOM      1  C   UNL     1     100.393 117.888 123.997  1.00  0.00    -0.070 C 
ATOM      2  C   UNL     1     100.107 118.838 123.075  1.00  0.00    -0.027 C 
ATOM      3  C   UNL     1     100.724 118.352 125.394  1.00  0.00     0.039 C 
ENDROOT
BRANCH   2   4
ATOM      4  C   UNL     1      99.649 118.599 121.657  1.00  0.00     0.032 C 
BRANCH   4   5
ATOM      5  C   UNL     1     100.793 118.134 120.736  1.00  0.00     0.034 C 
BRANCH   5   6
ATOM      6  C   UNL     1     100.480 116.816 120.054  1.00  0.00    -0.077 C 
ATOM      7  C   UNL     1      99.271 116.745 119.155  1.00  0.00     0.039 C 
ATOM      8  C   UNL     1     101.208 115.691 120.227  1.00  0.00    -0.023 CG0
ATOM      9  G   UNL     1     102.425 115.554 121.111  1.00  0.00     0.000 G0
ENDBRANCH   5   6
ENDBRANCH   4   5
ENDBRANCH   2   4
BRANCH   1  10
ATOM     10  C   UNL     1     100.333 116.395 123.717  1.00  0.00     0.111 C 
BRANCH  10  11
ATOM     11  C   UNL     1     101.713 115.805 123.554  1.00  0.00     0.163 C 
ATOM     12  O   UNL     1     102.603 116.143 124.381  1.00  0.00    -0.294 OA
BRANCH  11  13
ATOM     13  C   UNL     1     102.053 114.886 122.423  1.00  0.00    -0.002 C 
ATOM     14  C   UNL     1     101.960 113.528 122.547  1.00  0.00    -0.069 C 
ATOM     15  C   UNL     1     102.343 112.605 121.411  1.00  0.00     0.039 C 
ATOM     16  C   UNL     1     101.437 112.882 123.811  1.00  0.00     0.039 C 
BRANCH  13  17
ATOM     17  C   UNL     1     102.437 115.532 121.104  1.00  0.00     0.066 CG0
ATOM     18  G   UNL     1     101.210 115.692 120.237  1.00  0.00     0.000 G0
ENDBRANCH  13  17
ENDBRANCH  11  13
ENDBRANCH  10  11
ENDBRANCH   1  10
TORSDOF 0
ENDMDL
MODEL 3
REMARK VINA RESULT:    -4.190      1.889      3.653
REMARK INTER + INTRA:          -5.378
REMARK INTER:                  -5.744
REMARK INTRA:                   0.366
REMARK UNBOUND:                 0.526
REMARK SMILES CC1=CCC(=C(C)C)C(=O)CC(C)=CCC1
REMARK SMILES IDX 12 1 14 2 13 3 15 4 16 5 2 6 1 7 3 8 11 10 9 11 10 12 5 13
REMARK SMILES IDX 6 14 7 15 8 16 4 17
REMARK H PARENT
REMARK Flexibility Score: 60.00
ROOT
ATOM      1  C   UNL     1     101.897 116.565 125.411  1.00  0.00    -0.070 C 
ATOM      2  C   UNL     1     101.286 117.745 125.674  1.00  0.00    -0.027 C 
ATOM      3  C   UNL     1     102.821 116.011 126.467  1.00  0.00     0.039 C 
ENDROOT
BRANCH   2   4
ATOM      4  C   UNL     1     100.249 118.425 124.812  1.00  0.00     0.032 C 
BRANCH   4   5
ATOM      5  C   UNL     1     100.873 119.382 123.779  1.00  0.00     0.034 C 
BRANCH   5   6
ATOM      6  C   UNL     1     100.325 119.156 122.384  1.00  0.00    -0.077 C 
ATOM      7  C   UNL     1      98.927 119.631 122.079  1.00  0.00     0.039 C 
ATOM      8  C   UNL     1     101.008 118.526 121.402  1.00  0.00    -0.023 CG0
ATOM      9  G   UNL     1     102.399 117.950 121.524  1.00  0.00     0.000 G0
ENDBRANCH   5   6
ENDBRANCH   4   5
ENDBRANCH   2   4
BRANCH   1  10
ATOM     10  C   UNL     1     101.653 115.749 124.152  1.00  0.00     0.111 C 
BRANCH  10  11
ATOM     11  C   UNL     1     102.723 115.993 123.116  1.00  0.00     0.163 C 
ATOM     12  O   UNL     1     103.926 115.824 123.455  1.00  0.00    -0.294 OA
BRANCH  11  13
ATOM     13  C   UNL     1     102.396 116.471 121.737  1.00  0.00    -0.002 C 
ATOM     14  C   UNL     1     102.030 115.606 120.743  1.00  0.00    -0.069 C 
ATOM     15  C   UNL     1     101.738 116.095 119.341  1.00  0.00     0.039 C 
ATOM     16  C   UNL     1     101.865 114.126 121.003  1.00  0.00     0.039 C 
BRANCH  13  17
ATOM     17  C   UNL     1     102.415 117.972 121.506  1.00  0.00     0.066 CG0
ATOM     18  G   UNL     1     101.001 118.490 121.390  1.00  0.00     0.000 G0
ENDBRANCH  13  17
ENDBRANCH  11  13
ENDBRANCH  10  11
ENDBRANCH   1  10
TORSDOF 0
ENDMDL
MODEL 4
REMARK VINA RESULT:    -4.006      1.560      4.234
REMARK INTER + INTRA:          -5.120
REMARK INTER:                  -5.892
REMARK INTRA:                   0.772
REMARK UNBOUND:                 0.526
REMARK SMILES CC1=CCC(=C(C)C)C(=O)CC(C)=CCC1
REMARK SMILES IDX 12 1 14 2 13 3 15 4 16 5 2 6 1 7 3 8 11 10 9 11 10 12 5 13
REMARK SMILES IDX 6 14 7 15 8 16 4 17
REMARK H PARENT
REMARK Flexibility Score: 60.00
ROOT
ATOM      1  C   UNL     1     100.472 116.987 120.164  1.00  0.00    -0.070 C 
ATOM      2  C   UNL     1     100.946 115.733 119.976  1.00  0.00    -0.027 C 
ATOM      3  C   UNL     1      99.188 117.358 119.462  1.00  0.00     0.039 C 
ENDROOT
BRANCH   2   4
ATOM      4  C   UNL     1     102.145 115.119 120.658  1.00  0.00     0.032 C 
BRANCH   4   5
ATOM      5  C   UNL     1     101.795 114.498 122.023  1.00  0.00     0.034 C 
BRANCH   5   6
ATOM      6  C   UNL     1     102.489 115.208 123.170  1.00  0.00    -0.077 C 
ATOM      7  C   UNL     1     103.932 114.871 123.452  1.00  0.00     0.039 C 
ATOM      8  C   UNL     1     101.880 116.108 123.973  1.00  0.00    -0.023 CG0
ATOM      9  G   UNL     1     100.439 116.547 123.873  1.00  0.00     0.000 G0
ENDBRANCH   5   6
ENDBRANCH   4   5
ENDBRANCH   2   4
BRANCH   1  10
ATOM     10  C   UNL     1     101.120 118.005 121.088  1.00  0.00     0.111 C 
BRANCH  10  11
ATOM     11  C   UNL     1     100.171 118.453 122.173  1.00  0.00     0.163 C 
ATOM     12  O   UNL     1      99.232 119.233 121.856  1.00  0.00    -0.294 OA
BRANCH  11  13
ATOM     13  C   UNL     1     100.348 118.040 123.601  1.00  0.00    -0.002 C 
ATOM     14  C   UNL     1     100.368 118.954 124.617  1.00  0.00    -0.069 C 
ATOM     15  C   UNL     1     100.586 118.531 126.053  1.00  0.00     0.039 C 
ATOM     16  C   UNL     1     100.138 120.427 124.361  1.00  0.00     0.039 C 
BRANCH  13  17
ATOM     17  C   UNL     1     100.430 116.550 123.881  1.00  0.00     0.066 CG0
ATOM     18  G   UNL     1     101.877 116.129 123.991  1.00  0.00     0.000 G0
ENDBRANCH  13  17
ENDBRANCH  11  13
ENDBRANCH  10  11
ENDBRANCH   1  10
TORSDOF 0
ENDMDL
MODEL 5
REMARK VINA RESULT:    -4.005      1.571      3.681
REMARK INTER + INTRA:          -5.118
REMARK INTER:                  -5.633
REMARK INTRA:                   0.516
REMARK UNBOUND:                 0.526
REMARK SMILES CC1=CCC(=C(C)C)C(=O)CC(C)=CCC1
REMARK SMILES IDX 12 1 14 2 13 3 15 4 16 5 2 6 1 7 3 8 11 10 9 11 10 12 5 13
REMARK SMILES IDX 6 14 7 15 8 16 4 17
REMARK H PARENT
REMARK Flexibility Score: 60.00
ROOT
ATOM      1  C   UNL     1     100.228 117.303 121.243  1.00  0.00    -0.070 C 
ATOM      2  C   UNL     1     100.021 118.471 121.898  1.00  0.00    -0.027 C 
ATOM      3  C   UNL     1     100.358 117.362 119.741  1.00  0.00     0.039 C 
ENDROOT
BRANCH   2   4
ATOM      4  C   UNL     1      99.968 118.659 123.395  1.00  0.00     0.032 C 
BRANCH   4   5
ATOM      5  C   UNL     1     101.352 118.525 124.058  1.00  0.00     0.034 C 
BRANCH   5   6
ATOM      6  C   UNL     1     101.303 117.686 125.320  1.00  0.00    -0.077 C 
ATOM      7  C   UNL     1     100.410 118.140 126.447  1.00  0.00     0.039 C 
ATOM      8  C   UNL     1     102.037 116.566 125.506  1.00  0.00    -0.023 CG0
ATOM      9  G   UNL     1     103.012 115.975 124.514  1.00  0.00     0.000 G0
ENDBRANCH   5   6
ENDBRANCH   4   5
ENDBRANCH   2   4
BRANCH   1  10
ATOM     10  C   UNL     1     100.402 115.963 121.940  1.00  0.00     0.111 C 
BRANCH  10  11
ATOM     11  C   UNL     1     101.854 115.677 122.238  1.00  0.00     0.163 C 
ATOM     12  O   UNL     1     102.704 115.923 121.340  1.00  0.00    -0.294 OA
BRANCH  11  13
ATOM     13  C   UNL     1     102.291 115.069 123.534  1.00  0.00    -0.002 C 
ATOM     14  C   UNL     1     102.101 113.743 123.807  1.00  0.00    -0.069 C 
ATOM     15  C   UNL     1     102.512 113.145 125.135  1.00  0.00     0.039 C 
ATOM     16  C   UNL     1     101.505 112.802 122.785  1.00  0.00     0.039 C 
BRANCH  13  17
ATOM     17  C   UNL     1     103.025 115.975 124.507  1.00  0.00     0.066 CG0
ATOM     18  G   UNL     1     102.047 116.559 125.499  1.00  0.00     0.000 G0
ENDBRANCH  13  17
ENDBRANCH  11  13
ENDBRANCH  10  11
ENDBRANCH   1  10
TORSDOF 0
ENDMDL
MODEL 6
REMARK VINA RESULT:    -3.933      2.359      5.393
REMARK INTER + INTRA:          -5.017
REMARK INTER:                  -5.677
REMARK INTRA:                   0.660
REMARK UNBOUND:                 0.526
REMARK SMILES CC1=CCC(=C(C)C)C(=O)CC(C)=CCC1
REMARK SMILES IDX 12 1 14 2 13 3 15 4 16 5 2 6 1 7 3 8 11 10 9 11 10 12 5 13
REMARK SMILES IDX 6 14 7 15 8 16 4 17
REMARK H PARENT
REMARK Flexibility Score: 60.00
ROOT
ATOM      1  C   UNL     1     102.273 115.586 121.704  1.00  0.00    -0.070 C 
ATOM      2  C   UNL     1     102.447 116.080 120.455  1.00  0.00    -0.027 C 
ATOM      3  C   UNL     1     101.976 114.112 121.833  1.00  0.00     0.039 C 
ENDROOT
BRANCH   2   4
ATOM      4  C   UNL     1     102.852 117.490 120.100  1.00  0.00     0.032 C 
BRANCH   4   5
ATOM      5  C   UNL     1     101.780 118.224 119.273  1.00  0.00     0.034 C 
BRANCH   5   6
ATOM      6  C   UNL     1     100.383 118.001 119.820  1.00  0.00    -0.077 C 
ATOM      7  C   UNL     1      99.364 117.337 118.929  1.00  0.00     0.039 C 
ATOM      8  C   UNL     1      99.989 118.388 121.054  1.00  0.00    -0.023 CG0
ATOM      9  G   UNL     1     100.850 119.097 122.073  1.00  0.00     0.000 G0
ENDBRANCH   5   6
ENDBRANCH   4   5
ENDBRANCH   2   4
BRANCH   1  10
ATOM     10  C   UNL     1     102.424 116.415 122.969  1.00  0.00     0.111 C 
BRANCH  10  11
ATOM     11  C   UNL     1     101.094 116.945 123.447  1.00  0.00     0.163 C 
ATOM     12  O   UNL     1     100.227 116.114 123.830  1.00  0.00    -0.294 OA
BRANCH  11  13
ATOM     13  C   UNL     1     100.771 118.406 123.428  1.00  0.00    -0.002 C 
ATOM     14  C   UNL     1     100.485 119.095 124.574  1.00  0.00    -0.069 C 
ATOM     15  C   UNL     1     100.121 120.563 124.541  1.00  0.00     0.039 C 
ATOM     16  C   UNL     1     100.552 118.433 125.932  1.00  0.00     0.039 C 
BRANCH  13  17
ATOM     17  C   UNL     1     100.847 119.111 122.085  1.00  0.00     0.066 CG0
ATOM     18  G   UNL     1      99.981 118.390 121.079  1.00  0.00     0.000 G0
ENDBRANCH  13  17
ENDBRANCH  11  13
ENDBRANCH  10  11
ENDBRANCH   1  10
TORSDOF 0
ENDMDL
MODEL 7
REMARK VINA RESULT:    -3.931      1.610      2.820
REMARK INTER + INTRA:          -5.014
REMARK INTER:                  -5.425
REMARK INTRA:                   0.411
REMARK UNBOUND:                 0.526
REMARK SMILES CC1=CCC(=C(C)C)C(=O)CC(C)=CCC1
REMARK SMILES IDX 12 1 14 2 13 3 15 4 16 5 2 6 1 7 3 8 11 10 9 11 10 12 5 13
REMARK SMILES IDX 6 14 7 15 8 16 4 17
REMARK H PARENT
REMARK Flexibility Score: 60.00
ROOT
ATOM      1  C   UNL     1     101.175 116.534 124.160  1.00  0.00    -0.070 C 
ATOM      2  C   UNL     1     101.842 115.395 124.463  1.00  0.00    -0.027 C 
ATOM      3  C   UNL     1     101.375 117.720 125.073  1.00  0.00     0.039 C 
ENDROOT
BRANCH   2   4
ATOM      4  C   UNL     1     101.872 114.131 123.638  1.00  0.00     0.032 C 
BRANCH   4   5
ATOM      5  C   UNL     1     102.790 114.251 122.407  1.00  0.00     0.034 C 
BRANCH   5   6
ATOM      6  C   UNL     1     102.078 113.871 121.122  1.00  0.00    -0.077 C 
ATOM      7  C   UNL     1     101.630 112.441 120.949  1.00  0.00     0.039 C 
ATOM      8  C   UNL     1     101.846 114.735 120.110  1.00  0.00    -0.023 CG0
ATOM      9  G   UNL     1     102.249 116.190 120.081  1.00  0.00     0.000 G0
ENDBRANCH   5   6
ENDBRANCH   4   5
ENDBRANCH   2   4
BRANCH   1  10
ATOM     10  C   UNL     1     100.301 116.700 122.928  1.00  0.00     0.111 C 
BRANCH  10  11
ATOM     11  C   UNL     1     100.987 117.527 121.868  1.00  0.00     0.163 C 
ATOM     12  O   UNL     1     101.459 118.648 122.203  1.00  0.00    -0.294 OA
BRANCH  11  13
ATOM     13  C   UNL     1     101.072 117.078 120.443  1.00  0.00    -0.002 C 
ATOM     14  C   UNL     1     100.169 117.492 119.504  1.00  0.00    -0.069 C 
ATOM     15  C   UNL     1     100.239 117.002 118.073  1.00  0.00     0.039 C 
ATOM     16  C   UNL     1      99.078 118.485 119.837  1.00  0.00     0.039 C 
BRANCH  13  17
ATOM     17  C   UNL     1     102.251 116.199 120.067  1.00  0.00     0.066 CG0
ATOM     18  G   UNL     1     101.845 114.745 120.128  1.00  0.00     0.000 G0
ENDBRANCH  13  17
ENDBRANCH  11  13
ENDBRANCH  10  11
ENDBRANCH   1  10
TORSDOF 0
ENDMDL
MODEL 8
REMARK VINA RESULT:    -3.874      1.572      4.121
REMARK INTER + INTRA:          -4.934
REMARK INTER:                  -5.826
REMARK INTRA:                   0.892
REMARK UNBOUND:                 0.526
REMARK SMILES CC1=CCC(=C(C)C)C(=O)CC(C)=CCC1
REMARK SMILES IDX 12 1 14 2 13 3 15 4 16 5 2 6 1 7 3 8 11 10 9 11 10 12 5 13
REMARK SMILES IDX 6 14 7 15 8 16 4 17
REMARK H PARENT
REMARK Flexibility Score: 60.00
ROOT
ATOM      1  C   UNL     1     101.312 117.892 121.091  1.00  0.00    -0.070 C 
ATOM      2  C   UNL     1     102.300 117.350 120.339  1.00  0.00    -0.027 C 
ATOM      3  C   UNL     1      99.970 118.096 120.432  1.00  0.00     0.039 C 
ENDROOT
BRANCH   2   4
ATOM      4  C   UNL     1     103.678 116.963 120.819  1.00  0.00     0.032 C 
BRANCH   4   5
ATOM      5  C   UNL     1     103.894 115.438 120.835  1.00  0.00     0.034 C 
BRANCH   5   6
ATOM      6  C   UNL     1     102.672 114.693 121.338  1.00  0.00    -0.077 C 
ATOM      7  C   UNL     1     101.815 113.966 120.332  1.00  0.00     0.039 C 
ATOM      8  C   UNL     1     102.291 114.664 122.634  1.00  0.00    -0.023 CG0
ATOM      9  G   UNL     1     102.996 115.357 123.776  1.00  0.00     0.000 G0
ENDBRANCH   5   6
ENDBRANCH   4   5
ENDBRANCH   2   4
BRANCH   1  10
ATOM     10  C   UNL     1     101.464 118.239 122.563  1.00  0.00     0.111 C 
BRANCH  10  11
ATOM     11  C   UNL     1     101.105 117.071 123.448  1.00  0.00     0.163 C 
ATOM     12  O   UNL     1      99.913 116.660 123.434  1.00  0.00    -0.294 OA
BRANCH  11  13
ATOM     13  C   UNL     1     102.103 116.436 124.365  1.00  0.00    -0.002 C 
ATOM     14  C   UNL     1     102.176 116.767 125.689  1.00  0.00    -0.069 C 
ATOM     15  C   UNL     1     103.214 116.148 126.600  1.00  0.00     0.039 C 
ATOM     16  C   UNL     1     101.205 117.741 126.316  1.00  0.00     0.039 C 
BRANCH  13  17
ATOM     17  C   UNL     1     102.984 115.348 123.776  1.00  0.00     0.066 CG0
ATOM     18  G   UNL     1     102.271 114.678 122.626  1.00  0.00     0.000 G0
ENDBRANCH  13  17
ENDBRANCH  11  13
ENDBRANCH  10  11
ENDBRANCH   1  10
TORSDOF 0
ENDMDL
MODEL 9
REMARK VINA RESULT:    -3.792      7.629     10.989
REMARK INTER + INTRA:          -4.817
REMARK INTER:                  -5.277
REMARK INTRA:                   0.460
REMARK UNBOUND:                 0.526
REMARK SMILES CC1=CCC(=C(C)C)C(=O)CC(C)=CCC1
REMARK SMILES IDX 12 1 14 2 13 3 15 4 16 5 2 6 1 7 3 8 11 10 9 11 10 12 5 13
REMARK SMILES IDX 6 14 7 15 8 16 4 17
REMARK H PARENT
REMARK Flexibility Score: 60.00
ROOT
ATOM      1  C   UNL     1     100.951 106.030 117.206  1.00  0.00    -0.070 C 
ATOM      2  C   UNL     1     100.370 106.178 115.992  1.00  0.00    -0.027 C 
ATOM      3  C   UNL     1     101.605 104.703 117.507  1.00  0.00     0.039 C 
ENDROOT
BRANCH   2   4
ATOM      4  C   UNL     1      99.757 107.443 115.443  1.00  0.00     0.032 C 
BRANCH   4   5
ATOM      5  C   UNL     1     100.809 108.524 115.129  1.00  0.00     0.034 C 
BRANCH   5   6
ATOM      6  C   UNL     1     100.487 109.847 115.795  1.00  0.00    -0.077 C 
ATOM      7  C   UNL     1      99.174 110.512 115.469  1.00  0.00     0.039 C 
ATOM      8  C   UNL     1     101.324 110.481 116.647  1.00  0.00    -0.023 CG0
ATOM      9  G   UNL     1     102.690 109.995 117.067  1.00  0.00     0.000 G0
ENDBRANCH   5   6
ENDBRANCH   4   5
ENDBRANCH   2   4
BRANCH   1  10
ATOM     10  C   UNL     1     101.036 107.139 118.242  1.00  0.00     0.111 C 
BRANCH  10  11
ATOM     11  C   UNL     1     102.415 107.751 118.289  1.00  0.00     0.163 C 
ATOM     12  O   UNL     1     103.409 106.974 118.296  1.00  0.00    -0.294 OA
BRANCH  11  13
ATOM     13  C   UNL     1     102.623 109.230 118.377  1.00  0.00    -0.002 C 
ATOM     14  C   UNL     1     102.802 109.860 119.577  1.00  0.00    -0.069 C 
ATOM     15  C   UNL     1     102.973 111.362 119.660  1.00  0.00     0.039 C 
ATOM     16  C   UNL     1     102.873 109.088 120.875  1.00  0.00     0.039 C 
BRANCH  13  17
ATOM     17  C   UNL     1     102.702 109.994 117.067  1.00  0.00     0.066 CG0
ATOM     18  G   UNL     1     101.328 110.484 116.677  1.00  0.00     0.000 G0
ENDBRANCH  13  17
ENDBRANCH  11  13
ENDBRANCH  10  11
ENDBRANCH   1  10
TORSDOF 0
ENDMDL
