MODEL 1
REMARK VINA RESULT:    -3.985      0.000      0.000
REMARK INTER + INTRA:          -4.362
REMARK INTER:                  -4.334
REMARK INTRA:                  -0.027
REMARK UNBOUND:                -0.027
REMARK SMILES O=C([O-])c1ccc(O)cc1
REMARK SMILES IDX 4 1 5 2 10 3 6 4 9 5 7 6 2 7 1 8 3 9 8 10
REMARK H PARENT 8 11
REMARK Flexibility Score: inf
ROOT
ATOM      1  C   UNL     1     168.999 186.335  30.992  1.00  0.00    -0.003 A 
ATOM      2  C   UNL     1     168.983 187.194  32.107  1.00  0.00     0.014 A 
ATOM      3  C   UNL     1     170.118 185.508  30.786  1.00  0.00     0.014 A 
ATOM      4  C   UNL     1     170.064 187.224  32.993  1.00  0.00     0.047 A 
ATOM      5  C   UNL     1     171.196 185.540  31.675  1.00  0.00     0.047 A 
ATOM      6  C   UNL     1     171.173 186.396  32.780  1.00  0.00     0.115 A 
ENDROOT
BRANCH   1   7
ATOM      7  C   UNL     1     167.859 186.299  30.050  1.00  0.00     0.071 C 
ATOM      8  O   UNL     1     167.024 185.357  30.090  1.00  0.00    -0.545 OA
ATOM      9  O   UNL     1     167.693 187.306  29.106  1.00  0.00    -0.545 OA
ENDBRANCH   1   7
BRANCH   6  10
ATOM     10  O   UNL     1     172.255 186.418  33.657  1.00  0.00    -0.508 OA
ATOM     11  H   UNL     1     172.158 186.133  34.624  1.00  0.00     0.293 HD
ENDBRANCH   6  10
TORSDOF 2
ENDMDL
MODEL 2
REMARK VINA RESULT:    -3.740      1.156      4.180
REMARK INTER + INTRA:          -4.095
REMARK INTER:                  -4.059
REMARK INTRA:                  -0.036
REMARK UNBOUND:                -0.027
REMARK SMILES O=C([O-])c1ccc(O)cc1
REMARK SMILES IDX 4 1 5 2 10 3 6 4 9 5 7 6 2 7 1 8 3 9 8 10
REMARK H PARENT 8 11
REMARK Flexibility Score: inf
ROOT
ATOM      1  C   UNL     1     170.018 186.134  32.506  1.00  0.00    -0.003 A 
ATOM      2  C   UNL     1     168.684 186.584  32.474  1.00  0.00     0.014 A 
ATOM      3  C   UNL     1     170.559 185.523  31.361  1.00  0.00     0.014 A 
ATOM      4  C   UNL     1     167.912 186.423  31.320  1.00  0.00     0.047 A 
ATOM      5  C   UNL     1     169.783 185.364  30.209  1.00  0.00     0.047 A 
ATOM      6  C   UNL     1     168.459 185.813  30.184  1.00  0.00     0.115 A 
ENDROOT
BRANCH   1   7
ATOM      7  C   UNL     1     170.841 186.302  33.724  1.00  0.00     0.071 C 
ATOM      8  O   UNL     1     171.999 185.811  33.788  1.00  0.00    -0.545 OA
ATOM      9  O   UNL     1     170.346 187.004  34.817  1.00  0.00    -0.545 OA
ENDBRANCH   1   7
BRANCH   6  10
ATOM     10  O   UNL     1     167.697 185.647  29.029  1.00  0.00    -0.508 OA
ATOM     11  H   UNL     1     167.795 186.271  28.238  1.00  0.00     0.293 HD
ENDBRANCH   6  10
TORSDOF 2
ENDMDL
MODEL 3
REMARK VINA RESULT:    -3.729      2.263      4.790
REMARK INTER + INTRA:          -4.083
REMARK INTER:                  -4.054
REMARK INTRA:                  -0.029
REMARK UNBOUND:                -0.027
REMARK SMILES O=C([O-])c1ccc(O)cc1
REMARK SMILES IDX 4 1 5 2 10 3 6 4 9 5 7 6 2 7 1 8 3 9 8 10
REMARK H PARENT 8 11
REMARK Flexibility Score: inf
ROOT
ATOM      1  C   UNL     1     171.956 184.506  32.750  1.00  0.00    -0.003 A 
ATOM      2  C   UNL     1     171.863 185.820  33.245  1.00  0.00     0.014 A 
ATOM      3  C   UNL     1     171.031 184.075  31.782  1.00  0.00     0.014 A 
ATOM      4  C   UNL     1     170.864 186.682  32.781  1.00  0.00     0.047 A 
ATOM      5  C   UNL     1     170.033 184.940  31.321  1.00  0.00     0.047 A 
ATOM      6  C   UNL     1     169.947 186.244  31.818  1.00  0.00     0.115 A 
ENDROOT
BRANCH   1   7
ATOM      7  C   UNL     1     173.011 183.589  33.236  1.00  0.00     0.071 C 
ATOM      8  O   UNL     1     173.878 183.133  32.445  1.00  0.00    -0.545 OA
ATOM      9  O   UNL     1     173.058 183.218  34.575  1.00  0.00    -0.545 OA
ENDBRANCH   1   7
BRANCH   6  10
ATOM     10  O   UNL     1     168.948 187.094  31.349  1.00  0.00    -0.508 OA
ATOM     11  H   UNL     1     169.170 187.954  30.862  1.00  0.00     0.293 HD
ENDBRANCH   6  10
TORSDOF 2
ENDMDL
MODEL 4
REMARK VINA RESULT:    -3.724      1.167      4.437
REMARK INTER + INTRA:          -4.078
REMARK INTER:                  -4.042
REMARK INTRA:                  -0.036
REMARK UNBOUND:                -0.027
REMARK SMILES O=C([O-])c1ccc(O)cc1
REMARK SMILES IDX 4 1 5 2 10 3 6 4 9 5 7 6 2 7 1 8 3 9 8 10
REMARK H PARENT 8 11
REMARK Flexibility Score: inf
ROOT
ATOM      1  C   UNL     1     170.017 186.112  32.549  1.00  0.00    -0.003 A 
ATOM      2  C   UNL     1     170.559 185.498  31.404  1.00  0.00     0.014 A 
ATOM      3  C   UNL     1     168.688 186.570  32.511  1.00  0.00     0.014 A 
ATOM      4  C   UNL     1     169.786 185.349  30.248  1.00  0.00     0.047 A 
ATOM      5  C   UNL     1     167.918 186.419  31.354  1.00  0.00     0.047 A 
ATOM      6  C   UNL     1     168.464 185.808  30.221  1.00  0.00     0.115 A 
ENDROOT
BRANCH   1   7
ATOM      7  C   UNL     1     170.829 186.273  33.775  1.00  0.00     0.071 C 
ATOM      8  O   UNL     1     171.990 185.790  33.842  1.00  0.00    -0.545 OA
ATOM      9  O   UNL     1     170.321 186.961  34.871  1.00  0.00    -0.545 OA
ENDBRANCH   1   7
BRANCH   6  10
ATOM     10  O   UNL     1     167.685 185.664  29.074  1.00  0.00    -0.508 OA
ATOM     11  H   UNL     1     168.067 185.828  28.151  1.00  0.00     0.293 HD
ENDBRANCH   6  10
TORSDOF 2
ENDMDL
MODEL 5
REMARK VINA RESULT:    -3.702      1.480      1.711
REMARK INTER + INTRA:          -4.054
REMARK INTER:                  -4.019
REMARK INTRA:                  -0.035
REMARK UNBOUND:                -0.027
REMARK SMILES O=C([O-])c1ccc(O)cc1
REMARK SMILES IDX 4 1 5 2 10 3 6 4 9 5 7 6 2 7 1 8 3 9 8 10
REMARK H PARENT 8 11
REMARK Flexibility Score: inf
ROOT
ATOM      1  C   UNL     1     169.852 185.929  31.677  1.00  0.00    -0.003 A 
ATOM      2  C   UNL     1     170.543 186.702  32.629  1.00  0.00     0.014 A 
ATOM      3  C   UNL     1     170.268 184.607  31.442  1.00  0.00     0.014 A 
ATOM      4  C   UNL     1     171.627 186.161  33.328  1.00  0.00     0.047 A 
ATOM      5  C   UNL     1     171.352 184.069  32.142  1.00  0.00     0.047 A 
ATOM      6  C   UNL     1     172.033 184.843  33.086  1.00  0.00     0.115 A 
ENDROOT
BRANCH   1   7
ATOM      7  C   UNL     1     168.705 186.496  30.935  1.00  0.00     0.071 C 
ATOM      8  O   UNL     1     168.303 185.960  29.869  1.00  0.00    -0.545 OA
ATOM      9  O   UNL     1     168.054 187.632  31.404  1.00  0.00    -0.545 OA
ENDBRANCH   1   7
BRANCH   6  10
ATOM     10  O   UNL     1     173.112 184.294  33.776  1.00  0.00    -0.508 OA
ATOM     11  H   UNL     1     173.200 184.387  34.781  1.00  0.00     0.293 HD
ENDBRANCH   6  10
TORSDOF 2
ENDMDL
MODEL 6
REMARK VINA RESULT:    -3.462      6.762      8.498
REMARK INTER + INTRA:          -3.793
REMARK INTER:                  -3.766
REMARK INTRA:                  -0.028
REMARK UNBOUND:                -0.027
REMARK SMILES O=C([O-])c1ccc(O)cc1
REMARK SMILES IDX 4 1 5 2 10 3 6 4 9 5 7 6 2 7 1 8 3 9 8 10
REMARK H PARENT 8 11
REMARK Flexibility Score: inf
ROOT
ATOM      1  C   UNL     1     163.240 180.811  31.794  1.00  0.00    -0.003 A 
ATOM      2  C   UNL     1     162.558 181.273  30.653  1.00  0.00     0.014 A 
ATOM      3  C   UNL     1     164.506 181.345  32.094  1.00  0.00     0.014 A 
ATOM      4  C   UNL     1     163.134 182.247  29.831  1.00  0.00     0.047 A 
ATOM      5  C   UNL     1     165.078 182.318  31.269  1.00  0.00     0.047 A 
ATOM      6  C   UNL     1     164.395 182.773  30.137  1.00  0.00     0.115 A 
ENDROOT
BRANCH   1   7
ATOM      7  C   UNL     1     162.636 179.781  32.668  1.00  0.00     0.071 C 
ATOM      8  O   UNL     1     163.096 178.609  32.688  1.00  0.00    -0.545 OA
ATOM      9  O   UNL     1     161.552 180.094  33.479  1.00  0.00    -0.545 OA
ENDBRANCH   1   7
BRANCH   6  10
ATOM     10  O   UNL     1     164.978 183.743  29.325  1.00  0.00    -0.508 OA
ATOM     11  H   UNL     1     164.968 184.723  29.581  1.00  0.00     0.293 HD
ENDBRANCH   6  10
TORSDOF 2
ENDMDL
MODEL 7
REMARK VINA RESULT:    -3.454      2.359      3.065
REMARK INTER + INTRA:          -3.785
REMARK INTER:                  -3.757
REMARK INTRA:                  -0.028
REMARK UNBOUND:                -0.027
REMARK SMILES O=C([O-])c1ccc(O)cc1
REMARK SMILES IDX 4 1 5 2 10 3 6 4 9 5 7 6 2 7 1 8 3 9 8 10
REMARK H PARENT 8 11
REMARK Flexibility Score: inf
ROOT
ATOM      1  C   UNL     1     167.287 184.976  31.763  1.00  0.00    -0.003 A 
ATOM      2  C   UNL     1     168.327 184.645  32.652  1.00  0.00     0.014 A 
ATOM      3  C   UNL     1     167.608 185.593  30.541  1.00  0.00     0.014 A 
ATOM      4  C   UNL     1     169.656 184.929  32.324  1.00  0.00     0.047 A 
ATOM      5  C   UNL     1     168.938 185.876  30.216  1.00  0.00     0.047 A 
ATOM      6  C   UNL     1     169.965 185.544  31.105  1.00  0.00     0.115 A 
ENDROOT
BRANCH   1   7
ATOM      7  C   UNL     1     165.879 184.678  32.105  1.00  0.00     0.071 C 
ATOM      8  O   UNL     1     165.289 185.325  33.010  1.00  0.00    -0.545 OA
ATOM      9  O   UNL     1     165.188 183.678  31.431  1.00  0.00    -0.545 OA
ENDBRANCH   1   7
BRANCH   6  10
ATOM     10  O   UNL     1     171.286 185.832  30.767  1.00  0.00    -0.508 OA
ATOM     11  H   UNL     1     171.665 186.766  30.862  1.00  0.00     0.293 HD
ENDBRANCH   6  10
TORSDOF 2
ENDMDL
MODEL 8
REMARK VINA RESULT:    -3.450      6.818      8.549
REMARK INTER + INTRA:          -3.780
REMARK INTER:                  -3.753
REMARK INTRA:                  -0.027
REMARK UNBOUND:                -0.027
REMARK SMILES O=C([O-])c1ccc(O)cc1
REMARK SMILES IDX 4 1 5 2 10 3 6 4 9 5 7 6 2 7 1 8 3 9 8 10
REMARK H PARENT 8 11
REMARK Flexibility Score: inf
ROOT
ATOM      1  C   UNL     1     163.222 180.761  31.837  1.00  0.00    -0.003 A 
ATOM      2  C   UNL     1     164.497 181.282  32.126  1.00  0.00     0.014 A 
ATOM      3  C   UNL     1     162.536 181.230  30.702  1.00  0.00     0.014 A 
ATOM      4  C   UNL     1     165.071 182.251  31.296  1.00  0.00     0.047 A 
ATOM      5  C   UNL     1     163.112 182.199  29.875  1.00  0.00     0.047 A 
ATOM      6  C   UNL     1     164.380 182.711  30.169  1.00  0.00     0.115 A 
ENDROOT
BRANCH   1   7
ATOM      7  C   UNL     1     162.610 179.736  32.710  1.00  0.00     0.071 C 
ATOM      8  O   UNL     1     162.829 178.512  32.512  1.00  0.00    -0.545 OA
ATOM      9  O   UNL     1     161.783 180.111  33.763  1.00  0.00    -0.545 OA
ENDBRANCH   1   7
BRANCH   6  10
ATOM     10  O   UNL     1     164.942 183.677  29.336  1.00  0.00    -0.508 OA
ATOM     11  H   UNL     1     165.597 183.428  28.605  1.00  0.00     0.293 HD
ENDBRANCH   6  10
TORSDOF 2
ENDMDL
MODEL 9
REMARK VINA RESULT:    -3.394      3.294      4.371
REMARK INTER + INTRA:          -3.719
REMARK INTER:                  -3.691
REMARK INTRA:                  -0.028
REMARK UNBOUND:                -0.027
REMARK SMILES O=C([O-])c1ccc(O)cc1
REMARK SMILES IDX 4 1 5 2 10 3 6 4 9 5 7 6 2 7 1 8 3 9 8 10
REMARK H PARENT 8 11
REMARK Flexibility Score: inf
ROOT
ATOM      1  C   UNL     1     171.650 184.746  32.999  1.00  0.00    -0.003 A 
ATOM      2  C   UNL     1     171.308 185.782  32.108  1.00  0.00     0.014 A 
ATOM      3  C   UNL     1     171.428 184.930  34.375  1.00  0.00     0.014 A 
ATOM      4  C   UNL     1     170.758 186.974  32.588  1.00  0.00     0.047 A 
ATOM      5  C   UNL     1     170.877 186.124  34.851  1.00  0.00     0.047 A 
ATOM      6  C   UNL     1     170.541 187.149  33.960  1.00  0.00     0.115 A 
ENDROOT
BRANCH   1   7
ATOM      7  C   UNL     1     172.232 183.482  32.497  1.00  0.00     0.071 C 
ATOM      8  O   UNL     1     173.423 183.442  32.090  1.00  0.00    -0.545 OA
ATOM      9  O   UNL     1     171.470 182.319  32.468  1.00  0.00    -0.545 OA
ENDBRANCH   1   7
BRANCH   6  10
ATOM     10  O   UNL     1     169.994 188.333  34.449  1.00  0.00    -0.508 OA
ATOM     11  H   UNL     1     170.409 188.824  35.232  1.00  0.00     0.293 HD
ENDBRANCH   6  10
TORSDOF 2
ENDMDL
