MODEL 1
REMARK VINA RESULT:    -8.619      0.000      0.000
REMARK INTER + INTRA:         -12.911
REMARK INTER:                 -12.650
REMARK INTRA:                  -0.261
REMARK UNBOUND:                -0.261
REMARK SMILES O=c1c(O[C@@H]2O[C@@H](CO)[C@H](O)[C@@H](O)[C@@H]2O)c(-c2ccc(O)c(O)c2)oc2cc(O)cc(O)c12
REMARK SMILES IDX 4 1 3 2 16 3 25 4 2 5 26 6 1 7 33 8 27 9 31 10 28 11 30 12
REMARK SMILES IDX 17 13 18 14 19 15 20 16 24 17 22 18 21 19 23 21 32 23 29 25
REMARK SMILES IDX 5 27 14 28 6 29 12 30 7 31 10 32 15 33 13 35 8 37 9 38 11 40
REMARK H PARENT 21 20 23 22 32 24 29 26 15 34 13 36 9 39 11 41
REMARK Flexibility Score: inf
ROOT
ATOM      1  O   UNL     1       2.768  -1.316  16.346  1.00  0.00    -0.454 OA
ENDROOT
BRANCH   1   2
ATOM      2  C   UNL     1       2.714  -2.155  17.471  1.00  0.00     0.214 A 
ATOM      3  C   UNL     1       3.875  -2.795  17.937  1.00  0.00     0.180 A 
ATOM      4  O   UNL     1       3.796  -3.671  18.930  1.00  0.00    -0.452 OA
ATOM      5  C   UNL     1       1.486  -2.454  18.083  1.00  0.00     0.239 A 
ATOM      6  C   UNL     1       2.663  -3.959  19.559  1.00  0.00     0.146 A 
ATOM      7  O   UNL     1       0.431  -1.986  17.579  1.00  0.00    -0.285 OA
ATOM      8  C   UNL     1       1.448  -3.323  19.197  1.00  0.00     0.111 A 
ATOM      9  C   UNL     1       2.687  -4.910  20.581  1.00  0.00     0.094 A 
ATOM     10  C   UNL     1       0.269  -3.632  19.938  1.00  0.00     0.134 A 
ATOM     11  C   UNL     1       1.516  -5.248  21.261  1.00  0.00     0.123 A 
ATOM     12  C   UNL     1       0.318  -4.613  20.935  1.00  0.00     0.093 A 
BRANCH   3  13
ATOM     13  C   UNL     1       5.194  -2.541  17.332  1.00  0.00     0.025 A 
ATOM     14  C   UNL     1       6.353  -2.529  18.122  1.00  0.00     0.016 A 
ATOM     15  C   UNL     1       7.602  -2.310  17.536  1.00  0.00     0.051 A 
ATOM     16  C   UNL     1       7.710  -2.122  16.155  1.00  0.00     0.157 A 
ATOM     17  C   UNL     1       5.304  -2.377  15.945  1.00  0.00     0.062 A 
ATOM     18  C   UNL     1       6.556  -2.161  15.352  1.00  0.00     0.158 A 
BRANCH  16  19
ATOM     19  O   UNL     1       8.970  -1.907  15.596  1.00  0.00    -0.504 OA
ATOM     20  H   UNL     1       9.601  -2.669  15.382  1.00  0.00     0.293 HD
ENDBRANCH  16  19
BRANCH  18  21
ATOM     21  O   UNL     1       6.659  -1.985  13.974  1.00  0.00    -0.504 OA
ATOM     22  H   UNL     1       6.308  -1.152  13.518  1.00  0.00     0.293 HD
ENDBRANCH  18  21
ENDBRANCH   3  13
BRANCH  10  23
ATOM     23  O   UNL     1      -0.956  -2.984  19.755  1.00  0.00    -0.507 OA
ATOM     24  H   UNL     1      -1.818  -3.255  20.204  1.00  0.00     0.293 HD
ENDBRANCH  10  23
BRANCH  11  25
ATOM     25  O   UNL     1       1.531  -6.208  22.269  1.00  0.00    -0.508 OA
ATOM     26  H   UNL     1       1.174  -6.009  23.195  1.00  0.00     0.293 HD
ENDBRANCH  11  25
ENDBRANCH   1   2
BRANCH   1  27
ATOM     27  C   UNL     1       2.051  -1.557  15.130  1.00  0.00     0.339 C 
ATOM     28  C   UNL     1       2.547  -0.592  14.026  1.00  0.00     0.214 C 
ATOM     29  O   UNL     1       2.202  -2.900  14.705  1.00  0.00    -0.332 OA
ATOM     30  C   UNL     1       2.222  -1.133  12.610  1.00  0.00     0.180 C 
ATOM     31  C   UNL     1       1.291  -3.238  13.662  1.00  0.00     0.179 C 
ATOM     32  C   UNL     1       1.007  -2.074  12.661  1.00  0.00     0.177 C 
BRANCH  28  33
ATOM     33  O   UNL     1       3.925  -0.339  14.146  1.00  0.00    -0.384 OA
ATOM     34  H   UNL     1       4.040   0.385  14.816  1.00  0.00     0.211 HD
ENDBRANCH  28  33
BRANCH  30  35
ATOM     35  O   UNL     1       1.966  -0.052  11.748  1.00  0.00    -0.387 OA
ATOM     36  H   UNL     1       1.556  -0.427  10.928  1.00  0.00     0.211 HD
ENDBRANCH  30  35
BRANCH  31  37
ATOM     37  C   UNL     1      -0.007  -3.813  14.253  1.00  0.00     0.191 C 
BRANCH  37  38
ATOM     38  O   UNL     1      -0.244  -5.102  13.760  1.00  0.00    -0.394 OA
ATOM     39  H   UNL     1      -1.178  -5.331  14.001  1.00  0.00     0.210 HD
ENDBRANCH  37  38
ENDBRANCH  31  37
BRANCH  32  40
ATOM     40  O   UNL     1       0.755  -2.584  11.376  1.00  0.00    -0.387 OA
ATOM     41  H   UNL     1      -0.231  -2.654  11.286  1.00  0.00     0.211 HD
ENDBRANCH  32  40
ENDBRANCH   1  27
TORSDOF 12
ENDMDL
MODEL 2
REMARK VINA RESULT:    -8.547      1.566      2.803
REMARK INTER + INTRA:         -12.805
REMARK INTER:                 -11.376
REMARK INTRA:                  -1.429
REMARK UNBOUND:                -0.261
REMARK SMILES O=c1c(O[C@@H]2O[C@@H](CO)[C@H](O)[C@@H](O)[C@@H]2O)c(-c2ccc(O)c(O)c2)oc2cc(O)cc(O)c12
REMARK SMILES IDX 4 1 3 2 16 3 25 4 2 5 26 6 1 7 33 8 27 9 31 10 28 11 30 12
REMARK SMILES IDX 17 13 18 14 19 15 20 16 24 17 22 18 21 19 23 21 32 23 29 25
REMARK SMILES IDX 5 27 14 28 6 29 12 30 7 31 10 32 15 33 13 35 8 37 9 38 11 40
REMARK H PARENT 21 20 23 22 32 24 29 26 15 34 13 36 9 39 11 41
REMARK Flexibility Score: inf
ROOT
ATOM      1  O   UNL     1       2.929  -1.941  17.793  1.00  0.00    -0.454 OA
ENDROOT
BRANCH   1   2
ATOM      2  C   UNL     1       2.964  -2.893  18.824  1.00  0.00     0.214 A 
ATOM      3  C   UNL     1       4.187  -3.270  19.403  1.00  0.00     0.180 A 
ATOM      4  O   UNL     1       4.224  -4.249  20.298  1.00  0.00    -0.452 OA
ATOM      5  C   UNL     1       1.795  -3.563  19.219  1.00  0.00     0.239 A 
ATOM      6  C   UNL     1       3.140  -4.886  20.725  1.00  0.00     0.146 A 
ATOM      7  O   UNL     1       0.723  -3.321  18.604  1.00  0.00    -0.285 OA
ATOM      8  C   UNL     1       1.853  -4.539  20.240  1.00  0.00     0.111 A 
ATOM      9  C   UNL     1       3.292  -5.915  21.657  1.00  0.00     0.094 A 
ATOM     10  C   UNL     1       0.718  -5.222  20.768  1.00  0.00     0.134 A 
ATOM     11  C   UNL     1       2.179  -6.616  22.124  1.00  0.00     0.123 A 
ATOM     12  C   UNL     1       0.905  -6.270  21.677  1.00  0.00     0.093 A 
BRANCH   3  13
ATOM     13  C   UNL     1       5.455  -2.621  19.025  1.00  0.00     0.025 A 
ATOM     14  C   UNL     1       5.910  -1.486  19.712  1.00  0.00     0.016 A 
ATOM     15  C   UNL     1       7.125  -0.892  19.362  1.00  0.00     0.051 A 
ATOM     16  C   UNL     1       7.907  -1.435  18.338  1.00  0.00     0.157 A 
ATOM     17  C   UNL     1       6.249  -3.181  18.016  1.00  0.00     0.062 A 
ATOM     18  C   UNL     1       7.471  -2.589  17.664  1.00  0.00     0.158 A 
BRANCH  16  19
ATOM     19  O   UNL     1       9.116  -0.822  18.011  1.00  0.00    -0.504 OA
ATOM     20  H   UNL     1       9.281  -0.410  17.101  1.00  0.00     0.293 HD
ENDBRANCH  16  19
BRANCH  18  21
ATOM     21  O   UNL     1       8.251  -3.141  16.650  1.00  0.00    -0.504 OA
ATOM     22  H   UNL     1       7.839  -3.491  15.795  1.00  0.00     0.293 HD
ENDBRANCH  18  21
ENDBRANCH   3  13
BRANCH  10  23
ATOM     23  O   UNL     1      -0.603  -4.887  20.458  1.00  0.00    -0.507 OA
ATOM     24  H   UNL     1      -1.414  -5.297  20.898  1.00  0.00     0.293 HD
ENDBRANCH  10  23
BRANCH  11  25
ATOM     25  O   UNL     1       2.326  -7.654  23.040  1.00  0.00    -0.508 OA
ATOM     26  H   UNL     1       3.228  -8.079  23.217  1.00  0.00     0.293 HD
ENDBRANCH  11  25
ENDBRANCH   1   2
BRANCH   1  27
ATOM     27  C   UNL     1       3.160  -2.243  16.412  1.00  0.00     0.339 C 
ATOM     28  C   UNL     1       1.829  -2.641  15.730  1.00  0.00     0.214 C 
ATOM     29  O   UNL     1       3.742  -1.142  15.738  1.00  0.00    -0.332 OA
ATOM     30  C   UNL     1       1.902  -2.460  14.192  1.00  0.00     0.180 C 
ATOM     31  C   UNL     1       4.230  -1.501  14.447  1.00  0.00     0.179 C 
ATOM     32  C   UNL     1       3.357  -2.564  13.708  1.00  0.00     0.177 C 
BRANCH  28  33
ATOM     33  O   UNL     1       0.746  -1.913  16.255  1.00  0.00    -0.384 OA
ATOM     34  H   UNL     1       0.067  -2.568  16.567  1.00  0.00     0.211 HD
ENDBRANCH  28  33
BRANCH  30  35
ATOM     35  O   UNL     1       1.110  -3.442  13.572  1.00  0.00    -0.387 OA
ATOM     36  H   UNL     1       1.730  -4.089  13.147  1.00  0.00     0.211 HD
ENDBRANCH  30  35
BRANCH  31  37
ATOM     37  C   UNL     1       5.704  -1.930  14.534  1.00  0.00     0.191 C 
BRANCH  37  38
ATOM     38  O   UNL     1       6.289  -1.944  13.262  1.00  0.00    -0.394 OA
ATOM     39  H   UNL     1       6.989  -2.646  13.278  1.00  0.00     0.210 HD
ENDBRANCH  37  38
ENDBRANCH  31  37
BRANCH  32  40
ATOM     40  O   UNL     1       3.406  -2.357  12.319  1.00  0.00    -0.387 OA
ATOM     41  H   UNL     1       3.683  -3.219  11.912  1.00  0.00     0.211 HD
ENDBRANCH  32  40
ENDBRANCH   1  27
TORSDOF 12
ENDMDL
MODEL 3
REMARK VINA RESULT:    -8.380      1.105      1.711
REMARK INTER + INTRA:         -12.560
REMARK INTER:                 -12.212
REMARK INTRA:                  -0.348
REMARK UNBOUND:                -0.261
REMARK SMILES O=c1c(O[C@@H]2O[C@@H](CO)[C@H](O)[C@@H](O)[C@@H]2O)c(-c2ccc(O)c(O)c2)oc2cc(O)cc(O)c12
REMARK SMILES IDX 4 1 3 2 16 3 25 4 2 5 26 6 1 7 33 8 27 9 31 10 28 11 30 12
REMARK SMILES IDX 17 13 18 14 19 15 20 16 24 17 22 18 21 19 23 21 32 23 29 25
REMARK SMILES IDX 5 27 14 28 6 29 12 30 7 31 10 32 15 33 13 35 8 37 9 38 11 40
REMARK H PARENT 21 20 23 22 32 24 29 26 15 34 13 36 9 39 11 41
REMARK Flexibility Score: inf
ROOT
ATOM      1  O   UNL     1       2.788  -1.245  16.662  1.00  0.00    -0.454 OA
ENDROOT
BRANCH   1   2
ATOM      2  C   UNL     1       2.790  -2.171  17.718  1.00  0.00     0.214 A 
ATOM      3  C   UNL     1       3.981  -2.812  18.099  1.00  0.00     0.180 A 
ATOM      4  O   UNL     1       3.955  -3.765  19.022  1.00  0.00    -0.452 OA
ATOM      5  C   UNL     1       1.590  -2.552  18.337  1.00  0.00     0.239 A 
ATOM      6  C   UNL     1       2.849  -4.134  19.657  1.00  0.00     0.146 A 
ATOM      7  O   UNL     1       0.508  -2.077  17.902  1.00  0.00    -0.285 OA
ATOM      8  C   UNL     1       1.607  -3.507  19.380  1.00  0.00     0.111 A 
ATOM      9  C   UNL     1       2.928  -5.161  20.599  1.00  0.00     0.094 A 
ATOM     10  C   UNL     1       0.459  -3.907  20.125  1.00  0.00     0.134 A 
ATOM     11  C   UNL     1       1.787  -5.586  21.281  1.00  0.00     0.123 A 
ATOM     12  C   UNL     1       0.564  -4.962  21.040  1.00  0.00     0.093 A 
BRANCH   3  13
ATOM     13  C   UNL     1       5.275  -2.473  17.481  1.00  0.00     0.025 A 
ATOM     14  C   UNL     1       6.392  -2.178  18.275  1.00  0.00     0.016 A 
ATOM     15  C   UNL     1       7.620  -1.880  17.680  1.00  0.00     0.051 A 
ATOM     16  C   UNL     1       7.752  -1.895  16.288  1.00  0.00     0.157 A 
ATOM     17  C   UNL     1       5.411  -2.512  16.087  1.00  0.00     0.062 A 
ATOM     18  C   UNL     1       6.643  -2.217  15.485  1.00  0.00     0.158 A 
BRANCH  16  19
ATOM     19  O   UNL     1       8.990  -1.596  15.720  1.00  0.00    -0.504 OA
ATOM     20  H   UNL     1       9.164  -1.692  14.728  1.00  0.00     0.293 HD
ENDBRANCH  16  19
BRANCH  18  21
ATOM     21  O   UNL     1       6.770  -2.244  14.099  1.00  0.00    -0.504 OA
ATOM     22  H   UNL     1       6.648  -3.099  13.571  1.00  0.00     0.293 HD
ENDBRANCH  18  21
ENDBRANCH   3  13
BRANCH  10  23
ATOM     23  O   UNL     1      -0.787  -3.283  20.028  1.00  0.00    -0.507 OA
ATOM     24  H   UNL     1      -1.141  -2.839  19.193  1.00  0.00     0.293 HD
ENDBRANCH  10  23
BRANCH  11  25
ATOM     25  O   UNL     1       1.858  -6.622  22.208  1.00  0.00    -0.508 OA
ATOM     26  H   UNL     1       1.888  -6.439  23.204  1.00  0.00     0.293 HD
ENDBRANCH  11  25
ENDBRANCH   1   2
BRANCH   1  27
ATOM     27  C   UNL     1       2.346  -1.543  15.333  1.00  0.00     0.339 C 
ATOM     28  C   UNL     1       0.835  -1.236  15.199  1.00  0.00     0.214 C 
ATOM     29  O   UNL     1       3.080  -0.804  14.373  1.00  0.00    -0.332 OA
ATOM     30  C   UNL     1       0.427  -1.026  13.719  1.00  0.00     0.180 C 
ATOM     31  C   UNL     1       2.854  -1.277  13.047  1.00  0.00     0.179 C 
ATOM     32  C   UNL     1       1.396  -1.769  12.784  1.00  0.00     0.177 C 
BRANCH  28  33
ATOM     33  O   UNL     1       0.468  -0.118  15.969  1.00  0.00    -0.384 OA
ATOM     34  H   UNL     1       0.299   0.635  15.344  1.00  0.00     0.211 HD
ENDBRANCH  28  33
BRANCH  30  35
ATOM     35  O   UNL     1      -0.886  -1.490  13.529  1.00  0.00    -0.387 OA
ATOM     36  H   UNL     1      -1.411  -1.206  14.321  1.00  0.00     0.211 HD
ENDBRANCH  30  35
BRANCH  31  37
ATOM     37  C   UNL     1       3.894  -2.348  12.678  1.00  0.00     0.191 C 
BRANCH  37  38
ATOM     38  O   UNL     1       3.477  -3.075  11.557  1.00  0.00    -0.394 OA
ATOM     39  H   UNL     1       2.755  -2.548  11.128  1.00  0.00     0.210 HD
ENDBRANCH  37  38
ENDBRANCH  31  37
BRANCH  32  40
ATOM     40  O   UNL     1       1.033  -1.532  11.448  1.00  0.00    -0.387 OA
ATOM     41  H   UNL     1       1.036  -2.413  10.991  1.00  0.00     0.211 HD
ENDBRANCH  32  40
ENDBRANCH   1  27
TORSDOF 12
ENDMDL
MODEL 4
REMARK VINA RESULT:    -8.175      1.518      1.690
REMARK INTER + INTRA:         -12.259
REMARK INTER:                 -12.385
REMARK INTRA:                   0.127
REMARK UNBOUND:                -0.261
REMARK SMILES O=c1c(O[C@@H]2O[C@@H](CO)[C@H](O)[C@@H](O)[C@@H]2O)c(-c2ccc(O)c(O)c2)oc2cc(O)cc(O)c12
REMARK SMILES IDX 4 1 3 2 16 3 25 4 2 5 26 6 1 7 33 8 27 9 31 10 28 11 30 12
REMARK SMILES IDX 17 13 18 14 19 15 20 16 24 17 22 18 21 19 23 21 32 23 29 25
REMARK SMILES IDX 5 27 14 28 6 29 12 30 7 31 10 32 15 33 13 35 8 37 9 38 11 40
REMARK H PARENT 21 20 23 22 32 24 29 26 15 34 13 36 9 39 11 41
REMARK Flexibility Score: inf
ROOT
ATOM      1  O   UNL     1       2.878  -3.038  16.161  1.00  0.00    -0.454 OA
ENDROOT
BRANCH   1   2
ATOM      2  C   UNL     1       3.017  -3.420  17.505  1.00  0.00     0.214 A 
ATOM      3  C   UNL     1       4.267  -3.336  18.142  1.00  0.00     0.180 A 
ATOM      4  O   UNL     1       4.414  -3.802  19.376  1.00  0.00    -0.452 OA
ATOM      5  C   UNL     1       1.941  -3.992  18.201  1.00  0.00     0.239 A 
ATOM      6  C   UNL     1       3.417  -4.320  20.083  1.00  0.00     0.146 A 
ATOM      7  O   UNL     1       0.860  -4.191  17.585  1.00  0.00    -0.285 OA
ATOM      8  C   UNL     1       2.107  -4.397  19.545  1.00  0.00     0.111 A 
ATOM      9  C   UNL     1       3.684  -4.798  21.368  1.00  0.00     0.094 A 
ATOM     10  C   UNL     1       1.062  -4.917  20.365  1.00  0.00     0.134 A 
ATOM     11  C   UNL     1       2.666  -5.358  22.140  1.00  0.00     0.123 A 
ATOM     12  C   UNL     1       1.368  -5.418  21.637  1.00  0.00     0.093 A 
BRANCH   3  13
ATOM     13  C   UNL     1       5.443  -2.762  17.467  1.00  0.00     0.025 A 
ATOM     14  C   UNL     1       6.618  -2.490  18.183  1.00  0.00     0.016 A 
ATOM     15  C   UNL     1       7.736  -1.967  17.528  1.00  0.00     0.051 A 
ATOM     16  C   UNL     1       7.701  -1.730  16.151  1.00  0.00     0.157 A 
ATOM     17  C   UNL     1       5.414  -2.548  16.082  1.00  0.00     0.062 A 
ATOM     18  C   UNL     1       6.536  -2.026  15.421  1.00  0.00     0.158 A 
BRANCH  16  19
ATOM     19  O   UNL     1       8.832  -1.209  15.523  1.00  0.00    -0.504 OA
ATOM     20  H   UNL     1       9.640  -0.895  16.045  1.00  0.00     0.293 HD
ENDBRANCH  16  19
BRANCH  18  21
ATOM     21  O   UNL     1       6.498  -1.803  14.047  1.00  0.00    -0.504 OA
ATOM     22  H   UNL     1       5.989  -2.416  13.423  1.00  0.00     0.293 HD
ENDBRANCH  18  21
ENDBRANCH   3  13
BRANCH  10  23
ATOM     23  O   UNL     1      -0.284  -4.931  19.992  1.00  0.00    -0.507 OA
ATOM     24  H   UNL     1      -1.012  -5.418  20.496  1.00  0.00     0.293 HD
ENDBRANCH  10  23
BRANCH  11  25
ATOM     25  O   UNL     1       2.931  -5.852  23.414  1.00  0.00    -0.508 OA
ATOM     26  H   UNL     1       2.184  -6.087  24.057  1.00  0.00     0.293 HD
ENDBRANCH  11  25
ENDBRANCH   1   2
BRANCH   1  27
ATOM     27  C   UNL     1       1.635  -2.661  15.558  1.00  0.00     0.339 C 
ATOM     28  C   UNL     1       1.349  -1.165  15.831  1.00  0.00     0.214 C 
ATOM     29  O   UNL     1       1.648  -2.907  14.163  1.00  0.00    -0.332 OA
ATOM     30  C   UNL     1       0.347  -0.581  14.802  1.00  0.00     0.180 C 
ATOM     31  C   UNL     1       0.348  -2.801  13.588  1.00  0.00     0.179 C 
ATOM     32  C   UNL     1      -0.546  -1.694  14.231  1.00  0.00     0.177 C 
BRANCH  28  33
ATOM     33  O   UNL     1       2.535  -0.409  15.840  1.00  0.00    -0.384 OA
ATOM     34  H   UNL     1       2.281   0.549  15.914  1.00  0.00     0.211 HD
ENDBRANCH  28  33
BRANCH  30  35
ATOM     35  O   UNL     1      -0.439   0.403  15.427  1.00  0.00    -0.387 OA
ATOM     36  H   UNL     1      -1.367   0.283  15.101  1.00  0.00     0.211 HD
ENDBRANCH  30  35
BRANCH  31  37
ATOM     37  C   UNL     1      -0.350  -4.172  13.590  1.00  0.00     0.191 C 
BRANCH  37  38
ATOM     38  O   UNL     1      -1.727  -4.024  13.389  1.00  0.00    -0.394 OA
ATOM     39  H   UNL     1      -1.839  -3.353  12.667  1.00  0.00     0.210 HD
ENDBRANCH  37  38
ENDBRANCH  31  37
BRANCH  32  40
ATOM     40  O   UNL     1      -1.417  -1.151  13.272  1.00  0.00    -0.387 OA
ATOM     41  H   UNL     1      -2.046  -1.875  13.016  1.00  0.00     0.211 HD
ENDBRANCH  32  40
ENDBRANCH   1  27
TORSDOF 12
ENDMDL
MODEL 5
REMARK VINA RESULT:    -8.172      1.923      7.211
REMARK INTER + INTRA:         -12.255
REMARK INTER:                 -11.167
REMARK INTRA:                  -1.088
REMARK UNBOUND:                -0.261
REMARK SMILES O=c1c(O[C@@H]2O[C@@H](CO)[C@H](O)[C@@H](O)[C@@H]2O)c(-c2ccc(O)c(O)c2)oc2cc(O)cc(O)c12
REMARK SMILES IDX 4 1 3 2 16 3 25 4 2 5 26 6 1 7 33 8 27 9 31 10 28 11 30 12
REMARK SMILES IDX 17 13 18 14 19 15 20 16 24 17 22 18 21 19 23 21 32 23 29 25
REMARK SMILES IDX 5 27 14 28 6 29 12 30 7 31 10 32 15 33 13 35 8 37 9 38 11 40
REMARK H PARENT 21 20 23 22 32 24 29 26 15 34 13 36 9 39 11 41
REMARK Flexibility Score: inf
ROOT
ATOM      1  O   UNL     1       1.201  -2.992  18.241  1.00  0.00    -0.454 OA
ENDROOT
BRANCH   1   2
ATOM      2  C   UNL     1       2.441  -2.701  17.650  1.00  0.00     0.214 A 
ATOM      3  C   UNL     1       2.508  -2.254  16.319  1.00  0.00     0.180 A 
ATOM      4  O   UNL     1       3.686  -2.087  15.734  1.00  0.00    -0.452 OA
ATOM      5  C   UNL     1       3.639  -2.954  18.338  1.00  0.00     0.239 A 
ATOM      6  C   UNL     1       4.843  -2.283  16.355  1.00  0.00     0.146 A 
ATOM      7  O   UNL     1       3.580  -3.483  19.479  1.00  0.00    -0.285 OA
ATOM      8  C   UNL     1       4.879  -2.682  17.716  1.00  0.00     0.111 A 
ATOM      9  C   UNL     1       6.028  -2.096  15.640  1.00  0.00     0.094 A 
ATOM     10  C   UNL     1       6.148  -2.830  18.350  1.00  0.00     0.134 A 
ATOM     11  C   UNL     1       7.264  -2.300  16.255  1.00  0.00     0.123 A 
ATOM     12  C   UNL     1       7.318  -2.667  17.598  1.00  0.00     0.093 A 
BRANCH   3  13
ATOM     13  C   UNL     1       1.291  -1.983  15.533  1.00  0.00     0.025 A 
ATOM     14  C   UNL     1       0.621  -0.756  15.651  1.00  0.00     0.016 A 
ATOM     15  C   UNL     1      -0.518  -0.500  14.884  1.00  0.00     0.051 A 
ATOM     16  C   UNL     1      -0.987  -1.454  13.976  1.00  0.00     0.157 A 
ATOM     17  C   UNL     1       0.837  -2.930  14.606  1.00  0.00     0.062 A 
ATOM     18  C   UNL     1      -0.304  -2.674  13.831  1.00  0.00     0.158 A 
BRANCH  16  19
ATOM     19  O   UNL     1      -2.125  -1.170  13.222  1.00  0.00    -0.504 OA
ATOM     20  H   UNL     1      -2.374  -1.708  12.401  1.00  0.00     0.293 HD
ENDBRANCH  16  19
BRANCH  18  21
ATOM     21  O   UNL     1      -0.760  -3.625  12.921  1.00  0.00    -0.504 OA
ATOM     22  H   UNL     1      -0.122  -4.242  12.434  1.00  0.00     0.293 HD
ENDBRANCH  18  21
ENDBRANCH   3  13
BRANCH  10  23
ATOM     23  O   UNL     1       6.310  -3.100  19.711  1.00  0.00    -0.507 OA
ATOM     24  H   UNL     1       7.086  -3.612  20.104  1.00  0.00     0.293 HD
ENDBRANCH  10  23
BRANCH  11  25
ATOM     25  O   UNL     1       8.448  -2.133  15.541  1.00  0.00    -0.508 OA
ATOM     26  H   UNL     1       8.759  -1.217  15.239  1.00  0.00     0.293 HD
ENDBRANCH  11  25
ENDBRANCH   1   2
BRANCH   1  27
ATOM     27  C   UNL     1       0.835  -2.603  19.570  1.00  0.00     0.339 C 
ATOM     28  C   UNL     1      -0.244  -1.495  19.516  1.00  0.00     0.214 C 
ATOM     29  O   UNL     1       0.358  -3.711  20.313  1.00  0.00    -0.332 OA
ATOM     30  C   UNL     1      -1.043  -1.415  20.842  1.00  0.00     0.180 C 
ATOM     31  C   UNL     1       0.247  -3.415  21.703  1.00  0.00     0.179 C 
ATOM     32  C   UNL     1      -0.199  -1.950  22.010  1.00  0.00     0.177 C 
BRANCH  28  33
ATOM     33  O   UNL     1      -1.119  -1.682  18.430  1.00  0.00    -0.384 OA
ATOM     34  H   UNL     1      -0.961  -0.943  17.787  1.00  0.00     0.211 HD
ENDBRANCH  28  33
BRANCH  30  35
ATOM     35  O   UNL     1      -1.415  -0.080  21.080  1.00  0.00    -0.387 OA
ATOM     36  H   UNL     1      -0.801   0.490  20.550  1.00  0.00     0.211 HD
ENDBRANCH  30  35
BRANCH  31  37
ATOM     37  C   UNL     1       1.550  -3.781  22.433  1.00  0.00     0.191 C 
BRANCH  37  38
ATOM     38  O   UNL     1       2.102  -2.652  23.051  1.00  0.00    -0.394 OA
ATOM     39  H   UNL     1       2.164  -2.860  24.019  1.00  0.00     0.210 HD
ENDBRANCH  37  38
ENDBRANCH  31  37
BRANCH  32  40
ATOM     40  O   UNL     1      -0.956  -1.907  23.194  1.00  0.00    -0.387 OA
ATOM     41  H   UNL     1      -1.035  -0.951  23.447  1.00  0.00     0.211 HD
ENDBRANCH  32  40
ENDBRANCH   1  27
TORSDOF 12
ENDMDL
MODEL 6
REMARK VINA RESULT:    -8.080      1.822      7.423
REMARK INTER + INTRA:         -12.120
REMARK INTER:                 -12.021
REMARK INTRA:                  -0.099
REMARK UNBOUND:                -0.261
REMARK SMILES O=c1c(O[C@@H]2O[C@@H](CO)[C@H](O)[C@@H](O)[C@@H]2O)c(-c2ccc(O)c(O)c2)oc2cc(O)cc(O)c12
REMARK SMILES IDX 4 1 3 2 16 3 25 4 2 5 26 6 1 7 33 8 27 9 31 10 28 11 30 12
REMARK SMILES IDX 17 13 18 14 19 15 20 16 24 17 22 18 21 19 23 21 32 23 29 25
REMARK SMILES IDX 5 27 14 28 6 29 12 30 7 31 10 32 15 33 13 35 8 37 9 38 11 40
REMARK H PARENT 21 20 23 22 32 24 29 26 15 34 13 36 9 39 11 41
REMARK Flexibility Score: inf
ROOT
ATOM      1  O   UNL     1       4.286  -3.105  17.865  1.00  0.00    -0.454 OA
ENDROOT
BRANCH   1   2
ATOM      2  C   UNL     1       3.254  -2.901  16.935  1.00  0.00     0.214 A 
ATOM      3  C   UNL     1       1.932  -3.256  17.250  1.00  0.00     0.180 A 
ATOM      4  O   UNL     1       0.982  -3.163  16.328  1.00  0.00    -0.452 OA
ATOM      5  C   UNL     1       3.539  -2.440  15.640  1.00  0.00     0.239 A 
ATOM      6  C   UNL     1       1.200  -2.702  15.102  1.00  0.00     0.146 A 
ATOM      7  O   UNL     1       4.742  -2.251  15.316  1.00  0.00    -0.285 OA
ATOM      8  C   UNL     1       2.491  -2.267  14.707  1.00  0.00     0.111 A 
ATOM      9  C   UNL     1       0.133  -2.662  14.203  1.00  0.00     0.094 A 
ATOM     10  C   UNL     1       2.659  -1.735  13.395  1.00  0.00     0.134 A 
ATOM     11  C   UNL     1       0.322  -2.193  12.901  1.00  0.00     0.123 A 
ATOM     12  C   UNL     1       1.578  -1.737  12.505  1.00  0.00     0.093 A 
BRANCH   3  13
ATOM     13  C   UNL     1       1.564  -3.761  18.585  1.00  0.00     0.025 A 
ATOM     14  C   UNL     1       2.081  -3.164  19.743  1.00  0.00     0.016 A 
ATOM     15  C   UNL     1       1.707  -3.634  21.004  1.00  0.00     0.051 A 
ATOM     16  C   UNL     1       0.798  -4.690  21.123  1.00  0.00     0.157 A 
ATOM     17  C   UNL     1       0.634  -4.802  18.702  1.00  0.00     0.062 A 
ATOM     18  C   UNL     1       0.253  -5.275  19.967  1.00  0.00     0.158 A 
BRANCH  16  19
ATOM     19  O   UNL     1       0.442  -5.138  22.395  1.00  0.00    -0.504 OA
ATOM     20  H   UNL     1      -0.322  -4.726  22.916  1.00  0.00     0.293 HD
ENDBRANCH  16  19
BRANCH  18  21
ATOM     21  O   UNL     1      -0.661  -6.320  20.078  1.00  0.00    -0.504 OA
ATOM     22  H   UNL     1      -0.832  -6.784  20.962  1.00  0.00     0.293 HD
ENDBRANCH  18  21
ENDBRANCH   3  13
BRANCH  10  23
ATOM     23  O   UNL     1       3.849  -1.165  12.934  1.00  0.00    -0.507 OA
ATOM     24  H   UNL     1       3.943  -0.209  12.624  1.00  0.00     0.293 HD
ENDBRANCH  10  23
BRANCH  11  25
ATOM     25  O   UNL     1      -0.735  -2.168  11.995  1.00  0.00    -0.508 OA
ATOM     26  H   UNL     1      -0.644  -1.725  11.089  1.00  0.00     0.293 HD
ENDBRANCH  11  25
ENDBRANCH   1   2
BRANCH   1  27
ATOM     27  C   UNL     1       5.509  -2.359  17.884  1.00  0.00     0.339 C 
ATOM     28  C   UNL     1       5.657  -1.623  19.237  1.00  0.00     0.214 C 
ATOM     29  O   UNL     1       6.625  -3.203  17.665  1.00  0.00    -0.332 OA
ATOM     30  C   UNL     1       7.135  -1.258  19.527  1.00  0.00     0.180 C 
ATOM     31  C   UNL     1       7.815  -2.462  17.407  1.00  0.00     0.179 C 
ATOM     32  C   UNL     1       7.923  -1.129  18.214  1.00  0.00     0.177 C 
BRANCH  28  33
ATOM     33  O   UNL     1       5.126  -2.384  20.296  1.00  0.00    -0.384 OA
ATOM     34  H   UNL     1       5.690  -2.219  21.096  1.00  0.00     0.211 HD
ENDBRANCH  28  33
BRANCH  30  35
ATOM     35  O   UNL     1       7.182  -0.050  20.245  1.00  0.00    -0.387 OA
ATOM     36  H   UNL     1       8.002  -0.075  20.800  1.00  0.00     0.211 HD
ENDBRANCH  30  35
BRANCH  31  37
ATOM     37  C   UNL     1       7.984  -2.231  15.896  1.00  0.00     0.191 C 
BRANCH  37  38
ATOM     38  O   UNL     1       8.745  -1.082  15.655  1.00  0.00    -0.394 OA
ATOM     39  H   UNL     1       9.671  -1.386  15.470  1.00  0.00     0.210 HD
ENDBRANCH  37  38
ENDBRANCH  31  37
BRANCH  32  40
ATOM     40  O   UNL     1       9.268  -0.838  18.500  1.00  0.00    -0.387 OA
ATOM     41  H   UNL     1       9.754  -0.859  17.635  1.00  0.00     0.211 HD
ENDBRANCH  32  40
ENDBRANCH   1  27
TORSDOF 12
ENDMDL
MODEL 7
REMARK VINA RESULT:    -8.011      1.739      5.558
REMARK INTER + INTRA:         -12.019
REMARK INTER:                 -10.975
REMARK INTRA:                  -1.044
REMARK UNBOUND:                -0.261
REMARK SMILES O=c1c(O[C@@H]2O[C@@H](CO)[C@H](O)[C@@H](O)[C@@H]2O)c(-c2ccc(O)c(O)c2)oc2cc(O)cc(O)c12
REMARK SMILES IDX 4 1 3 2 16 3 25 4 2 5 26 6 1 7 33 8 27 9 31 10 28 11 30 12
REMARK SMILES IDX 17 13 18 14 19 15 20 16 24 17 22 18 21 19 23 21 32 23 29 25
REMARK SMILES IDX 5 27 14 28 6 29 12 30 7 31 10 32 15 33 13 35 8 37 9 38 11 40
REMARK H PARENT 21 20 23 22 32 24 29 26 15 34 13 36 9 39 11 41
REMARK Flexibility Score: inf
ROOT
ATOM      1  O   UNL     1       4.180  -3.463  17.514  1.00  0.00    -0.454 OA
ENDROOT
BRANCH   1   2
ATOM      2  C   UNL     1       2.954  -3.078  18.081  1.00  0.00     0.214 A 
ATOM      3  C   UNL     1       2.034  -2.318  17.338  1.00  0.00     0.180 A 
ATOM      4  O   UNL     1       0.929  -1.865  17.915  1.00  0.00    -0.452 OA
ATOM      5  C   UNL     1       2.671  -3.352  19.428  1.00  0.00     0.239 A 
ATOM      6  C   UNL     1       0.605  -2.128  19.176  1.00  0.00     0.146 A 
ATOM      7  O   UNL     1       3.553  -3.914  20.129  1.00  0.00    -0.285 OA
ATOM      8  C   UNL     1       1.442  -2.933  19.989  1.00  0.00     0.111 A 
ATOM      9  C   UNL     1      -0.575  -1.587  19.690  1.00  0.00     0.094 A 
ATOM     10  C   UNL     1       1.024  -3.224  21.321  1.00  0.00     0.134 A 
ATOM     11  C   UNL     1      -0.946  -1.831  21.014  1.00  0.00     0.123 A 
ATOM     12  C   UNL     1      -0.148  -2.641  21.819  1.00  0.00     0.093 A 
BRANCH   3  13
ATOM     13  C   UNL     1       2.274  -1.980  15.924  1.00  0.00     0.025 A 
ATOM     14  C   UNL     1       2.632  -0.677  15.550  1.00  0.00     0.016 A 
ATOM     15  C   UNL     1       2.879  -0.373  14.209  1.00  0.00     0.051 A 
ATOM     16  C   UNL     1       2.794  -1.369  13.232  1.00  0.00     0.157 A 
ATOM     17  C   UNL     1       2.212  -2.985  14.949  1.00  0.00     0.062 A 
ATOM     18  C   UNL     1       2.463  -2.684  13.602  1.00  0.00     0.158 A 
BRANCH  16  19
ATOM     19  O   UNL     1       3.048  -1.037  11.901  1.00  0.00    -0.504 OA
ATOM     20  H   UNL     1       2.316  -0.724  11.276  1.00  0.00     0.293 HD
ENDBRANCH  16  19
BRANCH  18  21
ATOM     21  O   UNL     1       2.387  -3.683  12.635  1.00  0.00    -0.504 OA
ATOM     22  H   UNL     1       2.733  -4.618  12.809  1.00  0.00     0.293 HD
ENDBRANCH  18  21
ENDBRANCH   3  13
BRANCH  10  23
ATOM     23  O   UNL     1       1.700  -4.100  22.174  1.00  0.00    -0.507 OA
ATOM     24  H   UNL     1       1.307  -4.495  23.016  1.00  0.00     0.293 HD
ENDBRANCH  10  23
BRANCH  11  25
ATOM     25  O   UNL     1      -2.113  -1.279  21.537  1.00  0.00    -0.508 OA
ATOM     26  H   UNL     1      -2.123  -0.353  21.946  1.00  0.00     0.293 HD
ENDBRANCH  11  25
ENDBRANCH   1   2
BRANCH   1  27
ATOM     27  C   UNL     1       5.450  -2.943  17.922  1.00  0.00     0.339 C 
ATOM     28  C   UNL     1       6.397  -2.849  16.701  1.00  0.00     0.214 C 
ATOM     29  O   UNL     1       5.311  -1.671  18.529  1.00  0.00    -0.332 OA
ATOM     30  C   UNL     1       7.545  -1.837  16.949  1.00  0.00     0.180 C 
ATOM     31  C   UNL     1       6.508  -1.256  19.183  1.00  0.00     0.179 C 
ATOM     32  C   UNL     1       7.818  -1.694  18.455  1.00  0.00     0.177 C 
BRANCH  28  33
ATOM     33  O   UNL     1       5.694  -2.511  15.531  1.00  0.00    -0.384 OA
ATOM     34  H   UNL     1       4.826  -2.993  15.552  1.00  0.00     0.211 HD
ENDBRANCH  28  33
BRANCH  30  35
ATOM     35  O   UNL     1       8.703  -2.277  16.283  1.00  0.00    -0.387 OA
ATOM     36  H   UNL     1       8.836  -1.676  15.506  1.00  0.00     0.211 HD
ENDBRANCH  30  35
BRANCH  31  37
ATOM     37  C   UNL     1       6.494  -1.703  20.654  1.00  0.00     0.191 C 
BRANCH  37  38
ATOM     38  O   UNL     1       6.551  -3.098  20.746  1.00  0.00    -0.394 OA
ATOM     39  H   UNL     1       7.294  -3.313  21.366  1.00  0.00     0.210 HD
ENDBRANCH  37  38
ENDBRANCH  31  37
BRANCH  32  40
ATOM     40  O   UNL     1       8.832  -0.743  18.659  1.00  0.00    -0.387 OA
ATOM     41  H   UNL     1       8.380   0.117  18.864  1.00  0.00     0.211 HD
ENDBRANCH  32  40
ENDBRANCH   1  27
TORSDOF 12
ENDMDL
MODEL 8
REMARK VINA RESULT:    -7.963      2.404      6.614
REMARK INTER + INTRA:         -11.948
REMARK INTER:                 -10.336
REMARK INTRA:                  -1.612
REMARK UNBOUND:                -0.261
REMARK SMILES O=c1c(O[C@@H]2O[C@@H](CO)[C@H](O)[C@@H](O)[C@@H]2O)c(-c2ccc(O)c(O)c2)oc2cc(O)cc(O)c12
REMARK SMILES IDX 4 1 3 2 16 3 25 4 2 5 26 6 1 7 33 8 27 9 31 10 28 11 30 12
REMARK SMILES IDX 17 13 18 14 19 15 20 16 24 17 22 18 21 19 23 21 32 23 29 25
REMARK SMILES IDX 5 27 14 28 6 29 12 30 7 31 10 32 15 33 13 35 8 37 9 38 11 40
REMARK H PARENT 21 20 23 22 32 24 29 26 15 34 13 36 9 39 11 41
REMARK Flexibility Score: inf
ROOT
ATOM      1  O   UNL     1       2.507  -3.549  17.722  1.00  0.00    -0.454 OA
ENDROOT
BRANCH   1   2
ATOM      2  C   UNL     1       3.876  -3.235  17.710  1.00  0.00     0.214 A 
ATOM      3  C   UNL     1       4.638  -3.330  18.886  1.00  0.00     0.180 A 
ATOM      4  O   UNL     1       5.902  -2.927  18.892  1.00  0.00    -0.452 OA
ATOM      5  C   UNL     1       4.481  -2.718  16.553  1.00  0.00     0.239 A 
ATOM      6  C   UNL     1       6.524  -2.464  17.815  1.00  0.00     0.146 A 
ATOM      7  O   UNL     1       3.764  -2.506  15.540  1.00  0.00    -0.285 OA
ATOM      8  C   UNL     1       5.854  -2.381  16.567  1.00  0.00     0.111 A 
ATOM      9  C   UNL     1       7.852  -2.049  17.934  1.00  0.00     0.094 A 
ATOM     10  C   UNL     1       6.583  -1.922  15.431  1.00  0.00     0.134 A 
ATOM     11  C   UNL     1       8.538  -1.547  16.828  1.00  0.00     0.123 A 
ATOM     12  C   UNL     1       7.903  -1.483  15.589  1.00  0.00     0.093 A 
BRANCH   3  13
ATOM     13  C   UNL     1       4.064  -3.849  20.140  1.00  0.00     0.025 A 
ATOM     14  C   UNL     1       3.788  -5.216  20.290  1.00  0.00     0.016 A 
ATOM     15  C   UNL     1       3.266  -5.702  21.491  1.00  0.00     0.051 A 
ATOM     16  C   UNL     1       3.033  -4.833  22.562  1.00  0.00     0.157 A 
ATOM     17  C   UNL     1       3.854  -2.982  21.220  1.00  0.00     0.062 A 
ATOM     18  C   UNL     1       3.333  -3.466  22.429  1.00  0.00     0.158 A 
BRANCH  16  19
ATOM     19  O   UNL     1       2.512  -5.345  23.750  1.00  0.00    -0.504 OA
ATOM     20  H   UNL     1       1.838  -4.835  24.306  1.00  0.00     0.293 HD
ENDBRANCH  16  19
BRANCH  18  21
ATOM     21  O   UNL     1       3.114  -2.597  23.496  1.00  0.00    -0.504 OA
ATOM     22  H   UNL     1       3.199  -2.904  24.457  1.00  0.00     0.293 HD
ENDBRANCH  18  21
ENDBRANCH   3  13
BRANCH  10  23
ATOM     23  O   UNL     1       6.069  -1.911  14.131  1.00  0.00    -0.507 OA
ATOM     24  H   UNL     1       5.741  -2.730  13.639  1.00  0.00     0.293 HD
ENDBRANCH  10  23
BRANCH  11  25
ATOM     25  O   UNL     1       9.856  -1.115  16.946  1.00  0.00    -0.508 OA
ATOM     26  H   UNL     1      10.597  -1.746  17.228  1.00  0.00     0.293 HD
ENDBRANCH  11  25
ENDBRANCH   1   2
BRANCH   1  27
ATOM     27  C   UNL     1       1.484  -2.664  18.194  1.00  0.00     0.339 C 
ATOM     28  C   UNL     1       0.876  -1.880  17.006  1.00  0.00     0.214 C 
ATOM     29  O   UNL     1       0.469  -3.376  18.878  1.00  0.00    -0.332 OA
ATOM     30  C   UNL     1      -0.534  -1.336  17.347  1.00  0.00     0.180 C 
ATOM     31  C   UNL     1      -0.410  -2.506  19.587  1.00  0.00     0.179 C 
ATOM     32  C   UNL     1      -0.684  -1.149  18.865  1.00  0.00     0.177 C 
BRANCH  28  33
ATOM     33  O   UNL     1       0.826  -2.669  15.842  1.00  0.00    -0.384 OA
ATOM     34  H   UNL     1       1.710  -2.601  15.395  1.00  0.00     0.211 HD
ENDBRANCH  28  33
BRANCH  30  35
ATOM     35  O   UNL     1      -0.731  -0.112  16.683  1.00  0.00    -0.387 OA
ATOM     36  H   UNL     1      -1.700   0.093  16.736  1.00  0.00     0.211 HD
ENDBRANCH  30  35
BRANCH  31  37
ATOM     37  C   UNL     1       0.091  -2.298  21.026  1.00  0.00     0.191 C 
BRANCH  37  38
ATOM     38  O   UNL     1      -0.750  -1.420  21.719  1.00  0.00    -0.394 OA
ATOM     39  H   UNL     1      -0.654  -1.633  22.682  1.00  0.00     0.210 HD
ENDBRANCH  37  38
ENDBRANCH  31  37
BRANCH  32  40
ATOM     40  O   UNL     1      -1.982  -0.694  19.156  1.00  0.00    -0.387 OA
ATOM     41  H   UNL     1      -2.557  -1.500  19.228  1.00  0.00     0.211 HD
ENDBRANCH  32  40
ENDBRANCH   1  27
TORSDOF 12
ENDMDL
MODEL 9
REMARK VINA RESULT:    -7.904      2.902      6.919
REMARK INTER + INTRA:         -11.861
REMARK INTER:                 -10.157
REMARK INTRA:                  -1.704
REMARK UNBOUND:                -0.261
REMARK SMILES O=c1c(O[C@@H]2O[C@@H](CO)[C@H](O)[C@@H](O)[C@@H]2O)c(-c2ccc(O)c(O)c2)oc2cc(O)cc(O)c12
REMARK SMILES IDX 4 1 3 2 16 3 25 4 2 5 26 6 1 7 33 8 27 9 31 10 28 11 30 12
REMARK SMILES IDX 17 13 18 14 19 15 20 16 24 17 22 18 21 19 23 21 32 23 29 25
REMARK SMILES IDX 5 27 14 28 6 29 12 30 7 31 10 32 15 33 13 35 8 37 9 38 11 40
REMARK H PARENT 21 20 23 22 32 24 29 26 15 34 13 36 9 39 11 41
REMARK Flexibility Score: inf
ROOT
ATOM      1  O   UNL     1       4.138  -2.965  21.495  1.00  0.00    -0.454 OA
ENDROOT
BRANCH   1   2
ATOM      2  C   UNL     1       3.690  -4.244  21.859  1.00  0.00     0.214 A 
ATOM      3  C   UNL     1       2.332  -4.583  21.742  1.00  0.00     0.180 A 
ATOM      4  O   UNL     1       1.898  -5.753  22.191  1.00  0.00    -0.452 OA
ATOM      5  C   UNL     1       4.568  -5.169  22.447  1.00  0.00     0.239 A 
ATOM      6  C   UNL     1       2.697  -6.671  22.723  1.00  0.00     0.146 A 
ATOM      7  O   UNL     1       5.755  -4.815  22.676  1.00  0.00    -0.285 OA
ATOM      8  C   UNL     1       4.093  -6.443  22.834  1.00  0.00     0.111 A 
ATOM      9  C   UNL     1       2.135  -7.864  23.181  1.00  0.00     0.094 A 
ATOM     10  C   UNL     1       4.913  -7.481  23.368  1.00  0.00     0.134 A 
ATOM     11  C   UNL     1       2.939  -8.850  23.755  1.00  0.00     0.123 A 
ATOM     12  C   UNL     1       4.316  -8.653  23.848  1.00  0.00     0.093 A 
BRANCH   3  13
ATOM     13  C   UNL     1       1.352  -3.655  21.149  1.00  0.00     0.025 A 
ATOM     14  C   UNL     1       1.029  -3.731  19.786  1.00  0.00     0.016 A 
ATOM     15  C   UNL     1       0.082  -2.862  19.239  1.00  0.00     0.051 A 
ATOM     16  C   UNL     1      -0.568  -1.925  20.048  1.00  0.00     0.157 A 
ATOM     17  C   UNL     1       0.684  -2.733  21.966  1.00  0.00     0.062 A 
ATOM     18  C   UNL     1      -0.270  -1.862  21.420  1.00  0.00     0.158 A 
BRANCH  16  19
ATOM     19  O   UNL     1      -1.511  -1.072  19.475  1.00  0.00    -0.504 OA
ATOM     20  H   UNL     1      -2.099  -0.467  20.034  1.00  0.00     0.293 HD
ENDBRANCH  16  19
BRANCH  18  21
ATOM     21  O   UNL     1      -0.922  -0.938  22.234  1.00  0.00    -0.504 OA
ATOM     22  H   UNL     1      -1.579  -0.268  21.855  1.00  0.00     0.293 HD
ENDBRANCH  18  21
ENDBRANCH   3  13
BRANCH  10  23
ATOM     23  O   UNL     1       6.308  -7.422  23.415  1.00  0.00    -0.507 OA
ATOM     24  H   UNL     1       6.923  -8.016  22.879  1.00  0.00     0.293 HD
ENDBRANCH  10  23
BRANCH  11  25
ATOM     25  O   UNL     1       2.381 -10.034  24.230  1.00  0.00    -0.508 OA
ATOM     26  H   UNL     1       2.949 -10.746  24.673  1.00  0.00     0.293 HD
ENDBRANCH  11  25
ENDBRANCH   1   2
BRANCH   1  27
ATOM     27  C   UNL     1       4.608  -2.621  20.186  1.00  0.00     0.339 C 
ATOM     28  C   UNL     1       6.061  -2.095  20.268  1.00  0.00     0.214 C 
ATOM     29  O   UNL     1       4.542  -3.733  19.311  1.00  0.00    -0.332 OA
ATOM     30  C   UNL     1       6.786  -2.214  18.904  1.00  0.00     0.180 C 
ATOM     31  C   UNL     1       4.739  -3.357  17.950  1.00  0.00     0.179 C 
ATOM     32  C   UNL     1       5.768  -2.200  17.751  1.00  0.00     0.177 C 
BRANCH  28  33
ATOM     33  O   UNL     1       6.792  -2.760  21.268  1.00  0.00    -0.384 OA
ATOM     34  H   UNL     1       7.648  -2.272  21.390  1.00  0.00     0.211 HD
ENDBRANCH  28  33
BRANCH  30  35
ATOM     35  O   UNL     1       7.694  -1.149  18.766  1.00  0.00    -0.387 OA
ATOM     36  H   UNL     1       7.482  -0.697  17.910  1.00  0.00     0.211 HD
ENDBRANCH  30  35
BRANCH  31  37
ATOM     37  C   UNL     1       3.390  -3.045  17.282  1.00  0.00     0.191 C 
BRANCH  37  38
ATOM     38  O   UNL     1       3.582  -2.605  15.967  1.00  0.00    -0.394 OA
ATOM     39  H   UNL     1       2.943  -3.109  15.401  1.00  0.00     0.210 HD
ENDBRANCH  37  38
ENDBRANCH  31  37
BRANCH  32  40
ATOM     40  O   UNL     1       6.443  -2.350  16.528  1.00  0.00    -0.387 OA
ATOM     41  H   UNL     1       6.887  -3.237  16.554  1.00  0.00     0.211 HD
ENDBRANCH  32  40
ENDBRANCH   1  27
TORSDOF 12
ENDMDL
