MODEL 1
REMARK VINA RESULT:    -3.262      0.000      0.000
REMARK INTER + INTRA:          -6.589
REMARK INTER:                  -5.169
REMARK INTRA:                  -1.420
REMARK UNBOUND:                -1.420
REMARK SMILES CCCCCCCCCCCC(=O)[O-]
REMARK SMILES IDX 7 1 8 2 9 3 10 4 11 5 12 6 13 7 14 8 6 9 5 10 4 11 3 12 2 13
REMARK SMILES IDX 1 14
REMARK H PARENT
REMARK Flexibility Score: inf
ROOT
ATOM      1  C   UNL     1       5.386  11.202   1.266  1.00  0.00     0.000 C 
ENDROOT
BRANCH   1   2
ATOM      2  C   UNL     1       6.798  10.877   1.784  1.00  0.00     0.000 C 
BRANCH   2   3
ATOM      3  C   UNL     1       7.743  10.378   0.680  1.00  0.00     0.000 C 
BRANCH   3   4
ATOM      4  C   UNL     1       8.105   8.901   0.894  1.00  0.00     0.006 C 
BRANCH   4   5
ATOM      5  C   UNL     1       7.084   7.954   0.248  1.00  0.00     0.053 C 
BRANCH   5   6
ATOM      6  C   UNL     1       7.742   6.969  -0.669  1.00  0.00     0.041 C 
ATOM      7  O   UNL     1       7.057   6.336  -1.515  1.00  0.00    -0.550 OA
ATOM      8  O   UNL     1       9.116   6.775  -0.613  1.00  0.00    -0.550 OA
ENDBRANCH   5   6
ENDBRANCH   4   5
ENDBRANCH   3   4
ENDBRANCH   2   3
ENDBRANCH   1   2
BRANCH   1   9
ATOM      9  C   UNL     1       4.237  10.505   2.018  1.00  0.00     0.000 C 
BRANCH   9  10
ATOM     10  C   UNL     1       3.799   9.188   1.356  1.00  0.00    -0.000 C 
BRANCH  10  11
ATOM     11  C   UNL     1       3.997   7.972   2.276  1.00  0.00    -0.000 C 
BRANCH  11  12
ATOM     12  C   UNL     1       4.517   8.365   3.670  1.00  0.00    -0.000 C 
BRANCH  12  13
ATOM     13  C   UNL     1       5.995   7.995   3.872  1.00  0.00    -0.003 C 
ATOM     14  C   UNL     1       6.287   6.528   3.557  1.00  0.00     0.004 C 
ENDBRANCH  12  13
ENDBRANCH  11  12
ENDBRANCH  10  11
ENDBRANCH   9  10
ENDBRANCH   1   9
TORSDOF 10
ENDMDL
MODEL 2
REMARK VINA RESULT:    -3.231      2.663      4.297
REMARK INTER + INTRA:          -6.540
REMARK INTER:                  -4.862
REMARK INTRA:                  -1.678
REMARK UNBOUND:                -1.420
REMARK SMILES CCCCCCCCCCCC(=O)[O-]
REMARK SMILES IDX 7 1 8 2 9 3 10 4 11 5 12 6 13 7 14 8 6 9 5 10 4 11 3 12 2 13
REMARK SMILES IDX 1 14
REMARK H PARENT
REMARK Flexibility Score: inf
ROOT
ATOM      1  C   UNL     1       7.750  10.290   0.836  1.00  0.00     0.000 C 
ENDROOT
BRANCH   1   2
ATOM      2  C   UNL     1       7.993   8.771   0.888  1.00  0.00     0.000 C 
BRANCH   2   3
ATOM      3  C   UNL     1       6.888   7.962   0.193  1.00  0.00     0.000 C 
BRANCH   3   4
ATOM      4  C   UNL     1       6.298   6.909   1.142  1.00  0.00     0.006 C 
BRANCH   4   5
ATOM      5  C   UNL     1       5.079   7.438   1.909  1.00  0.00     0.053 C 
BRANCH   5   6
ATOM      6  C   UNL     1       5.395   7.694   3.351  1.00  0.00     0.041 C 
ATOM      7  O   UNL     1       4.582   8.324   4.076  1.00  0.00    -0.550 OA
ATOM      8  O   UNL     1       6.573   7.206   3.902  1.00  0.00    -0.550 OA
ENDBRANCH   5   6
ENDBRANCH   4   5
ENDBRANCH   3   4
ENDBRANCH   2   3
ENDBRANCH   1   2
BRANCH   1   9
ATOM      9  C   UNL     1       6.757  10.830   1.883  1.00  0.00     0.000 C 
BRANCH   9  10
ATOM     10  C   UNL     1       5.620  11.655   1.259  1.00  0.00    -0.000 C 
BRANCH  10  11
ATOM     11  C   UNL     1       4.307  10.862   1.150  1.00  0.00    -0.000 C 
BRANCH  11  12
ATOM     12  C   UNL     1       4.049  10.343  -0.276  1.00  0.00    -0.000 C 
BRANCH  12  13
ATOM     13  C   UNL     1       4.768  11.180  -1.346  1.00  0.00    -0.003 C 
ATOM     14  C   UNL     1       5.594  10.328  -2.309  1.00  0.00     0.004 C 
ENDBRANCH  12  13
ENDBRANCH  11  12
ENDBRANCH  10  11
ENDBRANCH   9  10
ENDBRANCH   1   9
TORSDOF 10
ENDMDL
MODEL 3
REMARK VINA RESULT:    -3.195      1.129      2.970
REMARK INTER + INTRA:          -6.483
REMARK INTER:                  -4.837
REMARK INTRA:                  -1.647
REMARK UNBOUND:                -1.420
REMARK SMILES CCCCCCCCCCCC(=O)[O-]
REMARK SMILES IDX 7 1 8 2 9 3 10 4 11 5 12 6 13 7 14 8 6 9 5 10 4 11 3 12 2 13
REMARK SMILES IDX 1 14
REMARK H PARENT
REMARK Flexibility Score: inf
ROOT
ATOM      1  C   UNL     1       4.760   8.240   3.845  1.00  0.00     0.000 C 
ENDROOT
BRANCH   1   2
ATOM      2  C   UNL     1       6.147   7.814   3.332  1.00  0.00     0.000 C 
BRANCH   2   3
ATOM      3  C   UNL     1       6.104   7.197   1.926  1.00  0.00     0.000 C 
BRANCH   3   4
ATOM      4  C   UNL     1       7.006   7.975   0.957  1.00  0.00     0.006 C 
BRANCH   4   5
ATOM      5  C   UNL     1       6.543   7.842  -0.500  1.00  0.00     0.053 C 
BRANCH   5   6
ATOM      6  C   UNL     1       6.935   6.522  -1.091  1.00  0.00     0.041 C 
ATOM      7  O   UNL     1       6.135   5.550  -1.058  1.00  0.00    -0.550 OA
ATOM      8  O   UNL     1       8.171   6.375  -1.707  1.00  0.00    -0.550 OA
ENDBRANCH   5   6
ENDBRANCH   4   5
ENDBRANCH   3   4
ENDBRANCH   2   3
ENDBRANCH   1   2
BRANCH   1   9
ATOM      9  C   UNL     1       3.639   8.223   2.789  1.00  0.00     0.000 C 
BRANCH   9  10
ATOM     10  C   UNL     1       3.249   9.630   2.307  1.00  0.00    -0.000 C 
BRANCH  10  11
ATOM     11  C   UNL     1       3.545   9.844   0.813  1.00  0.00    -0.000 C 
BRANCH  11  12
ATOM     12  C   UNL     1       4.664  10.873   0.575  1.00  0.00    -0.000 C 
BRANCH  12  13
ATOM     13  C   UNL     1       5.118  11.560   1.874  1.00  0.00    -0.003 C 
ATOM     14  C   UNL     1       6.625  11.456   2.103  1.00  0.00     0.004 C 
ENDBRANCH  12  13
ENDBRANCH  11  12
ENDBRANCH  10  11
ENDBRANCH   9  10
ENDBRANCH   1   9
TORSDOF 10
ENDMDL
MODEL 4
REMARK VINA RESULT:    -3.121      2.193      4.081
REMARK INTER + INTRA:          -6.366
REMARK INTER:                  -4.974
REMARK INTRA:                  -1.392
REMARK UNBOUND:                -1.420
REMARK SMILES CCCCCCCCCCCC(=O)[O-]
REMARK SMILES IDX 7 1 8 2 9 3 10 4 11 5 12 6 13 7 14 8 6 9 5 10 4 11 3 12 2 13
REMARK SMILES IDX 1 14
REMARK H PARENT
REMARK Flexibility Score: inf
ROOT
ATOM      1  C   UNL     1       3.679   8.291   2.784  1.00  0.00     0.000 C 
ENDROOT
BRANCH   1   2
ATOM      2  C   UNL     1       3.331   9.706   2.290  1.00  0.00     0.000 C 
BRANCH   2   3
ATOM      3  C   UNL     1       4.319  10.234   1.238  1.00  0.00     0.000 C 
BRANCH   3   4
ATOM      4  C   UNL     1       5.148  11.399   1.799  1.00  0.00     0.006 C 
BRANCH   4   5
ATOM      5  C   UNL     1       6.602  10.994   2.078  1.00  0.00     0.053 C 
BRANCH   5   6
ATOM      6  C   UNL     1       7.523  11.437   0.983  1.00  0.00     0.041 C 
ATOM      7  O   UNL     1       7.385  10.984  -0.183  1.00  0.00    -0.550 OA
ATOM      8  O   UNL     1       8.512  12.377   1.244  1.00  0.00    -0.550 OA
ENDBRANCH   5   6
ENDBRANCH   4   5
ENDBRANCH   3   4
ENDBRANCH   2   3
ENDBRANCH   1   2
BRANCH   1   9
ATOM      9  C   UNL     1       4.792   8.223   3.846  1.00  0.00     0.000 C 
BRANCH   9  10
ATOM     10  C   UNL     1       6.045   7.480   3.354  1.00  0.00    -0.000 C 
BRANCH  10  11
ATOM     11  C   UNL     1       5.877   6.916   1.934  1.00  0.00    -0.000 C 
BRANCH  11  12
ATOM     12  C   UNL     1       6.868   7.535   0.933  1.00  0.00    -0.000 C 
BRANCH  12  13
ATOM     13  C   UNL     1       6.327   7.539  -0.506  1.00  0.00    -0.003 C 
ATOM     14  C   UNL     1       6.975   6.470  -1.386  1.00  0.00     0.004 C 
ENDBRANCH  12  13
ENDBRANCH  11  12
ENDBRANCH  10  11
ENDBRANCH   9  10
ENDBRANCH   1   9
TORSDOF 10
ENDMDL
MODEL 5
REMARK VINA RESULT:    -3.116      2.189      4.280
REMARK INTER + INTRA:          -6.358
REMARK INTER:                  -4.796
REMARK INTRA:                  -1.562
REMARK UNBOUND:                -1.420
REMARK SMILES CCCCCCCCCCCC(=O)[O-]
REMARK SMILES IDX 7 1 8 2 9 3 10 4 11 5 12 6 13 7 14 8 6 9 5 10 4 11 3 12 2 13
REMARK SMILES IDX 1 14
REMARK H PARENT
REMARK Flexibility Score: inf
ROOT
ATOM      1  C   UNL     1       3.530   8.020   0.286  1.00  0.00     0.000 C 
ENDROOT
BRANCH   1   2
ATOM      2  C   UNL     1       3.005   8.030   1.733  1.00  0.00     0.000 C 
BRANCH   2   3
ATOM      3  C   UNL     1       3.711   9.066   2.620  1.00  0.00     0.000 C 
BRANCH   3   4
ATOM      4  C   UNL     1       4.321   8.400   3.862  1.00  0.00     0.006 C 
BRANCH   4   5
ATOM      5  C   UNL     1       5.836   8.193   3.724  1.00  0.00     0.053 C 
BRANCH   5   6
ATOM      6  C   UNL     1       6.174   6.781   3.355  1.00  0.00     0.041 C 
ATOM      7  O   UNL     1       6.497   5.953   4.246  1.00  0.00    -0.550 OA
ATOM      8  O   UNL     1       6.100   6.372   2.030  1.00  0.00    -0.550 OA
ENDBRANCH   5   6
ENDBRANCH   4   5
ENDBRANCH   3   4
ENDBRANCH   2   3
ENDBRANCH   1   2
BRANCH   1   9
ATOM      9  C   UNL     1       3.316   9.329  -0.496  1.00  0.00     0.000 C 
BRANCH   9  10
ATOM     10  C   UNL     1       4.636  10.011  -0.896  1.00  0.00    -0.000 C 
BRANCH  10  11
ATOM     11  C   UNL     1       5.868   9.158  -0.552  1.00  0.00    -0.000 C 
BRANCH  11  12
ATOM     12  C   UNL     1       6.750   9.805   0.530  1.00  0.00    -0.000 C 
BRANCH  12  13
ATOM     13  C   UNL     1       6.310  11.239   0.868  1.00  0.00    -0.003 C 
ATOM     14  C   UNL     1       6.612  11.625   2.316  1.00  0.00     0.004 C 
ENDBRANCH  12  13
ENDBRANCH  11  12
ENDBRANCH  10  11
ENDBRANCH   9  10
ENDBRANCH   1   9
TORSDOF 10
ENDMDL
MODEL 6
REMARK VINA RESULT:    -3.076      2.177      4.289
REMARK INTER + INTRA:          -6.295
REMARK INTER:                  -4.812
REMARK INTRA:                  -1.484
REMARK UNBOUND:                -1.420
REMARK SMILES CCCCCCCCCCCC(=O)[O-]
REMARK SMILES IDX 7 1 8 2 9 3 10 4 11 5 12 6 13 7 14 8 6 9 5 10 4 11 3 12 2 13
REMARK SMILES IDX 1 14
REMARK H PARENT
REMARK Flexibility Score: inf
ROOT
ATOM      1  C   UNL     1       4.908  10.987   0.953  1.00  0.00     0.000 C 
ENDROOT
BRANCH   1   2
ATOM      2  C   UNL     1       3.687  10.332   1.623  1.00  0.00     0.000 C 
BRANCH   2   3
ATOM      3  C   UNL     1       3.267   9.016   0.952  1.00  0.00     0.000 C 
BRANCH   3   4
ATOM      4  C   UNL     1       3.713   7.807   1.787  1.00  0.00     0.006 C 
BRANCH   4   5
ATOM      5  C   UNL     1       4.113   8.204   3.214  1.00  0.00     0.053 C 
BRANCH   5   6
ATOM      6  C   UNL     1       5.493   7.731   3.558  1.00  0.00     0.041 C 
ATOM      7  O   UNL     1       6.292   8.495   4.160  1.00  0.00    -0.550 OA
ATOM      8  O   UNL     1       5.882   6.436   3.244  1.00  0.00    -0.550 OA
ENDBRANCH   5   6
ENDBRANCH   4   5
ENDBRANCH   3   4
ENDBRANCH   2   3
ENDBRANCH   1   2
BRANCH   1   9
ATOM      9  C   UNL     1       6.180  11.039   1.820  1.00  0.00     0.000 C 
BRANCH   9  10
ATOM     10  C   UNL     1       7.354  10.255   1.210  1.00  0.00    -0.000 C 
BRANCH  10  11
ATOM     11  C   UNL     1       6.902   9.271   0.118  1.00  0.00    -0.000 C 
BRANCH  11  12
ATOM     12  C   UNL     1       7.345   7.826   0.406  1.00  0.00    -0.000 C 
BRANCH  12  13
ATOM     13  C   UNL     1       6.517   6.790  -0.371  1.00  0.00    -0.003 C 
ATOM     14  C   UNL     1       7.147   6.414  -1.712  1.00  0.00     0.004 C 
ENDBRANCH  12  13
ENDBRANCH  11  12
ENDBRANCH  10  11
ENDBRANCH   9  10
ENDBRANCH   1   9
TORSDOF 10
ENDMDL
MODEL 7
REMARK VINA RESULT:    -3.073      1.503      2.272
REMARK INTER + INTRA:          -6.290
REMARK INTER:                  -4.994
REMARK INTRA:                  -1.297
REMARK UNBOUND:                -1.420
REMARK SMILES CCCCCCCCCCCC(=O)[O-]
REMARK SMILES IDX 7 1 8 2 9 3 10 4 11 5 12 6 13 7 14 8 6 9 5 10 4 11 3 12 2 13
REMARK SMILES IDX 1 14
REMARK H PARENT
REMARK Flexibility Score: inf
ROOT
ATOM      1  C   UNL     1       3.535  10.327   1.242  1.00  0.00     0.000 C 
ENDROOT
BRANCH   1   2
ATOM      2  C   UNL     1       4.545  11.234   0.517  1.00  0.00     0.000 C 
BRANCH   2   3
ATOM      3  C   UNL     1       5.462  12.002   1.481  1.00  0.00     0.000 C 
BRANCH   3   4
ATOM      4  C   UNL     1       6.568  11.089   2.031  1.00  0.00     0.006 C 
BRANCH   4   5
ATOM      5  C   UNL     1       7.686  10.850   1.008  1.00  0.00     0.053 C 
BRANCH   5   6
ATOM      6  C   UNL     1       7.930   9.390   0.780  1.00  0.00     0.041 C 
ATOM      7  O   UNL     1       7.026   8.666   0.287  1.00  0.00    -0.550 OA
ATOM      8  O   UNL     1       9.168   8.836   1.080  1.00  0.00    -0.550 OA
ENDBRANCH   5   6
ENDBRANCH   4   5
ENDBRANCH   3   4
ENDBRANCH   2   3
ENDBRANCH   1   2
BRANCH   1   9
ATOM      9  C   UNL     1       3.483   8.872   0.737  1.00  0.00     0.000 C 
BRANCH   9  10
ATOM     10  C   UNL     1       3.796   7.844   1.838  1.00  0.00    -0.000 C 
BRANCH  10  11
ATOM     11  C   UNL     1       4.002   8.498   3.214  1.00  0.00    -0.000 C 
BRANCH  11  12
ATOM     12  C   UNL     1       5.371   8.159   3.829  1.00  0.00    -0.000 C 
BRANCH  12  13
ATOM     13  C   UNL     1       6.050   6.969   3.132  1.00  0.00    -0.003 C 
ATOM     14  C   UNL     1       6.580   5.928   4.119  1.00  0.00     0.004 C 
ENDBRANCH  12  13
ENDBRANCH  11  12
ENDBRANCH  10  11
ENDBRANCH   9  10
ENDBRANCH   1   9
TORSDOF 10
ENDMDL
MODEL 8
REMARK VINA RESULT:    -3.046      2.453      3.427
REMARK INTER + INTRA:          -6.248
REMARK INTER:                  -4.927
REMARK INTRA:                  -1.321
REMARK UNBOUND:                -1.420
REMARK SMILES CCCCCCCCCCCC(=O)[O-]
REMARK SMILES IDX 7 1 8 2 9 3 10 4 11 5 12 6 13 7 14 8 6 9 5 10 4 11 3 12 2 13
REMARK SMILES IDX 1 14
REMARK H PARENT
REMARK Flexibility Score: inf
ROOT
ATOM      1  C   UNL     1       7.297   7.878   0.339  1.00  0.00     0.000 C 
ENDROOT
BRANCH   1   2
ATOM      2  C   UNL     1       8.159   9.022   0.901  1.00  0.00     0.000 C 
BRANCH   2   3
ATOM      3  C   UNL     1       7.330  10.238   1.343  1.00  0.00     0.000 C 
BRANCH   3   4
ATOM      4  C   UNL     1       7.857  11.526   0.695  1.00  0.00     0.006 C 
BRANCH   4   5
ATOM      5  C   UNL     1       6.795  12.216  -0.172  1.00  0.00     0.053 C 
BRANCH   5   6
ATOM      6  C   UNL     1       7.033  11.986  -1.633  1.00  0.00     0.041 C 
ATOM      7  O   UNL     1       8.004  12.539  -2.211  1.00  0.00    -0.550 OA
ATOM      8  O   UNL     1       6.201  11.133  -2.347  1.00  0.00    -0.550 OA
ENDBRANCH   5   6
ENDBRANCH   4   5
ENDBRANCH   3   4
ENDBRANCH   2   3
ENDBRANCH   1   2
BRANCH   1   9
ATOM      9  C   UNL     1       5.946   8.311  -0.262  1.00  0.00     0.000 C 
BRANCH   9  10
ATOM     10  C   UNL     1       4.741   7.675   0.452  1.00  0.00    -0.000 C 
BRANCH  10  11
ATOM     11  C   UNL     1       4.109   8.615   1.491  1.00  0.00    -0.000 C 
BRANCH  11  12
ATOM     12  C   UNL     1       4.020   7.976   2.888  1.00  0.00    -0.000 C 
BRANCH  12  13
ATOM     13  C   UNL     1       5.289   8.209   3.724  1.00  0.00    -0.003 C 
ATOM     14  C   UNL     1       6.183   6.972   3.801  1.00  0.00     0.004 C 
ENDBRANCH  12  13
ENDBRANCH  11  12
ENDBRANCH  10  11
ENDBRANCH   9  10
ENDBRANCH   1   9
TORSDOF 10
ENDMDL
MODEL 9
REMARK VINA RESULT:    -3.029      1.244      3.543
REMARK INTER + INTRA:          -6.219
REMARK INTER:                  -4.768
REMARK INTRA:                  -1.451
REMARK UNBOUND:                -1.420
REMARK SMILES CCCCCCCCCCCC(=O)[O-]
REMARK SMILES IDX 7 1 8 2 9 3 10 4 11 5 12 6 13 7 14 8 6 9 5 10 4 11 3 12 2 13
REMARK SMILES IDX 1 14
REMARK H PARENT
REMARK Flexibility Score: inf
ROOT
ATOM      1  C   UNL     1       3.445   8.197   2.302  1.00  0.00     0.000 C 
ENDROOT
BRANCH   1   2
ATOM      2  C   UNL     1       4.247   8.372   3.604  1.00  0.00     0.000 C 
BRANCH   2   3
ATOM      3  C   UNL     1       5.664   7.785   3.520  1.00  0.00     0.000 C 
BRANCH   3   4
ATOM      4  C   UNL     1       5.828   6.925   2.258  1.00  0.00     0.006 C 
BRANCH   4   5
ATOM      5  C   UNL     1       6.802   7.552   1.252  1.00  0.00     0.053 C 
BRANCH   5   6
ATOM      6  C   UNL     1       6.296   7.443  -0.155  1.00  0.00     0.041 C 
ATOM      7  O   UNL     1       6.009   8.481  -0.806  1.00  0.00    -0.550 OA
ATOM      8  O   UNL     1       6.175   6.197  -0.756  1.00  0.00    -0.550 OA
ENDBRANCH   5   6
ENDBRANCH   4   5
ENDBRANCH   3   4
ENDBRANCH   2   3
ENDBRANCH   1   2
BRANCH   1   9
ATOM      9  C   UNL     1       3.274   9.476   1.462  1.00  0.00     0.000 C 
BRANCH   9  10
ATOM     10  C   UNL     1       3.958  10.702   2.090  1.00  0.00    -0.000 C 
BRANCH  10  11
ATOM     11  C   UNL     1       5.131  11.222   1.242  1.00  0.00    -0.000 C 
BRANCH  11  12
ATOM     12  C   UNL     1       6.478  11.129   1.980  1.00  0.00    -0.000 C 
BRANCH  12  13
ATOM     13  C   UNL     1       7.674  11.060   1.016  1.00  0.00    -0.003 C 
ATOM     14  C   UNL     1       7.417  11.795  -0.299  1.00  0.00     0.004 C 
ENDBRANCH  12  13
ENDBRANCH  11  12
ENDBRANCH  10  11
ENDBRANCH   9  10
ENDBRANCH   1   9
TORSDOF 10
ENDMDL
