MODEL 1
REMARK VINA RESULT:    -4.141      0.000      0.000
REMARK INTER + INTRA:          -5.177
REMARK INTER:                  -5.110
REMARK INTRA:                  -0.067
REMARK UNBOUND:                -0.067
REMARK SMILES CCCCCC(=O)[O-]
REMARK SMILES IDX 4 1 5 2 6 3 7 4 8 5 3 6 2 7 1 8
REMARK H PARENT
REMARK Flexibility Score: inf
ROOT
ATOM      1  C   UNL     1      -3.895  19.764  27.625  1.00  0.00     0.006 C 
ENDROOT
BRANCH   1   2
ATOM      2  C   UNL     1      -3.385  18.501  26.925  1.00  0.00     0.053 C 
BRANCH   2   3
ATOM      3  C   UNL     1      -2.742  17.578  27.910  1.00  0.00     0.041 C 
ATOM      4  O   UNL     1      -3.124  16.381  28.000  1.00  0.00    -0.550 OA
ATOM      5  O   UNL     1      -1.755  18.050  28.766  1.00  0.00    -0.550 OA
ENDBRANCH   2   3
ENDBRANCH   1   2
BRANCH   1   6
ATOM      6  C   UNL     1      -3.088  20.997  27.191  1.00  0.00     0.000 C 
BRANCH   6   7
ATOM      7  C   UNL     1      -1.767  20.627  26.500  1.00  0.00    -0.003 C 
ATOM      8  C   UNL     1      -1.250  21.734  25.583  1.00  0.00     0.004 C 
ENDBRANCH   6   7
ENDBRANCH   1   6
TORSDOF 4
ENDMDL
MODEL 2
REMARK VINA RESULT:    -3.738      2.627      4.260
REMARK INTER + INTRA:          -4.680
REMARK INTER:                  -4.514
REMARK INTRA:                  -0.166
REMARK UNBOUND:                -0.067
REMARK SMILES CCCCCC(=O)[O-]
REMARK SMILES IDX 4 1 5 2 6 3 7 4 8 5 3 6 2 7 1 8
REMARK H PARENT
REMARK Flexibility Score: inf
ROOT
ATOM      1  C   UNL     1      -1.679  20.032  28.466  1.00  0.00     0.006 C 
ENDROOT
BRANCH   1   2
ATOM      2  C   UNL     1      -1.057  20.143  27.072  1.00  0.00     0.053 C 
BRANCH   2   3
ATOM      3  C   UNL     1      -1.792  21.151  26.247  1.00  0.00     0.041 C 
ATOM      4  O   UNL     1      -1.172  21.860  25.412  1.00  0.00    -0.550 OA
ATOM      5  O   UNL     1      -3.155  21.344  26.436  1.00  0.00    -0.550 OA
ENDBRANCH   2   3
ENDBRANCH   1   2
BRANCH   1   6
ATOM      6  C   UNL     1      -2.015  18.572  28.804  1.00  0.00     0.000 C 
BRANCH   6   7
ATOM      7  C   UNL     1      -2.895  17.905  27.736  1.00  0.00    -0.003 C 
ATOM      8  C   UNL     1      -2.869  16.379  27.819  1.00  0.00     0.004 C 
ENDBRANCH   6   7
ENDBRANCH   1   6
TORSDOF 4
ENDMDL
MODEL 3
REMARK VINA RESULT:    -3.578      7.027      7.592
REMARK INTER + INTRA:          -4.482
REMARK INTER:                  -4.373
REMARK INTRA:                  -0.109
REMARK UNBOUND:                -0.067
REMARK SMILES CCCCCC(=O)[O-]
REMARK SMILES IDX 4 1 5 2 6 3 7 4 8 5 3 6 2 7 1 8
REMARK H PARENT
REMARK Flexibility Score: inf
ROOT
ATOM      1  C   UNL     1      -0.063  21.096  32.727  1.00  0.00     0.006 C 
ENDROOT
BRANCH   1   2
ATOM      2  C   UNL     1       1.265  21.047  33.487  1.00  0.00     0.053 C 
BRANCH   2   3
ATOM      3  C   UNL     1       2.237  20.150  32.788  1.00  0.00     0.041 C 
ATOM      4  O   UNL     1       1.872  19.475  31.790  1.00  0.00    -0.550 OA
ATOM      5  O   UNL     1       3.534  20.021  33.268  1.00  0.00    -0.550 OA
ENDBRANCH   2   3
ENDBRANCH   1   2
BRANCH   1   6
ATOM      6  C   UNL     1      -0.654  22.514  32.743  1.00  0.00     0.000 C 
BRANCH   6   7
ATOM      7  C   UNL     1      -0.300  23.287  34.023  1.00  0.00    -0.003 C 
ATOM      8  C   UNL     1      -1.476  24.097  34.568  1.00  0.00     0.004 C 
ENDBRANCH   6   7
ENDBRANCH   1   6
TORSDOF 4
ENDMDL
MODEL 4
REMARK VINA RESULT:    -3.539     13.698     14.377
REMARK INTER + INTRA:          -4.434
REMARK INTER:                  -4.324
REMARK INTRA:                  -0.110
REMARK UNBOUND:                -0.067
REMARK SMILES CCCCCC(=O)[O-]
REMARK SMILES IDX 4 1 5 2 6 3 7 4 8 5 3 6 2 7 1 8
REMARK H PARENT
REMARK Flexibility Score: inf
ROOT
ATOM      1  C   UNL     1      10.551  14.238  23.169  1.00  0.00     0.006 C 
ENDROOT
BRANCH   1   2
ATOM      2  C   UNL     1       9.475  15.268  23.524  1.00  0.00     0.053 C 
BRANCH   2   3
ATOM      3  C   UNL     1       8.470  14.675  24.460  1.00  0.00     0.041 C 
ATOM      4  O   UNL     1       8.831  14.241  25.585  1.00  0.00    -0.550 OA
ATOM      5  O   UNL     1       7.142  14.556  24.070  1.00  0.00    -0.550 OA
ENDBRANCH   2   3
ENDBRANCH   1   2
BRANCH   1   6
ATOM      6  C   UNL     1      11.904  14.622  23.787  1.00  0.00     0.000 C 
BRANCH   6   7
ATOM      7  C   UNL     1      12.186  13.879  25.103  1.00  0.00    -0.003 C 
ATOM      8  C   UNL     1      13.547  14.234  25.701  1.00  0.00     0.004 C 
ENDBRANCH   6   7
ENDBRANCH   1   6
TORSDOF 4
ENDMDL
MODEL 5
REMARK VINA RESULT:    -3.431     12.427     13.025
REMARK INTER + INTRA:          -4.301
REMARK INTER:                  -4.203
REMARK INTRA:                  -0.098
REMARK UNBOUND:                -0.067
REMARK SMILES CCCCCC(=O)[O-]
REMARK SMILES IDX 4 1 5 2 6 3 7 4 8 5 3 6 2 7 1 8
REMARK H PARENT
REMARK Flexibility Score: inf
ROOT
ATOM      1  C   UNL     1       9.003  14.754  23.422  1.00  0.00     0.006 C 
ENDROOT
BRANCH   1   2
ATOM      2  C   UNL     1       8.303  14.663  24.779  1.00  0.00     0.053 C 
BRANCH   2   3
ATOM      3  C   UNL     1       6.818  14.710  24.608  1.00  0.00     0.041 C 
ATOM      4  O   UNL     1       6.244  13.907  23.826  1.00  0.00    -0.550 OA
ATOM      5  O   UNL     1       6.070  15.673  25.274  1.00  0.00    -0.550 OA
ENDBRANCH   2   3
ENDBRANCH   1   2
BRANCH   1   6
ATOM      6  C   UNL     1      10.395  15.390  23.562  1.00  0.00     0.000 C 
BRANCH   6   7
ATOM      7  C   UNL     1      11.528  14.354  23.496  1.00  0.00    -0.003 C 
ATOM      8  C   UNL     1      12.245  14.178  24.834  1.00  0.00     0.004 C 
ENDBRANCH   6   7
ENDBRANCH   1   6
TORSDOF 4
ENDMDL
MODEL 6
REMARK VINA RESULT:    -3.387     14.158     14.895
REMARK INTER + INTRA:          -4.247
REMARK INTER:                  -4.112
REMARK INTRA:                  -0.135
REMARK UNBOUND:                -0.067
REMARK SMILES CCCCCC(=O)[O-]
REMARK SMILES IDX 4 1 5 2 6 3 7 4 8 5 3 6 2 7 1 8
REMARK H PARENT
REMARK Flexibility Score: inf
ROOT
ATOM      1  C   UNL     1      11.131  15.119  23.606  1.00  0.00     0.006 C 
ENDROOT
BRANCH   1   2
ATOM      2  C   UNL     1      12.030  13.959  24.040  1.00  0.00     0.053 C 
BRANCH   2   3
ATOM      3  C   UNL     1      12.527  14.173  25.435  1.00  0.00     0.041 C 
ATOM      4  O   UNL     1      13.662  14.683  25.631  1.00  0.00    -0.550 OA
ATOM      5  O   UNL     1      11.760  13.764  26.518  1.00  0.00    -0.550 OA
ENDBRANCH   2   3
ENDBRANCH   1   2
BRANCH   1   6
ATOM      6  C   UNL     1       9.697  14.636  23.344  1.00  0.00     0.000 C 
BRANCH   6   7
ATOM      7  C   UNL     1       8.856  14.556  24.628  1.00  0.00    -0.003 C 
ATOM      8  C   UNL     1       7.355  14.658  24.357  1.00  0.00     0.004 C 
ENDBRANCH   6   7
ENDBRANCH   1   6
TORSDOF 4
ENDMDL
MODEL 7
REMARK VINA RESULT:    -3.373      7.599      8.163
REMARK INTER + INTRA:          -4.230
REMARK INTER:                  -4.160
REMARK INTRA:                  -0.070
REMARK UNBOUND:                -0.067
REMARK SMILES CCCCCC(=O)[O-]
REMARK SMILES IDX 4 1 5 2 6 3 7 4 8 5 3 6 2 7 1 8
REMARK H PARENT
REMARK Flexibility Score: inf
ROOT
ATOM      1  C   UNL     1       2.110  19.640  32.647  1.00  0.00     0.006 C 
ENDROOT
BRANCH   1   2
ATOM      2  C   UNL     1       3.619  19.873  32.761  1.00  0.00     0.053 C 
BRANCH   2   3
ATOM      3  C   UNL     1       4.314  18.614  33.176  1.00  0.00     0.041 C 
ATOM      4  O   UNL     1       3.863  17.925  34.128  1.00  0.00    -0.550 OA
ATOM      5  O   UNL     1       5.489  18.227  32.543  1.00  0.00    -0.550 OA
ENDBRANCH   2   3
ENDBRANCH   1   2
BRANCH   1   6
ATOM      6  C   UNL     1       1.326  20.776  33.321  1.00  0.00     0.000 C 
BRANCH   6   7
ATOM      7  C   UNL     1       0.129  21.247  32.481  1.00  0.00    -0.003 C 
ATOM      8  C   UNL     1      -0.442  22.580  32.964  1.00  0.00     0.004 C 
ENDBRANCH   6   7
ENDBRANCH   1   6
TORSDOF 4
ENDMDL
MODEL 8
REMARK VINA RESULT:    -3.365      7.832      8.702
REMARK INTER + INTRA:          -4.219
REMARK INTER:                  -4.143
REMARK INTRA:                  -0.077
REMARK UNBOUND:                -0.067
REMARK SMILES CCCCCC(=O)[O-]
REMARK SMILES IDX 4 1 5 2 6 3 7 4 8 5 3 6 2 7 1 8
REMARK H PARENT
REMARK Flexibility Score: inf
ROOT
ATOM      1  C   UNL     1       3.431  19.852  32.826  1.00  0.00     0.006 C 
ENDROOT
BRANCH   1   2
ATOM      2  C   UNL     1       2.048  19.608  32.218  1.00  0.00     0.053 C 
BRANCH   2   3
ATOM      3  C   UNL     1       1.080  20.650  32.681  1.00  0.00     0.041 C 
ATOM      4  O   UNL     1       1.354  21.372  33.676  1.00  0.00    -0.550 OA
ATOM      5  O   UNL     1      -0.148  20.791  32.046  1.00  0.00    -0.550 OA
ENDBRANCH   2   3
ENDBRANCH   1   2
BRANCH   1   6
ATOM      6  C   UNL     1       4.004  18.559  33.426  1.00  0.00     0.000 C 
BRANCH   6   7
ATOM      7  C   UNL     1       5.356  18.169  32.809  1.00  0.00    -0.003 C 
ATOM      8  C   UNL     1       5.719  16.706  33.061  1.00  0.00     0.004 C 
ENDBRANCH   6   7
ENDBRANCH   1   6
TORSDOF 4
ENDMDL
MODEL 9
REMARK VINA RESULT:    -3.328     12.773     13.668
REMARK INTER + INTRA:          -4.173
REMARK INTER:                  -4.128
REMARK INTRA:                  -0.046
REMARK UNBOUND:                -0.067
REMARK SMILES CCCCCC(=O)[O-]
REMARK SMILES IDX 4 1 5 2 6 3 7 4 8 5 3 6 2 7 1 8
REMARK H PARENT
REMARK Flexibility Score: inf
ROOT
ATOM      1  C   UNL     1      -1.043   9.362  17.902  1.00  0.00     0.006 C 
ENDROOT
BRANCH   1   2
ATOM      2  C   UNL     1      -1.177  10.656  18.709  1.00  0.00     0.053 C 
BRANCH   2   3
ATOM      3  C   UNL     1      -1.868  10.395  20.010  1.00  0.00     0.041 C 
ATOM      4  O   UNL     1      -3.075  10.718  20.162  1.00  0.00    -0.550 OA
ATOM      5  O   UNL     1      -1.165   9.840  21.072  1.00  0.00    -0.550 OA
ENDBRANCH   2   3
ENDBRANCH   1   2
BRANCH   1   6
ATOM      6  C   UNL     1       0.261   9.352  17.091  1.00  0.00     0.000 C 
BRANCH   6   7
ATOM      7  C   UNL     1       0.324   8.190  16.087  1.00  0.00    -0.003 C 
ATOM      8  C   UNL     1       1.623   8.177  15.282  1.00  0.00     0.004 C 
ENDBRANCH   6   7
ENDBRANCH   1   6
TORSDOF 4
ENDMDL
