MODEL 1
REMARK VINA RESULT:    -4.659      0.000      0.000
REMARK INTER + INTRA:          -6.764
REMARK INTER:                  -6.293
REMARK INTRA:                  -0.472
REMARK UNBOUND:                -0.472
REMARK SMILES CCCCCCCC(=O)[O-]
REMARK SMILES IDX 5 1 6 2 7 3 8 4 9 5 10 6 4 7 3 8 2 9 1 10
REMARK H PARENT
REMARK Flexibility Score: inf
ROOT
ATOM      1  C   UNL     1       9.005 -11.621  25.753  1.00  0.00     0.000 C 
ENDROOT
BRANCH   1   2
ATOM      2  C   UNL     1      10.205 -11.618  24.791  1.00  0.00     0.006 C 
BRANCH   2   3
ATOM      3  C   UNL     1      11.413 -12.384  25.345  1.00  0.00     0.053 C 
BRANCH   3   4
ATOM      4  C   UNL     1      11.950 -13.328  24.316  1.00  0.00     0.041 C 
ATOM      5  O   UNL     1      11.415 -13.394  23.177  1.00  0.00    -0.550 OA
ATOM      6  O   UNL     1      13.072 -14.097  24.595  1.00  0.00    -0.550 OA
ENDBRANCH   3   4
ENDBRANCH   2   3
ENDBRANCH   1   2
BRANCH   1   7
ATOM      7  C   UNL     1       8.388 -13.009  26.020  1.00  0.00     0.000 C 
BRANCH   7   8
ATOM      8  C   UNL     1       8.170 -13.355  27.506  1.00  0.00    -0.000 C 
BRANCH   8   9
ATOM      9  C   UNL     1       8.880 -12.419  28.499  1.00  0.00    -0.003 C 
ATOM     10  C   UNL     1      10.165 -13.020  29.069  1.00  0.00     0.004 C 
ENDBRANCH   8   9
ENDBRANCH   7   8
ENDBRANCH   1   7
TORSDOF 6
ENDMDL
MODEL 2
REMARK VINA RESULT:    -4.597      1.125      2.303
REMARK INTER + INTRA:          -6.682
REMARK INTER:                  -6.310
REMARK INTRA:                  -0.371
REMARK UNBOUND:                -0.472
REMARK SMILES CCCCCCCC(=O)[O-]
REMARK SMILES IDX 5 1 6 2 7 3 8 4 9 5 10 6 4 7 3 8 2 9 1 10
REMARK H PARENT
REMARK Flexibility Score: inf
ROOT
ATOM      1  C   UNL     1       8.248 -13.321  27.247  1.00  0.00     0.000 C 
ENDROOT
BRANCH   1   2
ATOM      2  C   UNL     1       8.588 -12.995  25.783  1.00  0.00     0.006 C 
BRANCH   2   3
ATOM      3  C   UNL     1       9.687 -11.932  25.651  1.00  0.00     0.053 C 
BRANCH   3   4
ATOM      4  C   UNL     1      10.907 -12.520  25.015  1.00  0.00     0.041 C 
ATOM      5  O   UNL     1      11.969 -12.649  25.680  1.00  0.00    -0.550 OA
ATOM      6  O   UNL     1      10.859 -12.971  23.702  1.00  0.00    -0.550 OA
ENDBRANCH   3   4
ENDBRANCH   2   3
ENDBRANCH   1   2
BRANCH   1   7
ATOM      7  C   UNL     1       8.773 -12.303  28.280  1.00  0.00     0.000 C 
BRANCH   7   8
ATOM      8  C   UNL     1       9.542 -12.912  29.469  1.00  0.00    -0.000 C 
BRANCH   8   9
ATOM      9  C   UNL     1      10.964 -13.398  29.140  1.00  0.00    -0.003 C 
ATOM     10  C   UNL     1      11.771 -13.765  30.384  1.00  0.00     0.004 C 
ENDBRANCH   8   9
ENDBRANCH   7   8
ENDBRANCH   1   7
TORSDOF 6
ENDMDL
MODEL 3
REMARK VINA RESULT:    -4.559      1.419      2.121
REMARK INTER + INTRA:          -6.629
REMARK INTER:                  -6.401
REMARK INTRA:                  -0.228
REMARK UNBOUND:                -0.472
REMARK SMILES CCCCCCCC(=O)[O-]
REMARK SMILES IDX 5 1 6 2 7 3 8 4 9 5 10 6 4 7 3 8 2 9 1 10
REMARK H PARENT
REMARK Flexibility Score: inf
ROOT
ATOM      1  C   UNL     1       8.250 -12.981  26.262  1.00  0.00     0.000 C 
ENDROOT
BRANCH   1   2
ATOM      2  C   UNL     1       9.487 -12.124  25.939  1.00  0.00     0.006 C 
BRANCH   2   3
ATOM      3  C   UNL     1       9.366 -11.388  24.598  1.00  0.00     0.053 C 
BRANCH   3   4
ATOM      4  C   UNL     1       9.926 -12.224  23.491  1.00  0.00     0.041 C 
ATOM      5  O   UNL     1       9.408 -12.185  22.343  1.00  0.00    -0.550 OA
ATOM      6  O   UNL     1      11.050 -13.009  23.712  1.00  0.00    -0.550 OA
ENDBRANCH   3   4
ENDBRANCH   2   3
ENDBRANCH   1   2
BRANCH   1   7
ATOM      7  C   UNL     1       8.115 -13.396  27.740  1.00  0.00     0.000 C 
BRANCH   7   8
ATOM      8  C   UNL     1       9.006 -12.615  28.726  1.00  0.00    -0.000 C 
BRANCH   8   9
ATOM      9  C   UNL     1       8.247 -11.673  29.676  1.00  0.00    -0.003 C 
ATOM     10  C   UNL     1       8.623 -11.876  31.143  1.00  0.00     0.004 C 
ENDBRANCH   8   9
ENDBRANCH   7   8
ENDBRANCH   1   7
TORSDOF 6
ENDMDL
MODEL 4
REMARK VINA RESULT:    -4.497      4.574      6.194
REMARK INTER + INTRA:          -6.546
REMARK INTER:                  -6.286
REMARK INTRA:                  -0.261
REMARK UNBOUND:                -0.472
REMARK SMILES CCCCCCCC(=O)[O-]
REMARK SMILES IDX 5 1 6 2 7 3 8 4 9 5 10 6 4 7 3 8 2 9 1 10
REMARK H PARENT
REMARK Flexibility Score: inf
ROOT
ATOM      1  C   UNL     1       8.900 -12.229  28.908  1.00  0.00     0.000 C 
ENDROOT
BRANCH   1   2
ATOM      2  C   UNL     1       7.929 -11.524  29.871  1.00  0.00     0.006 C 
BRANCH   2   3
ATOM      3  C   UNL     1       7.875 -12.188  31.253  1.00  0.00     0.053 C 
BRANCH   3   4
ATOM      4  C   UNL     1       8.770 -11.469  32.213  1.00  0.00     0.041 C 
ATOM      5  O   UNL     1       9.950 -11.868  32.400  1.00  0.00    -0.550 OA
ATOM      6  O   UNL     1       8.318 -10.328  32.864  1.00  0.00    -0.550 OA
ENDBRANCH   3   4
ENDBRANCH   2   3
ENDBRANCH   1   2
BRANCH   1   7
ATOM      7  C   UNL     1       8.280 -13.372  28.080  1.00  0.00     0.000 C 
BRANCH   7   8
ATOM      8  C   UNL     1       8.275 -13.149  26.554  1.00  0.00    -0.000 C 
BRANCH   8   9
ATOM      9  C   UNL     1       9.154 -11.983  26.069  1.00  0.00    -0.003 C 
ATOM     10  C   UNL     1      10.520 -12.440  25.561  1.00  0.00     0.004 C 
ENDBRANCH   8   9
ENDBRANCH   7   8
ENDBRANCH   1   7
TORSDOF 6
ENDMDL
MODEL 5
REMARK VINA RESULT:    -4.453      1.119      1.667
REMARK INTER + INTRA:          -6.487
REMARK INTER:                  -6.057
REMARK INTRA:                  -0.430
REMARK UNBOUND:                -0.472
REMARK SMILES CCCCCCCC(=O)[O-]
REMARK SMILES IDX 5 1 6 2 7 3 8 4 9 5 10 6 4 7 3 8 2 9 1 10
REMARK H PARENT
REMARK Flexibility Score: inf
ROOT
ATOM      1  C   UNL     1       9.168 -11.674  25.660  1.00  0.00     0.000 C 
ENDROOT
BRANCH   1   2
ATOM      2  C   UNL     1      10.612 -11.891  25.177  1.00  0.00     0.006 C 
BRANCH   2   3
ATOM      3  C   UNL     1      10.762 -13.136  24.294  1.00  0.00     0.053 C 
BRANCH   3   4
ATOM      4  C   UNL     1      10.878 -12.744  22.854  1.00  0.00     0.041 C 
ATOM      5  O   UNL     1      11.982 -12.848  22.255  1.00  0.00    -0.550 OA
ATOM      6  O   UNL     1       9.757 -12.310  22.159  1.00  0.00    -0.550 OA
ENDBRANCH   3   4
ENDBRANCH   2   3
ENDBRANCH   1   2
BRANCH   1   7
ATOM      7  C   UNL     1       8.369 -12.966  25.924  1.00  0.00     0.000 C 
BRANCH   7   8
ATOM      8  C   UNL     1       8.245 -13.369  27.407  1.00  0.00    -0.000 C 
BRANCH   8   9
ATOM      9  C   UNL     1       8.900 -12.393  28.399  1.00  0.00    -0.003 C 
ATOM     10  C   UNL     1      10.085 -13.006  29.144  1.00  0.00     0.004 C 
ENDBRANCH   8   9
ENDBRANCH   7   8
ENDBRANCH   1   7
TORSDOF 6
ENDMDL
MODEL 6
REMARK VINA RESULT:    -4.311      3.074      4.865
REMARK INTER + INTRA:          -6.295
REMARK INTER:                  -5.996
REMARK INTRA:                  -0.298
REMARK UNBOUND:                -0.472
REMARK SMILES CCCCCCCC(=O)[O-]
REMARK SMILES IDX 5 1 6 2 7 3 8 4 9 5 10 6 4 7 3 8 2 9 1 10
REMARK H PARENT
REMARK Flexibility Score: inf
ROOT
ATOM      1  C   UNL     1       8.291 -13.068  26.431  1.00  0.00     0.000 C 
ENDROOT
BRANCH   1   2
ATOM      2  C   UNL     1       8.182 -13.413  27.926  1.00  0.00     0.006 C 
BRANCH   2   3
ATOM      3  C   UNL     1       8.591 -12.247  28.836  1.00  0.00     0.053 C 
BRANCH   3   4
ATOM      4  C   UNL     1       9.594 -12.703  29.848  1.00  0.00     0.041 C 
ATOM      5  O   UNL     1      10.569 -13.420  29.497  1.00  0.00    -0.550 OA
ATOM      6  O   UNL     1       9.484 -12.294  31.171  1.00  0.00    -0.550 OA
ENDBRANCH   3   4
ENDBRANCH   2   3
ENDBRANCH   1   2
BRANCH   1   7
ATOM      7  C   UNL     1       9.134 -11.817  26.111  1.00  0.00     0.000 C 
BRANCH   7   8
ATOM      8  C   UNL     1       9.266 -11.479  24.613  1.00  0.00    -0.000 C 
BRANCH   8   9
ATOM      9  C   UNL     1      10.397 -12.221  23.880  1.00  0.00    -0.003 C 
ATOM     10  C   UNL     1      11.622 -12.459  24.762  1.00  0.00     0.004 C 
ENDBRANCH   8   9
ENDBRANCH   7   8
ENDBRANCH   1   7
TORSDOF 6
ENDMDL
MODEL 7
REMARK VINA RESULT:    -4.087      3.148      4.864
REMARK INTER + INTRA:          -5.993
REMARK INTER:                  -5.726
REMARK INTRA:                  -0.266
REMARK UNBOUND:                -0.472
REMARK SMILES CCCCCCCC(=O)[O-]
REMARK SMILES IDX 5 1 6 2 7 3 8 4 9 5 10 6 4 7 3 8 2 9 1 10
REMARK H PARENT
REMARK Flexibility Score: inf
ROOT
ATOM      1  C   UNL     1       8.973 -12.564  25.257  1.00  0.00     0.000 C 
ENDROOT
BRANCH   1   2
ATOM      2  C   UNL     1       9.033 -12.053  26.706  1.00  0.00     0.006 C 
BRANCH   2   3
ATOM      3  C   UNL     1       8.648 -13.127  27.732  1.00  0.00     0.053 C 
BRANCH   3   4
ATOM      4  C   UNL     1       9.009 -12.681  29.114  1.00  0.00     0.041 C 
ATOM      5  O   UNL     1      10.111 -13.020  29.622  1.00  0.00    -0.550 OA
ATOM      6  O   UNL     1       8.151 -11.851  29.824  1.00  0.00    -0.550 OA
ENDBRANCH   3   4
ENDBRANCH   2   3
ENDBRANCH   1   2
BRANCH   1   7
ATOM      7  C   UNL     1      10.182 -12.179  24.380  1.00  0.00     0.000 C 
BRANCH   7   8
ATOM      8  C   UNL     1      11.084 -13.355  23.953  1.00  0.00    -0.000 C 
BRANCH   8   9
ATOM      9  C   UNL     1      12.566 -13.206  24.341  1.00  0.00    -0.003 C 
ATOM     10  C   UNL     1      12.872 -11.872  25.021  1.00  0.00     0.004 C 
ENDBRANCH   8   9
ENDBRANCH   7   8
ENDBRANCH   1   7
TORSDOF 6
ENDMDL
MODEL 8
REMARK VINA RESULT:    -4.036      3.371      4.164
REMARK INTER + INTRA:          -5.923
REMARK INTER:                  -5.770
REMARK INTRA:                  -0.153
REMARK UNBOUND:                -0.472
REMARK SMILES CCCCCCCC(=O)[O-]
REMARK SMILES IDX 5 1 6 2 7 3 8 4 9 5 10 6 4 7 3 8 2 9 1 10
REMARK H PARENT
REMARK Flexibility Score: inf
ROOT
ATOM      1  C   UNL     1      12.489 -13.514  29.776  1.00  0.00     0.000 C 
ENDROOT
BRANCH   1   2
ATOM      2  C   UNL     1      13.099 -13.693  28.375  1.00  0.00     0.006 C 
BRANCH   2   3
ATOM      3  C   UNL     1      14.604 -13.395  28.340  1.00  0.00     0.053 C 
BRANCH   3   4
ATOM      4  C   UNL     1      15.231 -14.020  27.134  1.00  0.00     0.041 C 
ATOM      5  O   UNL     1      15.003 -15.227  26.854  1.00  0.00    -0.550 OA
ATOM      6  O   UNL     1      16.029 -13.258  26.290  1.00  0.00    -0.550 OA
ENDBRANCH   3   4
ENDBRANCH   2   3
ENDBRANCH   1   2
BRANCH   1   7
ATOM      7  C   UNL     1      10.961 -13.708  29.850  1.00  0.00     0.000 C 
BRANCH   7   8
ATOM      8  C   UNL     1      10.148 -12.911  28.810  1.00  0.00    -0.000 C 
BRANCH   8   9
ATOM      9  C   UNL     1       8.621 -13.004  28.975  1.00  0.00    -0.003 C 
ATOM     10  C   UNL     1       8.055 -11.926  29.899  1.00  0.00     0.004 C 
ENDBRANCH   8   9
ENDBRANCH   7   8
ENDBRANCH   1   7
TORSDOF 6
ENDMDL
MODEL 9
REMARK VINA RESULT:    -3.991      1.504      2.063
REMARK INTER + INTRA:          -5.863
REMARK INTER:                  -5.632
REMARK INTRA:                  -0.231
REMARK UNBOUND:                -0.472
REMARK SMILES CCCCCCCC(=O)[O-]
REMARK SMILES IDX 5 1 6 2 7 3 8 4 9 5 10 6 4 7 3 8 2 9 1 10
REMARK H PARENT
REMARK Flexibility Score: inf
ROOT
ATOM      1  C   UNL     1      10.063 -11.731  25.290  1.00  0.00     0.000 C 
ENDROOT
BRANCH   1   2
ATOM      2  C   UNL     1      11.340 -12.564  25.496  1.00  0.00     0.006 C 
BRANCH   2   3
ATOM      3  C   UNL     1      12.598 -11.865  24.964  1.00  0.00     0.053 C 
BRANCH   3   4
ATOM      4  C   UNL     1      13.828 -12.546  25.474  1.00  0.00     0.041 C 
ATOM      5  O   UNL     1      14.743 -11.876  26.022  1.00  0.00    -0.550 OA
ATOM      6  O   UNL     1      13.945 -13.928  25.389  1.00  0.00    -0.550 OA
ENDBRANCH   3   4
ENDBRANCH   2   3
ENDBRANCH   1   2
BRANCH   1   7
ATOM      7  C   UNL     1       9.000 -11.883  26.397  1.00  0.00     0.000 C 
BRANCH   7   8
ATOM      8  C   UNL     1       9.232 -13.055  27.371  1.00  0.00    -0.000 C 
BRANCH   8   9
ATOM      9  C   UNL     1       9.496 -12.640  28.829  1.00  0.00    -0.003 C 
ATOM     10  C   UNL     1       8.281 -11.994  29.494  1.00  0.00     0.004 C 
ENDBRANCH   8   9
ENDBRANCH   7   8
ENDBRANCH   1   7
TORSDOF 6
ENDMDL
