MODEL 1
REMARK VINA RESULT:    -5.752      0.000      0.000
REMARK INTER + INTRA:         -10.193
REMARK INTER:                  -8.778
REMARK INTRA:                  -1.415
REMARK UNBOUND:                -1.415
REMARK SMILES CC(=O)CCC=C(C)CCC=C(C)CCC=C(C)C
REMARK SMILES IDX 10 1 11 2 12 3 13 4 14 5 15 6 16 7 18 8 17 9 19 10 9 11 7 12
REMARK SMILES IDX 6 13 8 14 5 15 4 16 2 17 3 18 1 19
REMARK H PARENT
REMARK Flexibility Score: inf
ROOT
ATOM      1  C   UNL     1      19.925   8.505 -24.385  1.00  0.00     0.032 C 
ENDROOT
BRANCH   1   2
ATOM      2  C   UNL     1      21.191   9.287 -24.636  1.00  0.00    -0.028 C 
ATOM      3  C   UNL     1      21.823   9.303 -25.830  1.00  0.00    -0.077 C 
ATOM      4  C   UNL     1      21.289   8.532 -27.014  1.00  0.00     0.039 C 
BRANCH   3   5
ATOM      5  C   UNL     1      23.096  10.108 -25.983  1.00  0.00     0.034 C 
BRANCH   5   6
ATOM      6  C   UNL     1      22.808  11.608 -25.861  1.00  0.00     0.032 C 
BRANCH   6   7
ATOM      7  C   UNL     1      21.892  12.070 -26.967  1.00  0.00    -0.028 C 
ATOM      8  C   UNL     1      19.880  13.062 -27.971  1.00  0.00     0.039 C 
ATOM      9  C   UNL     1      20.671  12.613 -26.769  1.00  0.00    -0.080 C 
ATOM     10  C   UNL     1      20.076  12.765 -25.388  1.00  0.00     0.039 C 
ENDBRANCH   6   7
ENDBRANCH   5   6
ENDBRANCH   3   5
ENDBRANCH   1   2
BRANCH   1  11
ATOM     11  C   UNL     1      18.696   9.254 -24.913  1.00  0.00     0.034 C 
BRANCH  11  12
ATOM     12  C   UNL     1      17.474   8.361 -24.895  1.00  0.00    -0.077 C 
ATOM     13  C   UNL     1      16.396   8.709 -25.636  1.00  0.00    -0.028 C 
ATOM     14  C   UNL     1      17.497   7.098 -24.067  1.00  0.00     0.039 C 
BRANCH  13  15
ATOM     15  C   UNL     1      15.100   7.940 -25.670  1.00  0.00     0.035 C 
BRANCH  15  16
ATOM     16  C   UNL     1      14.420   8.088 -27.035  1.00  0.00     0.079 C 
BRANCH  16  17
ATOM     17  C   UNL     1      14.049   9.522 -27.292  1.00  0.00     0.130 C 
ATOM     18  O   UNL     1      14.564  10.125 -28.221  1.00  0.00    -0.300 OA
ATOM     19  C   UNL     1      13.068  10.224 -26.401  1.00  0.00     0.087 C 
ENDBRANCH  16  17
ENDBRANCH  15  16
ENDBRANCH  13  15
ENDBRANCH  11  12
ENDBRANCH   1  11
TORSDOF 9
ENDMDL
MODEL 2
REMARK VINA RESULT:    -5.736     13.713     16.753
REMARK INTER + INTRA:         -10.168
REMARK INTER:                  -8.876
REMARK INTRA:                  -1.292
REMARK UNBOUND:                -1.415
REMARK SMILES CC(=O)CCC=C(C)CCC=C(C)CCC=C(C)C
REMARK SMILES IDX 10 1 11 2 12 3 13 4 14 5 15 6 16 7 18 8 17 9 19 10 9 11 7 12
REMARK SMILES IDX 6 13 8 14 5 15 4 16 2 17 3 18 1 19
REMARK H PARENT
REMARK Flexibility Score: inf
ROOT
ATOM      1  C   UNL     1       9.593  21.558 -22.287  1.00  0.00     0.032 C 
ENDROOT
BRANCH   1   2
ATOM      2  C   UNL     1      10.297  20.223 -22.288  1.00  0.00    -0.028 C 
ATOM      3  C   UNL     1      11.179  19.854 -21.333  1.00  0.00    -0.077 C 
ATOM      4  C   UNL     1      11.516  20.768 -20.178  1.00  0.00     0.039 C 
BRANCH   3   5
ATOM      5  C   UNL     1      11.846  18.499 -21.425  1.00  0.00     0.034 C 
BRANCH   5   6
ATOM      6  C   UNL     1      11.648  17.707 -20.128  1.00  0.00     0.032 C 
BRANCH   6   7
ATOM      7  C   UNL     1      10.208  17.288 -19.969  1.00  0.00    -0.028 C 
ATOM      8  C   UNL     1       7.995  17.155 -18.909  1.00  0.00     0.039 C 
ATOM      9  C   UNL     1       9.430  17.618 -18.915  1.00  0.00    -0.080 C 
ATOM     10  C   UNL     1       9.959  18.415 -17.747  1.00  0.00     0.039 C 
ENDBRANCH   6   7
ENDBRANCH   5   6
ENDBRANCH   3   5
ENDBRANCH   1   2
BRANCH   1  11
ATOM     11  C   UNL     1       9.356  22.062 -23.715  1.00  0.00     0.034 C 
BRANCH  11  12
ATOM     12  C   UNL     1       8.233  23.076 -23.747  1.00  0.00    -0.077 C 
ATOM     13  C   UNL     1       8.141  23.985 -22.750  1.00  0.00    -0.028 C 
ATOM     14  C   UNL     1       7.258  23.058 -24.900  1.00  0.00     0.039 C 
BRANCH  13  15
ATOM     15  C   UNL     1       7.047  25.017 -22.632  1.00  0.00     0.035 C 
BRANCH  15  16
ATOM     16  C   UNL     1       6.451  25.012 -21.221  1.00  0.00     0.079 C 
BRANCH  16  17
ATOM     17  C   UNL     1       4.973  24.743 -21.269  1.00  0.00     0.130 C 
ATOM     18  O   UNL     1       4.243  25.212 -20.409  1.00  0.00    -0.300 OA
ATOM     19  C   UNL     1       4.392  23.885 -22.353  1.00  0.00     0.087 C 
ENDBRANCH  16  17
ENDBRANCH  15  16
ENDBRANCH  13  15
ENDBRANCH  11  12
ENDBRANCH   1  11
TORSDOF 9
ENDMDL
MODEL 3
REMARK VINA RESULT:    -5.695     13.661     16.866
REMARK INTER + INTRA:         -10.106
REMARK INTER:                  -8.535
REMARK INTRA:                  -1.572
REMARK UNBOUND:                -1.415
REMARK SMILES CC(=O)CCC=C(C)CCC=C(C)CCC=C(C)C
REMARK SMILES IDX 10 1 11 2 12 3 13 4 14 5 15 6 16 7 18 8 17 9 19 10 9 11 7 12
REMARK SMILES IDX 6 13 8 14 5 15 4 16 2 17 3 18 1 19
REMARK H PARENT
REMARK Flexibility Score: inf
ROOT
ATOM      1  C   UNL     1      10.319  21.288 -21.171  1.00  0.00     0.032 C 
ENDROOT
BRANCH   1   2
ATOM      2  C   UNL     1      10.062  20.482 -19.922  1.00  0.00    -0.028 C 
ATOM      3  C   UNL     1      10.798  19.401 -19.578  1.00  0.00    -0.077 C 
ATOM      4  C   UNL     1      11.950  18.929 -20.433  1.00  0.00     0.039 C 
BRANCH   3   5
ATOM      5  C   UNL     1      10.458  18.647 -18.311  1.00  0.00     0.034 C 
BRANCH   5   6
ATOM      6  C   UNL     1       9.652  17.383 -18.631  1.00  0.00     0.032 C 
BRANCH   6   7
ATOM      7  C   UNL     1       8.212  17.724 -18.923  1.00  0.00    -0.028 C 
ATOM      8  C   UNL     1       6.180  17.985 -20.280  1.00  0.00     0.039 C 
ATOM      9  C   UNL     1       7.643  17.645 -20.145  1.00  0.00    -0.080 C 
ATOM     10  C   UNL     1       8.429  17.246 -21.371  1.00  0.00     0.039 C 
ENDBRANCH   6   7
ENDBRANCH   5   6
ENDBRANCH   3   5
ENDBRANCH   1   2
BRANCH   1  11
ATOM     11  C   UNL     1       9.254  21.013 -22.238  1.00  0.00     0.034 C 
BRANCH  11  12
ATOM     12  C   UNL     1       8.637  22.305 -22.727  1.00  0.00    -0.077 C 
ATOM     13  C   UNL     1       8.538  23.350 -21.872  1.00  0.00    -0.028 C 
ATOM     14  C   UNL     1       8.168  22.402 -24.159  1.00  0.00     0.039 C 
BRANCH  13  15
ATOM     15  C   UNL     1       7.901  24.674 -22.211  1.00  0.00     0.035 C 
BRANCH  15  16
ATOM     16  C   UNL     1       6.516  24.788 -21.567  1.00  0.00     0.079 C 
BRANCH  16  17
ATOM     17  C   UNL     1       5.509  25.299 -22.559  1.00  0.00     0.130 C 
ATOM     18  O   UNL     1       4.423  25.701 -22.169  1.00  0.00    -0.300 OA
ATOM     19  C   UNL     1       5.819  25.297 -24.026  1.00  0.00     0.087 C 
ENDBRANCH  16  17
ENDBRANCH  15  16
ENDBRANCH  13  15
ENDBRANCH  11  12
ENDBRANCH   1  11
TORSDOF 9
ENDMDL
MODEL 4
REMARK VINA RESULT:    -5.687     13.394     16.567
REMARK INTER + INTRA:         -10.095
REMARK INTER:                  -9.259
REMARK INTRA:                  -0.836
REMARK UNBOUND:                -1.415
REMARK SMILES CC(=O)CCC=C(C)CCC=C(C)CCC=C(C)C
REMARK SMILES IDX 10 1 11 2 12 3 13 4 14 5 15 6 16 7 18 8 17 9 19 10 9 11 7 12
REMARK SMILES IDX 6 13 8 14 5 15 4 16 2 17 3 18 1 19
REMARK H PARENT
REMARK Flexibility Score: inf
ROOT
ATOM      1  C   UNL     1      10.263  21.048 -21.217  1.00  0.00     0.032 C 
ENDROOT
BRANCH   1   2
ATOM      2  C   UNL     1       8.946  21.724 -21.509  1.00  0.00    -0.028 C 
ATOM      3  C   UNL     1       8.686  22.361 -22.672  1.00  0.00    -0.077 C 
ATOM      4  C   UNL     1       9.713  22.432 -23.777  1.00  0.00     0.039 C 
BRANCH   3   5
ATOM      5  C   UNL     1       7.339  23.021 -22.869  1.00  0.00     0.034 C 
BRANCH   5   6
ATOM      6  C   UNL     1       7.449  24.541 -22.701  1.00  0.00     0.032 C 
BRANCH   6   7
ATOM      7  C   UNL     1       6.628  25.011 -21.526  1.00  0.00    -0.028 C 
ATOM      8  C   UNL     1       4.655  25.885 -20.351  1.00  0.00     0.039 C 
ATOM      9  C   UNL     1       5.365  25.483 -21.618  1.00  0.00    -0.080 C 
ATOM     10  C   UNL     1       4.660  25.632 -22.946  1.00  0.00     0.039 C 
ENDBRANCH   6   7
ENDBRANCH   5   6
ENDBRANCH   3   5
ENDBRANCH   1   2
BRANCH   1  11
ATOM     11  C   UNL     1      10.368  20.649 -19.741  1.00  0.00     0.034 C 
BRANCH  11  12
ATOM     12  C   UNL     1      10.981  19.273 -19.599  1.00  0.00    -0.077 C 
ATOM     13  C   UNL     1      12.035  18.940 -20.379  1.00  0.00    -0.028 C 
ATOM     14  C   UNL     1      10.414  18.316 -18.577  1.00  0.00     0.039 C 
BRANCH  13  15
ATOM     15  C   UNL     1      12.708  17.591 -20.376  1.00  0.00     0.035 C 
BRANCH  15  16
ATOM     16  C   UNL     1      14.010  17.639 -19.571  1.00  0.00     0.079 C 
BRANCH  16  17
ATOM     17  C   UNL     1      15.163  18.047 -20.446  1.00  0.00     0.130 C 
ATOM     18  O   UNL     1      16.036  18.775 -20.000  1.00  0.00    -0.300 OA
ATOM     19  C   UNL     1      15.234  17.585 -21.871  1.00  0.00     0.087 C 
ENDBRANCH  16  17
ENDBRANCH  15  16
ENDBRANCH  13  15
ENDBRANCH  11  12
ENDBRANCH   1  11
TORSDOF 9
ENDMDL
MODEL 5
REMARK VINA RESULT:    -5.677      2.541      6.572
REMARK INTER + INTRA:         -10.079
REMARK INTER:                  -8.430
REMARK INTRA:                  -1.648
REMARK UNBOUND:                -1.415
REMARK SMILES CC(=O)CCC=C(C)CCC=C(C)CCC=C(C)C
REMARK SMILES IDX 10 1 11 2 12 3 13 4 14 5 15 6 16 7 18 8 17 9 19 10 9 11 7 12
REMARK SMILES IDX 6 13 8 14 5 15 4 16 2 17 3 18 1 19
REMARK H PARENT
REMARK Flexibility Score: inf
ROOT
ATOM      1  C   UNL     1      20.188  12.218 -25.618  1.00  0.00     0.032 C 
ENDROOT
BRANCH   1   2
ATOM      2  C   UNL     1      19.531  10.860 -25.661  1.00  0.00    -0.028 C 
ATOM      3  C   UNL     1      20.152   9.728 -25.264  1.00  0.00    -0.077 C 
ATOM      4  C   UNL     1      21.566   9.751 -24.733  1.00  0.00     0.039 C 
BRANCH   3   5
ATOM      5  C   UNL     1      19.417   8.409 -25.356  1.00  0.00     0.034 C 
BRANCH   5   6
ATOM      6  C   UNL     1      18.505   8.209 -24.141  1.00  0.00     0.032 C 
BRANCH   6   7
ATOM      7  C   UNL     1      17.569   7.047 -24.357  1.00  0.00    -0.028 C 
ATOM      8  C   UNL     1      15.568   5.875 -25.171  1.00  0.00     0.039 C 
ATOM      9  C   UNL     1      16.382   7.131 -24.998  1.00  0.00    -0.080 C 
ATOM     10  C   UNL     1      15.849   8.442 -25.526  1.00  0.00     0.039 C 
ENDBRANCH   6   7
ENDBRANCH   5   6
ENDBRANCH   3   5
ENDBRANCH   1   2
BRANCH   1  11
ATOM     11  C   UNL     1      20.382  12.787 -27.028  1.00  0.00     0.034 C 
BRANCH  11  12
ATOM     12  C   UNL     1      21.315  11.912 -27.836  1.00  0.00    -0.077 C 
ATOM     13  C   UNL     1      20.799  11.124 -28.808  1.00  0.00    -0.028 C 
ATOM     14  C   UNL     1      22.798  11.956 -27.551  1.00  0.00     0.039 C 
BRANCH  13  15
ATOM     15  C   UNL     1      21.606  10.169 -29.652  1.00  0.00     0.035 C 
BRANCH  15  16
ATOM     16  C   UNL     1      21.143   8.727 -29.429  1.00  0.00     0.079 C 
BRANCH  16  17
ATOM     17  C   UNL     1      22.251   7.897 -28.842  1.00  0.00     0.130 C 
ATOM     18  O   UNL     1      22.432   6.757 -29.242  1.00  0.00    -0.300 OA
ATOM     19  C   UNL     1      23.119   8.451 -27.752  1.00  0.00     0.087 C 
ENDBRANCH  16  17
ENDBRANCH  15  16
ENDBRANCH  13  15
ENDBRANCH  11  12
ENDBRANCH   1  11
TORSDOF 9
ENDMDL
MODEL 6
REMARK VINA RESULT:    -5.642     12.996     15.243
REMARK INTER + INTRA:         -10.026
REMARK INTER:                  -8.209
REMARK INTRA:                  -1.817
REMARK UNBOUND:                -1.415
REMARK SMILES CC(=O)CCC=C(C)CCC=C(C)CCC=C(C)C
REMARK SMILES IDX 10 1 11 2 12 3 13 4 14 5 15 6 16 7 18 8 17 9 19 10 9 11 7 12
REMARK SMILES IDX 6 13 8 14 5 15 4 16 2 17 3 18 1 19
REMARK H PARENT
REMARK Flexibility Score: inf
ROOT
ATOM      1  C   UNL     1      12.122  19.249 -20.362  1.00  0.00     0.032 C 
ENDROOT
BRANCH   1   2
ATOM      2  C   UNL     1      11.047  20.307 -20.367  1.00  0.00    -0.028 C 
ATOM      3  C   UNL     1      10.427  20.723 -21.493  1.00  0.00    -0.077 C 
ATOM      4  C   UNL     1      10.771  20.137 -22.843  1.00  0.00     0.039 C 
BRANCH   3   5
ATOM      5  C   UNL     1       9.368  21.800 -21.401  1.00  0.00     0.034 C 
BRANCH   5   6
ATOM      6  C   UNL     1       9.194  22.506 -22.750  1.00  0.00     0.032 C 
BRANCH   6   7
ATOM      7  C   UNL     1       8.317  23.725 -22.608  1.00  0.00    -0.028 C 
ATOM      8  C   UNL     1       6.492  25.275 -23.161  1.00  0.00     0.039 C 
ATOM      9  C   UNL     1       7.308  24.041 -23.450  1.00  0.00    -0.080 C 
ATOM     10  C   UNL     1       6.990  23.207 -24.668  1.00  0.00     0.039 C 
ENDBRANCH   6   7
ENDBRANCH   5   6
ENDBRANCH   3   5
ENDBRANCH   1   2
BRANCH   1  11
ATOM     11  C   UNL     1      11.746  18.079 -19.446  1.00  0.00     0.034 C 
BRANCH  11  12
ATOM     12  C   UNL     1      10.292  17.700 -19.629  1.00  0.00    -0.077 C 
ATOM     13  C   UNL     1       9.886  17.217 -20.826  1.00  0.00    -0.028 C 
ATOM     14  C   UNL     1       9.339  17.852 -18.467  1.00  0.00     0.039 C 
BRANCH  13  15
ATOM     15  C   UNL     1       8.462  16.849 -21.159  1.00  0.00     0.035 C 
BRANCH  15  16
ATOM     16  C   UNL     1       7.930  17.725 -22.297  1.00  0.00     0.079 C 
BRANCH  16  17
ATOM     17  C   UNL     1       6.988  18.772 -21.768  1.00  0.00     0.130 C 
ATOM     18  O   UNL     1       6.631  18.732 -20.601  1.00  0.00    -0.300 OA
ATOM     19  C   UNL     1       6.468  19.850 -22.670  1.00  0.00     0.087 C 
ENDBRANCH  16  17
ENDBRANCH  15  16
ENDBRANCH  13  15
ENDBRANCH  11  12
ENDBRANCH   1  11
TORSDOF 9
ENDMDL
MODEL 7
REMARK VINA RESULT:    -5.560     11.513     14.087
REMARK INTER + INTRA:          -9.900
REMARK INTER:                  -7.849
REMARK INTRA:                  -2.051
REMARK UNBOUND:                -1.415
REMARK SMILES CC(=O)CCC=C(C)CCC=C(C)CCC=C(C)C
REMARK SMILES IDX 10 1 11 2 12 3 13 4 14 5 15 6 16 7 18 8 17 9 19 10 9 11 7 12
REMARK SMILES IDX 6 13 8 14 5 15 4 16 2 17 3 18 1 19
REMARK H PARENT
REMARK Flexibility Score: inf
ROOT
ATOM      1  C   UNL     1       9.620  17.540 -18.533  1.00  0.00     0.032 C 
ENDROOT
BRANCH   1   2
ATOM      2  C   UNL     1       9.955  18.892 -19.114  1.00  0.00    -0.028 C 
ATOM      3  C   UNL     1      11.089  19.137 -19.806  1.00  0.00    -0.077 C 
ATOM      4  C   UNL     1      12.109  18.051 -20.054  1.00  0.00     0.039 C 
BRANCH   3   5
ATOM      5  C   UNL     1      11.345  20.530 -20.340  1.00  0.00     0.034 C 
BRANCH   5   6
ATOM      6  C   UNL     1      10.028  21.217 -20.718  1.00  0.00     0.032 C 
BRANCH   6   7
ATOM      7  C   UNL     1       9.918  21.382 -22.213  1.00  0.00    -0.028 C 
ATOM      8  C   UNL     1       9.231  22.426 -24.328  1.00  0.00     0.039 C 
ATOM      9  C   UNL     1       9.222  22.367 -22.822  1.00  0.00    -0.080 C 
ATOM     10  C   UNL     1       8.431  23.389 -22.042  1.00  0.00     0.039 C 
ENDBRANCH   6   7
ENDBRANCH   5   6
ENDBRANCH   3   5
ENDBRANCH   1   2
BRANCH   1  11
ATOM     11  C   UNL     1       8.190  17.120 -18.891  1.00  0.00     0.034 C 
BRANCH  11  12
ATOM     12  C   UNL     1       7.913  17.359 -20.360  1.00  0.00    -0.077 C 
ATOM     13  C   UNL     1       8.697  16.754 -21.282  1.00  0.00    -0.028 C 
ATOM     14  C   UNL     1       6.758  18.247 -20.756  1.00  0.00     0.039 C 
BRANCH  13  15
ATOM     15  C   UNL     1       8.563  16.944 -22.773  1.00  0.00     0.035 C 
BRANCH  15  16
ATOM     16  C   UNL     1       9.495  18.056 -23.261  1.00  0.00     0.079 C 
BRANCH  16  17
ATOM     17  C   UNL     1      10.852  17.504 -23.599  1.00  0.00     0.130 C 
ATOM     18  O   UNL     1      10.999  16.300 -23.742  1.00  0.00    -0.300 OA
ATOM     19  C   UNL     1      12.031  18.419 -23.739  1.00  0.00     0.087 C 
ENDBRANCH  16  17
ENDBRANCH  15  16
ENDBRANCH  13  15
ENDBRANCH  11  12
ENDBRANCH   1  11
TORSDOF 9
ENDMDL
MODEL 8
REMARK VINA RESULT:    -5.558     13.759     16.621
REMARK INTER + INTRA:          -9.897
REMARK INTER:                  -7.954
REMARK INTRA:                  -1.944
REMARK UNBOUND:                -1.415
REMARK SMILES CC(=O)CCC=C(C)CCC=C(C)CCC=C(C)C
REMARK SMILES IDX 10 1 11 2 12 3 13 4 14 5 15 6 16 7 18 8 17 9 19 10 9 11 7 12
REMARK SMILES IDX 6 13 8 14 5 15 4 16 2 17 3 18 1 19
REMARK H PARENT
REMARK Flexibility Score: inf
ROOT
ATOM      1  C   UNL     1       6.703  19.491 -22.587  1.00  0.00     0.032 C 
ENDROOT
BRANCH   1   2
ATOM      2  C   UNL     1       7.236  20.801 -22.060  1.00  0.00    -0.028 C 
ATOM      3  C   UNL     1       8.418  21.327 -22.452  1.00  0.00    -0.077 C 
ATOM      4  C   UNL     1       9.292  20.629 -23.468  1.00  0.00     0.039 C 
BRANCH   3   5
ATOM      5  C   UNL     1       8.877  22.641 -21.858  1.00  0.00     0.034 C 
BRANCH   5   6
ATOM      6  C   UNL     1       8.291  23.823 -22.638  1.00  0.00     0.032 C 
BRANCH   6   7
ATOM      7  C   UNL     1       7.380  24.646 -21.761  1.00  0.00    -0.028 C 
ATOM      8  C   UNL     1       5.249  25.509 -20.894  1.00  0.00     0.039 C 
ATOM      9  C   UNL     1       6.033  24.663 -21.864  1.00  0.00    -0.080 C 
ATOM     10  C   UNL     1       5.301  23.877 -22.926  1.00  0.00     0.039 C 
ENDBRANCH   6   7
ENDBRANCH   5   6
ENDBRANCH   3   5
ENDBRANCH   1   2
BRANCH   1  11
ATOM     11  C   UNL     1       6.319  18.547 -21.442  1.00  0.00     0.034 C 
BRANCH  11  12
ATOM     12  C   UNL     1       7.543  17.851 -20.887  1.00  0.00    -0.077 C 
ATOM     13  C   UNL     1       7.683  17.740 -19.545  1.00  0.00    -0.028 C 
ATOM     14  C   UNL     1       8.565  17.283 -21.843  1.00  0.00     0.039 C 
BRANCH  13  15
ATOM     15  C   UNL     1       8.873  17.117 -18.859  1.00  0.00     0.035 C 
BRANCH  15  16
ATOM     16  C   UNL     1       9.678  18.179 -18.105  1.00  0.00     0.079 C 
BRANCH  16  17
ATOM     17  C   UNL     1      10.705  18.808 -19.005  1.00  0.00     0.130 C 
ATOM     18  O   UNL     1      11.732  18.203 -19.270  1.00  0.00    -0.300 OA
ATOM     19  C   UNL     1      10.486  20.183 -19.562  1.00  0.00     0.087 C 
ENDBRANCH  16  17
ENDBRANCH  15  16
ENDBRANCH  13  15
ENDBRANCH  11  12
ENDBRANCH   1  11
TORSDOF 9
ENDMDL
