MODEL 1
REMARK VINA RESULT:    -2.686      0.000      0.000
REMARK INTER + INTRA:          -3.234
REMARK INTER:                  -3.001
REMARK INTRA:                  -0.233
REMARK UNBOUND:                -0.233
REMARK SMILES O=C([O-])c1ccccc1C(=O)[O-]
REMARK SMILES IDX 4 1 9 2 5 3 8 4 6 5 7 6 2 7 1 8 3 9 10 10 11 11 12 12
REMARK H PARENT
REMARK Flexibility Score: inf
ROOT
ATOM      1  C   UNL     1      21.333  93.879  -2.434  1.00  0.00     0.006 A 
ATOM      2  C   UNL     1      21.297  92.458  -2.475  1.00  0.00     0.006 A 
ATOM      3  C   UNL     1      21.763  94.586  -3.572  1.00  0.00     0.010 A 
ATOM      4  C   UNL     1      21.754  91.795  -3.629  1.00  0.00     0.010 A 
ATOM      5  C   UNL     1      22.190  93.907  -4.715  1.00  0.00     0.001 A 
ATOM      6  C   UNL     1      22.196  92.515  -4.739  1.00  0.00     0.001 A 
ENDROOT
BRANCH   1   7
ATOM      7  C   UNL     1      21.007  94.651  -1.213  1.00  0.00     0.072 C 
ATOM      8  O   UNL     1      21.901  94.898  -0.361  1.00  0.00    -0.545 OA
ATOM      9  O   UNL     1      19.702  95.058  -0.960  1.00  0.00    -0.545 OA
ENDBRANCH   1   7
BRANCH   2  10
ATOM     10  C   UNL     1      20.729  91.641  -1.377  1.00  0.00     0.072 C 
ATOM     11  O   UNL     1      19.504  91.346  -1.374  1.00  0.00    -0.545 OA
ATOM     12  O   UNL     1      21.521  91.246  -0.305  1.00  0.00    -0.545 OA
ENDBRANCH   2  10
TORSDOF 2
ENDMDL
MODEL 2
REMARK VINA RESULT:    -2.685      0.010      3.124
REMARK INTER + INTRA:          -3.233
REMARK INTER:                  -2.999
REMARK INTRA:                  -0.234
REMARK UNBOUND:                -0.233
REMARK SMILES O=C([O-])c1ccccc1C(=O)[O-]
REMARK SMILES IDX 4 1 9 2 5 3 8 4 6 5 7 6 2 7 1 8 3 9 10 10 11 11 12 12
REMARK H PARENT
REMARK Flexibility Score: inf
ROOT
ATOM      1  C   UNL     1      21.293  92.453  -2.474  1.00  0.00     0.006 A 
ATOM      2  C   UNL     1      21.327  93.874  -2.431  1.00  0.00     0.006 A 
ATOM      3  C   UNL     1      21.751  91.792  -3.629  1.00  0.00     0.010 A 
ATOM      4  C   UNL     1      21.757  94.583  -3.569  1.00  0.00     0.010 A 
ATOM      5  C   UNL     1      22.194  92.515  -4.737  1.00  0.00     0.001 A 
ATOM      6  C   UNL     1      22.186  93.908  -4.711  1.00  0.00     0.001 A 
ENDROOT
BRANCH   1   7
ATOM      7  C   UNL     1      20.725  91.635  -1.379  1.00  0.00     0.072 C 
ATOM      8  O   UNL     1      19.499  91.343  -1.376  1.00  0.00    -0.545 OA
ATOM      9  O   UNL     1      21.516  91.232  -0.310  1.00  0.00    -0.545 OA
ENDBRANCH   1   7
BRANCH   2  10
ATOM     10  C   UNL     1      20.998  94.645  -1.210  1.00  0.00     0.072 C 
ATOM     11  O   UNL     1      21.890  94.895  -0.357  1.00  0.00    -0.545 OA
ATOM     12  O   UNL     1      19.691  95.044  -0.955  1.00  0.00    -0.545 OA
ENDBRANCH   2  10
TORSDOF 2
ENDMDL
MODEL 3
REMARK VINA RESULT:    -2.654     15.533     17.810
REMARK INTER + INTRA:          -3.198
REMARK INTER:                  -2.987
REMARK INTRA:                  -0.210
REMARK UNBOUND:                -0.233
REMARK SMILES O=C([O-])c1ccccc1C(=O)[O-]
REMARK SMILES IDX 4 1 9 2 5 3 8 4 6 5 7 6 2 7 1 8 3 9 10 10 11 11 12 12
REMARK H PARENT
REMARK Flexibility Score: inf
ROOT
ATOM      1  C   UNL     1      20.989  76.293   4.021  1.00  0.00     0.006 A 
ATOM      2  C   UNL     1      20.803  77.697   4.142  1.00  0.00     0.006 A 
ATOM      3  C   UNL     1      21.338  75.548   5.163  1.00  0.00     0.010 A 
ATOM      4  C   UNL     1      21.038  78.315   5.385  1.00  0.00     0.010 A 
ATOM      5  C   UNL     1      21.543  76.178   6.391  1.00  0.00     0.001 A 
ATOM      6  C   UNL     1      21.404  77.560   6.499  1.00  0.00     0.001 A 
ENDROOT
BRANCH   1   7
ATOM      7  C   UNL     1      20.902  75.584   2.724  1.00  0.00     0.072 C 
ATOM      8  O   UNL     1      21.859  75.638   1.906  1.00  0.00    -0.545 OA
ATOM      9  O   UNL     1      19.744  74.905   2.362  1.00  0.00    -0.545 OA
ENDBRANCH   1   7
BRANCH   2  10
ATOM     10  C   UNL     1      20.301  78.535   3.028  1.00  0.00     0.072 C 
ATOM     11  O   UNL     1      21.098  79.247   2.360  1.00  0.00    -0.545 OA
ATOM     12  O   UNL     1      18.942  78.600   2.747  1.00  0.00    -0.545 OA
ENDBRANCH   2  10
TORSDOF 2
ENDMDL
MODEL 4
REMARK VINA RESULT:    -2.645     15.386     17.443
REMARK INTER + INTRA:          -3.188
REMARK INTER:                  -2.967
REMARK INTRA:                  -0.221
REMARK UNBOUND:                -0.233
REMARK SMILES O=C([O-])c1ccccc1C(=O)[O-]
REMARK SMILES IDX 4 1 9 2 5 3 8 4 6 5 7 6 2 7 1 8 3 9 10 10 11 11 12 12
REMARK H PARENT
REMARK Flexibility Score: inf
ROOT
ATOM      1  C   UNL     1      20.795  77.753   3.821  1.00  0.00     0.006 A 
ATOM      2  C   UNL     1      21.015  76.351   3.723  1.00  0.00     0.006 A 
ATOM      3  C   UNL     1      20.945  78.384   5.070  1.00  0.00     0.010 A 
ATOM      4  C   UNL     1      21.313  75.622   4.890  1.00  0.00     0.010 A 
ATOM      5  C   UNL     1      21.264  77.644   6.210  1.00  0.00     0.001 A 
ATOM      6  C   UNL     1      21.436  76.265   6.122  1.00  0.00     0.001 A 
ENDROOT
BRANCH   1   7
ATOM      7  C   UNL     1      20.340  78.572   2.674  1.00  0.00     0.072 C 
ATOM      8  O   UNL     1      19.111  78.678   2.419  1.00  0.00    -0.545 OA
ATOM      9  O   UNL     1      21.260  79.180   1.828  1.00  0.00    -0.545 OA
ENDBRANCH   1   7
BRANCH   2  10
ATOM     10  C   UNL     1      21.016  75.632   2.429  1.00  0.00     0.072 C 
ATOM     11  O   UNL     1      20.057  74.875   2.122  1.00  0.00    -0.545 OA
ATOM     12  O   UNL     1      22.102  75.728   1.566  1.00  0.00    -0.545 OA
ENDBRANCH   2  10
TORSDOF 2
ENDMDL
MODEL 5
REMARK VINA RESULT:    -2.602     19.700     20.948
REMARK INTER + INTRA:          -3.139
REMARK INTER:                  -2.912
REMARK INTRA:                  -0.227
REMARK UNBOUND:                -0.233
REMARK SMILES O=C([O-])c1ccccc1C(=O)[O-]
REMARK SMILES IDX 4 1 9 2 5 3 8 4 6 5 7 6 2 7 1 8 3 9 10 10 11 11 12 12
REMARK H PARENT
REMARK Flexibility Score: inf
ROOT
ATOM      1  C   UNL     1      34.025  76.685  -1.963  1.00  0.00     0.006 A 
ATOM      2  C   UNL     1      34.320  76.915  -0.591  1.00  0.00     0.006 A 
ATOM      3  C   UNL     1      35.077  76.385  -2.848  1.00  0.00     0.010 A 
ATOM      4  C   UNL     1      35.662  76.902  -0.168  1.00  0.00     0.010 A 
ATOM      5  C   UNL     1      36.399  76.355  -2.402  1.00  0.00     0.001 A 
ATOM      6  C   UNL     1      36.692  76.624  -1.067  1.00  0.00     0.001 A 
ENDROOT
BRANCH   1   7
ATOM      7  C   UNL     1      32.659  76.819  -2.520  1.00  0.00     0.072 C 
ATOM      8  O   UNL     1      32.242  77.941  -2.912  1.00  0.00    -0.545 OA
ATOM      9  O   UNL     1      31.799  75.728  -2.560  1.00  0.00    -0.545 OA
ENDBRANCH   1   7
BRANCH   2  10
ATOM     10  C   UNL     1      33.265  77.098   0.432  1.00  0.00     0.072 C 
ATOM     11  O   UNL     1      33.006  78.247   0.879  1.00  0.00    -0.545 OA
ATOM     12  O   UNL     1      32.594  76.002   0.962  1.00  0.00    -0.545 OA
ENDBRANCH   2  10
TORSDOF 2
ENDMDL
MODEL 6
REMARK VINA RESULT:    -2.598     19.720     20.917
REMARK INTER + INTRA:          -3.135
REMARK INTER:                  -2.908
REMARK INTRA:                  -0.227
REMARK UNBOUND:                -0.233
REMARK SMILES O=C([O-])c1ccccc1C(=O)[O-]
REMARK SMILES IDX 4 1 9 2 5 3 8 4 6 5 7 6 2 7 1 8 3 9 10 10 11 11 12 12
REMARK H PARENT
REMARK Flexibility Score: inf
ROOT
ATOM      1  C   UNL     1      34.348  76.938  -0.610  1.00  0.00     0.006 A 
ATOM      2  C   UNL     1      34.019  76.659  -1.965  1.00  0.00     0.006 A 
ATOM      3  C   UNL     1      35.699  76.930  -0.218  1.00  0.00     0.010 A 
ATOM      4  C   UNL     1      35.048  76.317  -2.863  1.00  0.00     0.010 A 
ATOM      5  C   UNL     1      36.706  76.610  -1.131  1.00  0.00     0.001 A 
ATOM      6  C   UNL     1      36.380  76.294  -2.447  1.00  0.00     0.001 A 
ENDROOT
BRANCH   1   7
ATOM      7  C   UNL     1      33.319  77.167   0.431  1.00  0.00     0.072 C 
ATOM      8  O   UNL     1      33.083  78.334   0.843  1.00  0.00    -0.545 OA
ATOM      9  O   UNL     1      32.648  76.098   1.011  1.00  0.00    -0.545 OA
ENDBRANCH   1   7
BRANCH   2  10
ATOM     10  C   UNL     1      32.641  76.782  -2.494  1.00  0.00     0.072 C 
ATOM     11  O   UNL     1      32.221  77.892  -2.919  1.00  0.00    -0.545 OA
ATOM     12  O   UNL     1      31.773  75.697  -2.469  1.00  0.00    -0.545 OA
ENDBRANCH   2  10
TORSDOF 2
ENDMDL
MODEL 7
REMARK VINA RESULT:    -2.586     15.397     17.145
REMARK INTER + INTRA:          -3.122
REMARK INTER:                  -2.896
REMARK INTRA:                  -0.225
REMARK UNBOUND:                -0.233
REMARK SMILES O=C([O-])c1ccccc1C(=O)[O-]
REMARK SMILES IDX 4 1 9 2 5 3 8 4 6 5 7 6 2 7 1 8 3 9 10 10 11 11 12 12
REMARK H PARENT
REMARK Flexibility Score: inf
ROOT
ATOM      1  C   UNL     1      21.105  76.339   2.633  1.00  0.00     0.006 A 
ATOM      2  C   UNL     1      20.802  77.720   2.477  1.00  0.00     0.006 A 
ATOM      3  C   UNL     1      21.844  75.683   1.630  1.00  0.00     0.010 A 
ATOM      4  C   UNL     1      21.192  78.377   1.294  1.00  0.00     0.010 A 
ATOM      5  C   UNL     1      22.239  76.360   0.476  1.00  0.00     0.001 A 
ATOM      6  C   UNL     1      21.904  77.701   0.304  1.00  0.00     0.001 A 
ENDROOT
BRANCH   1   7
ATOM      7  C   UNL     1      20.613  75.538   3.776  1.00  0.00     0.072 C 
ATOM      8  O   UNL     1      19.505  74.942   3.703  1.00  0.00    -0.545 OA
ATOM      9  O   UNL     1      21.330  75.483   4.965  1.00  0.00    -0.545 OA
ENDBRANCH   1   7
BRANCH   2  10
ATOM     10  C   UNL     1      20.154  78.520   3.541  1.00  0.00     0.072 C 
ATOM     11  O   UNL     1      18.930  78.807   3.464  1.00  0.00    -0.545 OA
ATOM     12  O   UNL     1      20.898  79.022   4.603  1.00  0.00    -0.545 OA
ENDBRANCH   2  10
TORSDOF 2
ENDMDL
MODEL 8
REMARK VINA RESULT:    -2.556     19.967     20.885
REMARK INTER + INTRA:          -3.088
REMARK INTER:                  -2.875
REMARK INTRA:                  -0.213
REMARK UNBOUND:                -0.233
REMARK SMILES O=C([O-])c1ccccc1C(=O)[O-]
REMARK SMILES IDX 4 1 9 2 5 3 8 4 6 5 7 6 2 7 1 8 3 9 10 10 11 11 12 12
REMARK H PARENT
REMARK Flexibility Score: inf
ROOT
ATOM      1  C   UNL     1      33.804  76.764  -0.379  1.00  0.00     0.006 A 
ATOM      2  C   UNL     1      33.094  76.685  -1.609  1.00  0.00     0.006 A 
ATOM      3  C   UNL     1      33.151  76.397   0.812  1.00  0.00     0.010 A 
ATOM      4  C   UNL     1      31.739  76.304  -1.594  1.00  0.00     0.010 A 
ATOM      5  C   UNL     1      31.813  76.000   0.800  1.00  0.00     0.001 A 
ATOM      6  C   UNL     1      31.106  75.964  -0.399  1.00  0.00     0.001 A 
ENDROOT
BRANCH   1   7
ATOM      7  C   UNL     1      35.185  77.290  -0.287  1.00  0.00     0.072 C 
ATOM      8  O   UNL     1      35.386  78.494   0.028  1.00  0.00    -0.545 OA
ATOM      9  O   UNL     1      36.273  76.486  -0.605  1.00  0.00    -0.545 OA
ENDBRANCH   1   7
BRANCH   2  10
ATOM     10  C   UNL     1      33.741  76.918  -2.921  1.00  0.00     0.072 C 
ATOM     11  O   UNL     1      34.286  75.964  -3.538  1.00  0.00    -0.545 OA
ATOM     12  O   UNL     1      33.815  78.198  -3.458  1.00  0.00    -0.545 OA
ENDBRANCH   2  10
TORSDOF 2
ENDMDL
MODEL 9
REMARK VINA RESULT:    -2.535     19.862     20.880
REMARK INTER + INTRA:          -3.064
REMARK INTER:                  -2.846
REMARK INTRA:                  -0.218
REMARK UNBOUND:                -0.233
REMARK SMILES O=C([O-])c1ccccc1C(=O)[O-]
REMARK SMILES IDX 4 1 9 2 5 3 8 4 6 5 7 6 2 7 1 8 3 9 10 10 11 11 12 12
REMARK H PARENT
REMARK Flexibility Score: inf
ROOT
ATOM      1  C   UNL     1      33.051  76.735  -1.538  1.00  0.00     0.006 A 
ATOM      2  C   UNL     1      33.803  76.750  -0.331  1.00  0.00     0.006 A 
ATOM      3  C   UNL     1      31.687  76.392  -1.491  1.00  0.00     0.010 A 
ATOM      4  C   UNL     1      33.179  76.358   0.869  1.00  0.00     0.010 A 
ATOM      5  C   UNL     1      31.084  76.028  -0.286  1.00  0.00     0.001 A 
ATOM      6  C   UNL     1      31.831  76.000   0.889  1.00  0.00     0.001 A 
ENDROOT
BRANCH   1   7
ATOM      7  C   UNL     1      33.662  76.995  -2.862  1.00  0.00     0.072 C 
ATOM      8  O   UNL     1      34.190  76.055  -3.513  1.00  0.00    -0.545 OA
ATOM      9  O   UNL     1      33.717  78.285  -3.376  1.00  0.00    -0.545 OA
ENDBRANCH   1   7
BRANCH   2  10
ATOM     10  C   UNL     1      35.202  77.232  -0.267  1.00  0.00     0.072 C 
ATOM     11  O   UNL     1      35.448  78.425   0.055  1.00  0.00    -0.545 OA
ATOM     12  O   UNL     1      36.256  76.399  -0.625  1.00  0.00    -0.545 OA
ENDBRANCH   2  10
TORSDOF 2
ENDMDL
