MODEL 1
REMARK VINA RESULT:    -4.927      0.000      0.000
REMARK INTER + INTRA:         -10.291
REMARK INTER:                  -8.960
REMARK INTRA:                  -1.332
REMARK UNBOUND:                -1.332
REMARK SMILES CCCCCCCCCCCCCCCC(=O)[O-]
REMARK SMILES IDX 9 1 10 2 11 3 12 4 13 5 14 6 15 7 16 8 17 9 18 10 8 11 7 12
REMARK SMILES IDX 6 13 5 14 4 15 3 16 2 17 1 18
REMARK H PARENT
REMARK Flexibility Score: inf
ROOT
ATOM      1  C   UNL     1      13.334 -21.384 -14.524  1.00  0.00     0.000 C 
ENDROOT
BRANCH   1   2
ATOM      2  C   UNL     1      12.959 -22.718 -13.861  1.00  0.00     0.000 C 
BRANCH   2   3
ATOM      3  C   UNL     1      11.511 -23.143 -14.156  1.00  0.00     0.000 C 
BRANCH   3   4
ATOM      4  C   UNL     1      11.345 -24.672 -14.215  1.00  0.00     0.000 C 
BRANCH   4   5
ATOM      5  C   UNL     1      12.673 -25.417 -14.003  1.00  0.00     0.000 C 
BRANCH   5   6
ATOM      6  C   UNL     1      12.636 -26.859 -14.538  1.00  0.00     0.006 C 
BRANCH   6   7
ATOM      7  C   UNL     1      13.993 -27.563 -14.400  1.00  0.00     0.053 C 
BRANCH   7   8
ATOM      8  C   UNL     1      14.851 -27.358 -15.610  1.00  0.00     0.041 C 
ATOM      9  O   UNL     1      14.716 -28.102 -16.617  1.00  0.00    -0.550 OA
ATOM     10  O   UNL     1      15.780 -26.326 -15.637  1.00  0.00    -0.550 OA
ENDBRANCH   7   8
ENDBRANCH   6   7
ENDBRANCH   5   6
ENDBRANCH   4   5
ENDBRANCH   3   4
ENDBRANCH   2   3
ENDBRANCH   1   2
BRANCH   1  11
ATOM     11  C   UNL     1      12.262 -20.953 -15.532  1.00  0.00     0.000 C 
BRANCH  11  12
ATOM     12  C   UNL     1      12.017 -19.437 -15.463  1.00  0.00    -0.000 C 
BRANCH  12  13
ATOM     13  C   UNL     1      11.043 -19.055 -14.328  1.00  0.00    -0.000 C 
BRANCH  13  14
ATOM     14  C   UNL     1      11.531 -17.877 -13.467  1.00  0.00    -0.000 C 
BRANCH  14  15
ATOM     15  C   UNL     1      12.814 -18.199 -12.688  1.00  0.00    -0.000 C 
BRANCH  15  16
ATOM     16  C   UNL     1      13.819 -17.045 -12.783  1.00  0.00    -0.000 C 
BRANCH  16  17
ATOM     17  C   UNL     1      14.889 -17.335 -13.843  1.00  0.00    -0.003 C 
ATOM     18  C   UNL     1      14.587 -16.600 -15.146  1.00  0.00     0.004 C 
ENDBRANCH  16  17
ENDBRANCH  15  16
ENDBRANCH  14  15
ENDBRANCH  13  14
ENDBRANCH  12  13
ENDBRANCH  11  12
ENDBRANCH   1  11
TORSDOF 14
ENDMDL
MODEL 2
REMARK VINA RESULT:    -4.866      3.351      8.134
REMARK INTER + INTRA:         -10.180
REMARK INTER:                  -9.088
REMARK INTRA:                  -1.092
REMARK UNBOUND:                -1.332
REMARK SMILES CCCCCCCCCCCCCCCC(=O)[O-]
REMARK SMILES IDX 9 1 10 2 11 3 12 4 13 5 14 6 15 7 16 8 17 9 18 10 8 11 7 12
REMARK SMILES IDX 6 13 5 14 4 15 3 16 2 17 1 18
REMARK H PARENT
REMARK Flexibility Score: inf
ROOT
ATOM      1  C   UNL     1      12.877 -22.793 -13.983  1.00  0.00     0.000 C 
ENDROOT
BRANCH   1   2
ATOM      2  C   UNL     1      12.981 -21.350 -14.501  1.00  0.00     0.000 C 
BRANCH   2   3
ATOM      3  C   UNL     1      11.752 -20.922 -15.320  1.00  0.00     0.000 C 
BRANCH   3   4
ATOM      4  C   UNL     1      11.453 -19.418 -15.194  1.00  0.00     0.000 C 
BRANCH   4   5
ATOM      5  C   UNL     1      11.235 -18.981 -13.736  1.00  0.00     0.000 C 
BRANCH   5   6
ATOM      6  C   UNL     1      12.121 -17.790 -13.334  1.00  0.00     0.006 C 
BRANCH   6   7
ATOM      7  C   UNL     1      13.218 -17.509 -14.370  1.00  0.00     0.053 C 
BRANCH   7   8
ATOM      8  C   UNL     1      14.582 -17.506 -13.749  1.00  0.00     0.041 C 
ATOM      9  O   UNL     1      14.779 -18.083 -12.648  1.00  0.00    -0.550 OA
ATOM     10  O   UNL     1      15.641 -16.891 -14.403  1.00  0.00    -0.550 OA
ENDBRANCH   7   8
ENDBRANCH   6   7
ENDBRANCH   5   6
ENDBRANCH   4   5
ENDBRANCH   3   4
ENDBRANCH   2   3
ENDBRANCH   1   2
BRANCH   1  11
ATOM     11  C   UNL     1      11.422 -23.276 -13.998  1.00  0.00     0.000 C 
BRANCH  11  12
ATOM     12  C   UNL     1      11.351 -24.807 -14.125  1.00  0.00    -0.000 C 
BRANCH  12  13
ATOM     13  C   UNL     1      12.748 -25.460 -14.093  1.00  0.00    -0.000 C 
BRANCH  13  14
ATOM     14  C   UNL     1      12.733 -26.964 -14.419  1.00  0.00    -0.000 C 
BRANCH  14  15
ATOM     15  C   UNL     1      14.137 -27.585 -14.435  1.00  0.00    -0.000 C 
BRANCH  15  16
ATOM     16  C   UNL     1      15.108 -26.727 -15.255  1.00  0.00    -0.000 C 
BRANCH  16  17
ATOM     17  C   UNL     1      15.891 -27.586 -16.255  1.00  0.00    -0.003 C 
ATOM     18  C   UNL     1      14.956 -28.236 -17.271  1.00  0.00     0.004 C 
ENDBRANCH  16  17
ENDBRANCH  15  16
ENDBRANCH  14  15
ENDBRANCH  13  14
ENDBRANCH  12  13
ENDBRANCH  11  12
ENDBRANCH   1  11
TORSDOF 14
ENDMDL
MODEL 3
REMARK VINA RESULT:    -4.859      1.104      2.220
REMARK INTER + INTRA:         -10.168
REMARK INTER:                  -8.772
REMARK INTRA:                  -1.396
REMARK UNBOUND:                -1.332
REMARK SMILES CCCCCCCCCCCCCCCC(=O)[O-]
REMARK SMILES IDX 9 1 10 2 11 3 12 4 13 5 14 6 15 7 16 8 17 9 18 10 8 11 7 12
REMARK SMILES IDX 6 13 5 14 4 15 3 16 2 17 1 18
REMARK H PARENT
REMARK Flexibility Score: inf
ROOT
ATOM      1  C   UNL     1      12.132 -21.025 -15.759  1.00  0.00     0.000 C 
ENDROOT
BRANCH   1   2
ATOM      2  C   UNL     1      12.537 -21.462 -14.343  1.00  0.00     0.000 C 
BRANCH   2   3
ATOM      3  C   UNL     1      11.676 -22.619 -13.809  1.00  0.00     0.000 C 
BRANCH   3   4
ATOM      4  C   UNL     1      12.424 -23.964 -13.816  1.00  0.00     0.000 C 
BRANCH   4   5
ATOM      5  C   UNL     1      11.519 -25.140 -14.219  1.00  0.00     0.000 C 
BRANCH   5   6
ATOM      6  C   UNL     1      12.300 -26.451 -14.413  1.00  0.00     0.006 C 
BRANCH   6   7
ATOM      7  C   UNL     1      13.787 -26.296 -14.063  1.00  0.00     0.053 C 
BRANCH   7   8
ATOM      8  C   UNL     1      14.629 -27.332 -14.741  1.00  0.00     0.041 C 
ATOM      9  O   UNL     1      15.693 -27.736 -14.204  1.00  0.00    -0.550 OA
ATOM     10  O   UNL     1      14.221 -27.873 -15.954  1.00  0.00    -0.550 OA
ENDBRANCH   7   8
ENDBRANCH   6   7
ENDBRANCH   5   6
ENDBRANCH   4   5
ENDBRANCH   3   4
ENDBRANCH   2   3
ENDBRANCH   1   2
BRANCH   1  11
ATOM     11  C   UNL     1      11.878 -19.514 -15.814  1.00  0.00     0.000 C 
BRANCH  11  12
ATOM     12  C   UNL     1      13.072 -18.775 -16.440  1.00  0.00    -0.000 C 
BRANCH  12  13
ATOM     13  C   UNL     1      14.094 -18.316 -15.379  1.00  0.00    -0.000 C 
BRANCH  13  14
ATOM     14  C   UNL     1      13.843 -16.890 -14.858  1.00  0.00    -0.000 C 
BRANCH  14  15
ATOM     15  C   UNL     1      13.138 -16.868 -13.494  1.00  0.00    -0.000 C 
BRANCH  15  16
ATOM     16  C   UNL     1      13.447 -18.141 -12.696  1.00  0.00    -0.000 C 
BRANCH  16  17
ATOM     17  C   UNL     1      12.338 -18.432 -11.678  1.00  0.00    -0.003 C 
ATOM     18  C   UNL     1      11.009 -18.710 -12.375  1.00  0.00     0.004 C 
ENDBRANCH  16  17
ENDBRANCH  15  16
ENDBRANCH  14  15
ENDBRANCH  13  14
ENDBRANCH  12  13
ENDBRANCH  11  12
ENDBRANCH   1  11
TORSDOF 14
ENDMDL
MODEL 4
REMARK VINA RESULT:    -4.854      1.797      3.586
REMARK INTER + INTRA:         -10.159
REMARK INTER:                  -8.584
REMARK INTRA:                  -1.575
REMARK UNBOUND:                -1.332
REMARK SMILES CCCCCCCCCCCCCCCC(=O)[O-]
REMARK SMILES IDX 9 1 10 2 11 3 12 4 13 5 14 6 15 7 16 8 17 9 18 10 8 11 7 12
REMARK SMILES IDX 6 13 5 14 4 15 3 16 2 17 1 18
REMARK H PARENT
REMARK Flexibility Score: inf
ROOT
ATOM      1  C   UNL     1      11.379 -19.266 -12.392  1.00  0.00     0.000 C 
ENDROOT
BRANCH   1   2
ATOM      2  C   UNL     1      11.191 -18.798 -13.843  1.00  0.00     0.000 C 
BRANCH   2   3
ATOM      3  C   UNL     1      11.456 -19.915 -14.867  1.00  0.00     0.000 C 
BRANCH   3   4
ATOM      4  C   UNL     1      11.913 -21.227 -14.204  1.00  0.00     0.000 C 
BRANCH   4   5
ATOM      5  C   UNL     1      11.323 -22.470 -14.890  1.00  0.00     0.000 C 
BRANCH   5   6
ATOM      6  C   UNL     1      11.663 -23.775 -14.148  1.00  0.00     0.006 C 
BRANCH   6   7
ATOM      7  C   UNL     1      13.163 -23.895 -13.846  1.00  0.00     0.053 C 
BRANCH   7   8
ATOM      8  C   UNL     1      13.579 -25.321 -13.654  1.00  0.00     0.041 C 
ATOM      9  O   UNL     1      14.618 -25.596 -12.999  1.00  0.00    -0.550 OA
ATOM     10  O   UNL     1      12.802 -26.347 -14.176  1.00  0.00    -0.550 OA
ENDBRANCH   7   8
ENDBRANCH   6   7
ENDBRANCH   5   6
ENDBRANCH   4   5
ENDBRANCH   3   4
ENDBRANCH   2   3
ENDBRANCH   1   2
BRANCH   1  11
ATOM     11  C   UNL     1      10.725 -18.285 -11.412  1.00  0.00     0.000 C 
BRANCH  11  12
ATOM     12  C   UNL     1      11.566 -18.139 -10.133  1.00  0.00    -0.000 C 
BRANCH  12  13
ATOM     13  C   UNL     1      13.080 -18.247 -10.416  1.00  0.00    -0.000 C 
BRANCH  13  14
ATOM     14  C   UNL     1      13.778 -16.884 -10.563  1.00  0.00    -0.000 C 
BRANCH  14  15
ATOM     15  C   UNL     1      14.799 -16.857 -11.709  1.00  0.00    -0.000 C 
BRANCH  15  16
ATOM     16  C   UNL     1      14.622 -18.069 -12.632  1.00  0.00    -0.000 C 
BRANCH  16  17
ATOM     17  C   UNL     1      14.865 -17.685 -14.096  1.00  0.00    -0.003 C 
ATOM     18  C   UNL     1      13.977 -16.516 -14.514  1.00  0.00     0.004 C 
ENDBRANCH  16  17
ENDBRANCH  15  16
ENDBRANCH  14  15
ENDBRANCH  13  14
ENDBRANCH  12  13
ENDBRANCH  11  12
ENDBRANCH   1  11
TORSDOF 14
ENDMDL
MODEL 5
REMARK VINA RESULT:    -4.842      4.336      7.288
REMARK INTER + INTRA:         -10.136
REMARK INTER:                  -7.739
REMARK INTRA:                  -2.397
REMARK UNBOUND:                -1.332
REMARK SMILES CCCCCCCCCCCCCCCC(=O)[O-]
REMARK SMILES IDX 9 1 10 2 11 3 12 4 13 5 14 6 15 7 16 8 17 9 18 10 8 11 7 12
REMARK SMILES IDX 6 13 5 14 4 15 3 16 2 17 1 18
REMARK H PARENT
REMARK Flexibility Score: inf
ROOT
ATOM      1  C   UNL     1      15.076 -16.850 -14.053  1.00  0.00     0.000 C 
ENDROOT
BRANCH   1   2
ATOM      2  C   UNL     1      13.691 -16.847 -14.719  1.00  0.00     0.000 C 
BRANCH   2   3
ATOM      3  C   UNL     1      13.470 -18.059 -15.639  1.00  0.00     0.000 C 
BRANCH   3   4
ATOM      4  C   UNL     1      12.399 -19.022 -15.100  1.00  0.00     0.000 C 
BRANCH   4   5
ATOM      5  C   UNL     1      11.568 -18.403 -13.963  1.00  0.00     0.000 C 
BRANCH   5   6
ATOM      6  C   UNL     1      11.610 -19.240 -12.673  1.00  0.00     0.006 C 
BRANCH   6   7
ATOM      7  C   UNL     1      10.712 -18.655 -11.574  1.00  0.00     0.053 C 
BRANCH   7   8
ATOM      8  C   UNL     1      11.475 -18.398 -10.311  1.00  0.00     0.041 C 
ATOM      9  O   UNL     1      11.317 -19.147  -9.311  1.00  0.00    -0.550 OA
ATOM     10  O   UNL     1      12.383 -17.349 -10.248  1.00  0.00    -0.550 OA
ENDBRANCH   7   8
ENDBRANCH   6   7
ENDBRANCH   5   6
ENDBRANCH   4   5
ENDBRANCH   3   4
ENDBRANCH   2   3
ENDBRANCH   1   2
BRANCH   1  11
ATOM     11  C   UNL     1      14.964 -17.175 -12.559  1.00  0.00     0.000 C 
BRANCH  11  12
ATOM     12  C   UNL     1      15.283 -18.655 -12.290  1.00  0.00    -0.000 C 
BRANCH  12  13
ATOM     13  C   UNL     1      16.157 -19.273 -13.403  1.00  0.00    -0.000 C 
BRANCH  13  14
ATOM     14  C   UNL     1      16.098 -20.810 -13.449  1.00  0.00    -0.000 C 
BRANCH  14  15
ATOM     15  C   UNL     1      14.711 -21.366 -13.100  1.00  0.00    -0.000 C 
BRANCH  15  16
ATOM     16  C   UNL     1      14.109 -22.128 -14.286  1.00  0.00    -0.000 C 
BRANCH  16  17
ATOM     17  C   UNL     1      13.053 -23.134 -13.814  1.00  0.00    -0.003 C 
ATOM     18  C   UNL     1      11.646 -22.668 -14.177  1.00  0.00     0.004 C 
ENDBRANCH  16  17
ENDBRANCH  15  16
ENDBRANCH  14  15
ENDBRANCH  13  14
ENDBRANCH  12  13
ENDBRANCH  11  12
ENDBRANCH   1  11
TORSDOF 14
ENDMDL
MODEL 6
REMARK VINA RESULT:    -4.827      6.282      8.484
REMARK INTER + INTRA:         -10.109
REMARK INTER:                  -8.380
REMARK INTRA:                  -1.729
REMARK UNBOUND:                -1.332
REMARK SMILES CCCCCCCCCCCCCCCC(=O)[O-]
REMARK SMILES IDX 9 1 10 2 11 3 12 4 13 5 14 6 15 7 16 8 17 9 18 10 8 11 7 12
REMARK SMILES IDX 6 13 5 14 4 15 3 16 2 17 1 18
REMARK H PARENT
REMARK Flexibility Score: inf
ROOT
ATOM      1  C   UNL     1      10.976 -18.758 -12.963  1.00  0.00     0.000 C 
ENDROOT
BRANCH   1   2
ATOM      2  C   UNL     1      10.806 -18.102 -11.584  1.00  0.00     0.000 C 
BRANCH   2   3
ATOM      3  C   UNL     1      10.536 -19.124 -10.468  1.00  0.00     0.000 C 
BRANCH   3   4
ATOM      4  C   UNL     1      11.474 -18.943  -9.261  1.00  0.00     0.000 C 
BRANCH   4   5
ATOM      5  C   UNL     1      11.648 -17.466  -8.867  1.00  0.00     0.000 C 
BRANCH   5   6
ATOM      6  C   UNL     1      10.628 -17.011  -7.809  1.00  0.00     0.006 C 
BRANCH   6   7
ATOM      7  C   UNL     1      10.313 -18.118  -6.794  1.00  0.00     0.053 C 
BRANCH   7   8
ATOM      8  C   UNL     1       9.128 -17.774  -5.945  1.00  0.00     0.041 C 
ATOM      9  O   UNL     1       8.720 -18.579  -5.067  1.00  0.00    -0.550 OA
ATOM     10  O   UNL     1       8.490 -16.550  -6.105  1.00  0.00    -0.550 OA
ENDBRANCH   7   8
ENDBRANCH   6   7
ENDBRANCH   5   6
ENDBRANCH   4   5
ENDBRANCH   3   4
ENDBRANCH   2   3
ENDBRANCH   1   2
BRANCH   1  11
ATOM     11  C   UNL     1      11.855 -20.010 -12.868  1.00  0.00     0.000 C 
BRANCH  11  12
ATOM     12  C   UNL     1      12.508 -20.330 -14.223  1.00  0.00    -0.000 C 
BRANCH  12  13
ATOM     13  C   UNL     1      11.949 -19.450 -15.361  1.00  0.00    -0.000 C 
BRANCH  13  14
ATOM     14  C   UNL     1      13.035 -18.692 -16.145  1.00  0.00    -0.000 C 
BRANCH  14  15
ATOM     15  C   UNL     1      14.170 -18.178 -15.247  1.00  0.00    -0.000 C 
BRANCH  15  16
ATOM     16  C   UNL     1      14.057 -16.664 -15.032  1.00  0.00    -0.000 C 
BRANCH  16  17
ATOM     17  C   UNL     1      13.565 -16.347 -13.615  1.00  0.00    -0.003 C 
ATOM     18  C   UNL     1      14.349 -17.136 -12.570  1.00  0.00     0.004 C 
ENDBRANCH  16  17
ENDBRANCH  15  16
ENDBRANCH  14  15
ENDBRANCH  13  14
ENDBRANCH  12  13
ENDBRANCH  11  12
ENDBRANCH   1  11
TORSDOF 14
ENDMDL
MODEL 7
REMARK VINA RESULT:    -4.822      3.074      6.477
REMARK INTER + INTRA:         -10.101
REMARK INTER:                  -8.033
REMARK INTRA:                  -2.068
REMARK UNBOUND:                -1.332
REMARK SMILES CCCCCCCCCCCCCCCC(=O)[O-]
REMARK SMILES IDX 9 1 10 2 11 3 12 4 13 5 14 6 15 7 16 8 17 9 18 10 8 11 7 12
REMARK SMILES IDX 6 13 5 14 4 15 3 16 2 17 1 18
REMARK H PARENT
REMARK Flexibility Score: inf
ROOT
ATOM      1  C   UNL     1      12.152 -16.972 -13.358  1.00  0.00     0.000 C 
ENDROOT
BRANCH   1   2
ATOM      2  C   UNL     1      13.582 -16.424 -13.484  1.00  0.00     0.000 C 
BRANCH   2   3
ATOM      3  C   UNL     1      14.132 -16.521 -14.917  1.00  0.00     0.000 C 
BRANCH   3   4
ATOM      4  C   UNL     1      14.732 -17.903 -15.227  1.00  0.00     0.000 C 
BRANCH   4   5
ATOM      5  C   UNL     1      15.567 -18.458 -14.060  1.00  0.00     0.000 C 
BRANCH   5   6
ATOM      6  C   UNL     1      15.411 -19.979 -13.889  1.00  0.00     0.006 C 
BRANCH   6   7
ATOM      7  C   UNL     1      15.124 -20.371 -12.433  1.00  0.00     0.053 C 
BRANCH   7   8
ATOM      8  C   UNL     1      16.347 -20.899 -11.748  1.00  0.00     0.041 C 
ATOM      9  O   UNL     1      16.261 -21.412 -10.602  1.00  0.00    -0.550 OA
ATOM     10  O   UNL     1      17.578 -20.849 -12.389  1.00  0.00    -0.550 OA
ENDBRANCH   7   8
ENDBRANCH   6   7
ENDBRANCH   5   6
ENDBRANCH   4   5
ENDBRANCH   3   4
ENDBRANCH   2   3
ENDBRANCH   1   2
BRANCH   1  11
ATOM     11  C   UNL     1      12.131 -18.260 -12.527  1.00  0.00     0.000 C 
BRANCH  11  12
ATOM     12  C   UNL     1      11.315 -19.357 -13.229  1.00  0.00    -0.000 C 
BRANCH  12  13
ATOM     13  C   UNL     1      11.321 -19.195 -14.764  1.00  0.00    -0.000 C 
BRANCH  13  14
ATOM     14  C   UNL     1      11.739 -20.471 -15.517  1.00  0.00    -0.000 C 
BRANCH  14  15
ATOM     15  C   UNL     1      12.333 -21.542 -14.592  1.00  0.00    -0.000 C 
BRANCH  15  16
ATOM     16  C   UNL     1      11.402 -22.756 -14.487  1.00  0.00    -0.000 C 
BRANCH  16  17
ATOM     17  C   UNL     1      12.187 -24.018 -14.111  1.00  0.00    -0.003 C 
ATOM     18  C   UNL     1      11.329 -25.269 -14.276  1.00  0.00     0.004 C 
ENDBRANCH  16  17
ENDBRANCH  15  16
ENDBRANCH  14  15
ENDBRANCH  13  14
ENDBRANCH  12  13
ENDBRANCH  11  12
ENDBRANCH   1  11
TORSDOF 14
ENDMDL
MODEL 8
REMARK VINA RESULT:    -4.801      3.590      7.998
REMARK INTER + INTRA:         -10.063
REMARK INTER:                  -8.720
REMARK INTRA:                  -1.342
REMARK UNBOUND:                -1.332
REMARK SMILES CCCCCCCCCCCCCCCC(=O)[O-]
REMARK SMILES IDX 9 1 10 2 11 3 12 4 13 5 14 6 15 7 16 8 17 9 18 10 8 11 7 12
REMARK SMILES IDX 6 13 5 14 4 15 3 16 2 17 1 18
REMARK H PARENT
REMARK Flexibility Score: inf
ROOT
ATOM      1  C   UNL     1      11.712 -20.418 -14.590  1.00  0.00     0.000 C 
ENDROOT
BRANCH   1   2
ATOM      2  C   UNL     1      11.624 -19.508 -15.825  1.00  0.00     0.000 C 
BRANCH   2   3
ATOM      3  C   UNL     1      13.003 -19.179 -16.420  1.00  0.00     0.000 C 
BRANCH   3   4
ATOM      4  C   UNL     1      14.019 -18.742 -15.350  1.00  0.00     0.000 C 
BRANCH   4   5
ATOM      5  C   UNL     1      14.396 -17.256 -15.468  1.00  0.00     0.000 C 
BRANCH   5   6
ATOM      6  C   UNL     1      14.122 -16.469 -14.175  1.00  0.00     0.006 C 
BRANCH   6   7
ATOM      7  C   UNL     1      12.928 -17.037 -13.394  1.00  0.00     0.053 C 
BRANCH   7   8
ATOM      8  C   UNL     1      13.302 -17.398 -11.990  1.00  0.00     0.041 C 
ATOM      9  O   UNL     1      14.037 -16.633 -11.312  1.00  0.00    -0.550 OA
ATOM     10  O   UNL     1      12.815 -18.567 -11.420  1.00  0.00    -0.550 OA
ENDBRANCH   7   8
ENDBRANCH   6   7
ENDBRANCH   5   6
ENDBRANCH   4   5
ENDBRANCH   3   4
ENDBRANCH   2   3
ENDBRANCH   1   2
BRANCH   1  11
ATOM     11  C   UNL     1      11.409 -21.874 -14.961  1.00  0.00     0.000 C 
BRANCH  11  12
ATOM     12  C   UNL     1      12.118 -22.846 -14.003  1.00  0.00    -0.000 C 
BRANCH  12  13
ATOM     13  C   UNL     1      13.573 -22.421 -13.714  1.00  0.00    -0.000 C 
BRANCH  13  14
ATOM     14  C   UNL     1      14.582 -23.580 -13.795  1.00  0.00    -0.000 C 
BRANCH  14  15
ATOM     15  C   UNL     1      13.999 -24.914 -13.307  1.00  0.00    -0.000 C 
BRANCH  15  16
ATOM     16  C   UNL     1      14.570 -26.090 -14.107  1.00  0.00    -0.000 C 
BRANCH  16  17
ATOM     17  C   UNL     1      13.477 -27.112 -14.438  1.00  0.00    -0.003 C 
ATOM     18  C   UNL     1      12.096 -26.463 -14.435  1.00  0.00     0.004 C 
ENDBRANCH  16  17
ENDBRANCH  15  16
ENDBRANCH  14  15
ENDBRANCH  13  14
ENDBRANCH  12  13
ENDBRANCH  11  12
ENDBRANCH   1  11
TORSDOF 14
ENDMDL
MODEL 9
REMARK VINA RESULT:    -4.690      3.374      5.334
REMARK INTER + INTRA:          -9.860
REMARK INTER:                  -7.361
REMARK INTRA:                  -2.499
REMARK UNBOUND:                -1.332
REMARK SMILES CCCCCCCCCCCCCCCC(=O)[O-]
REMARK SMILES IDX 9 1 10 2 11 3 12 4 13 5 14 6 15 7 16 8 17 9 18 10 8 11 7 12
REMARK SMILES IDX 6 13 5 14 4 15 3 16 2 17 1 18
REMARK H PARENT
REMARK Flexibility Score: inf
ROOT
ATOM      1  C   UNL     1      14.879 -16.593 -13.814  1.00  0.00     0.000 C 
ENDROOT
BRANCH   1   2
ATOM      2  C   UNL     1      14.119 -16.867 -12.507  1.00  0.00     0.000 C 
BRANCH   2   3
ATOM      3  C   UNL     1      14.960 -17.647 -11.482  1.00  0.00     0.000 C 
BRANCH   3   4
ATOM      4  C   UNL     1      14.808 -19.171 -11.632  1.00  0.00     0.000 C 
BRANCH   4   5
ATOM      5  C   UNL     1      16.123 -19.857 -12.038  1.00  0.00     0.000 C 
BRANCH   5   6
ATOM      6  C   UNL     1      16.072 -20.445 -13.458  1.00  0.00     0.006 C 
BRANCH   6   7
ATOM      7  C   UNL     1      16.450 -21.933 -13.483  1.00  0.00     0.053 C 
BRANCH   7   8
ATOM      8  C   UNL     1      15.520 -22.757 -12.648  1.00  0.00     0.041 C 
ATOM      9  O   UNL     1      14.363 -23.026 -13.064  1.00  0.00    -0.550 OA
ATOM     10  O   UNL     1      15.942 -23.253 -11.421  1.00  0.00    -0.550 OA
ENDBRANCH   7   8
ENDBRANCH   6   7
ENDBRANCH   5   6
ENDBRANCH   4   5
ENDBRANCH   3   4
ENDBRANCH   2   3
ENDBRANCH   1   2
BRANCH   1  11
ATOM     11  C   UNL     1      13.995 -16.883 -15.032  1.00  0.00     0.000 C 
BRANCH  11  12
ATOM     12  C   UNL     1      14.335 -18.250 -15.647  1.00  0.00    -0.000 C 
BRANCH  12  13
ATOM     13  C   UNL     1      13.238 -18.742 -16.615  1.00  0.00    -0.000 C 
BRANCH  13  14
ATOM     14  C   UNL     1      12.102 -19.512 -15.919  1.00  0.00    -0.000 C 
BRANCH  14  15
ATOM     15  C   UNL     1      12.615 -20.576 -14.938  1.00  0.00    -0.000 C 
BRANCH  15  16
ATOM     16  C   UNL     1      12.017 -20.370 -13.542  1.00  0.00    -0.000 C 
BRANCH  16  17
ATOM     17  C   UNL     1      11.294 -19.021 -13.448  1.00  0.00    -0.003 C 
ATOM     18  C   UNL     1      10.906 -18.703 -12.007  1.00  0.00     0.004 C 
ENDBRANCH  16  17
ENDBRANCH  15  16
ENDBRANCH  14  15
ENDBRANCH  13  14
ENDBRANCH  12  13
ENDBRANCH  11  12
ENDBRANCH   1  11
TORSDOF 14
ENDMDL
