MODEL 1
REMARK VINA RESULT:    -6.119      0.000      0.000
REMARK INTER + INTRA:          -7.823
REMARK INTER:                  -7.549
REMARK INTRA:                  -0.273
REMARK UNBOUND:                -0.273
REMARK SMILES COc1cc(-c2oc3cc(O)cc(O)c3c(=O)c2O)ccc1O
REMARK SMILES IDX 6 1 18 2 16 3 17 4 15 5 13 6 12 7 10 8 9 9 8 10 7 11 5 12
REMARK SMILES IDX 3 13 22 14 4 15 21 16 20 17 2 18 1 19 23 20 19 22 14 24
REMARK SMILES IDX 11 26
REMARK H PARENT 23 21 19 23 14 25 11 27
REMARK Flexibility Score: inf
ROOT
ATOM      1  C   UNL     1      53.883   3.773   7.135  1.00  0.00     0.180 A 
ATOM      2  C   UNL     1      55.124   4.380   6.877  1.00  0.00     0.208 A 
ATOM      3  C   UNL     1      56.219   3.572   6.533  1.00  0.00     0.238 A 
ATOM      4  O   UNL     1      57.314   4.125   6.250  1.00  0.00    -0.285 OA
ATOM      5  C   UNL     1      56.065   2.166   6.467  1.00  0.00     0.111 A 
ATOM      6  C   UNL     1      57.116   1.248   6.168  1.00  0.00     0.134 A 
ATOM      7  C   UNL     1      56.820  -0.111   6.001  1.00  0.00     0.093 A 
ATOM      8  C   UNL     1      55.525  -0.594   6.187  1.00  0.00     0.123 A 
ATOM      9  C   UNL     1      54.501   0.287   6.538  1.00  0.00     0.094 A 
ATOM     10  C   UNL     1      54.758   1.653   6.676  1.00  0.00     0.146 A 
ATOM     11  O   UNL     1      53.753   2.458   7.001  1.00  0.00    -0.452 OA
ENDROOT
BRANCH   1  12
ATOM     12  C   UNL     1      52.690   4.556   7.527  1.00  0.00     0.025 A 
ATOM     13  C   UNL     1      50.911   6.152   7.007  1.00  0.00     0.161 A 
ATOM     14  C   UNL     1      50.459   6.070   8.331  1.00  0.00     0.157 A 
ATOM     15  C   UNL     1      52.034   5.398   6.611  1.00  0.00     0.062 A 
ATOM     16  C   UNL     1      51.125   5.249   9.250  1.00  0.00     0.051 A 
ATOM     17  C   UNL     1      52.236   4.505   8.854  1.00  0.00     0.016 A 
BRANCH  13  18
ATOM     18  O   UNL     1      50.224   6.994   6.118  1.00  0.00    -0.493 OA
ATOM     19  C   UNL     1      50.559   8.356   5.875  1.00  0.00     0.278 C 
ENDBRANCH  13  18
BRANCH  14  20
ATOM     20  O   UNL     1      49.347   6.810   8.728  1.00  0.00    -0.504 OA
ATOM     21  H   UNL     1      48.538   6.916   8.127  1.00  0.00     0.293 HD
ENDBRANCH  14  20
ENDBRANCH   1  12
BRANCH   2  22
ATOM     22  O   UNL     1      55.250   5.771   6.926  1.00  0.00    -0.502 OA
ATOM     23  H   UNL     1      56.081   6.230   7.277  1.00  0.00     0.293 HD
ENDBRANCH   2  22
BRANCH   6  24
ATOM     24  O   UNL     1      58.461   1.613   6.052  1.00  0.00    -0.507 OA
ATOM     25  H   UNL     1      58.825   2.533   6.245  1.00  0.00     0.293 HD
ENDBRANCH   6  24
BRANCH   8  26
ATOM     26  O   UNL     1      55.270  -1.954   6.028  1.00  0.00    -0.508 OA
ATOM     27  H   UNL     1      55.999  -2.648   6.154  1.00  0.00     0.293 HD
ENDBRANCH   8  26
TORSDOF 6
ENDMDL
MODEL 2
REMARK VINA RESULT:    -5.833      1.728      6.972
REMARK INTER + INTRA:          -7.471
REMARK INTER:                  -7.799
REMARK INTRA:                   0.328
REMARK UNBOUND:                -0.273
REMARK SMILES COc1cc(-c2oc3cc(O)cc(O)c3c(=O)c2O)ccc1O
REMARK SMILES IDX 6 1 18 2 16 3 17 4 15 5 13 6 12 7 10 8 9 9 8 10 7 11 5 12
REMARK SMILES IDX 3 13 22 14 4 15 21 16 20 17 2 18 1 19 23 20 19 22 14 24
REMARK SMILES IDX 11 26
REMARK H PARENT 23 21 19 23 14 25 11 27
REMARK Flexibility Score: inf
ROOT
ATOM      1  C   UNL     1      54.965   1.575   6.700  1.00  0.00     0.180 A 
ATOM      2  C   UNL     1      56.132   2.303   6.414  1.00  0.00     0.208 A 
ATOM      3  C   UNL     1      56.071   3.706   6.390  1.00  0.00     0.238 A 
ATOM      4  O   UNL     1      57.132   4.354   6.188  1.00  0.00    -0.285 OA
ATOM      5  C   UNL     1      54.841   4.362   6.637  1.00  0.00     0.111 A 
ATOM      6  C   UNL     1      54.656   5.778   6.599  1.00  0.00     0.134 A 
ATOM      7  C   UNL     1      53.426   6.323   6.988  1.00  0.00     0.093 A 
ATOM      8  C   UNL     1      52.357   5.504   7.350  1.00  0.00     0.123 A 
ATOM      9  C   UNL     1      52.510   4.117   7.333  1.00  0.00     0.094 A 
ATOM     10  C   UNL     1      53.735   3.544   6.985  1.00  0.00     0.146 A 
ATOM     11  O   UNL     1      53.841   2.221   6.992  1.00  0.00    -0.452 OA
ENDROOT
BRANCH   1  12
ATOM     12  C   UNL     1      54.945   0.095   6.718  1.00  0.00     0.025 A 
ATOM     13  C   UNL     1      54.123  -2.023   7.624  1.00  0.00     0.161 A 
ATOM     14  C   UNL     1      54.980  -2.718   6.757  1.00  0.00     0.157 A 
ATOM     15  C   UNL     1      54.115  -0.614   7.605  1.00  0.00     0.062 A 
ATOM     16  C   UNL     1      55.823  -2.012   5.890  1.00  0.00     0.051 A 
ATOM     17  C   UNL     1      55.811  -0.617   5.876  1.00  0.00     0.016 A 
BRANCH  13  18
ATOM     18  O   UNL     1      53.301  -2.765   8.486  1.00  0.00    -0.493 OA
ATOM     19  C   UNL     1      53.743  -3.378   9.693  1.00  0.00     0.278 C 
ENDBRANCH  13  18
BRANCH  14  20
ATOM     20  O   UNL     1      54.990  -4.111   6.768  1.00  0.00    -0.504 OA
ATOM     21  H   UNL     1      55.496  -4.644   6.071  1.00  0.00     0.293 HD
ENDBRANCH  14  20
ENDBRANCH   1  12
BRANCH   2  22
ATOM     22  O   UNL     1      57.340   1.637   6.194  1.00  0.00    -0.502 OA
ATOM     23  H   UNL     1      57.421   0.628   6.237  1.00  0.00     0.293 HD
ENDBRANCH   2  22
BRANCH   6  24
ATOM     24  O   UNL     1      55.630   6.680   6.164  1.00  0.00    -0.507 OA
ATOM     25  H   UNL     1      55.481   7.399   5.473  1.00  0.00     0.293 HD
ENDBRANCH   6  24
BRANCH   8  26
ATOM     26  O   UNL     1      51.143   6.082   7.716  1.00  0.00    -0.508 OA
ATOM     27  H   UNL     1      50.678   5.834   8.582  1.00  0.00     0.293 HD
ENDBRANCH   8  26
TORSDOF 6
ENDMDL
MODEL 3
REMARK VINA RESULT:    -5.829      1.847      2.764
REMARK INTER + INTRA:          -7.465
REMARK INTER:                  -7.458
REMARK INTRA:                  -0.008
REMARK UNBOUND:                -0.273
REMARK SMILES COc1cc(-c2oc3cc(O)cc(O)c3c(=O)c2O)ccc1O
REMARK SMILES IDX 6 1 18 2 16 3 17 4 15 5 13 6 12 7 10 8 9 9 8 10 7 11 5 12
REMARK SMILES IDX 3 13 22 14 4 15 21 16 20 17 2 18 1 19 23 20 19 22 14 24
REMARK SMILES IDX 11 26
REMARK H PARENT 23 21 19 23 14 25 11 27
REMARK Flexibility Score: inf
ROOT
ATOM      1  C   UNL     1      52.432   5.714   6.620  1.00  0.00     0.180 A 
ATOM      2  C   UNL     1      53.557   6.497   6.315  1.00  0.00     0.208 A 
ATOM      3  C   UNL     1      54.811   5.874   6.203  1.00  0.00     0.238 A 
ATOM      4  O   UNL     1      55.806   6.572   5.875  1.00  0.00    -0.285 OA
ATOM      5  C   UNL     1      54.925   4.478   6.412  1.00  0.00     0.111 A 
ATOM      6  C   UNL     1      56.151   3.749   6.364  1.00  0.00     0.134 A 
ATOM      7  C   UNL     1      56.128   2.352   6.458  1.00  0.00     0.093 A 
ATOM      8  C   UNL     1      54.933   1.664   6.664  1.00  0.00     0.123 A 
ATOM      9  C   UNL     1      53.735   2.372   6.773  1.00  0.00     0.094 A 
ATOM     10  C   UNL     1      53.721   3.763   6.647  1.00  0.00     0.146 A 
ATOM     11  O   UNL     1      52.560   4.398   6.746  1.00  0.00    -0.452 OA
ENDROOT
BRANCH   1  12
ATOM     12  C   UNL     1      51.082   6.303   6.779  1.00  0.00     0.025 A 
ATOM     13  C   UNL     1      49.591   8.027   7.663  1.00  0.00     0.161 A 
ATOM     14  C   UNL     1      48.494   7.356   7.103  1.00  0.00     0.157 A 
ATOM     15  C   UNL     1      50.884   7.491   7.504  1.00  0.00     0.062 A 
ATOM     16  C   UNL     1      48.688   6.160   6.400  1.00  0.00     0.051 A 
ATOM     17  C   UNL     1      49.970   5.634   6.245  1.00  0.00     0.016 A 
BRANCH  13  18
ATOM     18  O   UNL     1      49.355   9.217   8.370  1.00  0.00    -0.493 OA
ATOM     19  C   UNL     1      49.894  10.486   8.016  1.00  0.00     0.278 C 
ENDBRANCH  13  18
BRANCH  14  20
ATOM     20  O   UNL     1      47.213   7.883   7.253  1.00  0.00    -0.504 OA
ATOM     21  H   UNL     1      47.063   8.821   7.605  1.00  0.00     0.293 HD
ENDBRANCH  14  20
ENDBRANCH   1  12
BRANCH   2  22
ATOM     22  O   UNL     1      53.419   7.869   6.090  1.00  0.00    -0.502 OA
ATOM     23  H   UNL     1      54.202   8.462   5.841  1.00  0.00     0.293 HD
ENDBRANCH   2  22
BRANCH   6  24
ATOM     24  O   UNL     1      57.410   4.347   6.253  1.00  0.00    -0.507 OA
ATOM     25  H   UNL     1      57.818   4.672   5.390  1.00  0.00     0.293 HD
ENDBRANCH   6  24
BRANCH   8  26
ATOM     26  O   UNL     1      54.949   0.275   6.769  1.00  0.00    -0.508 OA
ATOM     27  H   UNL     1      54.092  -0.265   6.790  1.00  0.00     0.293 HD
ENDBRANCH   8  26
TORSDOF 6
ENDMDL
MODEL 4
REMARK VINA RESULT:    -5.707      1.363      6.935
REMARK INTER + INTRA:          -7.314
REMARK INTER:                  -7.793
REMARK INTRA:                   0.479
REMARK UNBOUND:                -0.273
REMARK SMILES COc1cc(-c2oc3cc(O)cc(O)c3c(=O)c2O)ccc1O
REMARK SMILES IDX 6 1 18 2 16 3 17 4 15 5 13 6 12 7 10 8 9 9 8 10 7 11 5 12
REMARK SMILES IDX 3 13 22 14 4 15 21 16 20 17 2 18 1 19 23 20 19 22 14 24
REMARK SMILES IDX 11 26
REMARK H PARENT 23 21 19 23 14 25 11 27
REMARK Flexibility Score: inf
ROOT
ATOM      1  C   UNL     1      54.802   3.284   6.460  1.00  0.00     0.180 A 
ATOM      2  C   UNL     1      55.523   4.460   6.189  1.00  0.00     0.208 A 
ATOM      3  C   UNL     1      54.865   5.697   6.276  1.00  0.00     0.238 A 
ATOM      4  O   UNL     1      55.529   6.750   6.087  1.00  0.00    -0.285 OA
ATOM      5  C   UNL     1      53.492   5.743   6.618  1.00  0.00     0.111 A 
ATOM      6  C   UNL     1      52.715   6.939   6.696  1.00  0.00     0.134 A 
ATOM      7  C   UNL     1      51.399   6.877   7.170  1.00  0.00     0.093 A 
ATOM      8  C   UNL     1      50.810   5.658   7.506  1.00  0.00     0.123 A 
ATOM      9  C   UNL     1      51.542   4.477   7.376  1.00  0.00     0.094 A 
ATOM     10  C   UNL     1      52.869   4.509   6.941  1.00  0.00     0.146 A 
ATOM     11  O   UNL     1      53.532   3.364   6.841  1.00  0.00    -0.452 OA
ENDROOT
BRANCH   1  12
ATOM     12  C   UNL     1      55.420   1.942   6.364  1.00  0.00     0.025 A 
ATOM     13  C   UNL     1      55.302  -0.490   6.597  1.00  0.00     0.161 A 
ATOM     14  C   UNL     1      56.650  -0.584   6.222  1.00  0.00     0.157 A 
ATOM     15  C   UNL     1      54.693   0.779   6.674  1.00  0.00     0.062 A 
ATOM     16  C   UNL     1      57.382   0.576   5.936  1.00  0.00     0.051 A 
ATOM     17  C   UNL     1      56.774   1.830   6.014  1.00  0.00     0.016 A 
BRANCH  13  18
ATOM     18  O   UNL     1      54.606  -1.673   6.887  1.00  0.00    -0.493 OA
ATOM     19  C   UNL     1      53.847  -1.893   8.071  1.00  0.00     0.278 C 
ENDBRANCH  13  18
BRANCH  14  20
ATOM     20  O   UNL     1      57.258  -1.835   6.141  1.00  0.00    -0.504 OA
ATOM     21  H   UNL     1      57.533  -2.235   5.251  1.00  0.00     0.293 HD
ENDBRANCH  14  20
ENDBRANCH   1  12
BRANCH   2  22
ATOM     22  O   UNL     1      56.883   4.394   5.875  1.00  0.00    -0.502 OA
ATOM     23  H   UNL     1      57.591   4.868   6.422  1.00  0.00     0.293 HD
ENDBRANCH   2  22
BRANCH   6  24
ATOM     24  O   UNL     1      53.177   8.196   6.298  1.00  0.00    -0.507 OA
ATOM     25  H   UNL     1      53.329   8.975   6.919  1.00  0.00     0.293 HD
ENDBRANCH   6  24
BRANCH   8  26
ATOM     26  O   UNL     1      49.493   5.633   7.959  1.00  0.00    -0.508 OA
ATOM     27  H   UNL     1      49.250   5.235   8.859  1.00  0.00     0.293 HD
ENDBRANCH   8  26
TORSDOF 6
ENDMDL
MODEL 5
REMARK VINA RESULT:    -5.578      5.168      9.160
REMARK INTER + INTRA:          -7.156
REMARK INTER:                  -7.071
REMARK INTRA:                  -0.085
REMARK UNBOUND:                -0.273
REMARK SMILES COc1cc(-c2oc3cc(O)cc(O)c3c(=O)c2O)ccc1O
REMARK SMILES IDX 6 1 18 2 16 3 17 4 15 5 13 6 12 7 10 8 9 9 8 10 7 11 5 12
REMARK SMILES IDX 3 13 22 14 4 15 21 16 20 17 2 18 1 19 23 20 19 22 14 24
REMARK SMILES IDX 11 26
REMARK H PARENT 23 21 19 23 14 25 11 27
REMARK Flexibility Score: inf
ROOT
ATOM      1  C   UNL     1      50.910  10.042   6.673  1.00  0.00     0.180 A 
ATOM      2  C   UNL     1      50.132  11.209   6.598  1.00  0.00     0.208 A 
ATOM      3  C   UNL     1      50.776  12.452   6.494  1.00  0.00     0.238 A 
ATOM      4  O   UNL     1      50.073  13.489   6.372  1.00  0.00    -0.285 OA
ATOM      5  C   UNL     1      52.191  12.513   6.483  1.00  0.00     0.111 A 
ATOM      6  C   UNL     1      52.949  13.722   6.422  1.00  0.00     0.134 A 
ATOM      7  C   UNL     1      54.342  13.656   6.286  1.00  0.00     0.093 A 
ATOM      8  C   UNL     1      55.008  12.432   6.273  1.00  0.00     0.123 A 
ATOM      9  C   UNL     1      54.281  11.246   6.392  1.00  0.00     0.094 A 
ATOM     10  C   UNL     1      52.888  11.277   6.494  1.00  0.00     0.146 A 
ATOM     11  O   UNL     1      52.233  10.126   6.595  1.00  0.00    -0.452 OA
ENDROOT
BRANCH   1  12
ATOM     12  C   UNL     1      50.303   8.698   6.809  1.00  0.00     0.025 A 
ATOM     13  C   UNL     1      50.137   6.528   7.925  1.00  0.00     0.161 A 
ATOM     14  C   UNL     1      49.162   6.133   6.996  1.00  0.00     0.157 A 
ATOM     15  C   UNL     1      50.710   7.811   7.822  1.00  0.00     0.062 A 
ATOM     16  C   UNL     1      48.773   7.007   5.973  1.00  0.00     0.051 A 
ATOM     17  C   UNL     1      49.345   8.276   5.876  1.00  0.00     0.016 A 
BRANCH  13  18
ATOM     18  O   UNL     1      50.509   5.620   8.929  1.00  0.00    -0.493 OA
ATOM     19  C   UNL     1      51.751   4.925   8.967  1.00  0.00     0.278 C 
ENDBRANCH  13  18
BRANCH  14  20
ATOM     20  O   UNL     1      48.589   4.867   7.095  1.00  0.00    -0.504 OA
ATOM     21  H   UNL     1      47.827   4.678   7.735  1.00  0.00     0.293 HD
ENDBRANCH  14  20
ENDBRANCH   1  12
BRANCH   2  22
ATOM     22  O   UNL     1      48.737  11.124   6.588  1.00  0.00    -0.502 OA
ATOM     23  H   UNL     1      48.145  11.848   6.977  1.00  0.00     0.293 HD
ENDBRANCH   2  22
BRANCH   6  24
ATOM     24  O   UNL     1      52.390  14.999   6.519  1.00  0.00    -0.507 OA
ATOM     25  H   UNL     1      52.917  15.848   6.650  1.00  0.00     0.293 HD
ENDBRANCH   6  24
BRANCH   8  26
ATOM     26  O   UNL     1      56.395  12.406   6.152  1.00  0.00    -0.508 OA
ATOM     27  H   UNL     1      56.953  11.685   6.595  1.00  0.00     0.293 HD
ENDBRANCH   8  26
TORSDOF 6
ENDMDL
MODEL 6
REMARK VINA RESULT:    -5.409      3.960      7.563
REMARK INTER + INTRA:          -6.947
REMARK INTER:                  -7.210
REMARK INTRA:                   0.263
REMARK UNBOUND:                -0.273
REMARK SMILES COc1cc(-c2oc3cc(O)cc(O)c3c(=O)c2O)ccc1O
REMARK SMILES IDX 6 1 18 2 16 3 17 4 15 5 13 6 12 7 10 8 9 9 8 10 7 11 5 12
REMARK SMILES IDX 3 13 22 14 4 15 21 16 20 17 2 18 1 19 23 20 19 22 14 24
REMARK SMILES IDX 11 26
REMARK H PARENT 23 21 19 23 14 25 11 27
REMARK Flexibility Score: inf
ROOT
ATOM      1  C   UNL     1      51.398   9.832   6.908  1.00  0.00     0.180 A 
ATOM      2  C   UNL     1      50.219   9.427   7.558  1.00  0.00     0.208 A 
ATOM      3  C   UNL     1      49.963   8.055   7.711  1.00  0.00     0.238 A 
ATOM      4  O   UNL     1      48.933   7.699   8.341  1.00  0.00    -0.285 OA
ATOM      5  C   UNL     1      50.880   7.105   7.200  1.00  0.00     0.111 A 
ATOM      6  C   UNL     1      50.701   5.690   7.263  1.00  0.00     0.134 A 
ATOM      7  C   UNL     1      51.735   4.844   6.841  1.00  0.00     0.093 A 
ATOM      8  C   UNL     1      52.912   5.360   6.299  1.00  0.00     0.123 A 
ATOM      9  C   UNL     1      53.072   6.741   6.177  1.00  0.00     0.094 A 
ATOM     10  C   UNL     1      52.074   7.612   6.622  1.00  0.00     0.146 A 
ATOM     11  O   UNL     1      52.270   8.918   6.498  1.00  0.00    -0.452 OA
ENDROOT
BRANCH   1  12
ATOM     12  C   UNL     1      51.725  11.259   6.687  1.00  0.00     0.025 A 
ATOM     13  C   UNL     1      51.046  13.593   6.418  1.00  0.00     0.161 A 
ATOM     14  C   UNL     1      52.385  13.951   6.209  1.00  0.00     0.157 A 
ATOM     15  C   UNL     1      50.719  12.242   6.650  1.00  0.00     0.062 A 
ATOM     16  C   UNL     1      53.384  12.970   6.223  1.00  0.00     0.051 A 
ATOM     17  C   UNL     1      53.056  11.633   6.452  1.00  0.00     0.016 A 
BRANCH  13  18
ATOM     18  O   UNL     1      50.072  14.603   6.385  1.00  0.00    -0.493 OA
ATOM     19  C   UNL     1      48.753  14.435   5.875  1.00  0.00     0.278 C 
ENDBRANCH  13  18
BRANCH  14  20
ATOM     20  O   UNL     1      52.715  15.286   5.982  1.00  0.00    -0.504 OA
ATOM     21  H   UNL     1      52.033  16.027   6.093  1.00  0.00     0.293 HD
ENDBRANCH  14  20
ENDBRANCH   1  12
BRANCH   2  22
ATOM     22  O   UNL     1      49.338  10.381   8.074  1.00  0.00    -0.502 OA
ATOM     23  H   UNL     1      49.657  11.224   8.535  1.00  0.00     0.293 HD
ENDBRANCH   2  22
BRANCH   6  24
ATOM     24  O   UNL     1      49.528   5.071   7.703  1.00  0.00    -0.507 OA
ATOM     25  H   UNL     1      48.703   5.559   8.014  1.00  0.00     0.293 HD
ENDBRANCH   6  24
BRANCH   8  26
ATOM     26  O   UNL     1      53.912   4.488   5.875  1.00  0.00    -0.508 OA
ATOM     27  H   UNL     1      53.834   3.486   6.011  1.00  0.00     0.293 HD
ENDBRANCH   8  26
TORSDOF 6
ENDMDL
MODEL 7
REMARK VINA RESULT:    -5.378      1.608      7.757
REMARK INTER + INTRA:          -6.909
REMARK INTER:                  -6.880
REMARK INTRA:                  -0.029
REMARK UNBOUND:                -0.273
REMARK SMILES COc1cc(-c2oc3cc(O)cc(O)c3c(=O)c2O)ccc1O
REMARK SMILES IDX 6 1 18 2 16 3 17 4 15 5 13 6 12 7 10 8 9 9 8 10 7 11 5 12
REMARK SMILES IDX 3 13 22 14 4 15 21 16 20 17 2 18 1 19 23 20 19 22 14 24
REMARK SMILES IDX 11 26
REMARK H PARENT 23 21 19 23 14 25 11 27
REMARK Flexibility Score: inf
ROOT
ATOM      1  C   UNL     1      52.880   5.167   7.557  1.00  0.00     0.180 A 
ATOM      2  C   UNL     1      52.068   4.862   8.663  1.00  0.00     0.208 A 
ATOM      3  C   UNL     1      51.077   5.777   9.052  1.00  0.00     0.238 A 
ATOM      4  O   UNL     1      50.316   5.474  10.009  1.00  0.00    -0.285 OA
ATOM      5  C   UNL     1      50.920   6.991   8.341  1.00  0.00     0.111 A 
ATOM      6  C   UNL     1      49.975   8.009   8.674  1.00  0.00     0.134 A 
ATOM      7  C   UNL     1      49.819   9.110   7.822  1.00  0.00     0.093 A 
ATOM      8  C   UNL     1      50.618   9.264   6.690  1.00  0.00     0.123 A 
ATOM      9  C   UNL     1      51.585   8.305   6.389  1.00  0.00     0.094 A 
ATOM     10  C   UNL     1      51.740   7.177   7.198  1.00  0.00     0.146 A 
ATOM     11  O   UNL     1      52.666   6.283   6.871  1.00  0.00    -0.452 OA
ENDROOT
BRANCH   1  12
ATOM     12  C   UNL     1      53.962   4.264   7.103  1.00  0.00     0.025 A 
ATOM     13  C   UNL     1      54.784   2.038   6.508  1.00  0.00     0.161 A 
ATOM     14  C   UNL     1      56.061   2.576   6.291  1.00  0.00     0.157 A 
ATOM     15  C   UNL     1      53.738   2.887   6.922  1.00  0.00     0.062 A 
ATOM     16  C   UNL     1      56.291   3.943   6.493  1.00  0.00     0.051 A 
ATOM     17  C   UNL     1      55.252   4.779   6.903  1.00  0.00     0.016 A 
BRANCH  13  18
ATOM     18  O   UNL     1      54.596   0.662   6.306  1.00  0.00    -0.493 OA
ATOM     19  C   UNL     1      54.507  -0.301   7.351  1.00  0.00     0.278 C 
ENDBRANCH  13  18
BRANCH  14  20
ATOM     20  O   UNL     1      57.099   1.743   5.878  1.00  0.00    -0.504 OA
ATOM     21  H   UNL     1      56.931   0.940   5.284  1.00  0.00     0.293 HD
ENDBRANCH  14  20
ENDBRANCH   1  12
BRANCH   2  22
ATOM     22  O   UNL     1      52.225   3.648   9.337  1.00  0.00    -0.502 OA
ATOM     23  H   UNL     1      52.802   3.555  10.164  1.00  0.00     0.293 HD
ENDBRANCH   2  22
BRANCH   6  24
ATOM     24  O   UNL     1      49.192   7.998   9.831  1.00  0.00    -0.507 OA
ATOM     25  H   UNL     1      48.814   8.819  10.277  1.00  0.00     0.293 HD
ENDBRANCH   6  24
BRANCH   8  26
ATOM     26  O   UNL     1      50.445  10.381   5.875  1.00  0.00    -0.508 OA
ATOM     27  H   UNL     1      50.347  11.311   6.265  1.00  0.00     0.293 HD
ENDBRANCH   8  26
TORSDOF 6
ENDMDL
MODEL 8
REMARK VINA RESULT:    -5.222      3.832      7.177
REMARK INTER + INTRA:          -6.717
REMARK INTER:                  -6.901
REMARK INTRA:                   0.185
REMARK UNBOUND:                -0.273
REMARK SMILES COc1cc(-c2oc3cc(O)cc(O)c3c(=O)c2O)ccc1O
REMARK SMILES IDX 6 1 18 2 16 3 17 4 15 5 13 6 12 7 10 8 9 9 8 10 7 11 5 12
REMARK SMILES IDX 3 13 22 14 4 15 21 16 20 17 2 18 1 19 23 20 19 22 14 24
REMARK SMILES IDX 11 26
REMARK H PARENT 23 21 19 23 14 25 11 27
REMARK Flexibility Score: inf
ROOT
ATOM      1  C   UNL     1      51.471   9.418   6.976  1.00  0.00     0.180 A 
ATOM      2  C   UNL     1      50.414   8.891   7.737  1.00  0.00     0.208 A 
ATOM      3  C   UNL     1      50.355   7.505   7.952  1.00  0.00     0.238 A 
ATOM      4  O   UNL     1      49.437   7.045   8.680  1.00  0.00    -0.285 OA
ATOM      5  C   UNL     1      51.344   6.662   7.391  1.00  0.00     0.111 A 
ATOM      6  C   UNL     1      51.360   5.239   7.511  1.00  0.00     0.134 A 
ATOM      7  C   UNL     1      52.458   4.518   7.026  1.00  0.00     0.093 A 
ATOM      8  C   UNL     1      53.508   5.159   6.368  1.00  0.00     0.123 A 
ATOM      9  C   UNL     1      53.473   6.543   6.193  1.00  0.00     0.094 A 
ATOM     10  C   UNL     1      52.409   7.294   6.697  1.00  0.00     0.146 A 
ATOM     11  O   UNL     1      52.420   8.610   6.518  1.00  0.00    -0.452 OA
ENDROOT
BRANCH   1  12
ATOM     12  C   UNL     1      51.587  10.866   6.685  1.00  0.00     0.025 A 
ATOM     13  C   UNL     1      52.931  12.884   6.367  1.00  0.00     0.161 A 
ATOM     14  C   UNL     1      51.757  13.629   6.185  1.00  0.00     0.157 A 
ATOM     15  C   UNL     1      52.840  11.501   6.625  1.00  0.00     0.062 A 
ATOM     16  C   UNL     1      50.508  13.001   6.267  1.00  0.00     0.051 A 
ATOM     17  C   UNL     1      50.423  11.632   6.523  1.00  0.00     0.016 A 
BRANCH  13  18
ATOM     18  O   UNL     1      54.164  13.551   6.288  1.00  0.00    -0.493 OA
ATOM     19  C   UNL     1      54.940  13.947   7.414  1.00  0.00     0.278 C 
ENDBRANCH  13  18
BRANCH  14  20
ATOM     20  O   UNL     1      51.841  14.995   5.926  1.00  0.00    -0.504 OA
ATOM     21  H   UNL     1      51.418  15.679   6.542  1.00  0.00     0.293 HD
ENDBRANCH  14  20
ENDBRANCH   1  12
BRANCH   2  22
ATOM     22  O   UNL     1      49.460   9.743   8.300  1.00  0.00    -0.502 OA
ATOM     23  H   UNL     1      49.629  10.731   8.443  1.00  0.00     0.293 HD
ENDBRANCH   2  22
BRANCH   6  24
ATOM     24  O   UNL     1      50.319   4.492   8.070  1.00  0.00    -0.507 OA
ATOM     25  H   UNL     1      49.345   4.598   7.833  1.00  0.00     0.293 HD
ENDBRANCH   6  24
BRANCH   8  26
ATOM     26  O   UNL     1      54.576   4.407   5.885  1.00  0.00    -0.508 OA
ATOM     27  H   UNL     1      54.450   3.716   5.154  1.00  0.00     0.293 HD
ENDBRANCH   8  26
TORSDOF 6
ENDMDL
MODEL 9
REMARK VINA RESULT:    -4.265      1.329      6.976
REMARK INTER + INTRA:          -5.536
REMARK INTER:                  -5.943
REMARK INTRA:                   0.407
REMARK UNBOUND:                -0.273
REMARK SMILES COc1cc(-c2oc3cc(O)cc(O)c3c(=O)c2O)ccc1O
REMARK SMILES IDX 6 1 18 2 16 3 17 4 15 5 13 6 12 7 10 8 9 9 8 10 7 11 5 12
REMARK SMILES IDX 3 13 22 14 4 15 21 16 20 17 2 18 1 19 23 20 19 22 14 24
REMARK SMILES IDX 11 26
REMARK H PARENT 23 21 19 23 14 25 11 27
REMARK Flexibility Score: inf
ROOT
ATOM      1  C   UNL     1      54.547   3.587   6.646  1.00  0.00     0.180 A 
ATOM      2  C   UNL     1      55.231   4.799   6.455  1.00  0.00     0.208 A 
ATOM      3  C   UNL     1      54.510   6.003   6.500  1.00  0.00     0.238 A 
ATOM      4  O   UNL     1      55.137   7.088   6.383  1.00  0.00    -0.285 OA
ATOM      5  C   UNL     1      53.111   5.978   6.719  1.00  0.00     0.111 A 
ATOM      6  C   UNL     1      52.274   7.135   6.744  1.00  0.00     0.134 A 
ATOM      7  C   UNL     1      50.926   7.003   7.099  1.00  0.00     0.093 A 
ATOM      8  C   UNL     1      50.369   5.753   7.366  1.00  0.00     0.123 A 
ATOM      9  C   UNL     1      51.165   4.609   7.286  1.00  0.00     0.094 A 
ATOM     10  C   UNL     1      52.522   4.711   6.970  1.00  0.00     0.146 A 
ATOM     11  O   UNL     1      53.246   3.600   6.914  1.00  0.00    -0.452 OA
ENDROOT
BRANCH   1  12
ATOM     12  C   UNL     1      55.235   2.277   6.587  1.00  0.00     0.025 A 
ATOM     13  C   UNL     1      57.233   0.925   6.188  1.00  0.00     0.161 A 
ATOM     14  C   UNL     1      56.488  -0.237   6.433  1.00  0.00     0.157 A 
ATOM     15  C   UNL     1      56.599   2.181   6.259  1.00  0.00     0.062 A 
ATOM     16  C   UNL     1      55.124  -0.144   6.738  1.00  0.00     0.051 A 
ATOM     17  C   UNL     1      54.500   1.102   6.806  1.00  0.00     0.016 A 
BRANCH  13  18
ATOM     18  O   UNL     1      58.595   0.791   5.875  1.00  0.00    -0.493 OA
ATOM     19  C   UNL     1      59.547   1.847   5.946  1.00  0.00     0.278 C 
ENDBRANCH  13  18
BRANCH  14  20
ATOM     20  O   UNL     1      57.110  -1.482   6.368  1.00  0.00    -0.504 OA
ATOM     21  H   UNL     1      56.915  -2.134   5.618  1.00  0.00     0.293 HD
ENDBRANCH  14  20
ENDBRANCH   1  12
BRANCH   2  22
ATOM     22  O   UNL     1      56.615   4.802   6.262  1.00  0.00    -0.502 OA
ATOM     23  H   UNL     1      57.258   5.205   6.933  1.00  0.00     0.293 HD
ENDBRANCH   2  22
BRANCH   6  24
ATOM     24  O   UNL     1      52.708   8.419   6.404  1.00  0.00    -0.507 OA
ATOM     25  H   UNL     1      53.606   8.634   5.999  1.00  0.00     0.293 HD
ENDBRANCH   6  24
BRANCH   8  26
ATOM     26  O   UNL     1      49.021   5.659   7.700  1.00  0.00    -0.508 OA
ATOM     27  H   UNL     1      48.670   4.905   8.281  1.00  0.00     0.293 HD
ENDBRANCH   8  26
TORSDOF 6
ENDMDL
