MODEL 1
REMARK VINA RESULT:    -6.697      0.000      0.000
REMARK INTER + INTRA:          -8.185
REMARK INTER:                  -7.871
REMARK INTRA:                  -0.314
REMARK UNBOUND:                -0.314
REMARK SMILES O=c1cc(-c2ccc(O)c(O)c2)oc2cc(O)cc(O)c12
REMARK SMILES IDX 4 1 3 2 2 3 1 4 21 5 19 6 18 7 16 8 15 9 14 10 13 11 5 12
REMARK SMILES IDX 6 13 7 14 8 15 12 16 10 17 9 18 11 20 20 22 17 24
REMARK H PARENT 9 19 11 21 20 23 17 25
REMARK Flexibility Score: inf
ROOT
ATOM      1  C   UNL     1      46.694  -2.381   0.949  1.00  0.00     0.138 A 
ATOM      2  C   UNL     1      46.133  -1.291   1.628  1.00  0.00     0.100 A 
ATOM      3  C   UNL     1      44.757  -1.068   1.557  1.00  0.00     0.197 A 
ATOM      4  O   UNL     1      44.291  -0.047   2.125  1.00  0.00    -0.289 OA
ATOM      5  C   UNL     1      43.936  -1.962   0.828  1.00  0.00     0.107 A 
ATOM      6  C   UNL     1      42.517  -1.857   0.721  1.00  0.00     0.134 A 
ATOM      7  C   UNL     1      41.823  -2.733  -0.124  1.00  0.00     0.093 A 
ATOM      8  C   UNL     1      42.490  -3.747  -0.816  1.00  0.00     0.123 A 
ATOM      9  C   UNL     1      43.868  -3.890  -0.675  1.00  0.00     0.094 A 
ATOM     10  C   UNL     1      44.593  -3.012   0.132  1.00  0.00     0.146 A 
ATOM     11  O   UNL     1      45.909  -3.174   0.227  1.00  0.00    -0.456 OA
ENDROOT
BRANCH   1  12
ATOM     12  C   UNL     1      48.151  -2.666   0.991  1.00  0.00     0.021 A 
ATOM     13  C   UNL     1      49.079  -1.704   1.429  1.00  0.00     0.016 A 
ATOM     14  C   UNL     1      50.442  -2.003   1.467  1.00  0.00     0.051 A 
ATOM     15  C   UNL     1      50.910  -3.262   1.080  1.00  0.00     0.157 A 
ATOM     16  C   UNL     1      48.621  -3.935   0.615  1.00  0.00     0.062 A 
ATOM     17  C   UNL     1      49.986  -4.243   0.650  1.00  0.00     0.158 A 
BRANCH  15  18
ATOM     18  O   UNL     1      52.285  -3.494   1.139  1.00  0.00    -0.504 OA
ATOM     19  H   UNL     1      52.734  -4.327   0.783  1.00  0.00     0.293 HD
ENDBRANCH  15  18
BRANCH  17  20
ATOM     20  O   UNL     1      50.376  -5.523   0.254  1.00  0.00    -0.504 OA
ATOM     21  H   UNL     1      50.165  -5.925  -0.649  1.00  0.00     0.293 HD
ENDBRANCH  17  20
ENDBRANCH   1  12
BRANCH   6  22
ATOM     22  O   UNL     1      41.745  -0.936   1.435  1.00  0.00    -0.507 OA
ATOM     23  H   UNL     1      42.114  -0.243   2.068  1.00  0.00     0.293 HD
ENDBRANCH   6  22
BRANCH   8  24
ATOM     24  O   UNL     1      41.789  -4.623  -1.642  1.00  0.00    -0.508 OA
ATOM     25  H   UNL     1      40.789  -4.757  -1.545  1.00  0.00     0.293 HD
ENDBRANCH   8  24
TORSDOF 5
ENDMDL
MODEL 2
REMARK VINA RESULT:    -6.655      1.920      7.051
REMARK INTER + INTRA:          -8.136
REMARK INTER:                  -7.829
REMARK INTRA:                  -0.307
REMARK UNBOUND:                -0.314
REMARK SMILES O=c1cc(-c2ccc(O)c(O)c2)oc2cc(O)cc(O)c12
REMARK SMILES IDX 4 1 3 2 2 3 1 4 21 5 19 6 18 7 16 8 15 9 14 10 13 11 5 12
REMARK SMILES IDX 6 13 7 14 8 15 12 16 10 17 9 18 11 20 20 22 17 24
REMARK H PARENT 9 19 11 21 20 23 17 25
REMARK Flexibility Score: inf
ROOT
ATOM      1  C   UNL     1      44.861  -1.910   0.257  1.00  0.00     0.138 A 
ATOM      2  C   UNL     1      44.565  -2.889  -0.702  1.00  0.00     0.100 A 
ATOM      3  C   UNL     1      45.545  -3.809  -1.075  1.00  0.00     0.197 A 
ATOM      4  O   UNL     1      45.270  -4.635  -1.982  1.00  0.00    -0.289 OA
ATOM      5  C   UNL     1      46.820  -3.767  -0.460  1.00  0.00     0.107 A 
ATOM      6  C   UNL     1      47.883  -4.679  -0.732  1.00  0.00     0.134 A 
ATOM      7  C   UNL     1      49.138  -4.469  -0.147  1.00  0.00     0.093 A 
ATOM      8  C   UNL     1      49.351  -3.416   0.745  1.00  0.00     0.123 A 
ATOM      9  C   UNL     1      48.304  -2.552   1.058  1.00  0.00     0.094 A 
ATOM     10  C   UNL     1      47.050  -2.714   0.465  1.00  0.00     0.146 A 
ATOM     11  O   UNL     1      46.083  -1.859   0.779  1.00  0.00    -0.456 OA
ENDROOT
BRANCH   1  12
ATOM     12  C   UNL     1      43.856  -0.908   0.692  1.00  0.00     0.021 A 
ATOM     13  C   UNL     1      42.480  -1.195   0.693  1.00  0.00     0.016 A 
ATOM     14  C   UNL     1      41.557  -0.237   1.116  1.00  0.00     0.051 A 
ATOM     15  C   UNL     1      41.982   1.022   1.554  1.00  0.00     0.157 A 
ATOM     16  C   UNL     1      44.283   0.351   1.144  1.00  0.00     0.062 A 
ATOM     17  C   UNL     1      43.365   1.319   1.571  1.00  0.00     0.158 A 
BRANCH  15  18
ATOM     18  O   UNL     1      41.008   1.935   1.960  1.00  0.00    -0.504 OA
ATOM     19  H   UNL     1      41.128   2.938   1.937  1.00  0.00     0.293 HD
ENDBRANCH  15  18
BRANCH  17  20
ATOM     20  O   UNL     1      43.866   2.550   1.998  1.00  0.00    -0.504 OA
ATOM     21  H   UNL     1      43.378   3.427   1.889  1.00  0.00     0.293 HD
ENDBRANCH  17  20
ENDBRANCH   1  12
BRANCH   6  22
ATOM     22  O   UNL     1      47.753  -5.813  -1.540  1.00  0.00    -0.507 OA
ATOM     23  H   UNL     1      48.044  -5.870  -2.504  1.00  0.00     0.293 HD
ENDBRANCH   6  22
BRANCH   8  24
ATOM     24  O   UNL     1      50.599  -3.223   1.333  1.00  0.00    -0.508 OA
ATOM     25  H   UNL     1      51.368  -2.806   0.821  1.00  0.00     0.293 HD
ENDBRANCH   8  24
TORSDOF 5
ENDMDL
MODEL 3
REMARK VINA RESULT:    -6.646      1.951      3.535
REMARK INTER + INTRA:          -8.125
REMARK INTER:                  -7.836
REMARK INTRA:                  -0.290
REMARK UNBOUND:                -0.314
REMARK SMILES O=c1cc(-c2ccc(O)c(O)c2)oc2cc(O)cc(O)c12
REMARK SMILES IDX 4 1 3 2 2 3 1 4 21 5 19 6 18 7 16 8 15 9 14 10 13 11 5 12
REMARK SMILES IDX 6 13 7 14 8 15 12 16 10 17 9 18 11 20 20 22 17 24
REMARK H PARENT 9 19 11 21 20 23 17 25
REMARK Flexibility Score: inf
ROOT
ATOM      1  C   UNL     1      45.076  -2.431   0.224  1.00  0.00     0.138 A 
ATOM      2  C   UNL     1      43.886  -3.109  -0.071  1.00  0.00     0.100 A 
ATOM      3  C   UNL     1      42.667  -2.435   0.017  1.00  0.00     0.197 A 
ATOM      4  O   UNL     1      41.612  -3.086  -0.193  1.00  0.00    -0.289 OA
ATOM      5  C   UNL     1      42.645  -1.064   0.371  1.00  0.00     0.107 A 
ATOM      6  C   UNL     1      41.466  -0.265   0.451  1.00  0.00     0.134 A 
ATOM      7  C   UNL     1      41.555   1.049   0.926  1.00  0.00     0.093 A 
ATOM      8  C   UNL     1      42.788   1.612   1.264  1.00  0.00     0.123 A 
ATOM      9  C   UNL     1      43.952   0.857   1.136  1.00  0.00     0.094 A 
ATOM     10  C   UNL     1      43.892  -0.468   0.700  1.00  0.00     0.146 A 
ATOM     11  O   UNL     1      45.024  -1.159   0.607  1.00  0.00    -0.456 OA
ENDROOT
BRANCH   1  12
ATOM     12  C   UNL     1      46.400  -3.099   0.145  1.00  0.00     0.021 A 
ATOM     13  C   UNL     1      47.507  -2.632   0.876  1.00  0.00     0.016 A 
ATOM     14  C   UNL     1      48.737  -3.285   0.791  1.00  0.00     0.051 A 
ATOM     15  C   UNL     1      48.892  -4.418  -0.015  1.00  0.00     0.157 A 
ATOM     16  C   UNL     1      46.553  -4.244  -0.653  1.00  0.00     0.062 A 
ATOM     17  C   UNL     1      47.783  -4.906  -0.745  1.00  0.00     0.158 A 
BRANCH  15  18
ATOM     18  O   UNL     1      50.150  -5.022  -0.058  1.00  0.00    -0.504 OA
ATOM     19  H   UNL     1      50.503  -5.535  -0.853  1.00  0.00     0.293 HD
ENDBRANCH  15  18
BRANCH  17  20
ATOM     20  O   UNL     1      47.858  -6.032  -1.566  1.00  0.00    -0.504 OA
ATOM     21  H   UNL     1      47.769  -6.006  -2.572  1.00  0.00     0.293 HD
ENDBRANCH  17  20
ENDBRANCH   1  12
BRANCH   6  22
ATOM     22  O   UNL     1      40.197  -0.702   0.058  1.00  0.00    -0.507 OA
ATOM     23  H   UNL     1      39.332  -0.235   0.281  1.00  0.00     0.293 HD
ENDBRANCH   6  22
BRANCH   8  24
ATOM     24  O   UNL     1      42.869   2.926   1.720  1.00  0.00    -0.508 OA
ATOM     25  H   UNL     1      43.396   3.167   2.552  1.00  0.00     0.293 HD
ENDBRANCH   8  24
TORSDOF 5
ENDMDL
MODEL 4
REMARK VINA RESULT:    -6.564      1.672      7.326
REMARK INTER + INTRA:          -8.029
REMARK INTER:                  -7.736
REMARK INTRA:                  -0.293
REMARK UNBOUND:                -0.314
REMARK SMILES O=c1cc(-c2ccc(O)c(O)c2)oc2cc(O)cc(O)c12
REMARK SMILES IDX 4 1 3 2 2 3 1 4 21 5 19 6 18 7 16 8 15 9 14 10 13 11 5 12
REMARK SMILES IDX 6 13 7 14 8 15 12 16 10 17 9 18 11 20 20 22 17 24
REMARK H PARENT 9 19 11 21 20 23 17 25
REMARK Flexibility Score: inf
ROOT
ATOM      1  C   UNL     1      45.882  -3.171   0.486  1.00  0.00     0.138 A 
ATOM      2  C   UNL     1      46.155  -4.464   0.019  1.00  0.00     0.100 A 
ATOM      3  C   UNL     1      47.472  -4.925  -0.006  1.00  0.00     0.197 A 
ATOM      4  O   UNL     1      47.692  -6.066  -0.488  1.00  0.00    -0.289 OA
ATOM      5  C   UNL     1      48.517  -4.098   0.471  1.00  0.00     0.107 A 
ATOM      6  C   UNL     1      49.890  -4.478   0.533  1.00  0.00     0.134 A 
ATOM      7  C   UNL     1      50.851  -3.533   0.915  1.00  0.00     0.093 A 
ATOM      8  C   UNL     1      50.481  -2.241   1.295  1.00  0.00     0.123 A 
ATOM      9  C   UNL     1      49.135  -1.877   1.290  1.00  0.00     0.094 A 
ATOM     10  C   UNL     1      48.157  -2.786   0.881  1.00  0.00     0.146 A 
ATOM     11  O   UNL     1      46.888  -2.394   0.876  1.00  0.00    -0.456 OA
ENDROOT
BRANCH   1  12
ATOM     12  C   UNL     1      44.500  -2.629   0.534  1.00  0.00     0.021 A 
ATOM     13  C   UNL     1      43.433  -3.377   1.061  1.00  0.00     0.016 A 
ATOM     14  C   UNL     1      42.146  -2.839   1.103  1.00  0.00     0.051 A 
ATOM     15  C   UNL     1      41.893  -1.547   0.630  1.00  0.00     0.157 A 
ATOM     16  C   UNL     1      44.250  -1.327   0.071  1.00  0.00     0.062 A 
ATOM     17  C   UNL     1      42.962  -0.779   0.109  1.00  0.00     0.158 A 
BRANCH  15  18
ATOM     18  O   UNL     1      40.583  -1.071   0.698  1.00  0.00    -0.504 OA
ATOM     19  H   UNL     1      40.273  -0.360   1.346  1.00  0.00     0.293 HD
ENDBRANCH  15  18
BRANCH  17  20
ATOM     20  O   UNL     1      42.790   0.518  -0.377  1.00  0.00    -0.504 OA
ATOM     21  H   UNL     1      43.525   1.064  -0.802  1.00  0.00     0.293 HD
ENDBRANCH  17  20
ENDBRANCH   1  12
BRANCH   6  22
ATOM     22  O   UNL     1      50.357  -5.767   0.256  1.00  0.00    -0.507 OA
ATOM     23  H   UNL     1      49.811  -6.609   0.345  1.00  0.00     0.293 HD
ENDBRANCH   6  22
BRANCH   8  24
ATOM     24  O   UNL     1      51.442  -1.312   1.688  1.00  0.00    -0.508 OA
ATOM     25  H   UNL     1      51.965  -0.772   1.009  1.00  0.00     0.293 HD
ENDBRANCH   8  24
TORSDOF 5
ENDMDL
MODEL 5
REMARK VINA RESULT:    -6.411      1.579      3.268
REMARK INTER + INTRA:          -7.850
REMARK INTER:                  -7.570
REMARK INTRA:                  -0.280
REMARK UNBOUND:                -0.314
REMARK SMILES O=c1cc(-c2ccc(O)c(O)c2)oc2cc(O)cc(O)c12
REMARK SMILES IDX 4 1 3 2 2 3 1 4 21 5 19 6 18 7 16 8 15 9 14 10 13 11 5 12
REMARK SMILES IDX 6 13 7 14 8 15 12 16 10 17 9 18 11 20 20 22 17 24
REMARK H PARENT 9 19 11 21 20 23 17 25
REMARK Flexibility Score: inf
ROOT
ATOM      1  C   UNL     1      47.948  -2.985   0.577  1.00  0.00     0.138 A 
ATOM      2  C   UNL     1      47.401  -3.873  -0.360  1.00  0.00     0.100 A 
ATOM      3  C   UNL     1      46.051  -3.772  -0.699  1.00  0.00     0.197 A 
ATOM      4  O   UNL     1      45.574  -4.622  -1.495  1.00  0.00    -0.289 OA
ATOM      5  C   UNL     1      45.253  -2.756  -0.120  1.00  0.00     0.107 A 
ATOM      6  C   UNL     1      43.877  -2.533  -0.421  1.00  0.00     0.134 A 
ATOM      7  C   UNL     1      43.160  -1.570   0.301  1.00  0.00     0.093 A 
ATOM      8  C   UNL     1      43.785  -0.783   1.270  1.00  0.00     0.123 A 
ATOM      9  C   UNL     1      45.143  -0.956   1.533  1.00  0.00     0.094 A 
ATOM     10  C   UNL     1      45.876  -1.931   0.855  1.00  0.00     0.146 A 
ATOM     11  O   UNL     1      47.165  -2.075   1.147  1.00  0.00    -0.456 OA
ENDROOT
BRANCH   1  12
ATOM     12  C   UNL     1      49.378  -3.046   0.973  1.00  0.00     0.021 A 
ATOM     13  C   UNL     1      49.947  -4.217   1.504  1.00  0.00     0.016 A 
ATOM     14  C   UNL     1      51.297  -4.249   1.859  1.00  0.00     0.051 A 
ATOM     15  C   UNL     1      52.109  -3.124   1.688  1.00  0.00     0.157 A 
ATOM     16  C   UNL     1      50.197  -1.921   0.789  1.00  0.00     0.062 A 
ATOM     17  C   UNL     1      51.552  -1.943   1.142  1.00  0.00     0.158 A 
BRANCH  15  18
ATOM     18  O   UNL     1      53.449  -3.222   2.066  1.00  0.00    -0.504 OA
ATOM     19  H   UNL     1      53.994  -2.448   2.420  1.00  0.00     0.293 HD
ENDBRANCH  15  18
BRANCH  17  20
ATOM     20  O   UNL     1      52.299  -0.783   0.937  1.00  0.00    -0.504 OA
ATOM     21  H   UNL     1      52.285   0.016   1.555  1.00  0.00     0.293 HD
ENDBRANCH  17  20
ENDBRANCH   1  12
BRANCH   6  22
ATOM     22  O   UNL     1      43.179  -3.205  -1.429  1.00  0.00    -0.507 OA
ATOM     23  H   UNL     1      42.237  -3.554  -1.343  1.00  0.00     0.293 HD
ENDBRANCH   6  22
BRANCH   8  24
ATOM     24  O   UNL     1      43.068   0.183   1.973  1.00  0.00    -0.508 OA
ATOM     25  H   UNL     1      42.274  -0.064   2.552  1.00  0.00     0.293 HD
ENDBRANCH   8  24
TORSDOF 5
ENDMDL
MODEL 6
REMARK VINA RESULT:    -6.336     10.988     12.627
REMARK INTER + INTRA:          -7.761
REMARK INTER:                  -7.470
REMARK INTRA:                  -0.291
REMARK UNBOUND:                -0.314
REMARK SMILES O=c1cc(-c2ccc(O)c(O)c2)oc2cc(O)cc(O)c12
REMARK SMILES IDX 4 1 3 2 2 3 1 4 21 5 19 6 18 7 16 8 15 9 14 10 13 11 5 12
REMARK SMILES IDX 6 13 7 14 8 15 12 16 10 17 9 18 11 20 20 22 17 24
REMARK H PARENT 9 19 11 21 20 23 17 25
REMARK Flexibility Score: inf
ROOT
ATOM      1  C   UNL     1      55.204   1.619  -5.665  1.00  0.00     0.138 A 
ATOM      2  C   UNL     1      55.198   2.985  -5.355  1.00  0.00     0.100 A 
ATOM      3  C   UNL     1      54.847   3.914  -6.335  1.00  0.00     0.197 A 
ATOM      4  O   UNL     1      54.911   5.137  -6.044  1.00  0.00    -0.289 OA
ATOM      5  C   UNL     1      54.470   3.469  -7.625  1.00  0.00     0.107 A 
ATOM      6  C   UNL     1      54.055   4.322  -8.689  1.00  0.00     0.134 A 
ATOM      7  C   UNL     1      53.817   3.776  -9.957  1.00  0.00     0.093 A 
ATOM      8  C   UNL     1      53.921   2.402 -10.182  1.00  0.00     0.123 A 
ATOM      9  C   UNL     1      54.273   1.554  -9.134  1.00  0.00     0.094 A 
ATOM     10  C   UNL     1      54.551   2.071  -7.868  1.00  0.00     0.146 A 
ATOM     11  O   UNL     1      54.898   1.230  -6.899  1.00  0.00    -0.456 OA
ENDROOT
BRANCH   1  12
ATOM     12  C   UNL     1      55.567   0.587  -4.661  1.00  0.00     0.021 A 
ATOM     13  C   UNL     1      55.991  -0.698  -5.043  1.00  0.00     0.016 A 
ATOM     14  C   UNL     1      56.335  -1.645  -4.077  1.00  0.00     0.051 A 
ATOM     15  C   UNL     1      56.274  -1.334  -2.715  1.00  0.00     0.157 A 
ATOM     16  C   UNL     1      55.518   0.903  -3.293  1.00  0.00     0.062 A 
ATOM     17  C   UNL     1      55.862  -0.040  -2.318  1.00  0.00     0.158 A 
BRANCH  15  18
ATOM     18  O   UNL     1      56.629  -2.328  -1.801  1.00  0.00    -0.504 OA
ATOM     19  H   UNL     1      57.506  -2.348  -1.301  1.00  0.00     0.293 HD
ENDBRANCH  15  18
BRANCH  17  20
ATOM     20  O   UNL     1      55.780   0.347  -0.979  1.00  0.00    -0.504 OA
ATOM     21  H   UNL     1      56.361  -0.032  -0.245  1.00  0.00     0.293 HD
ENDBRANCH  17  20
ENDBRANCH   1  12
BRANCH   6  22
ATOM     22  O   UNL     1      53.837   5.696  -8.551  1.00  0.00    -0.507 OA
ATOM     23  H   UNL     1      54.561   6.382  -8.403  1.00  0.00     0.293 HD
ENDBRANCH   6  22
BRANCH   8  24
ATOM     24  O   UNL     1      53.667   1.866 -11.443  1.00  0.00    -0.508 OA
ATOM     25  H   UNL     1      53.539   2.459 -12.255  1.00  0.00     0.293 HD
ENDBRANCH   8  24
TORSDOF 5
ENDMDL
MODEL 7
REMARK VINA RESULT:    -6.291      4.080      7.937
REMARK INTER + INTRA:          -7.708
REMARK INTER:                  -7.416
REMARK INTRA:                  -0.293
REMARK UNBOUND:                -0.314
REMARK SMILES O=c1cc(-c2ccc(O)c(O)c2)oc2cc(O)cc(O)c12
REMARK SMILES IDX 4 1 3 2 2 3 1 4 21 5 19 6 18 7 16 8 15 9 14 10 13 11 5 12
REMARK SMILES IDX 6 13 7 14 8 15 12 16 10 17 9 18 11 20 20 22 17 24
REMARK H PARENT 9 19 11 21 20 23 17 25
REMARK Flexibility Score: inf
ROOT
ATOM      1  C   UNL     1      42.224   1.299   0.912  1.00  0.00     0.138 A 
ATOM      2  C   UNL     1      41.108   0.534   0.548  1.00  0.00     0.100 A 
ATOM      3  C   UNL     1      41.262  -0.826   0.275  1.00  0.00     0.197 A 
ATOM      4  O   UNL     1      40.254  -1.472  -0.109  1.00  0.00    -0.289 OA
ATOM      5  C   UNL     1      42.538  -1.428   0.399  1.00  0.00     0.107 A 
ATOM      6  C   UNL     1      42.806  -2.813   0.186  1.00  0.00     0.134 A 
ATOM      7  C   UNL     1      44.128  -3.272   0.223  1.00  0.00     0.093 A 
ATOM      8  C   UNL     1      45.184  -2.409   0.525  1.00  0.00     0.123 A 
ATOM      9  C   UNL     1      44.925  -1.066   0.789  1.00  0.00     0.094 A 
ATOM     10  C   UNL     1      43.622  -0.570   0.725  1.00  0.00     0.146 A 
ATOM     11  O   UNL     1      43.420   0.721   0.967  1.00  0.00    -0.456 OA
ENDROOT
BRANCH   1  12
ATOM     12  C   UNL     1      42.117   2.749   1.214  1.00  0.00     0.021 A 
ATOM     13  C   UNL     1      43.152   3.447   1.862  1.00  0.00     0.016 A 
ATOM     14  C   UNL     1      43.028   4.812   2.125  1.00  0.00     0.051 A 
ATOM     15  C   UNL     1      41.879   5.513   1.745  1.00  0.00     0.157 A 
ATOM     16  C   UNL     1      40.969   3.456   0.821  1.00  0.00     0.062 A 
ATOM     17  C   UNL     1      40.836   4.826   1.081  1.00  0.00     0.158 A 
BRANCH  15  18
ATOM     18  O   UNL     1      41.818   6.875   2.041  1.00  0.00    -0.504 OA
ATOM     19  H   UNL     1      42.616   7.495   2.019  1.00  0.00     0.293 HD
ENDBRANCH  15  18
BRANCH  17  20
ATOM     20  O   UNL     1      39.662   5.457   0.667  1.00  0.00    -0.504 OA
ATOM     21  H   UNL     1      39.604   6.433   0.416  1.00  0.00     0.293 HD
ENDBRANCH  17  20
ENDBRANCH   1  12
BRANCH   6  22
ATOM     22  O   UNL     1      41.817  -3.775  -0.040  1.00  0.00    -0.507 OA
ATOM     23  H   UNL     1      41.511  -4.456   0.637  1.00  0.00     0.293 HD
ENDBRANCH   6  22
BRANCH   8  24
ATOM     24  O   UNL     1      46.495  -2.879   0.576  1.00  0.00    -0.508 OA
ATOM     25  H   UNL     1      47.286  -2.252   0.486  1.00  0.00     0.293 HD
ENDBRANCH   8  24
TORSDOF 5
ENDMDL
MODEL 8
REMARK VINA RESULT:    -6.048      3.400      7.254
REMARK INTER + INTRA:          -7.423
REMARK INTER:                  -7.105
REMARK INTRA:                  -0.318
REMARK UNBOUND:                -0.314
REMARK SMILES O=c1cc(-c2ccc(O)c(O)c2)oc2cc(O)cc(O)c12
REMARK SMILES IDX 4 1 3 2 2 3 1 4 21 5 19 6 18 7 16 8 15 9 14 10 13 11 5 12
REMARK SMILES IDX 6 13 7 14 8 15 12 16 10 17 9 18 11 20 20 22 17 24
REMARK H PARENT 9 19 11 21 20 23 17 25
REMARK Flexibility Score: inf
ROOT
ATOM      1  C   UNL     1      43.112   0.503   0.999  1.00  0.00     0.138 A 
ATOM      2  C   UNL     1      44.352   0.119   1.528  1.00  0.00     0.100 A 
ATOM      3  C   UNL     1      44.826  -1.174   1.306  1.00  0.00     0.197 A 
ATOM      4  O   UNL     1      45.912  -1.508   1.845  1.00  0.00    -0.289 OA
ATOM      5  C   UNL     1      44.068  -2.077   0.523  1.00  0.00     0.107 A 
ATOM      6  C   UNL     1      44.471  -3.405   0.196  1.00  0.00     0.134 A 
ATOM      7  C   UNL     1      43.585  -4.246  -0.489  1.00  0.00     0.093 A 
ATOM      8  C   UNL     1      42.336  -3.787  -0.912  1.00  0.00     0.123 A 
ATOM      9  C   UNL     1      41.955  -2.473  -0.645  1.00  0.00     0.094 A 
ATOM     10  C   UNL     1      42.802  -1.621   0.066  1.00  0.00     0.146 A 
ATOM     11  O   UNL     1      42.394  -0.381   0.313  1.00  0.00    -0.456 OA
ENDROOT
BRANCH   1  12
ATOM     12  C   UNL     1      42.560   1.867   1.204  1.00  0.00     0.021 A 
ATOM     13  C   UNL     1      43.246   2.836   1.957  1.00  0.00     0.016 A 
ATOM     14  C   UNL     1      42.707   4.112   2.125  1.00  0.00     0.051 A 
ATOM     15  C   UNL     1      41.483   4.456   1.543  1.00  0.00     0.157 A 
ATOM     16  C   UNL     1      41.336   2.216   0.609  1.00  0.00     0.062 A 
ATOM     17  C   UNL     1      40.788   3.494   0.772  1.00  0.00     0.158 A 
BRANCH  15  18
ATOM     18  O   UNL     1      40.999   5.748   1.753  1.00  0.00    -0.504 OA
ATOM     19  H   UNL     1      40.550   6.052   2.605  1.00  0.00     0.293 HD
ENDBRANCH  15  18
BRANCH  17  20
ATOM     20  O   UNL     1      39.564   3.763   0.157  1.00  0.00    -0.504 OA
ATOM     21  H   UNL     1      39.269   4.683  -0.136  1.00  0.00     0.293 HD
ENDBRANCH  17  20
ENDBRANCH   1  12
BRANCH   6  22
ATOM     22  O   UNL     1      45.729  -3.936   0.496  1.00  0.00    -0.507 OA
ATOM     23  H   UNL     1      46.237  -3.769   1.351  1.00  0.00     0.293 HD
ENDBRANCH   6  22
BRANCH   8  24
ATOM     24  O   UNL     1      41.467  -4.626  -1.607  1.00  0.00    -0.508 OA
ATOM     25  H   UNL     1      40.689  -4.257  -2.142  1.00  0.00     0.293 HD
ENDBRANCH   8  24
TORSDOF 5
ENDMDL
MODEL 9
REMARK VINA RESULT:    -5.978      2.476      4.683
REMARK INTER + INTRA:          -7.340
REMARK INTER:                  -7.034
REMARK INTRA:                  -0.306
REMARK UNBOUND:                -0.314
REMARK SMILES O=c1cc(-c2ccc(O)c(O)c2)oc2cc(O)cc(O)c12
REMARK SMILES IDX 4 1 3 2 2 3 1 4 21 5 19 6 18 7 16 8 15 9 14 10 13 11 5 12
REMARK SMILES IDX 6 13 7 14 8 15 12 16 10 17 9 18 11 20 20 22 17 24
REMARK H PARENT 9 19 11 21 20 23 17 25
REMARK Flexibility Score: inf
ROOT
ATOM      1  C   UNL     1      43.836  -1.721   0.318  1.00  0.00     0.138 A 
ATOM      2  C   UNL     1      42.493  -2.121   0.305  1.00  0.00     0.100 A 
ATOM      3  C   UNL     1      41.496  -1.204   0.639  1.00  0.00     0.197 A 
ATOM      4  O   UNL     1      40.306  -1.609   0.679  1.00  0.00    -0.289 OA
ATOM      5  C   UNL     1      41.845   0.131   0.956  1.00  0.00     0.107 A 
ATOM      6  C   UNL     1      40.911   1.162   1.271  1.00  0.00     0.134 A 
ATOM      7  C   UNL     1      41.381   2.416   1.682  1.00  0.00     0.093 A 
ATOM      8  C   UNL     1      42.749   2.694   1.730  1.00  0.00     0.123 A 
ATOM      9  C   UNL     1      43.668   1.709   1.371  1.00  0.00     0.094 A 
ATOM     10  C   UNL     1      43.232   0.439   0.991  1.00  0.00     0.146 A 
ATOM     11  O   UNL     1      44.141  -0.476   0.672  1.00  0.00    -0.456 OA
ENDROOT
BRANCH   1  12
ATOM     12  C   UNL     1      44.937  -2.655  -0.030  1.00  0.00     0.021 A 
ATOM     13  C   UNL     1      44.759  -3.689  -0.966  1.00  0.00     0.016 A 
ATOM     14  C   UNL     1      45.814  -4.547  -1.281  1.00  0.00     0.051 A 
ATOM     15  C   UNL     1      47.067  -4.392  -0.679  1.00  0.00     0.157 A 
ATOM     16  C   UNL     1      46.198  -2.491   0.564  1.00  0.00     0.062 A 
ATOM     17  C   UNL     1      47.263  -3.347   0.255  1.00  0.00     0.158 A 
BRANCH  15  18
ATOM     18  O   UNL     1      48.078  -5.285  -1.036  1.00  0.00    -0.504 OA
ATOM     19  H   UNL     1      48.151  -5.723  -1.944  1.00  0.00     0.293 HD
ENDBRANCH  15  18
BRANCH  17  20
ATOM     20  O   UNL     1      48.485  -3.126   0.892  1.00  0.00    -0.504 OA
ATOM     21  H   UNL     1      49.370  -3.059   0.411  1.00  0.00     0.293 HD
ENDBRANCH  17  20
ENDBRANCH   1  12
BRANCH   6  22
ATOM     22  O   UNL     1      39.524   1.017   1.174  1.00  0.00    -0.507 OA
ATOM     23  H   UNL     1      39.055   0.215   0.782  1.00  0.00     0.293 HD
ENDBRANCH   6  22
BRANCH   8  24
ATOM     24  O   UNL     1      43.207   3.949   2.125  1.00  0.00    -0.508 OA
ATOM     25  H   UNL     1      43.795   4.065   2.943  1.00  0.00     0.293 HD
ENDBRANCH   8  24
TORSDOF 5
ENDMDL
