MODEL 1
REMARK VINA RESULT:     6.923      0.000      0.000
REMARK INTER + INTRA:          12.406
REMARK INTER:                   9.756
REMARK INTRA:                   2.649
REMARK UNBOUND:                 2.649
REMARK SMILES C=C(CC[C@H](C(=O)[O-])[C@H]1[C@H](O)C[C@]2(C)C3=C(CC[C@]12C)[C@@]1(C)CC[C@@H](O)C(C)(C)[C@H]1CC3)C(C)C
REMARK SMILES IDX 4 1 5 2 6 3 7 4 8 5 9 6 10 7 19 8 12 9 13 10 18 11 20 12
REMARK SMILES IDX 14 13 15 14 17 15 16 16 32 17 21 18 31 19 30 20 23 21 22 22
REMARK SMILES IDX 27 23 24 24 25 25 28 26 29 27 11 28 26 30 3 32 2 33 1 34
REMARK SMILES IDX 33 35 34 36 35 37
REMARK H PARENT 11 29 26 31
REMARK Flexibility Score: inf
ROOT
ATOM      1  C   UNL     1       4.778 -54.382 576.328  1.00  0.00     0.014 C 
ENDROOT
BRANCH   1   2
ATOM      2  C   UNL     1       5.582 -55.447 575.535  1.00  0.00     0.042 C 
BRANCH   2   3
ATOM      3  C   UNL     1       6.653 -56.031 576.434  1.00  0.00     0.045 C 
ATOM      4  O   UNL     1       7.162 -57.157 576.168  1.00  0.00    -0.550 OA
ATOM      5  O   UNL     1       7.064 -55.342 577.567  1.00  0.00    -0.550 OA
ENDBRANCH   2   3
BRANCH   2   6
ATOM      6  C   UNL     1       6.265 -54.868 574.244  1.00  0.00     0.033 C 
ATOM      7  C   UNL     1       5.537 -53.588 573.752  1.00  0.00     0.119 C 
ATOM      8  C   UNL     1       7.781 -54.444 574.284  1.00  0.00    -0.017 C 
ATOM      9  C   UNL     1       6.588 -52.666 573.133  1.00  0.00     0.043 C 
ATOM     10  C   UNL     1       7.896 -53.485 573.045  1.00  0.00    -0.003 C 
ATOM     11  C   UNL     1       8.810 -55.586 574.110  1.00  0.00     0.012 C 
ATOM     12  C   UNL     1       8.105 -53.729 575.627  1.00  0.00     0.013 C 
ATOM     13  C   UNL     1       9.125 -52.536 573.091  1.00  0.00     0.017 C 
ATOM     14  C   UNL     1       7.941 -54.266 571.700  1.00  0.00    -0.064 C 
ATOM     15  C   UNL     1       8.588 -56.411 572.857  1.00  0.00     0.032 C 
ATOM     16  C   UNL     1       8.284 -55.592 571.605  1.00  0.00    -0.064 C 
ATOM     17  C   UNL     1       7.660 -53.512 570.419  1.00  0.00     0.032 C 
ATOM     18  C   UNL     1       8.126 -56.361 570.254  1.00  0.00    -0.008 C 
ATOM     19  C   UNL     1       8.613 -53.963 569.324  1.00  0.00     0.009 C 
ATOM     20  C   UNL     1       8.397 -55.452 568.970  1.00  0.00     0.007 C 
ATOM     21  C   UNL     1       6.681 -56.920 570.239  1.00  0.00     0.014 C 
ATOM     22  C   UNL     1       9.125 -57.561 570.232  1.00  0.00     0.016 C 
ATOM     23  C   UNL     1       7.425 -55.684 567.727  1.00  0.00    -0.006 C 
ATOM     24  C   UNL     1       6.288 -57.665 568.952  1.00  0.00     0.033 C 
ATOM     25  C   UNL     1       6.995 -57.180 567.666  1.00  0.00     0.120 C 
ATOM     26  C   UNL     1       8.202 -55.360 566.419  1.00  0.00     0.014 C 
ATOM     27  C   UNL     1       6.155 -54.783 567.731  1.00  0.00     0.014 C 
BRANCH   7  28
ATOM     28  O   UNL     1       4.513 -53.889 572.838  1.00  0.00    -0.393 OA
ATOM     29  H   UNL     1       4.646 -53.333 572.027  1.00  0.00     0.210 HD
ENDBRANCH   7  28
BRANCH  25  30
ATOM     30  O   UNL     1       6.153 -57.410 566.560  1.00  0.00    -0.393 OA
ATOM     31  H   UNL     1       5.990 -56.528 566.129  1.00  0.00     0.210 HD
ENDBRANCH  25  30
ENDBRANCH   2   6
ENDBRANCH   1   2
BRANCH   1  32
ATOM     32  C   UNL     1       5.151 -54.293 577.825  1.00  0.00     0.031 C 
BRANCH  32  33
ATOM     33  C   UNL     1       5.067 -52.874 578.344  1.00  0.00    -0.075 C 
ATOM     34  C   UNL     1       3.886 -52.414 578.800  1.00  0.00     0.008 C 
BRANCH  33  35
ATOM     35  C   UNL     1       6.306 -51.990 578.328  1.00  0.00     0.008 C 
ATOM     36  C   UNL     1       7.520 -52.706 578.940  1.00  0.00     0.012 C 
ATOM     37  C   UNL     1       6.036 -50.658 579.037  1.00  0.00     0.012 C 
ENDBRANCH  33  35
ENDBRANCH  32  33
ENDBRANCH   1  32
TORSDOF 8
ENDMDL
