MODEL 1
REMARK VINA RESULT:    -4.234      0.000      0.000
REMARK INTER + INTRA:          -8.176
REMARK INTER:                  -6.462
REMARK INTRA:                  -1.714
REMARK UNBOUND:                -1.714
REMARK SMILES C=CCCCCCCCCCC
REMARK SMILES IDX 7 1 8 2 9 3 10 4 11 5 12 6 6 7 5 8 4 9 3 10 2 11 1 12
REMARK H PARENT
REMARK Flexibility Score: inf
ROOT
ATOM      1  C   UNL     1     110.804 111.607 109.515  1.00  0.00     0.000 C 
ENDROOT
BRANCH   1   2
ATOM      2  C   UNL     1     111.684 112.464 110.437  1.00  0.00    -0.000 C 
BRANCH   2   3
ATOM      3  C   UNL     1     112.811 111.659 111.108  1.00  0.00    -0.000 C 
BRANCH   3   4
ATOM      4  C   UNL     1     113.055 111.990 112.595  1.00  0.00    -0.000 C 
BRANCH   4   5
ATOM      5  C   UNL     1     113.245 110.768 113.509  1.00  0.00    -0.003 C 
ATOM      6  C   UNL     1     112.976 109.443 112.797  1.00  0.00     0.004 C 
ENDBRANCH   4   5
ENDBRANCH   3   4
ENDBRANCH   2   3
ENDBRANCH   1   2
BRANCH   1   7
ATOM      7  C   UNL     1     111.029 110.111 109.777  1.00  0.00     0.000 C 
BRANCH   7   8
ATOM      8  C   UNL     1     109.890 109.465 110.589  1.00  0.00     0.000 C 
BRANCH   8   9
ATOM      9  C   UNL     1     109.103 110.436 111.489  1.00  0.00     0.004 C 
BRANCH   9  10
ATOM     10  C   UNL     1     109.429 110.266 112.980  1.00  0.00     0.027 C 
BRANCH  10  11
ATOM     11  C   UNL     1     109.355 111.582 113.704  1.00  0.00    -0.035 C 
ATOM     12  C   UNL     1     109.216 112.739 113.047  1.00  0.00     0.004 C 
ENDBRANCH  10  11
ENDBRANCH   9  10
ENDBRANCH   8   9
ENDBRANCH   7   8
ENDBRANCH   1   7
TORSDOF 9
ENDMDL
MODEL 2
REMARK VINA RESULT:    -4.123      0.979      3.710
REMARK INTER + INTRA:          -8.006
REMARK INTER:                  -6.277
REMARK INTRA:                  -1.729
REMARK UNBOUND:                -1.714
REMARK SMILES C=CCCCCCCCCCC
REMARK SMILES IDX 7 1 8 2 9 3 10 4 11 5 12 6 6 7 5 8 4 9 3 10 2 11 1 12
REMARK H PARENT
REMARK Flexibility Score: inf
ROOT
ATOM      1  C   UNL     1     110.281 109.698 110.648  1.00  0.00     0.000 C 
ENDROOT
BRANCH   1   2
ATOM      2  C   UNL     1     109.479 110.255 111.834  1.00  0.00    -0.000 C 
BRANCH   2   3
ATOM      3  C   UNL     1     109.294 111.781 111.769  1.00  0.00    -0.000 C 
BRANCH   3   4
ATOM      4  C   UNL     1     109.382 112.509 113.126  1.00  0.00    -0.000 C 
BRANCH   4   5
ATOM      5  C   UNL     1     109.255 111.598 114.359  1.00  0.00    -0.003 C 
ATOM      6  C   UNL     1     109.977 112.151 115.587  1.00  0.00     0.004 C 
ENDBRANCH   4   5
ENDBRANCH   3   4
ENDBRANCH   2   3
ENDBRANCH   1   2
BRANCH   1   7
ATOM      7  C   UNL     1     111.111 110.804 109.981  1.00  0.00     0.000 C 
BRANCH   7   8
ATOM      8  C   UNL     1     112.598 110.763 110.381  1.00  0.00     0.000 C 
BRANCH   8   9
ATOM      9  C   UNL     1     113.088 111.983 111.183  1.00  0.00     0.004 C 
BRANCH   9  10
ATOM     10  C   UNL     1     112.948 111.794 112.701  1.00  0.00     0.027 C 
BRANCH  10  11
ATOM     11  C   UNL     1     113.151 110.356 113.090  1.00  0.00    -0.035 C 
ATOM     12  C   UNL     1     112.565 109.831 114.171  1.00  0.00     0.004 C 
ENDBRANCH  10  11
ENDBRANCH   9  10
ENDBRANCH   8   9
ENDBRANCH   7   8
ENDBRANCH   1   7
TORSDOF 9
ENDMDL
MODEL 3
REMARK VINA RESULT:    -4.120      1.278      4.562
REMARK INTER + INTRA:          -8.002
REMARK INTER:                  -6.341
REMARK INTRA:                  -1.661
REMARK UNBOUND:                -1.714
REMARK SMILES C=CCCCCCCCCCC
REMARK SMILES IDX 7 1 8 2 9 3 10 4 11 5 12 6 6 7 5 8 4 9 3 10 2 11 1 12
REMARK H PARENT
REMARK Flexibility Score: inf
ROOT
ATOM      1  C   UNL     1     109.871 111.126 114.834  1.00  0.00     0.000 C 
ENDROOT
BRANCH   1   2
ATOM      2  C   UNL     1     109.554 112.305 113.903  1.00  0.00    -0.000 C 
BRANCH   2   3
ATOM      3  C   UNL     1     109.263 111.866 112.458  1.00  0.00    -0.000 C 
BRANCH   3   4
ATOM      4  C   UNL     1     109.162 110.341 112.246  1.00  0.00    -0.000 C 
BRANCH   4   5
ATOM      5  C   UNL     1     109.097 109.894 110.776  1.00  0.00    -0.003 C 
ATOM      6  C   UNL     1     109.275 111.049 109.792  1.00  0.00     0.004 C 
ENDBRANCH   4   5
ENDBRANCH   3   4
ENDBRANCH   2   3
ENDBRANCH   1   2
BRANCH   1   7
ATOM      7  C   UNL     1     111.343 111.152 115.270  1.00  0.00     0.000 C 
BRANCH   7   8
ATOM      8  C   UNL     1     112.142 109.939 114.759  1.00  0.00     0.000 C 
BRANCH   8   9
ATOM      9  C   UNL     1     113.196 110.261 113.684  1.00  0.00     0.004 C 
BRANCH   9  10
ATOM     10  C   UNL     1     112.783 109.791 112.282  1.00  0.00     0.027 C 
BRANCH  10  11
ATOM     11  C   UNL     1     112.703 110.948 111.324  1.00  0.00    -0.035 C 
ATOM     12  C   UNL     1     112.918 112.206 111.723  1.00  0.00     0.004 C 
ENDBRANCH  10  11
ENDBRANCH   9  10
ENDBRANCH   8   9
ENDBRANCH   7   8
ENDBRANCH   1   7
TORSDOF 9
ENDMDL
MODEL 4
REMARK VINA RESULT:    -4.095      4.200      6.586
REMARK INTER + INTRA:          -7.964
REMARK INTER:                  -6.391
REMARK INTRA:                  -1.573
REMARK UNBOUND:                -1.714
REMARK SMILES C=CCCCCCCCCCC
REMARK SMILES IDX 7 1 8 2 9 3 10 4 11 5 12 6 6 7 5 8 4 9 3 10 2 11 1 12
REMARK H PARENT
REMARK Flexibility Score: inf
ROOT
ATOM      1  C   UNL     1     111.220 110.483 114.640  1.00  0.00     0.000 C 
ENDROOT
BRANCH   1   2
ATOM      2  C   UNL     1     110.441 109.569 115.597  1.00  0.00    -0.000 C 
BRANCH   2   3
ATOM      3  C   UNL     1     109.190 110.245 116.186  1.00  0.00    -0.000 C 
BRANCH   3   4
ATOM      4  C   UNL     1     109.303 110.648 117.670  1.00  0.00    -0.000 C 
BRANCH   4   5
ATOM      5  C   UNL     1     109.278 112.163 117.934  1.00  0.00    -0.003 C 
ATOM      6  C   UNL     1     109.726 112.530 119.349  1.00  0.00     0.004 C 
ENDBRANCH   4   5
ENDBRANCH   3   4
ENDBRANCH   2   3
ENDBRANCH   1   2
BRANCH   1   7
ATOM      7  C   UNL     1     112.686 110.614 115.078  1.00  0.00     0.000 C 
BRANCH   7   8
ATOM      8  C   UNL     1     112.993 111.964 115.753  1.00  0.00     0.000 C 
BRANCH   8   9
ATOM      9  C   UNL     1     112.913 111.954 117.291  1.00  0.00     0.004 C 
BRANCH   9  10
ATOM     10  C   UNL     1     113.216 110.576 117.896  1.00  0.00     0.027 C 
BRANCH  10  11
ATOM     11  C   UNL     1     112.866 110.538 119.358  1.00  0.00    -0.035 C 
ATOM     12  C   UNL     1     112.130 109.551 119.879  1.00  0.00     0.004 C 
ENDBRANCH  10  11
ENDBRANCH   9  10
ENDBRANCH   8   9
ENDBRANCH   7   8
ENDBRANCH   1   7
TORSDOF 9
ENDMDL
MODEL 5
REMARK VINA RESULT:    -4.075      0.829      3.695
REMARK INTER + INTRA:          -7.934
REMARK INTER:                  -6.348
REMARK INTRA:                  -1.587
REMARK UNBOUND:                -1.714
REMARK SMILES C=CCCCCCCCCCC
REMARK SMILES IDX 7 1 8 2 9 3 10 4 11 5 12 6 6 7 5 8 4 9 3 10 2 11 1 12
REMARK H PARENT
REMARK Flexibility Score: inf
ROOT
ATOM      1  C   UNL     1     111.041 111.704 109.763  1.00  0.00     0.000 C 
ENDROOT
BRANCH   1   2
ATOM      2  C   UNL     1     111.463 110.245 109.994  1.00  0.00    -0.000 C 
BRANCH   2   3
ATOM      3  C   UNL     1     110.354 109.395 110.637  1.00  0.00    -0.000 C 
BRANCH   3   4
ATOM      4  C   UNL     1     109.231 110.198 111.325  1.00  0.00    -0.000 C 
BRANCH   4   5
ATOM      5  C   UNL     1     109.364 110.320 112.852  1.00  0.00    -0.003 C 
ATOM      6  C   UNL     1     109.233 111.759 113.350  1.00  0.00     0.004 C 
ENDBRANCH   4   5
ENDBRANCH   3   4
ENDBRANCH   2   3
ENDBRANCH   1   2
BRANCH   1   7
ATOM      7  C   UNL     1     111.799 112.650 110.705  1.00  0.00     0.000 C 
BRANCH   7   8
ATOM      8  C   UNL     1     113.065 112.013 111.305  1.00  0.00     0.000 C 
BRANCH   8   9
ATOM      9  C   UNL     1     113.023 111.797 112.830  1.00  0.00     0.004 C 
BRANCH   9  10
ATOM     10  C   UNL     1     113.313 110.344 113.236  1.00  0.00     0.027 C 
BRANCH  10  11
ATOM     11  C   UNL     1     112.598 109.985 114.509  1.00  0.00    -0.035 C 
ATOM     12  C   UNL     1     112.397 110.882 115.479  1.00  0.00     0.004 C 
ENDBRANCH  10  11
ENDBRANCH   9  10
ENDBRANCH   8   9
ENDBRANCH   7   8
ENDBRANCH   1   7
TORSDOF 9
ENDMDL
MODEL 6
REMARK VINA RESULT:    -4.071      2.849      5.090
REMARK INTER + INTRA:          -7.928
REMARK INTER:                  -6.303
REMARK INTRA:                  -1.625
REMARK UNBOUND:                -1.714
REMARK SMILES C=CCCCCCCCCCC
REMARK SMILES IDX 7 1 8 2 9 3 10 4 11 5 12 6 6 7 5 8 4 9 3 10 2 11 1 12
REMARK H PARENT
REMARK Flexibility Score: inf
ROOT
ATOM      1  C   UNL     1     112.154 111.283 110.006  1.00  0.00     0.000 C 
ENDROOT
BRANCH   1   2
ATOM      2  C   UNL     1     112.598 110.071 109.173  1.00  0.00    -0.000 C 
BRANCH   2   3
ATOM      3  C   UNL     1     112.900 110.429 107.708  1.00  0.00    -0.000 C 
BRANCH   3   4
ATOM      4  C   UNL     1     112.916 111.940 107.395  1.00  0.00    -0.000 C 
BRANCH   4   5
ATOM      5  C   UNL     1     113.235 112.296 105.933  1.00  0.00    -0.003 C 
ATOM      6  C   UNL     1     112.505 111.404 104.929  1.00  0.00     0.004 C 
ENDBRANCH   4   5
ENDBRANCH   3   4
ENDBRANCH   2   3
ENDBRANCH   1   2
BRANCH   1   7
ATOM      7  C   UNL     1     110.932 110.937 110.870  1.00  0.00     0.000 C 
BRANCH   7   8
ATOM      8  C   UNL     1     109.598 111.304 110.196  1.00  0.00     0.000 C 
BRANCH   8   9
ATOM      9  C   UNL     1     109.678 112.461 109.182  1.00  0.00     0.004 C 
BRANCH   9  10
ATOM     10  C   UNL     1     109.233 112.051 107.771  1.00  0.00     0.027 C 
BRANCH  10  11
ATOM     11  C   UNL     1     109.175 110.554 107.634  1.00  0.00    -0.035 C 
ATOM     12  C   UNL     1     109.399 109.946 106.465  1.00  0.00     0.004 C 
ENDBRANCH  10  11
ENDBRANCH   9  10
ENDBRANCH   8   9
ENDBRANCH   7   8
ENDBRANCH   1   7
TORSDOF 9
ENDMDL
MODEL 7
REMARK VINA RESULT:    -4.048      1.354      2.018
REMARK INTER + INTRA:          -7.892
REMARK INTER:                  -6.436
REMARK INTRA:                  -1.456
REMARK UNBOUND:                -1.714
REMARK SMILES C=CCCCCCCCCCC
REMARK SMILES IDX 7 1 8 2 9 3 10 4 11 5 12 6 6 7 5 8 4 9 3 10 2 11 1 12
REMARK H PARENT
REMARK Flexibility Score: inf
ROOT
ATOM      1  C   UNL     1     112.609 111.805 110.565  1.00  0.00     0.000 C 
ENDROOT
BRANCH   1   2
ATOM      2  C   UNL     1     112.965 112.109 112.027  1.00  0.00    -0.000 C 
BRANCH   2   3
ATOM      3  C   UNL     1     113.174 110.839 112.870  1.00  0.00    -0.000 C 
BRANCH   3   4
ATOM      4  C   UNL     1     112.690 110.938 114.331  1.00  0.00    -0.000 C 
BRANCH   4   5
ATOM      5  C   UNL     1     112.916 112.306 114.998  1.00  0.00    -0.003 C 
ATOM      6  C   UNL     1     112.984 112.223 116.522  1.00  0.00     0.004 C 
ENDBRANCH   4   5
ENDBRANCH   3   4
ENDBRANCH   2   3
ENDBRANCH   1   2
BRANCH   1   7
ATOM      7  C   UNL     1     112.166 110.343 110.401  1.00  0.00     0.000 C 
BRANCH   7   8
ATOM      8  C   UNL     1     110.704 110.207 109.936  1.00  0.00     0.000 C 
BRANCH   8   9
ATOM      9  C   UNL     1     109.683 111.010 110.762  1.00  0.00     0.004 C 
BRANCH   9  10
ATOM     10  C   UNL     1     109.355 110.352 112.110  1.00  0.00     0.027 C 
BRANCH  10  11
ATOM     11  C   UNL     1     109.155 111.386 113.184  1.00  0.00    -0.035 C 
ATOM     12  C   UNL     1     109.357 112.687 112.952  1.00  0.00     0.004 C 
ENDBRANCH  10  11
ENDBRANCH   9  10
ENDBRANCH   8   9
ENDBRANCH   7   8
ENDBRANCH   1   7
TORSDOF 9
ENDMDL
MODEL 8
REMARK VINA RESULT:    -4.024      2.767      5.756
REMARK INTER + INTRA:          -7.856
REMARK INTER:                  -6.259
REMARK INTRA:                  -1.598
REMARK UNBOUND:                -1.714
REMARK SMILES C=CCCCCCCCCCC
REMARK SMILES IDX 7 1 8 2 9 3 10 4 11 5 12 6 6 7 5 8 4 9 3 10 2 11 1 12
REMARK H PARENT
REMARK Flexibility Score: inf
ROOT
ATOM      1  C   UNL     1     111.011 111.306 111.187  1.00  0.00     0.000 C 
ENDROOT
BRANCH   1   2
ATOM      2  C   UNL     1     109.787 111.055 110.295  1.00  0.00    -0.000 C 
BRANCH   2   3
ATOM      3  C   UNL     1     109.542 112.186 109.281  1.00  0.00    -0.000 C 
BRANCH   3   4
ATOM      4  C   UNL     1     109.126 111.720 107.871  1.00  0.00    -0.000 C 
BRANCH   4   5
ATOM      5  C   UNL     1     109.516 110.273 107.525  1.00  0.00    -0.003 C 
ATOM      6  C   UNL     1     109.098 109.864 106.113  1.00  0.00     0.004 C 
ENDBRANCH   4   5
ENDBRANCH   3   4
ENDBRANCH   2   3
ENDBRANCH   1   2
BRANCH   1   7
ATOM      7  C   UNL     1     112.263 111.573 110.339  1.00  0.00     0.000 C 
BRANCH   7   8
ATOM      8  C   UNL     1     112.720 110.340 109.539  1.00  0.00     0.000 C 
BRANCH   8   9
ATOM      9  C   UNL     1     113.152 110.629 108.089  1.00  0.00     0.004 C 
BRANCH   9  10
ATOM     10  C   UNL     1     112.872 112.077 107.660  1.00  0.00     0.027 C 
BRANCH  10  11
ATOM     11  C   UNL     1     112.759 112.186 106.165  1.00  0.00    -0.035 C 
ATOM     12  C   UNL     1     112.628 111.105 105.389  1.00  0.00     0.004 C 
ENDBRANCH  10  11
ENDBRANCH   9  10
ENDBRANCH   8   9
ENDBRANCH   7   8
ENDBRANCH   1   7
TORSDOF 9
ENDMDL
MODEL 9
REMARK VINA RESULT:    -4.010      1.933      4.920
REMARK INTER + INTRA:          -7.834
REMARK INTER:                  -6.246
REMARK INTRA:                  -1.588
REMARK UNBOUND:                -1.714
REMARK SMILES C=CCCCCCCCCCC
REMARK SMILES IDX 7 1 8 2 9 3 10 4 11 5 12 6 6 7 5 8 4 9 3 10 2 11 1 12
REMARK H PARENT
REMARK Flexibility Score: inf
ROOT
ATOM      1  C   UNL     1     112.392 111.744 116.615  1.00  0.00     0.000 C 
ENDROOT
BRANCH   1   2
ATOM      2  C   UNL     1     111.819 112.858 115.726  1.00  0.00    -0.000 C 
BRANCH   2   3
ATOM      3  C   UNL     1     110.289 112.780 115.581  1.00  0.00    -0.000 C 
BRANCH   3   4
ATOM      4  C   UNL     1     109.784 112.452 114.161  1.00  0.00    -0.000 C 
BRANCH   4   5
ATOM      5  C   UNL     1     109.107 111.079 114.015  1.00  0.00    -0.003 C 
ATOM      6  C   UNL     1     109.081 110.284 115.320  1.00  0.00     0.004 C 
ENDBRANCH   4   5
ENDBRANCH   3   4
ENDBRANCH   2   3
ENDBRANCH   1   2
BRANCH   1   7
ATOM      7  C   UNL     1     112.710 110.490 115.787  1.00  0.00     0.000 C 
BRANCH   7   8
ATOM      8  C   UNL     1     113.231 110.818 114.376  1.00  0.00     0.000 C 
BRANCH   8   9
ATOM      9  C   UNL     1     112.808 109.823 113.280  1.00  0.00     0.004 C 
BRANCH   9  10
ATOM     10  C   UNL     1     112.264 110.515 112.021  1.00  0.00     0.027 C 
BRANCH  10  11
ATOM     11  C   UNL     1     112.736 111.940 111.940  1.00  0.00    -0.035 C 
ATOM     12  C   UNL     1     113.245 112.448 110.813  1.00  0.00     0.004 C 
ENDBRANCH  10  11
ENDBRANCH   9  10
ENDBRANCH   8   9
ENDBRANCH   7   8
ENDBRANCH   1   7
TORSDOF 9
ENDMDL
