MODEL 1
REMARK VINA RESULT:    -2.583      0.000      0.000
REMARK INTER + INTRA:          -4.306
REMARK INTER:                  -3.791
REMARK INTRA:                  -0.515
REMARK UNBOUND:                -0.515
REMARK SMILES CCCCCCCCCC=O
REMARK SMILES IDX 6 1 5 2 4 3 3 4 2 5 1 6 7 7 8 8 9 9 10 10 11 11
REMARK H PARENT
REMARK Flexibility Score: inf
ROOT
ATOM      1  C   UNL     1     114.481 119.313 113.079  1.00  0.00     0.000 C 
ENDROOT
BRANCH   1   2
ATOM      2  C   UNL     1     113.455 118.181 112.918  1.00  0.00     0.000 C 
BRANCH   2   3
ATOM      3  C   UNL     1     113.975 117.033 112.039  1.00  0.00    -0.000 C 
BRANCH   3   4
ATOM      4  C   UNL     1     114.271 115.757 112.846  1.00  0.00    -0.000 C 
BRANCH   4   5
ATOM      5  C   UNL     1     114.822 114.621 111.970  1.00  0.00    -0.003 C 
ATOM      6  C   UNL     1     114.295 113.247 112.385  1.00  0.00     0.004 C 
ENDBRANCH   4   5
ENDBRANCH   3   4
ENDBRANCH   2   3
ENDBRANCH   1   2
BRANCH   1   7
ATOM      7  C   UNL     1     115.411 119.045 114.269  1.00  0.00     0.000 C 
BRANCH   7   8
ATOM      8  C   UNL     1     116.883 119.140 113.850  1.00  0.00     0.008 C 
BRANCH   8   9
ATOM      9  C   UNL     1     117.017 119.233 112.326  1.00  0.00     0.072 C 
BRANCH   9  10
ATOM     10  C   UNL     1     118.218 120.042 111.941  1.00  0.00     0.224 C 
ATOM     11  O   UNL     1     118.894 120.592 112.795  1.00  0.00    -0.303 OA
ENDBRANCH   9  10
ENDBRANCH   8   9
ENDBRANCH   7   8
ENDBRANCH   1   7
TORSDOF 8
ENDMDL
MODEL 2
REMARK VINA RESULT:    -2.537      2.404      2.975
REMARK INTER + INTRA:          -4.238
REMARK INTER:                  -3.113
REMARK INTRA:                  -1.125
REMARK UNBOUND:                -0.515
REMARK SMILES CCCCCCCCCC=O
REMARK SMILES IDX 6 1 5 2 4 3 3 4 2 5 1 6 7 7 8 8 9 9 10 10 11 11
REMARK H PARENT
REMARK Flexibility Score: inf
ROOT
ATOM      1  C   UNL     1     115.917 118.933 111.963  1.00  0.00     0.000 C 
ENDROOT
BRANCH   1   2
ATOM      2  C   UNL     1     114.471 119.379 112.225  1.00  0.00     0.000 C 
BRANCH   2   3
ATOM      3  C   UNL     1     113.552 118.210 112.611  1.00  0.00    -0.000 C 
BRANCH   3   4
ATOM      4  C   UNL     1     114.031 116.866 112.033  1.00  0.00    -0.000 C 
BRANCH   4   5
ATOM      5  C   UNL     1     114.200 115.787 113.114  1.00  0.00    -0.003 C 
ATOM      6  C   UNL     1     114.256 116.370 114.525  1.00  0.00     0.004 C 
ENDBRANCH   4   5
ENDBRANCH   3   4
ENDBRANCH   2   3
ENDBRANCH   1   2
BRANCH   1   7
ATOM      7  C   UNL     1     116.816 119.256 113.163  1.00  0.00     0.000 C 
BRANCH   7   8
ATOM      8  C   UNL     1     117.482 117.987 113.709  1.00  0.00     0.008 C 
BRANCH   8   9
ATOM      9  C   UNL     1     117.716 116.964 112.592  1.00  0.00     0.072 C 
BRANCH   9  10
ATOM     10  C   UNL     1     117.971 115.600 113.158  1.00  0.00     0.224 C 
ATOM     11  O   UNL     1     117.469 114.613 112.645  1.00  0.00    -0.303 OA
ENDBRANCH   9  10
ENDBRANCH   8   9
ENDBRANCH   7   8
ENDBRANCH   1   7
TORSDOF 8
ENDMDL
MODEL 3
REMARK VINA RESULT:    -2.500      3.899      6.095
REMARK INTER + INTRA:          -4.184
REMARK INTER:                  -3.573
REMARK INTRA:                  -0.611
REMARK UNBOUND:                -0.515
REMARK SMILES CCCCCCCCCC=O
REMARK SMILES IDX 6 1 5 2 4 3 3 4 2 5 1 6 7 7 8 8 9 9 10 10 11 11
REMARK H PARENT
REMARK Flexibility Score: inf
ROOT
ATOM      1  C   UNL     1     118.000 115.821 112.085  1.00  0.00     0.000 C 
ENDROOT
BRANCH   1   2
ATOM      2  C   UNL     1     119.119 116.777 112.525  1.00  0.00     0.000 C 
BRANCH   2   3
ATOM      3  C   UNL     1     118.591 117.976 113.328  1.00  0.00    -0.000 C 
BRANCH   3   4
ATOM      4  C   UNL     1     119.221 119.308 112.885  1.00  0.00    -0.000 C 
BRANCH   4   5
ATOM      5  C   UNL     1     118.345 120.066 111.875  1.00  0.00    -0.003 C 
ATOM      6  C   UNL     1     116.892 119.591 111.882  1.00  0.00     0.004 C 
ENDBRANCH   4   5
ENDBRANCH   3   4
ENDBRANCH   2   3
ENDBRANCH   1   2
BRANCH   1   7
ATOM      7  C   UNL     1     118.377 114.364 112.375  1.00  0.00     0.000 C 
BRANCH   7   8
ATOM      8  C   UNL     1     119.778 114.269 112.991  1.00  0.00     0.008 C 
BRANCH   8   9
ATOM      9  C   UNL     1     119.768 113.395 114.250  1.00  0.00     0.072 C 
BRANCH   9  10
ATOM     10  C   UNL     1     119.073 114.090 115.381  1.00  0.00     0.224 C 
ATOM     11  O   UNL     1     119.436 115.197 115.744  1.00  0.00    -0.303 OA
ENDBRANCH   9  10
ENDBRANCH   8   9
ENDBRANCH   7   8
ENDBRANCH   1   7
TORSDOF 8
ENDMDL
MODEL 4
REMARK VINA RESULT:    -2.494      4.014      5.505
REMARK INTER + INTRA:          -4.175
REMARK INTER:                  -3.238
REMARK INTRA:                  -0.937
REMARK UNBOUND:                -0.515
REMARK SMILES CCCCCCCCCC=O
REMARK SMILES IDX 6 1 5 2 4 3 3 4 2 5 1 6 7 7 8 8 9 9 10 10 11 11
REMARK H PARENT
REMARK Flexibility Score: inf
ROOT
ATOM      1  C   UNL     1     116.768 117.064 114.120  1.00  0.00     0.000 C 
ENDROOT
BRANCH   1   2
ATOM      2  C   UNL     1     117.637 117.269 112.869  1.00  0.00     0.000 C 
BRANCH   2   3
ATOM      3  C   UNL     1     119.073 116.757 113.057  1.00  0.00    -0.000 C 
BRANCH   3   4
ATOM      4  C   UNL     1     119.470 115.707 112.003  1.00  0.00    -0.000 C 
BRANCH   4   5
ATOM      5  C   UNL     1     120.010 114.415 112.635  1.00  0.00    -0.003 C 
ATOM      6  C   UNL     1     119.211 113.979 113.862  1.00  0.00     0.004 C 
ENDBRANCH   4   5
ENDBRANCH   3   4
ENDBRANCH   2   3
ENDBRANCH   1   2
BRANCH   1   7
ATOM      7  C   UNL     1     115.982 115.750 114.031  1.00  0.00     0.000 C 
BRANCH   7   8
ATOM      8  C   UNL     1     115.498 115.493 112.599  1.00  0.00     0.008 C 
BRANCH   8   9
ATOM      9  C   UNL     1     115.932 114.106 112.112  1.00  0.00     0.072 C 
BRANCH   9  10
ATOM     10  C   UNL     1     114.745 113.215 111.901  1.00  0.00     0.224 C 
ATOM     11  O   UNL     1     113.835 113.194 112.714  1.00  0.00    -0.303 OA
ENDBRANCH   9  10
ENDBRANCH   8   9
ENDBRANCH   7   8
ENDBRANCH   1   7
TORSDOF 8
ENDMDL
MODEL 5
REMARK VINA RESULT:    -2.478      3.945      6.291
REMARK INTER + INTRA:          -4.152
REMARK INTER:                  -3.379
REMARK INTRA:                  -0.773
REMARK UNBOUND:                -0.515
REMARK SMILES CCCCCCCCCC=O
REMARK SMILES IDX 6 1 5 2 4 3 3 4 2 5 1 6 7 7 8 8 9 9 10 10 11 11
REMARK H PARENT
REMARK Flexibility Score: inf
ROOT
ATOM      1  C   UNL     1     117.349 114.417 114.153  1.00  0.00     0.000 C 
ENDROOT
BRANCH   1   2
ATOM      2  C   UNL     1     118.288 114.392 112.938  1.00  0.00     0.000 C 
BRANCH   2   3
ATOM      3  C   UNL     1     119.409 115.439 113.036  1.00  0.00    -0.000 C 
BRANCH   3   4
ATOM      4  C   UNL     1     118.868 116.878 113.115  1.00  0.00    -0.000 C 
BRANCH   4   5
ATOM      5  C   UNL     1     118.048 117.267 111.875  1.00  0.00    -0.003 C 
ATOM      6  C   UNL     1     116.746 117.984 112.229  1.00  0.00     0.004 C 
ENDBRANCH   4   5
ENDBRANCH   3   4
ENDBRANCH   2   3
ENDBRANCH   1   2
BRANCH   1   7
ATOM      7  C   UNL     1     115.900 114.672 113.721  1.00  0.00     0.000 C 
BRANCH   7   8
ATOM      8  C   UNL     1     115.566 113.906 112.435  1.00  0.00     0.008 C 
BRANCH   8   9
ATOM      9  C   UNL     1     114.115 113.412 112.450  1.00  0.00     0.072 C 
BRANCH   9  10
ATOM     10  C   UNL     1     113.521 113.531 113.821  1.00  0.00     0.224 C 
ATOM     11  O   UNL     1     112.976 112.574 114.345  1.00  0.00    -0.303 OA
ENDBRANCH   9  10
ENDBRANCH   8   9
ENDBRANCH   7   8
ENDBRANCH   1   7
TORSDOF 8
ENDMDL
MODEL 6
REMARK VINA RESULT:    -2.440      1.928      3.248
REMARK INTER + INTRA:          -4.097
REMARK INTER:                  -3.155
REMARK INTRA:                  -0.942
REMARK UNBOUND:                -0.515
REMARK SMILES CCCCCCCCCC=O
REMARK SMILES IDX 6 1 5 2 4 3 3 4 2 5 1 6 7 7 8 8 9 9 10 10 11 11
REMARK H PARENT
REMARK Flexibility Score: inf
ROOT
ATOM      1  C   UNL     1     114.288 115.645 113.718  1.00  0.00     0.000 C 
ENDROOT
BRANCH   1   2
ATOM      2  C   UNL     1     114.113 114.681 112.535  1.00  0.00     0.000 C 
BRANCH   2   3
ATOM      3  C   UNL     1     115.353 113.804 112.299  1.00  0.00    -0.000 C 
BRANCH   3   4
ATOM      4  C   UNL     1     116.535 114.196 113.203  1.00  0.00    -0.000 C 
BRANCH   4   5
ATOM      5  C   UNL     1     117.757 114.670 112.401  1.00  0.00    -0.003 C 
ATOM      6  C   UNL     1     118.355 115.966 112.947  1.00  0.00     0.004 C 
ENDBRANCH   4   5
ENDBRANCH   3   4
ENDBRANCH   2   3
ENDBRANCH   1   2
BRANCH   1   7
ATOM      7  C   UNL     1     114.032 117.094 113.288  1.00  0.00     0.000 C 
BRANCH   7   8
ATOM      8  C   UNL     1     114.572 117.353 111.876  1.00  0.00     0.008 C 
BRANCH   8   9
ATOM      9  C   UNL     1     115.724 118.363 111.904  1.00  0.00     0.072 C 
BRANCH   9  10
ATOM     10  C   UNL     1     115.844 119.004 113.254  1.00  0.00     0.224 C 
ATOM     11  O   UNL     1     116.927 119.394 113.660  1.00  0.00    -0.303 OA
ENDBRANCH   9  10
ENDBRANCH   8   9
ENDBRANCH   7   8
ENDBRANCH   1   7
TORSDOF 8
ENDMDL
MODEL 7
REMARK VINA RESULT:    -2.397      2.315      4.616
REMARK INTER + INTRA:          -4.032
REMARK INTER:                  -3.011
REMARK INTRA:                  -1.021
REMARK UNBOUND:                -0.515
REMARK SMILES CCCCCCCCCC=O
REMARK SMILES IDX 6 1 5 2 4 3 3 4 2 5 1 6 7 7 8 8 9 9 10 10 11 11
REMARK H PARENT
REMARK Flexibility Score: inf
ROOT
ATOM      1  C   UNL     1     115.476 116.050 113.060  1.00  0.00     0.000 C 
ENDROOT
BRANCH   1   2
ATOM      2  C   UNL     1     116.538 116.539 112.064  1.00  0.00     0.000 C 
BRANCH   2   3
ATOM      3  C   UNL     1     117.803 117.065 112.760  1.00  0.00    -0.000 C 
BRANCH   3   4
ATOM      4  C   UNL     1     118.270 118.418 112.194  1.00  0.00    -0.000 C 
BRANCH   4   5
ATOM      5  C   UNL     1     117.739 119.610 113.006  1.00  0.00    -0.003 C 
ATOM      6  C   UNL     1     117.313 119.218 114.420  1.00  0.00     0.004 C 
ENDBRANCH   4   5
ENDBRANCH   3   4
ENDBRANCH   2   3
ENDBRANCH   1   2
BRANCH   1   7
ATOM      7  C   UNL     1     114.208 116.908 112.975  1.00  0.00     0.000 C 
BRANCH   7   8
ATOM      8  C   UNL     1     114.334 117.969 111.875  1.00  0.00     0.008 C 
BRANCH   8   9
ATOM      9  C   UNL     1     114.048 119.370 112.427  1.00  0.00     0.072 C 
BRANCH   9  10
ATOM     10  C   UNL     1     113.630 119.306 113.865  1.00  0.00     0.224 C 
ATOM     11  O   UNL     1     113.297 120.319 114.458  1.00  0.00    -0.303 OA
ENDBRANCH   9  10
ENDBRANCH   8   9
ENDBRANCH   7   8
ENDBRANCH   1   7
TORSDOF 8
ENDMDL
MODEL 8
REMARK VINA RESULT:    -2.392      1.746      3.409
REMARK INTER + INTRA:          -4.026
REMARK INTER:                  -2.923
REMARK INTRA:                  -1.103
REMARK UNBOUND:                -0.515
REMARK SMILES CCCCCCCCCC=O
REMARK SMILES IDX 6 1 5 2 4 3 3 4 2 5 1 6 7 7 8 8 9 9 10 10 11 11
REMARK H PARENT
REMARK Flexibility Score: inf
ROOT
ATOM      1  C   UNL     1     114.075 116.814 112.178  1.00  0.00     0.000 C 
ENDROOT
BRANCH   1   2
ATOM      2  C   UNL     1     113.332 118.123 111.875  1.00  0.00     0.000 C 
BRANCH   2   3
ATOM      3  C   UNL     1     113.953 119.334 112.589  1.00  0.00    -0.000 C 
BRANCH   3   4
ATOM      4  C   UNL     1     113.316 119.601 113.964  1.00  0.00    -0.000 C 
BRANCH   4   5
ATOM      5  C   UNL     1     114.250 119.232 115.127  1.00  0.00    -0.003 C 
ATOM      6  C   UNL     1     113.845 117.931 115.819  1.00  0.00     0.004 C 
ENDBRANCH   4   5
ENDBRANCH   3   4
ENDBRANCH   2   3
ENDBRANCH   1   2
BRANCH   1   7
ATOM      7  C   UNL     1     115.593 117.006 112.068  1.00  0.00     0.000 C 
BRANCH   7   8
ATOM      8  C   UNL     1     116.321 116.325 113.232  1.00  0.00     0.008 C 
BRANCH   8   9
ATOM      9  C   UNL     1     117.207 117.322 113.987  1.00  0.00     0.072 C 
BRANCH   9  10
ATOM     10  C   UNL     1     117.460 118.547 113.161  1.00  0.00     0.224 C 
ATOM     11  O   UNL     1     117.766 119.601 113.694  1.00  0.00    -0.303 OA
ENDBRANCH   9  10
ENDBRANCH   8   9
ENDBRANCH   7   8
ENDBRANCH   1   7
TORSDOF 8
ENDMDL
