MODEL 1
REMARK VINA RESULT:    -3.593      0.000      0.000
REMARK INTER + INTRA:          -4.703
REMARK INTER:                  -4.643
REMARK INTRA:                  -0.059
REMARK UNBOUND:                -0.059
REMARK SMILES CCO[C@@H]1O[C@H](CO)[C@@H](O)[C@@H](O)[C@H]1O
REMARK SMILES IDX 4 1 13 2 11 3 9 4 6 5 5 6 3 7 2 8 1 9 14 10 12 12 7 14 8 15
REMARK SMILES IDX 10 17
REMARK H PARENT 14 11 12 13 8 16 10 18
REMARK Flexibility Score: inf
ROOT
ATOM      1  C   UNL     1      10.657  -5.957   1.867  1.00  0.00     0.281 C 
ATOM      2  C   UNL     1       9.240  -5.426   2.191  1.00  0.00     0.202 C 
ATOM      3  C   UNL     1       9.278  -4.059   2.931  1.00  0.00     0.179 C 
ATOM      4  C   UNL     1      10.678  -3.417   2.881  1.00  0.00     0.177 C 
ATOM      5  C   UNL     1      11.348  -3.674   1.503  1.00  0.00     0.178 C 
ATOM      6  O   UNL     1      11.413  -5.040   1.090  1.00  0.00    -0.341 OA
ENDROOT
BRANCH   1   7
ATOM      7  O   UNL     1      11.368  -6.258   3.059  1.00  0.00    -0.350 OA
BRANCH   7   8
ATOM      8  C   UNL     1      11.700  -7.629   3.125  1.00  0.00     0.160 C 
ATOM      9  C   UNL     1      11.004  -8.365   1.990  1.00  0.00     0.035 C 
ENDBRANCH   7   8
ENDBRANCH   1   7
BRANCH   2  10
ATOM     10  O   UNL     1       8.462  -5.369   1.017  1.00  0.00    -0.385 OA
ATOM     11  H   UNL     1       8.706  -6.148   0.453  1.00  0.00     0.211 HD
ENDBRANCH   2  10
BRANCH   3  12
ATOM     12  O   UNL     1       8.322  -3.173   2.398  1.00  0.00    -0.387 OA
ATOM     13  H   UNL     1       7.887  -3.645   1.640  1.00  0.00     0.211 HD
ENDBRANCH   3  12
BRANCH   5  14
ATOM     14  C   UNL     1      12.768  -3.088   1.449  1.00  0.00     0.191 C 
BRANCH  14  15
ATOM     15  O   UNL     1      13.250  -3.053   0.130  1.00  0.00    -0.394 OA
ATOM     16  H   UNL     1      12.807  -2.283  -0.313  1.00  0.00     0.210 HD
ENDBRANCH  14  15
ENDBRANCH   5  14
BRANCH   4  17
ATOM     17  O   UNL     1      10.567  -2.034   3.123  1.00  0.00    -0.387 OA
ATOM     18  H   UNL     1      11.083  -1.836   3.948  1.00  0.00     0.211 HD
ENDBRANCH   4  17
TORSDOF 7
ENDMDL
MODEL 2
REMARK VINA RESULT:    -3.201      1.809      2.553
REMARK INTER + INTRA:          -4.195
REMARK INTER:                  -3.781
REMARK INTRA:                  -0.414
REMARK UNBOUND:                -0.059
REMARK SMILES CCO[C@@H]1O[C@H](CO)[C@@H](O)[C@@H](O)[C@H]1O
REMARK SMILES IDX 4 1 13 2 11 3 9 4 6 5 5 6 3 7 2 8 1 9 14 10 12 12 7 14 8 15
REMARK SMILES IDX 10 17
REMARK H PARENT 14 11 12 13 8 16 10 18
REMARK Flexibility Score: inf
ROOT
ATOM      1  C   UNL     1       9.483  -6.943   1.705  1.00  0.00     0.281 C 
ATOM      2  C   UNL     1       7.954  -7.087   1.513  1.00  0.00     0.202 C 
ATOM      3  C   UNL     1       7.157  -6.017   2.313  1.00  0.00     0.179 C 
ATOM      4  C   UNL     1       8.071  -4.893   2.839  1.00  0.00     0.177 C 
ATOM      5  C   UNL     1       9.172  -4.552   1.796  1.00  0.00     0.178 C 
ATOM      6  O   UNL     1       9.955  -5.655   1.337  1.00  0.00    -0.341 OA
ENDROOT
BRANCH   1   7
ATOM      7  O   UNL     1       9.851  -7.210   3.050  1.00  0.00    -0.350 OA
BRANCH   7   8
ATOM      8  C   UNL     1      11.130  -7.807   3.123  1.00  0.00     0.160 C 
ATOM      9  C   UNL     1      11.180  -8.993   2.171  1.00  0.00     0.035 C 
ENDBRANCH   7   8
ENDBRANCH   1   7
BRANCH   2  10
ATOM     10  O   UNL     1       7.632  -7.068   0.142  1.00  0.00    -0.385 OA
ATOM     11  H   UNL     1       6.708  -7.419   0.043  1.00  0.00     0.211 HD
ENDBRANCH   2  10
BRANCH   3  12
ATOM     12  O   UNL     1       6.123  -5.471   1.529  1.00  0.00    -0.387 OA
ATOM     13  H   UNL     1       6.242  -5.830   0.611  1.00  0.00     0.211 HD
ENDBRANCH   3  12
BRANCH   5  14
ATOM     14  C   UNL     1      10.129  -3.469   2.320  1.00  0.00     0.191 C 
BRANCH  14  15
ATOM     15  O   UNL     1       9.643  -2.184   2.033  1.00  0.00    -0.394 OA
ATOM     16  H   UNL     1       9.891  -1.990   1.091  1.00  0.00     0.210 HD
ENDBRANCH  14  15
ENDBRANCH   5  14
BRANCH   4  17
ATOM     17  O   UNL     1       7.295  -3.754   3.124  1.00  0.00    -0.387 OA
ATOM     18  H   UNL     1       7.765  -3.247   3.837  1.00  0.00     0.211 HD
ENDBRANCH   4  17
TORSDOF 7
ENDMDL
MODEL 3
REMARK VINA RESULT:    -3.122     10.066     12.144
REMARK INTER + INTRA:          -4.093
REMARK INTER:                  -3.708
REMARK INTRA:                  -0.385
REMARK UNBOUND:                -0.059
REMARK SMILES CCO[C@@H]1O[C@H](CO)[C@@H](O)[C@@H](O)[C@H]1O
REMARK SMILES IDX 4 1 13 2 11 3 9 4 6 5 5 6 3 7 2 8 1 9 14 10 12 12 7 14 8 15
REMARK SMILES IDX 10 17
REMARK H PARENT 14 11 12 13 8 16 10 18
REMARK Flexibility Score: inf
ROOT
ATOM      1  C   UNL     1       0.782  -8.119   1.265  1.00  0.00     0.281 C 
ATOM      2  C   UNL     1       0.052  -9.483   1.294  1.00  0.00     0.202 C 
ATOM      3  C   UNL     1      -1.433  -9.347   1.737  1.00  0.00     0.179 C 
ATOM      4  C   UNL     1      -1.903  -7.879   1.733  1.00  0.00     0.177 C 
ATOM      5  C   UNL     1      -1.284  -7.112   0.531  1.00  0.00     0.178 C 
ATOM      6  O   UNL     1       0.138  -7.179   0.417  1.00  0.00    -0.341 OA
ENDROOT
BRANCH   1   7
ATOM      7  O   UNL     1       0.887  -7.575   2.573  1.00  0.00    -0.350 OA
BRANCH   7   8
ATOM      8  C   UNL     1       2.171  -7.796   3.118  1.00  0.00     0.160 C 
ATOM      9  C   UNL     1       3.181  -6.930   2.380  1.00  0.00     0.035 C 
ENDBRANCH   7   8
ENDBRANCH   1   7
BRANCH   2  10
ATOM     10  O   UNL     1       0.172 -10.125   0.046  1.00  0.00    -0.385 OA
ATOM     11  H   UNL     1       0.828  -9.614  -0.496  1.00  0.00     0.211 HD
ENDBRANCH   2  10
BRANCH   3  12
ATOM     12  O   UNL     1      -2.274 -10.125   0.919  1.00  0.00    -0.387 OA
ATOM     13  H   UNL     1      -3.105  -9.598   0.781  1.00  0.00     0.211 HD
ENDBRANCH   3  12
BRANCH   5  14
ATOM     14  C   UNL     1      -1.696  -5.631   0.536  1.00  0.00     0.191 C 
BRANCH  14  15
ATOM     15  O   UNL     1      -2.895  -5.438  -0.168  1.00  0.00    -0.394 OA
ATOM     16  H   UNL     1      -2.647  -5.070  -1.056  1.00  0.00     0.210 HD
ENDBRANCH  14  15
ENDBRANCH   5  14
BRANCH   4  17
ATOM     17  O   UNL     1      -3.309  -7.838   1.671  1.00  0.00    -0.387 OA
ATOM     18  H   UNL     1      -3.654  -8.282   2.490  1.00  0.00     0.211 HD
ENDBRANCH   4  17
TORSDOF 7
ENDMDL
MODEL 4
REMARK VINA RESULT:    -3.077      1.746      3.674
REMARK INTER + INTRA:          -4.036
REMARK INTER:                  -3.915
REMARK INTRA:                  -0.121
REMARK UNBOUND:                -0.059
REMARK SMILES CCO[C@@H]1O[C@H](CO)[C@@H](O)[C@@H](O)[C@H]1O
REMARK SMILES IDX 4 1 13 2 11 3 9 4 6 5 5 6 3 7 2 8 1 9 14 10 12 12 7 14 8 15
REMARK SMILES IDX 10 17
REMARK H PARENT 14 11 12 13 8 16 10 18
REMARK Flexibility Score: inf
ROOT
ATOM      1  C   UNL     1       8.891  -4.777   1.705  1.00  0.00     0.281 C 
ATOM      2  C   UNL     1       9.707  -3.551   1.231  1.00  0.00     0.202 C 
ATOM      3  C   UNL     1      11.044  -3.396   2.010  1.00  0.00     0.179 C 
ATOM      4  C   UNL     1      11.382  -4.657   2.829  1.00  0.00     0.177 C 
ATOM      5  C   UNL     1      10.978  -5.939   2.048  1.00  0.00     0.178 C 
ATOM      6  O   UNL     1       9.624  -5.989   1.595  1.00  0.00    -0.341 OA
ENDROOT
BRANCH   1   7
ATOM      7  O   UNL     1       8.461  -4.610   3.048  1.00  0.00    -0.350 OA
BRANCH   7   8
ATOM      8  C   UNL     1       7.056  -4.489   3.125  1.00  0.00     0.160 C 
ATOM      9  C   UNL     1       6.417  -5.766   2.598  1.00  0.00     0.035 C 
ENDBRANCH   7   8
ENDBRANCH   1   7
BRANCH   2  10
ATOM     10  O   UNL     1       9.913  -3.611  -0.161  1.00  0.00    -0.385 OA
ATOM     11  H   UNL     1       9.472  -4.435  -0.497  1.00  0.00     0.211 HD
ENDBRANCH   2  10
BRANCH   3  12
ATOM     12  O   UNL     1      12.103  -3.092   1.135  1.00  0.00    -0.387 OA
ATOM     13  H   UNL     1      11.739  -3.156   0.213  1.00  0.00     0.211 HD
ENDBRANCH   3  12
BRANCH   5  14
ATOM     14  C   UNL     1      11.257  -7.210   2.868  1.00  0.00     0.191 C 
BRANCH  14  15
ATOM     15  O   UNL     1      11.014  -8.364   2.107  1.00  0.00    -0.394 OA
ATOM     16  H   UNL     1      10.031  -8.423   1.985  1.00  0.00     0.210 HD
ENDBRANCH  14  15
ENDBRANCH   5  14
BRANCH   4  17
ATOM     17  O   UNL     1      12.760  -4.672   3.118  1.00  0.00    -0.387 OA
ATOM     18  H   UNL     1      13.212  -5.157   2.378  1.00  0.00     0.211 HD
ENDBRANCH   4  17
TORSDOF 7
ENDMDL
MODEL 5
REMARK VINA RESULT:    -2.921      2.839      3.893
REMARK INTER + INTRA:          -3.834
REMARK INTER:                  -3.470
REMARK INTRA:                  -0.364
REMARK UNBOUND:                -0.059
REMARK SMILES CCO[C@@H]1O[C@H](CO)[C@@H](O)[C@@H](O)[C@H]1O
REMARK SMILES IDX 4 1 13 2 11 3 9 4 6 5 5 6 3 7 2 8 1 9 14 10 12 12 7 14 8 15
REMARK SMILES IDX 10 17
REMARK H PARENT 14 11 12 13 8 16 10 18
REMARK Flexibility Score: inf
ROOT
ATOM      1  C   UNL     1       6.738  -7.746   1.940  1.00  0.00     0.281 C 
ATOM      2  C   UNL     1       5.456  -6.951   2.287  1.00  0.00     0.202 C 
ATOM      3  C   UNL     1       5.772  -5.597   2.983  1.00  0.00     0.179 C 
ATOM      4  C   UNL     1       7.265  -5.229   2.875  1.00  0.00     0.177 C 
ATOM      5  C   UNL     1       7.829  -5.642   1.487  1.00  0.00     0.178 C 
ATOM      6  O   UNL     1       7.625  -7.005   1.114  1.00  0.00    -0.341 OA
ENDROOT
BRANCH   1   7
ATOM      7  O   UNL     1       7.419  -8.144   3.120  1.00  0.00    -0.350 OA
BRANCH   7   8
ATOM      8  C   UNL     1       8.160  -9.328   2.909  1.00  0.00     0.160 C 
ATOM      9  C   UNL     1       9.638  -9.036   3.124  1.00  0.00     0.035 C 
ENDBRANCH   7   8
ENDBRANCH   1   7
BRANCH   2  10
ATOM     10  O   UNL     1       4.664  -6.779   1.134  1.00  0.00    -0.385 OA
ATOM     11  H   UNL     1       3.712  -6.810   1.413  1.00  0.00     0.211 HD
ENDBRANCH   2  10
BRANCH   3  12
ATOM     12  O   UNL     1       4.981  -4.562   2.450  1.00  0.00    -0.387 OA
ATOM     13  H   UNL     1       4.295  -4.993   1.876  1.00  0.00     0.211 HD
ENDBRANCH   3  12
BRANCH   5  14
ATOM     14  C   UNL     1       9.331  -5.333   1.375  1.00  0.00     0.191 C 
BRANCH  14  15
ATOM     15  O   UNL     1       9.549  -4.127   0.690  1.00  0.00    -0.394 OA
ATOM     16  H   UNL     1       9.461  -4.331  -0.278  1.00  0.00     0.210 HD
ENDBRANCH  14  15
ENDBRANCH   5  14
BRANCH   4  17
ATOM     17  O   UNL     1       7.421  -3.845   3.077  1.00  0.00    -0.387 OA
ATOM     18  H   UNL     1       8.255  -3.715   3.601  1.00  0.00     0.211 HD
ENDBRANCH   4  17
TORSDOF 7
ENDMDL
MODEL 6
REMARK VINA RESULT:    -2.879      2.968      5.502
REMARK INTER + INTRA:          -3.780
REMARK INTER:                  -3.478
REMARK INTRA:                  -0.302
REMARK UNBOUND:                -0.059
REMARK SMILES CCO[C@@H]1O[C@H](CO)[C@@H](O)[C@@H](O)[C@H]1O
REMARK SMILES IDX 4 1 13 2 11 3 9 4 6 5 5 6 3 7 2 8 1 9 14 10 12 12 7 14 8 15
REMARK SMILES IDX 10 17
REMARK H PARENT 14 11 12 13 8 16 10 18
REMARK Flexibility Score: inf
ROOT
ATOM      1  C   UNL     1       8.702  -6.063   1.773  1.00  0.00     0.281 C 
ATOM      2  C   UNL     1       9.204  -7.504   2.032  1.00  0.00     0.202 C 
ATOM      3  C   UNL     1       8.158  -8.362   2.799  1.00  0.00     0.179 C 
ATOM      4  C   UNL     1       6.774  -7.686   2.836  1.00  0.00     0.177 C 
ATOM      5  C   UNL     1       6.483  -6.966   1.490  1.00  0.00     0.178 C 
ATOM      6  O   UNL     1       7.477  -6.038   1.054  1.00  0.00    -0.341 OA
ENDROOT
BRANCH   1   7
ATOM      7  O   UNL     1       8.542  -5.356   2.994  1.00  0.00    -0.350 OA
BRANCH   7   8
ATOM      8  C   UNL     1       8.648  -3.961   2.797  1.00  0.00     0.160 C 
ATOM      9  C   UNL     1       9.865  -3.672   1.930  1.00  0.00     0.035 C 
ENDBRANCH   7   8
ENDBRANCH   1   7
BRANCH   2  10
ATOM     10  O   UNL     1       9.594  -8.108   0.821  1.00  0.00    -0.385 OA
ATOM     11  H   UNL     1      10.344  -7.577   0.445  1.00  0.00     0.211 HD
ENDBRANCH   2  10
BRANCH   3  12
ATOM     12  O   UNL     1       8.052  -9.647   2.235  1.00  0.00    -0.387 OA
ATOM     13  H   UNL     1       8.728 -10.215   2.690  1.00  0.00     0.211 HD
ENDBRANCH   3  12
BRANCH   5  14
ATOM     14  C   UNL     1       5.128  -6.238   1.521  1.00  0.00     0.191 C 
BRANCH  14  15
ATOM     15  O   UNL     1       5.273  -4.924   1.993  1.00  0.00    -0.394 OA
ATOM     16  H   UNL     1       6.248  -4.742   2.033  1.00  0.00     0.210 HD
ENDBRANCH  14  15
ENDBRANCH   5  14
BRANCH   4  17
ATOM     17  O   UNL     1       5.786  -8.655   3.098  1.00  0.00    -0.387 OA
ATOM     18  H   UNL     1       5.999  -9.062   3.979  1.00  0.00     0.211 HD
ENDBRANCH   4  17
TORSDOF 7
ENDMDL
MODEL 7
REMARK VINA RESULT:    -2.874      2.189      4.495
REMARK INTER + INTRA:          -3.773
REMARK INTER:                  -3.305
REMARK INTRA:                  -0.468
REMARK UNBOUND:                -0.059
REMARK SMILES CCO[C@@H]1O[C@H](CO)[C@@H](O)[C@@H](O)[C@H]1O
REMARK SMILES IDX 4 1 13 2 11 3 9 4 6 5 5 6 3 7 2 8 1 9 14 10 12 12 7 14 8 15
REMARK SMILES IDX 10 17
REMARK H PARENT 14 11 12 13 8 16 10 18
REMARK Flexibility Score: inf
ROOT
ATOM      1  C   UNL     1       8.504  -5.112   2.310  1.00  0.00     0.281 C 
ATOM      2  C   UNL     1       7.287  -6.005   1.968  1.00  0.00     0.202 C 
ATOM      3  C   UNL     1       7.706  -7.325   1.259  1.00  0.00     0.179 C 
ATOM      4  C   UNL     1       9.224  -7.571   1.353  1.00  0.00     0.177 C 
ATOM      5  C   UNL     1       9.765  -7.123   2.740  1.00  0.00     0.178 C 
ATOM      6  O   UNL     1       9.455  -5.783   3.124  1.00  0.00    -0.341 OA
ENDROOT
BRANCH   1   7
ATOM      7  O   UNL     1       9.141  -4.652   1.128  1.00  0.00    -0.350 OA
BRANCH   7   8
ATOM      8  C   UNL     1      10.007  -3.569   1.401  1.00  0.00     0.160 C 
ATOM      9  C   UNL     1      11.380  -3.872   0.819  1.00  0.00     0.035 C 
ENDBRANCH   7   8
ENDBRANCH   1   7
BRANCH   2  10
ATOM     10  O   UNL     1       6.522  -6.249   3.125  1.00  0.00    -0.385 OA
ATOM     11  H   UNL     1       5.819  -5.550   3.177  1.00  0.00     0.211 HD
ENDBRANCH   2  10
BRANCH   3  12
ATOM     12  O   UNL     1       7.005  -8.424   1.790  1.00  0.00    -0.387 OA
ATOM     13  H   UNL     1       6.951  -9.104   1.068  1.00  0.00     0.211 HD
ENDBRANCH   3  12
BRANCH   5  14
ATOM     14  C   UNL     1      11.288  -7.310   2.837  1.00  0.00     0.191 C 
BRANCH  14  15
ATOM     15  O   UNL     1      11.621  -8.665   2.997  1.00  0.00    -0.394 OA
ATOM     16  H   UNL     1      12.046  -8.750   3.890  1.00  0.00     0.210 HD
ENDBRANCH  14  15
ENDBRANCH   5  14
BRANCH   4  17
ATOM     17  O   UNL     1       9.491  -8.937   1.139  1.00  0.00    -0.387 OA
ATOM     18  H   UNL     1      10.278  -9.175   1.696  1.00  0.00     0.211 HD
ENDBRANCH   4  17
TORSDOF 7
ENDMDL
MODEL 8
REMARK VINA RESULT:    -2.801      2.464      4.637
REMARK INTER + INTRA:          -3.678
REMARK INTER:                  -3.260
REMARK INTRA:                  -0.419
REMARK UNBOUND:                -0.059
REMARK SMILES CCO[C@@H]1O[C@H](CO)[C@@H](O)[C@@H](O)[C@H]1O
REMARK SMILES IDX 4 1 13 2 11 3 9 4 6 5 5 6 3 7 2 8 1 9 14 10 12 12 7 14 8 15
REMARK SMILES IDX 10 17
REMARK H PARENT 14 11 12 13 8 16 10 18
REMARK Flexibility Score: inf
ROOT
ATOM      1  C   UNL     1       9.935  -7.515   2.183  1.00  0.00     0.281 C 
ATOM      2  C   UNL     1      10.031  -5.986   1.961  1.00  0.00     0.202 C 
ATOM      3  C   UNL     1       8.684  -5.374   1.481  1.00  0.00     0.179 C 
ATOM      4  C   UNL     1       7.513  -6.362   1.646  1.00  0.00     0.177 C 
ATOM      5  C   UNL     1       7.673  -7.184   2.955  1.00  0.00     0.178 C 
ATOM      6  O   UNL     1       8.920  -7.862   3.114  1.00  0.00    -0.341 OA
ENDROOT
BRANCH   1   7
ATOM      7  O   UNL     1       9.696  -8.189   0.956  1.00  0.00    -0.350 OA
BRANCH   7   8
ATOM      8  C   UNL     1      10.056  -9.552   1.042  1.00  0.00     0.160 C 
ATOM      9  C   UNL     1      10.697  -9.981  -0.269  1.00  0.00     0.035 C 
ENDBRANCH   7   8
ENDBRANCH   1   7
BRANCH   2  10
ATOM     10  O   UNL     1      10.511  -5.355   3.125  1.00  0.00    -0.385 OA
ATOM     11  H   UNL     1      10.569  -4.381   2.940  1.00  0.00     0.211 HD
ENDBRANCH   2  10
BRANCH   3  12
ATOM     12  O   UNL     1       8.405  -4.176   2.165  1.00  0.00    -0.387 OA
ATOM     13  H   UNL     1       9.006  -3.483   1.784  1.00  0.00     0.211 HD
ENDBRANCH   3  12
BRANCH   5  14
ATOM     14  C   UNL     1       6.543  -8.215   3.115  1.00  0.00     0.191 C 
BRANCH  14  15
ATOM     15  O   UNL     1       6.012  -8.579   1.868  1.00  0.00    -0.394 OA
ATOM     16  H   UNL     1       6.277  -7.868   1.227  1.00  0.00     0.210 HD
ENDBRANCH  14  15
ENDBRANCH   5  14
BRANCH   4  17
ATOM     17  O   UNL     1       6.298  -5.649   1.660  1.00  0.00    -0.387 OA
ATOM     18  H   UNL     1       6.444  -4.808   1.152  1.00  0.00     0.211 HD
ENDBRANCH   4  17
TORSDOF 7
ENDMDL
