MODEL 1
REMARK VINA RESULT:    -5.244      0.000      0.000
REMARK INTER + INTRA:         -12.875
REMARK INTER:                 -11.375
REMARK INTRA:                  -1.499
REMARK UNBOUND:                -1.499
REMARK SMILES CCCCCCCCCCCCCCCCCCCCCC(=O)[O-]
REMARK SMILES IDX 12 1 11 2 10 3 9 4 8 5 7 6 6 7 5 8 4 9 3 10 2 11 1 12 13 13
REMARK SMILES IDX 14 14 15 15 16 16 17 17 18 18 19 19 20 20 21 21 22 22 23 23
REMARK SMILES IDX 24 24
REMARK H PARENT
REMARK Flexibility Score: inf
ROOT
ATOM      1  C   UNL     1      17.610  22.176  33.128  1.00  0.00     0.000 C 
ENDROOT
BRANCH   1   2
ATOM      2  C   UNL     1      18.958  21.747  32.520  1.00  0.00     0.000 C 
BRANCH   2   3
ATOM      3  C   UNL     1      20.165  22.299  33.295  1.00  0.00     0.000 C 
BRANCH   3   4
ATOM      4  C   UNL     1      20.965  21.200  34.019  1.00  0.00    -0.000 C 
BRANCH   4   5
ATOM      5  C   UNL     1      22.023  21.712  35.013  1.00  0.00    -0.000 C 
BRANCH   5   6
ATOM      6  C   UNL     1      21.558  21.631  36.477  1.00  0.00    -0.000 C 
BRANCH   6   7
ATOM      7  C   UNL     1      21.419  23.014  37.136  1.00  0.00    -0.000 C 
BRANCH   7   8
ATOM      8  C   UNL     1      22.516  23.361  38.160  1.00  0.00    -0.000 C 
BRANCH   8   9
ATOM      9  C   UNL     1      23.753  24.043  37.541  1.00  0.00    -0.000 C 
BRANCH   9  10
ATOM     10  C   UNL     1      24.932  23.072  37.382  1.00  0.00    -0.000 C 
BRANCH  10  11
ATOM     11  C   UNL     1      24.802  21.885  38.343  1.00  0.00    -0.003 C 
ATOM     12  C   UNL     1      24.995  20.560  37.610  1.00  0.00     0.004 C 
ENDBRANCH  10  11
ENDBRANCH   9  10
ENDBRANCH   8   9
ENDBRANCH   7   8
ENDBRANCH   6   7
ENDBRANCH   5   6
ENDBRANCH   4   5
ENDBRANCH   3   4
ENDBRANCH   2   3
ENDBRANCH   1   2
BRANCH   1  13
ATOM     13  C   UNL     1      17.298  21.572  34.514  1.00  0.00     0.000 C 
BRANCH  13  14
ATOM     14  C   UNL     1      16.004  22.081  35.176  1.00  0.00     0.000 C 
BRANCH  14  15
ATOM     15  C   UNL     1      14.811  22.124  34.210  1.00  0.00     0.000 C 
BRANCH  15  16
ATOM     16  C   UNL     1      13.640  21.291  34.752  1.00  0.00     0.000 C 
BRANCH  16  17
ATOM     17  C   UNL     1      12.308  22.059  34.743  1.00  0.00     0.000 C 
BRANCH  17  18
ATOM     18  C   UNL     1      11.556  21.957  36.081  1.00  0.00     0.000 C 
BRANCH  18  19
ATOM     19  C   UNL     1      12.426  22.383  37.276  1.00  0.00     0.000 C 
BRANCH  19  20
ATOM     20  C   UNL     1      11.887  21.849  38.616  1.00  0.00     0.006 C 
BRANCH  20  21
ATOM     21  C   UNL     1      10.756  22.722  39.175  1.00  0.00     0.053 C 
BRANCH  21  22
ATOM     22  C   UNL     1       9.971  22.006  40.232  1.00  0.00     0.041 C 
ATOM     23  O   UNL     1       9.347  22.658  41.109  1.00  0.00    -0.550 OA
ATOM     24  O   UNL     1       9.954  20.618  40.265  1.00  0.00    -0.550 OA
ENDBRANCH  21  22
ENDBRANCH  20  21
ENDBRANCH  19  20
ENDBRANCH  18  19
ENDBRANCH  17  18
ENDBRANCH  16  17
ENDBRANCH  15  16
ENDBRANCH  14  15
ENDBRANCH  13  14
ENDBRANCH   1  13
TORSDOF 20
ENDMDL
MODEL 2
REMARK VINA RESULT:    -5.217      1.332      2.772
REMARK INTER + INTRA:         -12.816
REMARK INTER:                 -11.307
REMARK INTRA:                  -1.509
REMARK UNBOUND:                -1.499
REMARK SMILES CCCCCCCCCCCCCCCCCCCCCC(=O)[O-]
REMARK SMILES IDX 12 1 11 2 10 3 9 4 8 5 7 6 6 7 5 8 4 9 3 10 2 11 1 12 13 13
REMARK SMILES IDX 14 14 15 15 16 16 17 17 18 18 19 19 20 20 21 21 22 22 23 23
REMARK SMILES IDX 24 24
REMARK H PARENT
REMARK Flexibility Score: inf
ROOT
ATOM      1  C   UNL     1      15.210  22.376  35.290  1.00  0.00     0.000 C 
ENDROOT
BRANCH   1   2
ATOM      2  C   UNL     1      16.741  22.376  35.121  1.00  0.00     0.000 C 
BRANCH   2   3
ATOM      3  C   UNL     1      17.191  21.802  33.767  1.00  0.00     0.000 C 
BRANCH   3   4
ATOM      4  C   UNL     1      18.471  22.468  33.231  1.00  0.00    -0.000 C 
BRANCH   4   5
ATOM      5  C   UNL     1      19.495  21.504  32.604  1.00  0.00    -0.000 C 
BRANCH   5   6
ATOM      6  C   UNL     1      20.185  20.606  33.644  1.00  0.00    -0.000 C 
BRANCH   6   7
ATOM      7  C   UNL     1      21.356  21.307  34.354  1.00  0.00    -0.000 C 
BRANCH   7   8
ATOM      8  C   UNL     1      21.161  21.533  35.865  1.00  0.00    -0.000 C 
BRANCH   8   9
ATOM      9  C   UNL     1      22.423  22.054  36.584  1.00  0.00    -0.000 C 
BRANCH   9  10
ATOM     10  C   UNL     1      23.621  22.184  35.632  1.00  0.00    -0.000 C 
BRANCH  10  11
ATOM     11  C   UNL     1      24.945  21.999  36.383  1.00  0.00    -0.003 C 
ATOM     12  C   UNL     1      24.789  21.014  37.538  1.00  0.00     0.004 C 
ENDBRANCH  10  11
ENDBRANCH   9  10
ENDBRANCH   8   9
ENDBRANCH   7   8
ENDBRANCH   6   7
ENDBRANCH   5   6
ENDBRANCH   4   5
ENDBRANCH   3   4
ENDBRANCH   2   3
ENDBRANCH   1   2
BRANCH   1  13
ATOM     13  C   UNL     1      14.487  21.150  34.691  1.00  0.00     0.000 C 
BRANCH  13  14
ATOM     14  C   UNL     1      12.966  21.307  34.514  1.00  0.00     0.000 C 
BRANCH  14  15
ATOM     15  C   UNL     1      12.389  22.494  35.297  1.00  0.00     0.000 C 
BRANCH  15  16
ATOM     16  C   UNL     1      11.679  22.014  36.572  1.00  0.00     0.000 C 
BRANCH  16  17
ATOM     17  C   UNL     1      12.339  22.540  37.856  1.00  0.00     0.000 C 
BRANCH  17  18
ATOM     18  C   UNL     1      13.208  21.478  38.553  1.00  0.00     0.000 C 
BRANCH  18  19
ATOM     19  C   UNL     1      12.617  21.028  39.899  1.00  0.00     0.000 C 
BRANCH  19  20
ATOM     20  C   UNL     1      11.111  21.331  40.011  1.00  0.00     0.006 C 
BRANCH  20  21
ATOM     21  C   UNL     1      10.767  22.091  41.299  1.00  0.00     0.053 C 
BRANCH  21  22
ATOM     22  C   UNL     1       9.668  23.085  41.081  1.00  0.00     0.041 C 
ATOM     23  O   UNL     1       8.637  23.061  41.803  1.00  0.00    -0.550 OA
ATOM     24  O   UNL     1       9.769  24.021  40.059  1.00  0.00    -0.550 OA
ENDBRANCH  21  22
ENDBRANCH  20  21
ENDBRANCH  19  20
ENDBRANCH  18  19
ENDBRANCH  17  18
ENDBRANCH  16  17
ENDBRANCH  15  16
ENDBRANCH  14  15
ENDBRANCH  13  14
ENDBRANCH   1  13
TORSDOF 20
ENDMDL
MODEL 3
REMARK VINA RESULT:    -5.213      1.772      3.959
REMARK INTER + INTRA:         -12.807
REMARK INTER:                 -11.292
REMARK INTRA:                  -1.516
REMARK UNBOUND:                -1.499
REMARK SMILES CCCCCCCCCCCCCCCCCCCCCC(=O)[O-]
REMARK SMILES IDX 12 1 11 2 10 3 9 4 8 5 7 6 6 7 5 8 4 9 3 10 2 11 1 12 13 13
REMARK SMILES IDX 14 14 15 15 16 16 17 17 18 18 19 19 20 20 21 21 22 22 23 23
REMARK SMILES IDX 24 24
REMARK H PARENT
REMARK Flexibility Score: inf
ROOT
ATOM      1  C   UNL     1      14.628  20.790  36.388  1.00  0.00     0.000 C 
ENDROOT
BRANCH   1   2
ATOM      2  C   UNL     1      16.088  21.047  35.974  1.00  0.00     0.000 C 
BRANCH   2   3
ATOM      3  C   UNL     1      16.237  22.250  35.029  1.00  0.00     0.000 C 
BRANCH   3   4
ATOM      4  C   UNL     1      16.879  21.876  33.680  1.00  0.00    -0.000 C 
BRANCH   4   5
ATOM      5  C   UNL     1      18.267  22.493  33.425  1.00  0.00    -0.000 C 
BRANCH   5   6
ATOM      6  C   UNL     1      19.234  21.521  32.727  1.00  0.00    -0.000 C 
BRANCH   6   7
ATOM      7  C   UNL     1      20.465  21.186  33.586  1.00  0.00    -0.000 C 
BRANCH   7   8
ATOM      8  C   UNL     1      20.176  20.963  35.082  1.00  0.00    -0.000 C 
BRANCH   8   9
ATOM      9  C   UNL     1      21.093  21.773  36.021  1.00  0.00    -0.000 C 
BRANCH   9  10
ATOM     10  C   UNL     1      22.520  21.904  35.468  1.00  0.00    -0.000 C 
BRANCH  10  11
ATOM     11  C   UNL     1      23.450  22.565  36.491  1.00  0.00    -0.003 C 
ATOM     12  C   UNL     1      24.883  22.063  36.338  1.00  0.00     0.004 C 
ENDBRANCH  10  11
ENDBRANCH   9  10
ENDBRANCH   8   9
ENDBRANCH   7   8
ENDBRANCH   6   7
ENDBRANCH   5   6
ENDBRANCH   4   5
ENDBRANCH   3   4
ENDBRANCH   2   3
ENDBRANCH   1   2
BRANCH   1  13
ATOM     13  C   UNL     1      13.617  20.743  35.222  1.00  0.00     0.000 C 
BRANCH  13  14
ATOM     14  C   UNL     1      12.403  21.678  35.368  1.00  0.00     0.000 C 
BRANCH  14  15
ATOM     15  C   UNL     1      12.387  22.441  36.700  1.00  0.00     0.000 C 
BRANCH  15  16
ATOM     16  C   UNL     1      11.075  22.187  37.458  1.00  0.00     0.000 C 
BRANCH  16  17
ATOM     17  C   UNL     1      11.252  22.222  38.985  1.00  0.00     0.000 C 
BRANCH  17  18
ATOM     18  C   UNL     1      10.368  21.191  39.707  1.00  0.00     0.000 C 
BRANCH  18  19
ATOM     19  C   UNL     1       9.481  21.833  40.786  1.00  0.00     0.000 C 
BRANCH  19  20
ATOM     20  C   UNL     1      10.091  23.126  41.357  1.00  0.00     0.006 C 
BRANCH  20  21
ATOM     21  C   UNL     1      10.622  22.935  42.784  1.00  0.00     0.053 C 
BRANCH  21  22
ATOM     22  C   UNL     1      12.111  22.770  42.806  1.00  0.00     0.041 C 
ATOM     23  O   UNL     1      12.639  21.715  42.366  1.00  0.00    -0.550 OA
ATOM     24  O   UNL     1      12.915  23.770  43.339  1.00  0.00    -0.550 OA
ENDBRANCH  21  22
ENDBRANCH  20  21
ENDBRANCH  19  20
ENDBRANCH  18  19
ENDBRANCH  17  18
ENDBRANCH  16  17
ENDBRANCH  15  16
ENDBRANCH  14  15
ENDBRANCH  13  14
ENDBRANCH   1  13
TORSDOF 20
ENDMDL
MODEL 4
REMARK VINA RESULT:    -5.199      6.423     10.138
REMARK INTER + INTRA:         -12.777
REMARK INTER:                 -11.765
REMARK INTRA:                  -1.012
REMARK UNBOUND:                -1.499
REMARK SMILES CCCCCCCCCCCCCCCCCCCCCC(=O)[O-]
REMARK SMILES IDX 12 1 11 2 10 3 9 4 8 5 7 6 6 7 5 8 4 9 3 10 2 11 1 12 13 13
REMARK SMILES IDX 14 14 15 15 16 16 17 17 18 18 19 19 20 20 21 21 22 22 23 23
REMARK SMILES IDX 24 24
REMARK H PARENT
REMARK Flexibility Score: inf
ROOT
ATOM      1  C   UNL     1      11.899  22.234  42.294  1.00  0.00     0.000 C 
ENDROOT
BRANCH   1   2
ATOM      2  C   UNL     1      12.785  22.418  43.540  1.00  0.00     0.000 C 
BRANCH   2   3
ATOM      3  C   UNL     1      11.969  22.646  44.824  1.00  0.00     0.000 C 
BRANCH   3   4
ATOM      4  C   UNL     1      12.410  21.733  45.983  1.00  0.00    -0.000 C 
BRANCH   4   5
ATOM      5  C   UNL     1      12.845  22.470  47.263  1.00  0.00    -0.000 C 
BRANCH   5   6
ATOM      6  C   UNL     1      13.939  23.520  47.006  1.00  0.00    -0.000 C 
BRANCH   6   7
ATOM      7  C   UNL     1      15.338  22.898  46.855  1.00  0.00    -0.000 C 
BRANCH   7   8
ATOM      8  C   UNL     1      16.399  23.435  47.834  1.00  0.00    -0.000 C 
BRANCH   8   9
ATOM      9  C   UNL     1      17.848  23.280  47.328  1.00  0.00    -0.000 C 
BRANCH   9  10
ATOM     10  C   UNL     1      18.847  24.085  48.172  1.00  0.00    -0.000 C 
BRANCH  10  11
ATOM     11  C   UNL     1      19.922  23.172  48.774  1.00  0.00    -0.003 C 
ATOM     12  C   UNL     1      19.469  21.714  48.772  1.00  0.00     0.004 C 
ENDBRANCH  10  11
ENDBRANCH   9  10
ENDBRANCH   8   9
ENDBRANCH   7   8
ENDBRANCH   6   7
ENDBRANCH   5   6
ENDBRANCH   4   5
ENDBRANCH   3   4
ENDBRANCH   2   3
ENDBRANCH   1   2
BRANCH   1  13
ATOM     13  C   UNL     1      10.479  22.829  42.409  1.00  0.00     0.000 C 
BRANCH  13  14
ATOM     14  C   UNL     1       9.594  22.661  41.161  1.00  0.00     0.000 C 
BRANCH  14  15
ATOM     15  C   UNL     1      10.090  21.558  40.215  1.00  0.00     0.000 C 
BRANCH  15  16
ATOM     16  C   UNL     1      10.647  22.162  38.917  1.00  0.00     0.000 C 
BRANCH  16  17
ATOM     17  C   UNL     1      12.167  21.981  38.779  1.00  0.00     0.000 C 
BRANCH  17  18
ATOM     18  C   UNL     1      12.596  21.654  37.338  1.00  0.00     0.000 C 
BRANCH  18  19
ATOM     19  C   UNL     1      11.485  21.943  36.316  1.00  0.00     0.000 C 
BRANCH  19  20
ATOM     20  C   UNL     1      12.041  22.417  34.961  1.00  0.00     0.006 C 
BRANCH  20  21
ATOM     21  C   UNL     1      13.227  21.564  34.490  1.00  0.00     0.053 C 
BRANCH  21  22
ATOM     22  C   UNL     1      14.521  22.315  34.577  1.00  0.00     0.041 C 
ATOM     23  O   UNL     1      14.533  23.518  34.944  1.00  0.00    -0.550 OA
ATOM     24  O   UNL     1      15.711  21.693  34.222  1.00  0.00    -0.550 OA
ENDBRANCH  21  22
ENDBRANCH  20  21
ENDBRANCH  19  20
ENDBRANCH  18  19
ENDBRANCH  17  18
ENDBRANCH  16  17
ENDBRANCH  15  16
ENDBRANCH  14  15
ENDBRANCH  13  14
ENDBRANCH   1  13
TORSDOF 20
ENDMDL
MODEL 5
REMARK VINA RESULT:    -5.163      6.970     12.087
REMARK INTER + INTRA:         -12.698
REMARK INTER:                 -11.296
REMARK INTRA:                  -1.402
REMARK UNBOUND:                -1.499
REMARK SMILES CCCCCCCCCCCCCCCCCCCCCC(=O)[O-]
REMARK SMILES IDX 12 1 11 2 10 3 9 4 8 5 7 6 6 7 5 8 4 9 3 10 2 11 1 12 13 13
REMARK SMILES IDX 14 14 15 15 16 16 17 17 18 18 19 19 20 20 21 21 22 22 23 23
REMARK SMILES IDX 24 24
REMARK H PARENT
REMARK Flexibility Score: inf
ROOT
ATOM      1  C   UNL     1      12.552  23.282  43.181  1.00  0.00     0.000 C 
ENDROOT
BRANCH   1   2
ATOM      2  C   UNL     1      11.481  22.320  42.635  1.00  0.00     0.000 C 
BRANCH   2   3
ATOM      3  C   UNL     1      10.149  23.023  42.327  1.00  0.00     0.000 C 
BRANCH   3   4
ATOM      4  C   UNL     1       9.374  22.358  41.174  1.00  0.00    -0.000 C 
BRANCH   4   5
ATOM      5  C   UNL     1      10.134  21.240  40.438  1.00  0.00    -0.000 C 
BRANCH   5   6
ATOM      6  C   UNL     1      10.538  21.634  39.007  1.00  0.00    -0.000 C 
BRANCH   6   7
ATOM      7  C   UNL     1      11.955  22.228  38.931  1.00  0.00    -0.000 C 
BRANCH   7   8
ATOM      8  C   UNL     1      12.559  22.293  37.515  1.00  0.00    -0.000 C 
BRANCH   8   9
ATOM      9  C   UNL     1      11.509  22.221  36.387  1.00  0.00    -0.000 C 
BRANCH   9  10
ATOM     10  C   UNL     1      12.106  21.696  35.072  1.00  0.00    -0.000 C 
BRANCH  10  11
ATOM     11  C   UNL     1      13.360  22.486  34.681  1.00  0.00    -0.003 C 
ATOM     12  C   UNL     1      14.574  21.568  34.564  1.00  0.00     0.004 C 
ENDBRANCH  10  11
ENDBRANCH   9  10
ENDBRANCH   8   9
ENDBRANCH   7   8
ENDBRANCH   6   7
ENDBRANCH   5   6
ENDBRANCH   4   5
ENDBRANCH   3   4
ENDBRANCH   2   3
ENDBRANCH   1   2
BRANCH   1  13
ATOM     13  C   UNL     1      12.543  23.467  44.713  1.00  0.00     0.000 C 
BRANCH  13  14
ATOM     14  C   UNL     1      12.240  22.196  45.527  1.00  0.00     0.000 C 
BRANCH  14  15
ATOM     15  C   UNL     1      12.957  22.165  46.884  1.00  0.00     0.000 C 
BRANCH  15  16
ATOM     16  C   UNL     1      13.812  23.427  47.078  1.00  0.00     0.000 C 
BRANCH  16  17
ATOM     17  C   UNL     1      15.264  23.109  47.466  1.00  0.00     0.000 C 
BRANCH  17  18
ATOM     18  C   UNL     1      16.093  22.583  46.281  1.00  0.00     0.000 C 
BRANCH  18  19
ATOM     19  C   UNL     1      17.605  22.637  46.553  1.00  0.00     0.000 C 
BRANCH  19  20
ATOM     20  C   UNL     1      18.168  24.067  46.469  1.00  0.00     0.006 C 
BRANCH  20  21
ATOM     21  C   UNL     1      18.823  24.510  47.785  1.00  0.00     0.053 C 
BRANCH  21  22
ATOM     22  C   UNL     1      20.161  23.865  47.985  1.00  0.00     0.041 C 
ATOM     23  O   UNL     1      20.970  23.773  47.026  1.00  0.00    -0.550 OA
ATOM     24  O   UNL     1      20.501  23.339  49.225  1.00  0.00    -0.550 OA
ENDBRANCH  21  22
ENDBRANCH  20  21
ENDBRANCH  19  20
ENDBRANCH  18  19
ENDBRANCH  17  18
ENDBRANCH  16  17
ENDBRANCH  15  16
ENDBRANCH  14  15
ENDBRANCH  13  14
ENDBRANCH   1  13
TORSDOF 20
ENDMDL
MODEL 6
REMARK VINA RESULT:    -5.149      3.680      7.256
REMARK INTER + INTRA:         -12.668
REMARK INTER:                 -11.230
REMARK INTRA:                  -1.438
REMARK UNBOUND:                -1.499
REMARK SMILES CCCCCCCCCCCCCCCCCCCCCC(=O)[O-]
REMARK SMILES IDX 12 1 11 2 10 3 9 4 8 5 7 6 6 7 5 8 4 9 3 10 2 11 1 12 13 13
REMARK SMILES IDX 14 14 15 15 16 16 17 17 18 18 19 19 20 20 21 21 22 22 23 23
REMARK SMILES IDX 24 24
REMARK H PARENT
REMARK Flexibility Score: inf
ROOT
ATOM      1  C   UNL     1      12.554  21.791  37.536  1.00  0.00     0.000 C 
ENDROOT
BRANCH   1   2
ATOM      2  C   UNL     1      11.517  22.184  36.467  1.00  0.00     0.000 C 
BRANCH   2   3
ATOM      3  C   UNL     1      11.946  21.787  35.045  1.00  0.00     0.000 C 
BRANCH   3   4
ATOM      4  C   UNL     1      12.555  22.960  34.255  1.00  0.00    -0.000 C 
BRANCH   4   5
ATOM      5  C   UNL     1      14.084  23.099  34.368  1.00  0.00    -0.000 C 
BRANCH   5   6
ATOM      6  C   UNL     1      14.789  21.755  34.622  1.00  0.00    -0.000 C 
BRANCH   6   7
ATOM      7  C   UNL     1      15.926  21.863  35.652  1.00  0.00    -0.000 C 
BRANCH   7   8
ATOM      8  C   UNL     1      17.268  21.251  35.209  1.00  0.00    -0.000 C 
BRANCH   8   9
ATOM      9  C   UNL     1      18.272  22.287  34.661  1.00  0.00    -0.000 C 
BRANCH   9  10
ATOM     10  C   UNL     1      18.333  22.280  33.126  1.00  0.00    -0.000 C 
BRANCH  10  11
ATOM     11  C   UNL     1      19.554  21.499  32.626  1.00  0.00    -0.003 C 
ATOM     12  C   UNL     1      20.525  21.207  33.766  1.00  0.00     0.004 C 
ENDBRANCH  10  11
ENDBRANCH   9  10
ENDBRANCH   8   9
ENDBRANCH   7   8
ENDBRANCH   6   7
ENDBRANCH   5   6
ENDBRANCH   4   5
ENDBRANCH   3   4
ENDBRANCH   2   3
ENDBRANCH   1   2
BRANCH   1  13
ATOM     13  C   UNL     1      12.022  21.767  38.985  1.00  0.00     0.000 C 
BRANCH  13  14
ATOM     14  C   UNL     1      10.496  21.918  39.127  1.00  0.00     0.000 C 
BRANCH  14  15
ATOM     15  C   UNL     1       9.949  21.299  40.421  1.00  0.00     0.000 C 
BRANCH  15  16
ATOM     16  C   UNL     1       9.328  22.378  41.321  1.00  0.00     0.000 C 
BRANCH  16  17
ATOM     17  C   UNL     1      10.381  23.288  41.974  1.00  0.00     0.000 C 
BRANCH  17  18
ATOM     18  C   UNL     1      11.080  22.621  43.171  1.00  0.00     0.000 C 
BRANCH  18  19
ATOM     19  C   UNL     1      12.611  22.611  43.025  1.00  0.00     0.000 C 
BRANCH  19  20
ATOM     20  C   UNL     1      13.329  22.453  44.377  1.00  0.00     0.006 C 
BRANCH  20  21
ATOM     21  C   UNL     1      12.392  22.707  45.565  1.00  0.00     0.053 C 
BRANCH  21  22
ATOM     22  C   UNL     1      12.927  23.766  46.480  1.00  0.00     0.041 C 
ATOM     23  O   UNL     1      14.138  24.105  46.418  1.00  0.00    -0.550 OA
ATOM     24  O   UNL     1      12.095  24.360  47.420  1.00  0.00    -0.550 OA
ENDBRANCH  21  22
ENDBRANCH  20  21
ENDBRANCH  19  20
ENDBRANCH  18  19
ENDBRANCH  17  18
ENDBRANCH  16  17
ENDBRANCH  15  16
ENDBRANCH  14  15
ENDBRANCH  13  14
ENDBRANCH   1  13
TORSDOF 20
ENDMDL
MODEL 7
REMARK VINA RESULT:    -5.124      4.506     10.921
REMARK INTER + INTRA:         -12.614
REMARK INTER:                 -11.676
REMARK INTRA:                  -0.938
REMARK UNBOUND:                -1.499
REMARK SMILES CCCCCCCCCCCCCCCCCCCCCC(=O)[O-]
REMARK SMILES IDX 12 1 11 2 10 3 9 4 8 5 7 6 6 7 5 8 4 9 3 10 2 11 1 12 13 13
REMARK SMILES IDX 14 14 15 15 16 16 17 17 18 18 19 19 20 20 21 21 22 22 23 23
REMARK SMILES IDX 24 24
REMARK H PARENT
REMARK Flexibility Score: inf
ROOT
ATOM      1  C   UNL     1      15.755  22.133  34.626  1.00  0.00     0.000 C 
ENDROOT
BRANCH   1   2
ATOM      2  C   UNL     1      14.887  20.959  35.115  1.00  0.00     0.000 C 
BRANCH   2   3
ATOM      3  C   UNL     1      13.460  20.993  34.542  1.00  0.00     0.000 C 
BRANCH   3   4
ATOM      4  C   UNL     1      12.674  22.247  34.968  1.00  0.00    -0.000 C 
BRANCH   4   5
ATOM      5  C   UNL     1      11.935  22.127  36.313  1.00  0.00    -0.000 C 
BRANCH   5   6
ATOM      6  C   UNL     1      12.841  22.418  37.521  1.00  0.00    -0.000 C 
BRANCH   6   7
ATOM      7  C   UNL     1      12.196  22.022  38.860  1.00  0.00    -0.000 C 
BRANCH   7   8
ATOM      8  C   UNL     1      10.659  21.928  38.841  1.00  0.00    -0.000 C 
BRANCH   8   9
ATOM      9  C   UNL     1      10.046  21.479  40.184  1.00  0.00    -0.000 C 
BRANCH   9  10
ATOM     10  C   UNL     1       9.481  22.660  40.987  1.00  0.00    -0.000 C 
BRANCH  10  11
ATOM     11  C   UNL     1      10.100  22.721  42.388  1.00  0.00    -0.003 C 
ATOM     12  C   UNL     1      11.526  23.262  42.336  1.00  0.00     0.004 C 
ENDBRANCH  10  11
ENDBRANCH   9  10
ENDBRANCH   8   9
ENDBRANCH   7   8
ENDBRANCH   6   7
ENDBRANCH   5   6
ENDBRANCH   4   5
ENDBRANCH   3   4
ENDBRANCH   2   3
ENDBRANCH   1   2
BRANCH   1  13
ATOM     13  C   UNL     1      17.226  21.775  34.325  1.00  0.00     0.000 C 
BRANCH  13  14
ATOM     14  C   UNL     1      17.726  22.172  32.924  1.00  0.00     0.000 C 
BRANCH  14  15
ATOM     15  C   UNL     1      19.068  21.523  32.558  1.00  0.00     0.000 C 
BRANCH  15  16
ATOM     16  C   UNL     1      20.225  22.204  33.306  1.00  0.00     0.000 C 
BRANCH  16  17
ATOM     17  C   UNL     1      20.851  21.303  34.382  1.00  0.00     0.000 C 
BRANCH  17  18
ATOM     18  C   UNL     1      21.149  22.059  35.688  1.00  0.00     0.000 C 
BRANCH  18  19
ATOM     19  C   UNL     1      22.536  21.720  36.259  1.00  0.00     0.000 C 
BRANCH  19  20
ATOM     20  C   UNL     1      23.278  22.964  36.780  1.00  0.00     0.006 C 
BRANCH  20  21
ATOM     21  C   UNL     1      24.764  22.685  37.043  1.00  0.00     0.053 C 
BRANCH  21  22
ATOM     22  C   UNL     1      24.956  21.531  37.979  1.00  0.00     0.041 C 
ATOM     23  O   UNL     1      25.231  20.388  37.529  1.00  0.00    -0.550 OA
ATOM     24  O   UNL     1      24.800  21.711  39.348  1.00  0.00    -0.550 OA
ENDBRANCH  21  22
ENDBRANCH  20  21
ENDBRANCH  19  20
ENDBRANCH  18  19
ENDBRANCH  17  18
ENDBRANCH  16  17
ENDBRANCH  15  16
ENDBRANCH  14  15
ENDBRANCH  13  14
ENDBRANCH   1  13
TORSDOF 20
ENDMDL
MODEL 8
REMARK VINA RESULT:    -5.123      7.577     10.006
REMARK INTER + INTRA:         -12.612
REMARK INTER:                  -9.838
REMARK INTRA:                  -2.774
REMARK UNBOUND:                -1.499
REMARK SMILES CCCCCCCCCCCCCCCCCCCCCC(=O)[O-]
REMARK SMILES IDX 12 1 11 2 10 3 9 4 8 5 7 6 6 7 5 8 4 9 3 10 2 11 1 12 13 13
REMARK SMILES IDX 14 14 15 15 16 16 17 17 18 18 19 19 20 20 21 21 22 22 23 23
REMARK SMILES IDX 24 24
REMARK H PARENT
REMARK Flexibility Score: inf
ROOT
ATOM      1  C   UNL     1      15.912  22.839  46.018  1.00  0.00     0.000 C 
ENDROOT
BRANCH   1   2
ATOM      2  C   UNL     1      15.991  23.127  47.528  1.00  0.00     0.000 C 
BRANCH   2   3
ATOM      3  C   UNL     1      17.435  23.281  48.032  1.00  0.00     0.000 C 
BRANCH   3   4
ATOM      4  C   UNL     1      18.103  21.933  48.358  1.00  0.00    -0.000 C 
BRANCH   4   5
ATOM      5  C   UNL     1      19.562  22.028  48.841  1.00  0.00    -0.000 C 
BRANCH   5   6
ATOM      6  C   UNL     1      20.085  23.473  48.881  1.00  0.00    -0.000 C 
BRANCH   6   7
ATOM      7  C   UNL     1      21.392  23.657  48.091  1.00  0.00    -0.000 C 
BRANCH   7   8
ATOM      8  C   UNL     1      21.416  22.987  46.705  1.00  0.00    -0.000 C 
BRANCH   8   9
ATOM      9  C   UNL     1      20.631  23.761  45.626  1.00  0.00    -0.000 C 
BRANCH   9  10
ATOM     10  C   UNL     1      19.521  22.909  44.992  1.00  0.00    -0.000 C 
BRANCH  10  11
ATOM     11  C   UNL     1      19.835  21.414  45.117  1.00  0.00    -0.003 C 
ATOM     12  C   UNL     1      18.574  20.571  44.942  1.00  0.00     0.004 C 
ENDBRANCH  10  11
ENDBRANCH   9  10
ENDBRANCH   8   9
ENDBRANCH   7   8
ENDBRANCH   6   7
ENDBRANCH   5   6
ENDBRANCH   4   5
ENDBRANCH   3   4
ENDBRANCH   2   3
ENDBRANCH   1   2
BRANCH   1  13
ATOM     13  C   UNL     1      15.892  24.090  45.114  1.00  0.00     0.000 C 
BRANCH  13  14
ATOM     14  C   UNL     1      14.605  24.287  44.293  1.00  0.00     0.000 C 
BRANCH  14  15
ATOM     15  C   UNL     1      13.523  25.072  45.048  1.00  0.00     0.000 C 
BRANCH  15  16
ATOM     16  C   UNL     1      12.569  24.117  45.782  1.00  0.00     0.000 C 
BRANCH  16  17
ATOM     17  C   UNL     1      12.416  22.763  45.070  1.00  0.00     0.000 C 
BRANCH  17  18
ATOM     18  C   UNL     1      11.444  22.826  43.880  1.00  0.00     0.000 C 
BRANCH  18  19
ATOM     19  C   UNL     1      12.112  22.420  42.556  1.00  0.00     0.000 C 
BRANCH  19  20
ATOM     20  C   UNL     1      11.663  23.302  41.376  1.00  0.00     0.006 C 
BRANCH  20  21
ATOM     21  C   UNL     1      11.009  22.482  40.256  1.00  0.00     0.053 C 
BRANCH  21  22
ATOM     22  C   UNL     1       9.703  21.889  40.689  1.00  0.00     0.041 C 
ATOM     23  O   UNL     1       8.849  22.601  41.280  1.00  0.00    -0.550 OA
ATOM     24  O   UNL     1       9.441  20.543  40.467  1.00  0.00    -0.550 OA
ENDBRANCH  21  22
ENDBRANCH  20  21
ENDBRANCH  19  20
ENDBRANCH  18  19
ENDBRANCH  17  18
ENDBRANCH  16  17
ENDBRANCH  15  16
ENDBRANCH  14  15
ENDBRANCH  13  14
ENDBRANCH   1  13
TORSDOF 20
ENDMDL
MODEL 9
REMARK VINA RESULT:    -5.085      7.395     10.098
REMARK INTER + INTRA:         -12.530
REMARK INTER:                 -10.073
REMARK INTRA:                  -2.457
REMARK UNBOUND:                -1.499
REMARK SMILES CCCCCCCCCCCCCCCCCCCCCC(=O)[O-]
REMARK SMILES IDX 12 1 11 2 10 3 9 4 8 5 7 6 6 7 5 8 4 9 3 10 2 11 1 12 13 13
REMARK SMILES IDX 14 14 15 15 16 16 17 17 18 18 19 19 20 20 21 21 22 22 23 23
REMARK SMILES IDX 24 24
REMARK H PARENT
REMARK Flexibility Score: inf
ROOT
ATOM      1  C   UNL     1      17.618  23.471  47.744  1.00  0.00     0.000 C 
ENDROOT
BRANCH   1   2
ATOM      2  C   UNL     1      17.967  22.088  48.324  1.00  0.00     0.000 C 
BRANCH   2   3
ATOM      3  C   UNL     1      19.482  21.872  48.482  1.00  0.00     0.000 C 
BRANCH   3   4
ATOM      4  C   UNL     1      20.253  23.186  48.706  1.00  0.00    -0.000 C 
BRANCH   4   5
ATOM      5  C   UNL     1      21.502  23.367  47.823  1.00  0.00    -0.000 C 
BRANCH   5   6
ATOM      6  C   UNL     1      21.254  22.990  46.352  1.00  0.00    -0.000 C 
BRANCH   6   7
ATOM      7  C   UNL     1      20.504  24.085  45.575  1.00  0.00    -0.000 C 
BRANCH   7   8
ATOM      8  C   UNL     1      20.230  23.762  44.094  1.00  0.00    -0.000 C 
BRANCH   8   9
ATOM      9  C   UNL     1      18.776  23.331  43.810  1.00  0.00    -0.000 C 
BRANCH   9  10
ATOM     10  C   UNL     1      18.667  21.834  43.483  1.00  0.00    -0.000 C 
BRANCH  10  11
ATOM     11  C   UNL     1      18.339  21.018  44.738  1.00  0.00    -0.003 C 
ATOM     12  C   UNL     1      19.442  20.006  45.040  1.00  0.00     0.004 C 
ENDBRANCH  10  11
ENDBRANCH   9  10
ENDBRANCH   8   9
ENDBRANCH   7   8
ENDBRANCH   6   7
ENDBRANCH   5   6
ENDBRANCH   4   5
ENDBRANCH   3   4
ENDBRANCH   2   3
ENDBRANCH   1   2
BRANCH   1  13
ATOM     13  C   UNL     1      16.528  23.464  46.652  1.00  0.00     0.000 C 
BRANCH  13  14
ATOM     14  C   UNL     1      15.212  22.765  47.041  1.00  0.00     0.000 C 
BRANCH  14  15
ATOM     15  C   UNL     1      13.965  23.565  46.640  1.00  0.00     0.000 C 
BRANCH  15  16
ATOM     16  C   UNL     1      12.723  22.660  46.611  1.00  0.00     0.000 C 
BRANCH  16  17
ATOM     17  C   UNL     1      12.332  22.231  45.188  1.00  0.00     0.000 C 
BRANCH  17  18
ATOM     18  C   UNL     1      12.218  23.422  44.220  1.00  0.00     0.000 C 
BRANCH  18  19
ATOM     19  C   UNL     1      11.698  23.003  42.835  1.00  0.00     0.000 C 
BRANCH  19  20
ATOM     20  C   UNL     1      10.170  22.819  42.811  1.00  0.00     0.006 C 
BRANCH  20  21
ATOM     21  C   UNL     1       9.567  23.156  41.441  1.00  0.00     0.053 C 
BRANCH  21  22
ATOM     22  C   UNL     1       9.927  22.133  40.407  1.00  0.00     0.041 C 
ATOM     23  O   UNL     1      10.490  22.483  39.337  1.00  0.00    -0.550 OA
ATOM     24  O   UNL     1       9.614  20.795  40.613  1.00  0.00    -0.550 OA
ENDBRANCH  21  22
ENDBRANCH  20  21
ENDBRANCH  19  20
ENDBRANCH  18  19
ENDBRANCH  17  18
ENDBRANCH  16  17
ENDBRANCH  15  16
ENDBRANCH  14  15
ENDBRANCH  13  14
ENDBRANCH   1  13
TORSDOF 20
ENDMDL
