MODEL 1
REMARK VINA RESULT:    -2.668      0.000      0.000
REMARK INTER + INTRA:          -3.016
REMARK INTER:                  -2.980
REMARK INTRA:                  -0.037
REMARK UNBOUND:                -0.037
REMARK SMILES CCCC(=O)[O-]
REMARK SMILES IDX 3 1 4 2 5 3 6 4 2 5 1 6
REMARK H PARENT
REMARK Flexibility Score: inf
ROOT
ATOM      1  C   UNL     1      19.535 -18.951  22.665  1.00  0.00     0.052 C 
ENDROOT
BRANCH   1   2
ATOM      2  C   UNL     1      18.155 -19.489  22.883  1.00  0.00     0.041 C 
ATOM      3  O   UNL     1      17.982 -20.538  23.558  1.00  0.00    -0.550 OA
ATOM      4  O   UNL     1      17.061 -18.850  22.314  1.00  0.00    -0.550 OA
ENDBRANCH   1   2
BRANCH   1   5
ATOM      5  C   UNL     1      20.597 -19.819  23.354  1.00  0.00     0.003 C 
ATOM      6  C   UNL     1      21.501 -20.535  22.353  1.00  0.00     0.004 C 
ENDBRANCH   1   5
TORSDOF 2
ENDMDL
MODEL 2
REMARK VINA RESULT:    -2.609     11.407     12.232
REMARK INTER + INTRA:          -2.950
REMARK INTER:                  -2.912
REMARK INTRA:                  -0.038
REMARK UNBOUND:                -0.037
REMARK SMILES CCCC(=O)[O-]
REMARK SMILES IDX 3 1 4 2 5 3 6 4 2 5 1 6
REMARK H PARENT
REMARK Flexibility Score: inf
ROOT
ATOM      1  C   UNL     1       7.662 -14.730  23.365  1.00  0.00     0.052 C 
ENDROOT
BRANCH   1   2
ATOM      2  C   UNL     1       8.851 -14.727  24.275  1.00  0.00     0.041 C 
ATOM      3  O   UNL     1       9.993 -14.440  23.827  1.00  0.00    -0.550 OA
ATOM      4  O   UNL     1       8.705 -15.074  25.612  1.00  0.00    -0.550 OA
ENDBRANCH   1   2
BRANCH   1   5
ATOM      5  C   UNL     1       7.389 -16.128  22.793  1.00  0.00     0.003 C 
ATOM      6  C   UNL     1       6.396 -16.919  23.644  1.00  0.00     0.004 C 
ENDBRANCH   1   5
TORSDOF 2
ENDMDL
MODEL 3
REMARK VINA RESULT:    -2.599      2.546      3.539
REMARK INTER + INTRA:          -2.939
REMARK INTER:                  -2.934
REMARK INTRA:                  -0.005
REMARK UNBOUND:                -0.037
REMARK SMILES CCCC(=O)[O-]
REMARK SMILES IDX 3 1 4 2 5 3 6 4 2 5 1 6
REMARK H PARENT
REMARK Flexibility Score: inf
ROOT
ATOM      1  C   UNL     1      19.877 -19.322  22.827  1.00  0.00     0.052 C 
ENDROOT
BRANCH   1   2
ATOM      2  C   UNL     1      21.049 -20.233  23.022  1.00  0.00     0.041 C 
ATOM      3  O   UNL     1      21.798 -20.519  22.050  1.00  0.00    -0.550 OA
ATOM      4  O   UNL     1      21.297 -20.792  24.269  1.00  0.00    -0.550 OA
ENDBRANCH   1   2
BRANCH   1   5
ATOM      5  C   UNL     1      18.553 -20.023  23.161  1.00  0.00     0.003 C 
ATOM      6  C   UNL     1      17.337 -19.195  22.747  1.00  0.00     0.004 C 
ENDBRANCH   1   5
TORSDOF 2
ENDMDL
MODEL 4
REMARK VINA RESULT:    -2.573      9.145     10.368
REMARK INTER + INTRA:          -2.911
REMARK INTER:                  -2.873
REMARK INTRA:                  -0.038
REMARK UNBOUND:                -0.037
REMARK SMILES CCCC(=O)[O-]
REMARK SMILES IDX 3 1 4 2 5 3 6 4 2 5 1 6
REMARK H PARENT
REMARK Flexibility Score: inf
ROOT
ATOM      1  C   UNL     1       9.664 -14.843  24.155  1.00  0.00     0.052 C 
ENDROOT
BRANCH   1   2
ATOM      2  C   UNL     1       9.436 -15.609  25.421  1.00  0.00     0.041 C 
ATOM      3  O   UNL     1       8.318 -15.561  26.000  1.00  0.00    -0.550 OA
ATOM      4  O   UNL     1      10.468 -16.350  25.982  1.00  0.00    -0.550 OA
ENDBRANCH   1   2
BRANCH   1   5
ATOM      5  C   UNL     1      10.496 -15.647  23.147  1.00  0.00     0.003 C 
ATOM      6  C   UNL     1      11.849 -14.999  22.863  1.00  0.00     0.004 C 
ENDBRANCH   1   5
TORSDOF 2
ENDMDL
MODEL 5
REMARK VINA RESULT:    -2.568      2.307      2.706
REMARK INTER + INTRA:          -2.905
REMARK INTER:                  -2.867
REMARK INTRA:                  -0.038
REMARK UNBOUND:                -0.037
REMARK SMILES CCCC(=O)[O-]
REMARK SMILES IDX 3 1 4 2 5 3 6 4 2 5 1 6
REMARK H PARENT
REMARK Flexibility Score: inf
ROOT
ATOM      1  C   UNL     1      21.378 -20.480  22.500  1.00  0.00     0.052 C 
ENDROOT
BRANCH   1   2
ATOM      2  C   UNL     1      20.612 -19.228  22.209  1.00  0.00     0.041 C 
ATOM      3  O   UNL     1      19.661 -18.877  22.957  1.00  0.00    -0.550 OA
ATOM      4  O   UNL     1      20.924 -18.465  21.091  1.00  0.00    -0.550 OA
ENDBRANCH   1   2
BRANCH   1   5
ATOM      5  C   UNL     1      21.407 -20.791  24.003  1.00  0.00     0.003 C 
ATOM      6  C   UNL     1      20.591 -22.034  24.354  1.00  0.00     0.004 C 
ENDBRANCH   1   5
TORSDOF 2
ENDMDL
MODEL 6
REMARK VINA RESULT:    -2.561     10.838     11.667
REMARK INTER + INTRA:          -2.897
REMARK INTER:                  -2.849
REMARK INTRA:                  -0.048
REMARK UNBOUND:                -0.037
REMARK SMILES CCCC(=O)[O-]
REMARK SMILES IDX 3 1 4 2 5 3 6 4 2 5 1 6
REMARK H PARENT
REMARK Flexibility Score: inf
ROOT
ATOM      1  C   UNL     1       9.279 -14.728  24.124  1.00  0.00     0.052 C 
ENDROOT
BRANCH   1   2
ATOM      2  C   UNL     1       9.275 -15.561  25.368  1.00  0.00     0.041 C 
ATOM      3  O   UNL     1      10.306 -16.200  25.708  1.00  0.00    -0.550 OA
ATOM      4  O   UNL     1       8.122 -15.658  26.136  1.00  0.00    -0.550 OA
ENDBRANCH   1   2
BRANCH   1   5
ATOM      5  C   UNL     1       7.884 -14.651  23.488  1.00  0.00     0.003 C 
ATOM      6  C   UNL     1       7.580 -15.861  22.607  1.00  0.00     0.004 C 
ENDBRANCH   1   5
TORSDOF 2
ENDMDL
MODEL 7
REMARK VINA RESULT:    -2.551      2.027      3.100
REMARK INTER + INTRA:          -2.886
REMARK INTER:                  -2.878
REMARK INTRA:                  -0.008
REMARK UNBOUND:                -0.037
REMARK SMILES CCCC(=O)[O-]
REMARK SMILES IDX 3 1 4 2 5 3 6 4 2 5 1 6
REMARK H PARENT
REMARK Flexibility Score: inf
ROOT
ATOM      1  C   UNL     1      20.991 -20.160  22.615  1.00  0.00     0.052 C 
ENDROOT
BRANCH   1   2
ATOM      2  C   UNL     1      20.561 -21.157  23.647  1.00  0.00     0.041 C 
ATOM      3  O   UNL     1      19.454 -21.747  23.537  1.00  0.00    -0.550 OA
ATOM      4  O   UNL     1      21.369 -21.411  24.748  1.00  0.00    -0.550 OA
ENDBRANCH   1   2
BRANCH   1   5
ATOM      5  C   UNL     1      20.019 -18.975  22.532  1.00  0.00     0.003 C 
ATOM      6  C   UNL     1      20.247 -18.124  21.284  1.00  0.00     0.004 C 
ENDBRANCH   1   5
TORSDOF 2
ENDMDL
MODEL 8
REMARK VINA RESULT:    -2.550      1.569      1.827
REMARK INTER + INTRA:          -2.885
REMARK INTER:                  -2.873
REMARK INTRA:                  -0.012
REMARK UNBOUND:                -0.037
REMARK SMILES CCCC(=O)[O-]
REMARK SMILES IDX 3 1 4 2 5 3 6 4 2 5 1 6
REMARK H PARENT
REMARK Flexibility Score: inf
ROOT
ATOM      1  C   UNL     1      17.954 -19.234  22.760  1.00  0.00     0.052 C 
ENDROOT
BRANCH   1   2
ATOM      2  C   UNL     1      17.445 -20.556  23.247  1.00  0.00     0.041 C 
ATOM      3  O   UNL     1      18.156 -21.270  24.003  1.00  0.00    -0.550 OA
ATOM      4  O   UNL     1      16.199 -21.014  22.841  1.00  0.00    -0.550 OA
ENDBRANCH   1   2
BRANCH   1   5
ATOM      5  C   UNL     1      19.486 -19.163  22.810  1.00  0.00     0.003 C 
ATOM      6  C   UNL     1      20.069 -18.374  21.639  1.00  0.00     0.004 C 
ENDBRANCH   1   5
TORSDOF 2
ENDMDL
MODEL 9
REMARK VINA RESULT:    -2.521     11.148     11.987
REMARK INTER + INTRA:          -2.853
REMARK INTER:                  -2.847
REMARK INTRA:                  -0.006
REMARK UNBOUND:                -0.037
REMARK SMILES CCCC(=O)[O-]
REMARK SMILES IDX 3 1 4 2 5 3 6 4 2 5 1 6
REMARK H PARENT
REMARK Flexibility Score: inf
ROOT
ATOM      1  C   UNL     1       8.226 -20.818  21.582  1.00  0.00     0.052 C 
ENDROOT
BRANCH   1   2
ATOM      2  C   UNL     1       8.518 -21.913  20.603  1.00  0.00     0.041 C 
ATOM      3  O   UNL     1       8.342 -21.725  19.370  1.00  0.00    -0.550 OA
ATOM      4  O   UNL     1       8.954 -23.152  21.055  1.00  0.00    -0.550 OA
ENDBRANCH   1   2
BRANCH   1   5
ATOM      5  C   UNL     1       6.734 -20.461  21.605  1.00  0.00     0.003 C 
ATOM      6  C   UNL     1       6.285 -19.931  22.966  1.00  0.00     0.004 C 
ENDBRANCH   1   5
TORSDOF 2
ENDMDL
