MODEL 1
REMARK VINA RESULT:    -4.074      0.000      0.000
REMARK INTER + INTRA:          -5.479
REMARK INTER:                  -6.217
REMARK INTRA:                   0.738
REMARK UNBOUND:                 0.738
REMARK SMILES CC1=CCC[C@@H](C)C(=O)C[C@@H](C(C)C)C(=O)C1
REMARK SMILES IDX 8 1 9 2 6 3 7 4 5 5 4 6 3 7 2 8 1 9 10 11 11 12 15 13 16 14
REMARK SMILES IDX 17 15 12 17 13 18 14 19
REMARK H PARENT
REMARK Flexibility Score: 70.00
ROOT
ATOM      1  C   UNL     1      -9.219   1.438 -19.244  1.00  0.00     0.136 C 
ATOM      2  O   UNL     1      -8.965   0.296 -18.888  1.00  0.00    -0.299 OA
ENDROOT
BRANCH   1   3
ATOM      3  C   UNL     1      -8.316   2.585 -18.827  1.00  0.00     0.053 C 
ATOM      4  C   UNL     1      -6.843   2.335 -19.189  1.00  0.00     0.016 C 
BRANCH   3   5
ATOM      5  C   UNL     1      -8.496   2.985 -17.342  1.00  0.00     0.015 C 
BRANCH   5   6
ATOM      6  C   UNL     1      -9.343   4.238 -17.025  1.00  0.00     0.028 C 
BRANCH   6   7
ATOM      7  C   UNL     1     -10.193   4.801 -18.141  1.00  0.00    -0.028 C 
ATOM      8  C   UNL     1     -11.416   4.365 -18.524  1.00  0.00    -0.070 CG0
ATOM      9  C   UNL     1     -12.008   4.953 -19.781  1.00  0.00     0.039 C 
ATOM     10  G   UNL     1     -12.252   3.384 -17.728  1.00  0.00     0.000 G0
ENDBRANCH   6   7
ENDBRANCH   5   6
ENDBRANCH   3   5
ENDBRANCH   1   3
BRANCH   1  11
ATOM     11  C   UNL     1     -10.439   1.673 -20.114  1.00  0.00     0.087 C 
BRANCH  11  12
ATOM     12  C   UNL     1     -11.789   1.376 -19.404  1.00  0.00     0.066 C 
BRANCH  12  13
ATOM     13  C   UNL     1     -11.782   1.954 -18.000  1.00  0.00     0.140 C 
ATOM     14  O   UNL     1     -11.372   1.269 -17.073  1.00  0.00    -0.299 OA
BRANCH  13  15
ATOM     15  C   UNL     1     -12.241   3.368 -17.724  1.00  0.00     0.106 CG0
ATOM     16  G   UNL     1     -11.412   4.347 -18.529  1.00  0.00     0.000 G0
ENDBRANCH  13  15
ENDBRANCH  12  13
BRANCH  12  17
ATOM     17  C   UNL     1     -12.119  -0.149 -19.378  1.00  0.00    -0.006 C 
ATOM     18  C   UNL     1     -11.643  -0.866 -20.654  1.00  0.00     0.008 C 
ATOM     19  C   UNL     1     -13.630  -0.390 -19.205  1.00  0.00     0.008 C 
ENDBRANCH  12  17
ENDBRANCH  11  12
ENDBRANCH   1  11
TORSDOF 1
ENDMDL
MODEL 2
REMARK VINA RESULT:    -3.597      1.732      4.125
REMARK INTER + INTRA:          -4.751
REMARK INTER:                  -5.792
REMARK INTRA:                   1.041
REMARK UNBOUND:                 0.738
REMARK SMILES CC1=CCC[C@@H](C)C(=O)C[C@@H](C(C)C)C(=O)C1
REMARK SMILES IDX 8 1 9 2 6 3 7 4 5 5 4 6 3 7 2 8 1 9 10 11 11 12 15 13 16 14
REMARK SMILES IDX 17 15 12 17 13 18 14 19
REMARK H PARENT
REMARK Flexibility Score: 70.00
ROOT
ATOM      1  C   UNL     1     -11.640   0.437 -18.079  1.00  0.00     0.136 C 
ATOM      2  O   UNL     1     -11.438  -0.628 -17.512  1.00  0.00    -0.299 OA
ENDROOT
BRANCH   1   3
ATOM      3  C   UNL     1     -11.805   0.477 -19.588  1.00  0.00     0.053 C 
ATOM      4  C   UNL     1     -12.939  -0.437 -20.080  1.00  0.00     0.016 C 
BRANCH   3   5
ATOM      5  C   UNL     1     -10.479   0.228 -20.347  1.00  0.00     0.015 C 
BRANCH   5   6
ATOM      6  C   UNL     1      -9.170   0.750 -19.713  1.00  0.00     0.028 C 
BRANCH   6   7
ATOM      7  C   UNL     1      -8.714   2.137 -20.106  1.00  0.00    -0.028 C 
ATOM      8  C   UNL     1      -8.517   3.188 -19.275  1.00  0.00    -0.070 CG0
ATOM      9  C   UNL     1      -8.238   4.532 -19.900  1.00  0.00     0.039 C 
ATOM     10  G   UNL     1      -8.482   3.077 -17.765  1.00  0.00     0.000 G0
ENDBRANCH   6   7
ENDBRANCH   5   6
ENDBRANCH   3   5
ENDBRANCH   1   3
BRANCH   1  11
ATOM     11  C   UNL     1     -11.732   1.699 -17.244  1.00  0.00     0.087 C 
BRANCH  11  12
ATOM     12  C   UNL     1     -11.120   2.954 -17.925  1.00  0.00     0.066 C 
BRANCH  12  13
ATOM     13  C   UNL     1      -9.854   3.379 -17.202  1.00  0.00     0.140 C 
ATOM     14  O   UNL     1      -9.944   3.955 -16.126  1.00  0.00    -0.299 OA
BRANCH  13  15
ATOM     15  C   UNL     1      -8.484   3.080 -17.766  1.00  0.00     0.106 CG0
ATOM     16  G   UNL     1      -8.508   3.197 -19.276  1.00  0.00     0.000 G0
ENDBRANCH  13  15
ENDBRANCH  12  13
BRANCH  12  17
ATOM     17  C   UNL     1     -12.137   4.135 -18.010  1.00  0.00    -0.006 C 
ATOM     18  C   UNL     1     -11.608   5.294 -18.875  1.00  0.00     0.008 C 
ATOM     19  C   UNL     1     -12.483   4.676 -16.610  1.00  0.00     0.008 C 
ENDBRANCH  12  17
ENDBRANCH  11  12
ENDBRANCH   1  11
TORSDOF 1
ENDMDL
MODEL 3
REMARK VINA RESULT:    -3.399      1.487      3.387
REMARK INTER + INTRA:          -4.449
REMARK INTER:                  -5.952
REMARK INTRA:                   1.503
REMARK UNBOUND:                 0.738
REMARK SMILES CC1=CCC[C@@H](C)C(=O)C[C@@H](C(C)C)C(=O)C1
REMARK SMILES IDX 8 1 9 2 6 3 7 4 5 5 4 6 3 7 2 8 1 9 10 11 11 12 15 13 16 14
REMARK SMILES IDX 17 15 12 17 13 18 14 19
REMARK H PARENT
REMARK Flexibility Score: 70.00
ROOT
ATOM      1  C   UNL     1     -11.724   2.166 -17.374  1.00  0.00     0.136 C 
ATOM      2  O   UNL     1     -11.349   1.285 -16.613  1.00  0.00    -0.299 OA
ENDROOT
BRANCH   1   3
ATOM      3  C   UNL     1     -11.556   3.626 -16.990  1.00  0.00     0.053 C 
ATOM      4  C   UNL     1     -12.102   4.582 -18.061  1.00  0.00     0.016 C 
BRANCH   3   5
ATOM      5  C   UNL     1     -10.106   3.976 -16.574  1.00  0.00     0.015 C 
BRANCH   5   6
ATOM      6  C   UNL     1      -9.059   4.184 -17.690  1.00  0.00     0.028 C 
BRANCH   6   7
ATOM      7  C   UNL     1      -8.205   2.996 -18.071  1.00  0.00    -0.028 C 
ATOM      8  C   UNL     1      -8.541   2.001 -18.926  1.00  0.00    -0.070 CG0
ATOM      9  C   UNL     1      -7.611   0.816 -19.022  1.00  0.00     0.039 C 
ATOM     10  G   UNL     1      -9.746   2.044 -19.843  1.00  0.00     0.000 G0
ENDBRANCH   6   7
ENDBRANCH   5   6
ENDBRANCH   3   5
ENDBRANCH   1   3
BRANCH   1  11
ATOM     11  C   UNL     1     -12.343   1.767 -18.700  1.00  0.00     0.087 C 
BRANCH  11  12
ATOM     12  C   UNL     1     -11.779   0.444 -19.288  1.00  0.00     0.066 C 
BRANCH  12  13
ATOM     13  C   UNL     1     -10.422   0.687 -19.922  1.00  0.00     0.140 C 
ATOM     14  O   UNL     1      -9.869  -0.225 -20.522  1.00  0.00    -0.299 OA
BRANCH  13  15
ATOM     15  C   UNL     1      -9.750   2.040 -19.857  1.00  0.00     0.106 CG0
ATOM     16  G   UNL     1      -8.553   1.979 -18.931  1.00  0.00     0.000 G0
ENDBRANCH  13  15
ENDBRANCH  12  13
BRANCH  12  17
ATOM     17  C   UNL     1     -12.762  -0.215 -20.307  1.00  0.00    -0.006 C 
ATOM     18  C   UNL     1     -14.048  -0.717 -19.628  1.00  0.00     0.008 C 
ATOM     19  C   UNL     1     -12.094  -1.392 -21.043  1.00  0.00     0.008 C 
ENDBRANCH  12  17
ENDBRANCH  11  12
ENDBRANCH   1  11
TORSDOF 1
ENDMDL
MODEL 4
REMARK VINA RESULT:    -3.385      1.626      3.888
REMARK INTER + INTRA:          -4.429
REMARK INTER:                  -5.655
REMARK INTRA:                   1.226
REMARK UNBOUND:                 0.738
REMARK SMILES CC1=CCC[C@@H](C)C(=O)C[C@@H](C(C)C)C(=O)C1
REMARK SMILES IDX 8 1 9 2 6 3 7 4 5 5 4 6 3 7 2 8 1 9 10 11 11 12 15 13 16 14
REMARK SMILES IDX 17 15 12 17 13 18 14 19
REMARK H PARENT
REMARK Flexibility Score: 70.00
ROOT
ATOM      1  C   UNL     1      -9.287   4.356 -17.822  1.00  0.00     0.136 C 
ATOM      2  O   UNL     1      -9.500   4.117 -16.642  1.00  0.00    -0.299 OA
ENDROOT
BRANCH   1   3
ATOM      3  C   UNL     1      -8.104   3.716 -18.527  1.00  0.00     0.053 C 
ATOM      4  C   UNL     1      -8.008   4.124 -20.005  1.00  0.00     0.016 C 
BRANCH   3   5
ATOM      5  C   UNL     1      -8.047   2.180 -18.337  1.00  0.00     0.015 C 
BRANCH   5   6
ATOM      6  C   UNL     1      -8.514   1.285 -19.506  1.00  0.00     0.028 C 
BRANCH   6   7
ATOM      7  C   UNL     1      -9.798   0.509 -19.317  1.00  0.00    -0.028 C 
ATOM      8  C   UNL     1     -11.053   1.016 -19.305  1.00  0.00    -0.070 CG0
ATOM      9  C   UNL     1     -12.179   0.089 -18.918  1.00  0.00     0.039 C 
ATOM     10  G   UNL     1     -11.400   2.428 -19.731  1.00  0.00     0.000 G0
ENDBRANCH   6   7
ENDBRANCH   5   6
ENDBRANCH   3   5
ENDBRANCH   1   3
BRANCH   1  11
ATOM     11  C   UNL     1     -10.232   5.286 -18.558  1.00  0.00     0.087 C 
BRANCH  11  12
ATOM     12  C   UNL     1     -11.707   4.798 -18.584  1.00  0.00     0.066 C 
BRANCH  12  13
ATOM     13  C   UNL     1     -11.759   3.282 -18.531  1.00  0.00     0.140 C 
ATOM     14  O   UNL     1     -12.112   2.731 -17.498  1.00  0.00    -0.299 OA
BRANCH  13  15
ATOM     15  C   UNL     1     -11.416   2.436 -19.737  1.00  0.00     0.106 CG0
ATOM     16  G   UNL     1     -11.050   1.034 -19.298  1.00  0.00     0.000 G0
ENDBRANCH  13  15
ENDBRANCH  12  13
BRANCH  12  17
ATOM     17  C   UNL     1     -12.485   5.340 -19.824  1.00  0.00    -0.006 C 
ATOM     18  C   UNL     1     -11.646   5.268 -21.112  1.00  0.00     0.008 C 
ATOM     19  C   UNL     1     -12.938   6.796 -19.605  1.00  0.00     0.008 C 
ENDBRANCH  12  17
ENDBRANCH  11  12
ENDBRANCH   1  11
TORSDOF 1
ENDMDL
MODEL 5
REMARK VINA RESULT:    -3.180      1.676      3.803
REMARK INTER + INTRA:          -4.115
REMARK INTER:                  -5.007
REMARK INTRA:                   0.892
REMARK UNBOUND:                 0.738
REMARK SMILES CC1=CCC[C@@H](C)C(=O)C[C@@H](C(C)C)C(=O)C1
REMARK SMILES IDX 8 1 9 2 6 3 7 4 5 5 4 6 3 7 2 8 1 9 10 11 11 12 15 13 16 14
REMARK SMILES IDX 17 15 12 17 13 18 14 19
REMARK H PARENT
REMARK Flexibility Score: 70.00
ROOT
ATOM      1  C   UNL     1     -10.620   0.852 -19.779  1.00  0.00     0.136 C 
ATOM      2  O   UNL     1     -10.917   0.176 -20.754  1.00  0.00    -0.299 OA
ENDROOT
BRANCH   1   3
ATOM      3  C   UNL     1     -11.435   0.744 -18.502  1.00  0.00     0.053 C 
ATOM      4  C   UNL     1     -12.083  -0.639 -18.332  1.00  0.00     0.016 C 
BRANCH   3   5
ATOM      5  C   UNL     1     -12.457   1.896 -18.340  1.00  0.00     0.015 C 
BRANCH   5   6
ATOM      6  C   UNL     1     -12.051   3.112 -17.476  1.00  0.00     0.028 C 
BRANCH   6   7
ATOM      7  C   UNL     1     -12.505   4.476 -17.943  1.00  0.00    -0.028 C 
ATOM      8  C   UNL     1     -12.095   5.126 -19.059  1.00  0.00    -0.070 CG0
ATOM      9  C   UNL     1     -12.538   6.557 -19.238  1.00  0.00     0.039 C 
ATOM     10  G   UNL     1     -11.289   4.479 -20.166  1.00  0.00     0.000 G0
ENDBRANCH   6   7
ENDBRANCH   5   6
ENDBRANCH   3   5
ENDBRANCH   1   3
BRANCH   1  11
ATOM     11  C   UNL     1      -9.425   1.779 -19.874  1.00  0.00     0.087 C 
BRANCH  11  12
ATOM     12  C   UNL     1      -9.498   3.005 -18.922  1.00  0.00     0.066 C 
BRANCH  12  13
ATOM     13  C   UNL     1      -9.868   4.254 -19.701  1.00  0.00     0.140 C 
ATOM     14  O   UNL     1      -8.999   5.072 -19.970  1.00  0.00    -0.299 OA
BRANCH  13  15
ATOM     15  C   UNL     1     -11.281   4.497 -20.180  1.00  0.00     0.106 CG0
ATOM     16  G   UNL     1     -12.101   5.132 -19.076  1.00  0.00     0.000 G0
ENDBRANCH  13  15
ENDBRANCH  12  13
BRANCH  12  17
ATOM     17  C   UNL     1      -8.170   3.216 -18.128  1.00  0.00    -0.006 C 
ATOM     18  C   UNL     1      -7.248   1.986 -18.206  1.00  0.00     0.008 C 
ATOM     19  C   UNL     1      -8.451   3.535 -16.647  1.00  0.00     0.008 C 
ENDBRANCH  12  17
ENDBRANCH  11  12
ENDBRANCH   1  11
TORSDOF 1
ENDMDL
MODEL 6
REMARK VINA RESULT:    -3.018      1.384      2.040
REMARK INTER + INTRA:          -3.868
REMARK INTER:                  -4.064
REMARK INTRA:                   0.196
REMARK UNBOUND:                 0.738
REMARK SMILES CC1=CCC[C@@H](C)C(=O)C[C@@H](C(C)C)C(=O)C1
REMARK SMILES IDX 8 1 9 2 6 3 7 4 5 5 4 6 3 7 2 8 1 9 10 11 11 12 15 13 16 14
REMARK SMILES IDX 17 15 12 17 13 18 14 19
REMARK H PARENT
REMARK Flexibility Score: 70.00
ROOT
ATOM      1  C   UNL     1      -8.764   1.839 -18.219  1.00  0.00     0.136 C 
ATOM      2  O   UNL     1      -7.908   1.222 -18.837  1.00  0.00    -0.299 OA
ENDROOT
BRANCH   1   3
ATOM      3  C   UNL     1      -8.400   3.121 -17.491  1.00  0.00     0.053 C 
ATOM      4  C   UNL     1      -9.451   3.522 -16.443  1.00  0.00     0.016 C 
BRANCH   3   5
ATOM      5  C   UNL     1      -8.057   4.284 -18.453  1.00  0.00     0.015 C 
BRANCH   5   6
ATOM      6  C   UNL     1      -9.056   4.609 -19.587  1.00  0.00     0.028 C 
BRANCH   6   7
ATOM      7  C   UNL     1     -10.242   5.479 -19.238  1.00  0.00    -0.028 C 
ATOM      8  C   UNL     1     -11.532   5.268 -19.594  1.00  0.00    -0.070 CG0
ATOM      9  C   UNL     1     -12.529   6.360 -19.294  1.00  0.00     0.039 C 
ATOM     10  G   UNL     1     -12.041   3.976 -20.199  1.00  0.00     0.000 G0
ENDBRANCH   6   7
ENDBRANCH   5   6
ENDBRANCH   3   5
ENDBRANCH   1   3
BRANCH   1  11
ATOM     11  C   UNL     1     -10.183   1.303 -18.208  1.00  0.00     0.087 C 
BRANCH  11  12
ATOM     12  C   UNL     1     -11.006   1.671 -19.473  1.00  0.00     0.066 C 
BRANCH  12  13
ATOM     13  C   UNL     1     -11.894   2.870 -19.193  1.00  0.00     0.140 C 
ATOM     14  O   UNL     1     -12.481   2.943 -18.122  1.00  0.00    -0.299 OA
BRANCH  13  15
ATOM     15  C   UNL     1     -12.045   3.993 -20.193  1.00  0.00     0.106 CG0
ATOM     16  G   UNL     1     -11.533   5.289 -19.598  1.00  0.00     0.000 G0
ENDBRANCH  13  15
ENDBRANCH  12  13
BRANCH  12  17
ATOM     17  C   UNL     1     -11.847   0.466 -20.000  1.00  0.00    -0.006 C 
ATOM     18  C   UNL     1     -12.653  -0.213 -18.878  1.00  0.00     0.008 C 
ATOM     19  C   UNL     1     -10.949  -0.587 -20.677  1.00  0.00     0.008 C 
ENDBRANCH  12  17
ENDBRANCH  11  12
ENDBRANCH   1  11
TORSDOF 1
ENDMDL
MODEL 7
REMARK VINA RESULT:    -2.963      1.653      3.622
REMARK INTER + INTRA:          -3.784
REMARK INTER:                  -4.176
REMARK INTRA:                   0.391
REMARK UNBOUND:                 0.738
REMARK SMILES CC1=CCC[C@@H](C)C(=O)C[C@@H](C(C)C)C(=O)C1
REMARK SMILES IDX 8 1 9 2 6 3 7 4 5 5 4 6 3 7 2 8 1 9 10 11 11 12 15 13 16 14
REMARK SMILES IDX 17 15 12 17 13 18 14 19
REMARK H PARENT
REMARK Flexibility Score: 70.00
ROOT
ATOM      1  C   UNL     1     -11.986   3.555 -18.226  1.00  0.00     0.136 C 
ATOM      2  O   UNL     1     -12.399   3.512 -17.075  1.00  0.00    -0.299 OA
ENDROOT
BRANCH   1   3
ATOM      3  C   UNL     1     -11.374   4.834 -18.768  1.00  0.00     0.053 C 
ATOM      4  C   UNL     1     -11.873   5.172 -20.181  1.00  0.00     0.016 C 
BRANCH   3   5
ATOM      5  C   UNL     1      -9.829   4.851 -18.671  1.00  0.00     0.015 C 
BRANCH   5   6
ATOM      6  C   UNL     1      -9.171   4.205 -17.431  1.00  0.00     0.028 C 
BRANCH   6   7
ATOM      7  C   UNL     1      -8.078   3.189 -17.677  1.00  0.00    -0.028 C 
ATOM      8  C   UNL     1      -8.017   2.298 -18.694  1.00  0.00    -0.070 CG0
ATOM      9  C   UNL     1      -6.930   1.253 -18.646  1.00  0.00     0.039 C 
ATOM     10  G   UNL     1      -8.921   2.337 -19.909  1.00  0.00     0.000 G0
ENDBRANCH   6   7
ENDBRANCH   5   6
ENDBRANCH   3   5
ENDBRANCH   1   3
BRANCH   1  11
ATOM     11  C   UNL     1     -12.089   2.307 -19.081  1.00  0.00     0.087 C 
BRANCH  11  12
ATOM     12  C   UNL     1     -11.028   1.222 -18.749  1.00  0.00     0.066 C 
BRANCH  12  13
ATOM     13  C   UNL     1      -9.942   1.207 -19.810  1.00  0.00     0.140 C 
ATOM     14  O   UNL     1      -9.911   0.292 -20.621  1.00  0.00    -0.299 OA
BRANCH  13  15
ATOM     15  C   UNL     1      -8.917   2.313 -19.908  1.00  0.00     0.106 CG0
ATOM     16  G   UNL     1      -8.023   2.300 -18.685  1.00  0.00     0.000 G0
ENDBRANCH  13  15
ENDBRANCH  12  13
BRANCH  12  17
ATOM     17  C   UNL     1     -11.663  -0.193 -18.579  1.00  0.00    -0.006 C 
ATOM     18  C   UNL     1     -13.049  -0.289 -19.242  1.00  0.00     0.008 C 
ATOM     19  C   UNL     1     -11.794  -0.571 -17.092  1.00  0.00     0.008 C 
ENDBRANCH  12  17
ENDBRANCH  11  12
ENDBRANCH   1  11
TORSDOF 1
ENDMDL
MODEL 8
REMARK VINA RESULT:    -2.806      1.857      3.960
REMARK INTER + INTRA:          -3.544
REMARK INTER:                  -4.859
REMARK INTRA:                   1.315
REMARK UNBOUND:                 0.738
REMARK SMILES CC1=CCC[C@@H](C)C(=O)C[C@@H](C(C)C)C(=O)C1
REMARK SMILES IDX 8 1 9 2 6 3 7 4 5 5 4 6 3 7 2 8 1 9 10 11 11 12 15 13 16 14
REMARK SMILES IDX 17 15 12 17 13 18 14 19
REMARK H PARENT
REMARK Flexibility Score: 70.00
ROOT
ATOM      1  C   UNL     1     -10.872   1.590 -20.021  1.00  0.00     0.136 C 
ATOM      2  O   UNL     1      -9.713   1.884 -20.276  1.00  0.00    -0.299 OA
ENDROOT
BRANCH   1   3
ATOM      3  C   UNL     1     -11.209   0.203 -19.501  1.00  0.00     0.053 C 
ATOM      4  C   UNL     1     -12.242  -0.519 -20.380  1.00  0.00     0.016 C 
BRANCH   3   5
ATOM      5  C   UNL     1     -11.605   0.200 -18.005  1.00  0.00     0.015 C 
BRANCH   5   6
ATOM      6  C   UNL     1     -11.993   1.546 -17.352  1.00  0.00     0.028 C 
BRANCH   6   7
ATOM      7  C   UNL     1     -10.877   2.377 -16.762  1.00  0.00    -0.028 C 
ATOM      8  C   UNL     1     -10.541   3.642 -17.108  1.00  0.00    -0.070 CG0
ATOM      9  C   UNL     1      -9.277   4.218 -16.520  1.00  0.00     0.039 C 
ATOM     10  G   UNL     1     -11.396   4.534 -17.985  1.00  0.00     0.000 G0
ENDBRANCH   6   7
ENDBRANCH   5   6
ENDBRANCH   3   5
ENDBRANCH   1   3
BRANCH   1  11
ATOM     11  C   UNL     1     -11.949   2.638 -20.222  1.00  0.00     0.087 C 
BRANCH  11  12
ATOM     12  C   UNL     1     -11.401   4.048 -20.578  1.00  0.00     0.066 C 
BRANCH  12  13
ATOM     13  C   UNL     1     -10.783   4.696 -19.352  1.00  0.00     0.140 C 
ATOM     14  O   UNL     1      -9.778   5.380 -19.480  1.00  0.00    -0.299 OA
BRANCH  13  15
ATOM     15  C   UNL     1     -11.401   4.542 -17.981  1.00  0.00     0.106 CG0
ATOM     16  G   UNL     1     -10.534   3.646 -17.121  1.00  0.00     0.000 G0
ENDBRANCH  13  15
ENDBRANCH  12  13
BRANCH  12  17
ATOM     17  C   UNL     1     -12.497   4.967 -21.203  1.00  0.00    -0.006 C 
ATOM     18  C   UNL     1     -12.125   5.427 -22.624  1.00  0.00     0.008 C 
ATOM     19  C   UNL     1     -12.750   6.208 -20.327  1.00  0.00     0.008 C 
ENDBRANCH  12  17
ENDBRANCH  11  12
ENDBRANCH   1  11
TORSDOF 1
ENDMDL
MODEL 9
REMARK VINA RESULT:    -2.466      1.646      3.801
REMARK INTER + INTRA:          -3.025
REMARK INTER:                  -4.826
REMARK INTRA:                   1.802
REMARK UNBOUND:                 0.738
REMARK SMILES CC1=CCC[C@@H](C)C(=O)C[C@@H](C(C)C)C(=O)C1
REMARK SMILES IDX 8 1 9 2 6 3 7 4 5 5 4 6 3 7 2 8 1 9 10 11 11 12 15 13 16 14
REMARK SMILES IDX 17 15 12 17 13 18 14 19
REMARK H PARENT
REMARK Flexibility Score: 70.00
ROOT
ATOM      1  C   UNL     1     -11.015   0.088 -20.126  1.00  0.00     0.136 C 
ATOM      2  O   UNL     1     -10.316  -0.701 -20.746  1.00  0.00    -0.299 OA
ENDROOT
BRANCH   1   3
ATOM      3  C   UNL     1     -11.873  -0.400 -18.971  1.00  0.00     0.053 C 
ATOM      4  C   UNL     1     -13.376  -0.249 -19.250  1.00  0.00     0.016 C 
BRANCH   3   5
ATOM      5  C   UNL     1     -11.462   0.217 -17.612  1.00  0.00     0.015 C 
BRANCH   5   6
ATOM      6  C   UNL     1     -12.115   1.554 -17.194  1.00  0.00     0.028 C 
BRANCH   6   7
ATOM      7  C   UNL     1     -11.230   2.576 -16.518  1.00  0.00    -0.028 C 
ATOM      8  C   UNL     1     -10.883   3.792 -17.004  1.00  0.00    -0.070 CG0
ATOM      9  C   UNL     1      -9.842   4.578 -16.246  1.00  0.00     0.039 C 
ATOM     10  G   UNL     1     -11.532   4.437 -18.211  1.00  0.00     0.000 G0
ENDBRANCH   6   7
ENDBRANCH   5   6
ENDBRANCH   3   5
ENDBRANCH   1   3
BRANCH   1  11
ATOM     11  C   UNL     1     -10.994   1.550 -20.527  1.00  0.00     0.087 C 
BRANCH  11  12
ATOM     12  C   UNL     1     -10.327   2.484 -19.480  1.00  0.00     0.066 C 
BRANCH  12  13
ATOM     13  C   UNL     1     -11.002   3.844 -19.483  1.00  0.00     0.140 C 
ATOM     14  O   UNL     1     -11.145   4.438 -20.543  1.00  0.00    -0.299 OA
BRANCH  13  15
ATOM     15  C   UNL     1     -11.529   4.468 -18.211  1.00  0.00     0.106 CG0
ATOM     16  G   UNL     1     -10.877   3.818 -17.008  1.00  0.00     0.000 G0
ENDBRANCH  13  15
ENDBRANCH  12  13
BRANCH  12  17
ATOM     17  C   UNL     1      -8.789   2.624 -19.710  1.00  0.00    -0.006 C 
ATOM     18  C   UNL     1      -7.974   1.854 -18.655  1.00  0.00     0.008 C 
ATOM     19  C   UNL     1      -8.355   4.101 -19.695  1.00  0.00     0.008 C 
ENDBRANCH  12  17
ENDBRANCH  11  12
ENDBRANCH   1  11
TORSDOF 1
ENDMDL
