MODEL 1
REMARK VINA RESULT:    -4.306      0.000      0.000
REMARK INTER + INTRA:          -4.756
REMARK INTER:                  -4.684
REMARK INTRA:                  -0.072
REMARK UNBOUND:                -0.072
REMARK SMILES CCc1cccc(O)c1
REMARK SMILES IDX 3 1 9 2 7 3 6 4 5 5 4 6 2 7 1 8 8 9
REMARK H PARENT 8 10
REMARK Flexibility Score: inf
ROOT
ATOM      1  C   UNL     1      -6.687   6.605  -3.412  1.00  0.00    -0.045 A 
ATOM      2  C   UNL     1      -5.557   5.773  -3.345  1.00  0.00     0.049 A 
ATOM      3  C   UNL     1      -4.334   6.197  -3.885  1.00  0.00     0.115 A 
ATOM      4  C   UNL     1      -4.238   7.456  -4.486  1.00  0.00     0.046 A 
ATOM      5  C   UNL     1      -5.356   8.293  -4.544  1.00  0.00     0.004 A 
ATOM      6  C   UNL     1      -6.575   7.873  -4.006  1.00  0.00     0.004 A 
ENDROOT
BRANCH   1   7
ATOM      7  C   UNL     1      -7.992   6.164  -2.804  1.00  0.00     0.032 C 
ATOM      8  C   UNL     1      -8.725   7.348  -2.182  1.00  0.00     0.009 C 
ENDBRANCH   1   7
BRANCH   3   9
ATOM      9  O   UNL     1      -3.209   5.376  -3.827  1.00  0.00    -0.508 OA
ATOM     10  H   UNL     1      -2.581   5.283  -4.617  1.00  0.00     0.293 HD
ENDBRANCH   3   9
TORSDOF 2
ENDMDL
MODEL 2
REMARK VINA RESULT:    -4.303      0.983      3.038
REMARK INTER + INTRA:          -4.752
REMARK INTER:                  -4.701
REMARK INTRA:                  -0.051
REMARK UNBOUND:                -0.072
REMARK SMILES CCc1cccc(O)c1
REMARK SMILES IDX 3 1 9 2 7 3 6 4 5 5 4 6 2 7 1 8 8 9
REMARK H PARENT 8 10
REMARK Flexibility Score: inf
ROOT
ATOM      1  C   UNL     1      -5.694   8.162  -4.348  1.00  0.00    -0.045 A 
ATOM      2  C   UNL     1      -4.510   7.422  -4.185  1.00  0.00     0.049 A 
ATOM      3  C   UNL     1      -4.557   6.114  -3.681  1.00  0.00     0.115 A 
ATOM      4  C   UNL     1      -5.788   5.542  -3.347  1.00  0.00     0.046 A 
ATOM      5  C   UNL     1      -6.970   6.267  -3.520  1.00  0.00     0.004 A 
ATOM      6  C   UNL     1      -6.926   7.570  -4.022  1.00  0.00     0.004 A 
ENDROOT
BRANCH   1   7
ATOM      7  C   UNL     1      -5.647   9.554  -4.919  1.00  0.00     0.032 C 
ATOM      8  C   UNL     1      -4.516   9.682  -5.935  1.00  0.00     0.009 C 
ENDBRANCH   1   7
BRANCH   3   9
ATOM      9  O   UNL     1      -3.387   5.376  -3.512  1.00  0.00    -0.508 OA
ATOM     10  H   UNL     1      -3.107   5.029  -2.601  1.00  0.00     0.293 HD
ENDBRANCH   3   9
TORSDOF 2
ENDMDL
MODEL 3
REMARK VINA RESULT:    -4.118      1.660      2.658
REMARK INTER + INTRA:          -4.551
REMARK INTER:                  -4.505
REMARK INTRA:                  -0.046
REMARK UNBOUND:                -0.072
REMARK SMILES CCc1cccc(O)c1
REMARK SMILES IDX 3 1 9 2 7 3 6 4 5 5 4 6 2 7 1 8 8 9
REMARK H PARENT 8 10
REMARK Flexibility Score: inf
ROOT
ATOM      1  C   UNL     1      -6.009   8.268  -2.912  1.00  0.00    -0.045 A 
ATOM      2  C   UNL     1      -4.786   7.661  -3.243  1.00  0.00     0.049 A 
ATOM      3  C   UNL     1      -4.742   6.302  -3.588  1.00  0.00     0.115 A 
ATOM      4  C   UNL     1      -5.922   5.552  -3.610  1.00  0.00     0.046 A 
ATOM      5  C   UNL     1      -7.143   6.153  -3.295  1.00  0.00     0.004 A 
ATOM      6  C   UNL     1      -7.189   7.507  -2.951  1.00  0.00     0.004 A 
ENDROOT
BRANCH   1   7
ATOM      7  C   UNL     1      -6.062   9.734  -2.572  1.00  0.00     0.032 C 
ATOM      8  C   UNL     1      -5.139  10.049  -1.400  1.00  0.00     0.009 C 
ENDBRANCH   1   7
BRANCH   3   9
ATOM      9  O   UNL     1      -3.532   5.691  -3.912  1.00  0.00    -0.508 OA
ATOM     10  H   UNL     1      -2.685   5.884  -3.390  1.00  0.00     0.293 HD
ENDBRANCH   3   9
TORSDOF 2
ENDMDL
MODEL 4
REMARK VINA RESULT:    -4.105      1.964      3.751
REMARK INTER + INTRA:          -4.537
REMARK INTER:                  -4.469
REMARK INTRA:                  -0.067
REMARK UNBOUND:                -0.072
REMARK SMILES CCc1cccc(O)c1
REMARK SMILES IDX 3 1 9 2 7 3 6 4 5 5 4 6 2 7 1 8 8 9
REMARK H PARENT 8 10
REMARK Flexibility Score: inf
ROOT
ATOM      1  C   UNL     1      -5.538   8.281  -4.349  1.00  0.00    -0.045 A 
ATOM      2  C   UNL     1      -6.830   7.832  -4.027  1.00  0.00     0.049 A 
ATOM      3  C   UNL     1      -7.025   6.531  -3.539  1.00  0.00     0.115 A 
ATOM      4  C   UNL     1      -5.928   5.682  -3.366  1.00  0.00     0.046 A 
ATOM      5  C   UNL     1      -4.640   6.127  -3.672  1.00  0.00     0.004 A 
ATOM      6  C   UNL     1      -4.443   7.423  -4.157  1.00  0.00     0.004 A 
ENDROOT
BRANCH   1   7
ATOM      7  C   UNL     1      -5.324   9.687  -4.842  1.00  0.00     0.032 C 
ATOM      8  C   UNL     1      -4.370   9.702  -6.032  1.00  0.00     0.009 C 
ENDBRANCH   1   7
BRANCH   3   9
ATOM      9  O   UNL     1      -8.304   6.076  -3.223  1.00  0.00    -0.508 OA
ATOM     10  H   UNL     1      -9.125   6.432  -3.699  1.00  0.00     0.293 HD
ENDBRANCH   3   9
TORSDOF 2
ENDMDL
MODEL 5
REMARK VINA RESULT:    -4.086      2.197      3.882
REMARK INTER + INTRA:          -4.516
REMARK INTER:                  -4.455
REMARK INTRA:                  -0.061
REMARK UNBOUND:                -0.072
REMARK SMILES CCc1cccc(O)c1
REMARK SMILES IDX 3 1 9 2 7 3 6 4 5 5 4 6 2 7 1 8 8 9
REMARK H PARENT 8 10
REMARK Flexibility Score: inf
ROOT
ATOM      1  C   UNL     1      -5.223   6.465  -3.528  1.00  0.00    -0.045 A 
ATOM      2  C   UNL     1      -5.370   7.822  -3.194  1.00  0.00     0.049 A 
ATOM      3  C   UNL     1      -6.625   8.329  -2.827  1.00  0.00     0.115 A 
ATOM      4  C   UNL     1      -7.733   7.477  -2.787  1.00  0.00     0.046 A 
ATOM      5  C   UNL     1      -7.591   6.124  -3.105  1.00  0.00     0.004 A 
ATOM      6  C   UNL     1      -6.341   5.617  -3.470  1.00  0.00     0.004 A 
ENDROOT
BRANCH   1   7
ATOM      7  C   UNL     1      -3.870   5.914  -3.890  1.00  0.00     0.032 C 
ATOM      8  C   UNL     1      -3.367   4.966  -2.807  1.00  0.00     0.009 C 
ENDBRANCH   1   7
BRANCH   3   9
ATOM      9  O   UNL     1      -6.780   9.674  -2.500  1.00  0.00    -0.508 OA
ATOM     10  H   UNL     1      -6.608  10.014  -1.560  1.00  0.00     0.293 HD
ENDBRANCH   3   9
TORSDOF 2
ENDMDL
MODEL 6
REMARK VINA RESULT:    -4.070     17.851     19.216
REMARK INTER + INTRA:          -4.499
REMARK INTER:                  -4.424
REMARK INTRA:                  -0.075
REMARK UNBOUND:                -0.072
REMARK SMILES CCc1cccc(O)c1
REMARK SMILES IDX 3 1 9 2 7 3 6 4 5 5 4 6 2 7 1 8 8 9
REMARK H PARENT 8 10
REMARK Flexibility Score: inf
ROOT
ATOM      1  C   UNL     1       2.857  -8.847   3.998  1.00  0.00    -0.045 A 
ATOM      2  C   UNL     1       1.503  -9.183   3.832  1.00  0.00     0.049 A 
ATOM      3  C   UNL     1       0.498  -8.335   4.319  1.00  0.00     0.115 A 
ATOM      4  C   UNL     1       0.847  -7.145   4.966  1.00  0.00     0.046 A 
ATOM      5  C   UNL     1       2.191  -6.799   5.123  1.00  0.00     0.004 A 
ATOM      6  C   UNL     1       3.194  -7.642   4.637  1.00  0.00     0.004 A 
ENDROOT
BRANCH   1   7
ATOM      7  C   UNL     1       3.935  -9.741   3.446  1.00  0.00     0.032 C 
ATOM      8  C   UNL     1       5.262  -8.994   3.358  1.00  0.00     0.009 C 
ENDBRANCH   1   7
BRANCH   3   9
ATOM      9  O   UNL     1      -0.847  -8.664   4.163  1.00  0.00    -0.508 OA
ATOM     10  H   UNL     1      -1.428  -8.204   3.472  1.00  0.00     0.293 HD
ENDBRANCH   3   9
TORSDOF 2
ENDMDL
MODEL 7
REMARK VINA RESULT:    -3.875      2.522      3.683
REMARK INTER + INTRA:          -4.287
REMARK INTER:                  -4.216
REMARK INTRA:                  -0.072
REMARK UNBOUND:                -0.072
REMARK SMILES CCc1cccc(O)c1
REMARK SMILES IDX 3 1 9 2 7 3 6 4 5 5 4 6 2 7 1 8 8 9
REMARK H PARENT 8 10
REMARK Flexibility Score: inf
ROOT
ATOM      1  C   UNL     1      -5.712   7.175  -3.813  1.00  0.00    -0.045 A 
ATOM      2  C   UNL     1      -7.111   7.235  -3.923  1.00  0.00     0.049 A 
ATOM      3  C   UNL     1      -7.725   8.320  -4.567  1.00  0.00     0.115 A 
ATOM      4  C   UNL     1      -6.938   9.341  -5.109  1.00  0.00     0.046 A 
ATOM      5  C   UNL     1      -5.545   9.280  -5.016  1.00  0.00     0.004 A 
ATOM      6  C   UNL     1      -4.932   8.200  -4.375  1.00  0.00     0.004 A 
ENDROOT
BRANCH   1   7
ATOM      7  C   UNL     1      -5.052   5.995  -3.151  1.00  0.00     0.032 C 
ATOM      8  C   UNL     1      -3.758   5.627  -3.870  1.00  0.00     0.009 C 
ENDBRANCH   1   7
BRANCH   3   9
ATOM      9  O   UNL     1      -9.112   8.390  -4.674  1.00  0.00    -0.508 OA
ATOM     10  H   UNL     1      -9.717   7.793  -4.122  1.00  0.00     0.293 HD
ENDBRANCH   3   9
TORSDOF 2
ENDMDL
MODEL 8
REMARK VINA RESULT:    -3.871     18.444     19.648
REMARK INTER + INTRA:          -4.283
REMARK INTER:                  -4.207
REMARK INTRA:                  -0.076
REMARK UNBOUND:                -0.072
REMARK SMILES CCc1cccc(O)c1
REMARK SMILES IDX 3 1 9 2 7 3 6 4 5 5 4 6 2 7 1 8 8 9
REMARK H PARENT 8 10
REMARK Flexibility Score: inf
ROOT
ATOM      1  C   UNL     1       2.987  -8.164   4.368  1.00  0.00    -0.045 A 
ATOM      2  C   UNL     1       4.282  -7.639   4.519  1.00  0.00     0.049 A 
ATOM      3  C   UNL     1       5.383  -8.297   3.951  1.00  0.00     0.115 A 
ATOM      4  C   UNL     1       5.188  -9.477   3.225  1.00  0.00     0.046 A 
ATOM      5  C   UNL     1       3.902  -9.996   3.061  1.00  0.00     0.004 A 
ATOM      6  C   UNL     1       2.804  -9.341   3.625  1.00  0.00     0.004 A 
ENDROOT
BRANCH   1   7
ATOM      7  C   UNL     1       1.802  -7.440   4.950  1.00  0.00     0.032 C 
ATOM      8  C   UNL     1       0.498  -8.074   4.476  1.00  0.00     0.009 C 
ENDBRANCH   1   7
BRANCH   3   9
ATOM      9  O   UNL     1       6.671  -7.786   4.100  1.00  0.00    -0.508 OA
ATOM     10  H   UNL     1       7.486  -8.387   4.060  1.00  0.00     0.293 HD
ENDBRANCH   3   9
TORSDOF 2
ENDMDL
MODEL 9
REMARK VINA RESULT:    -3.862      1.619      2.241
REMARK INTER + INTRA:          -4.272
REMARK INTER:                  -4.221
REMARK INTRA:                  -0.052
REMARK UNBOUND:                -0.072
REMARK SMILES CCc1cccc(O)c1
REMARK SMILES IDX 3 1 9 2 7 3 6 4 5 5 4 6 2 7 1 8 8 9
REMARK H PARENT 8 10
REMARK Flexibility Score: inf
ROOT
ATOM      1  C   UNL     1      -6.750   7.229  -3.497  1.00  0.00    -0.045 A 
ATOM      2  C   UNL     1      -6.034   8.176  -4.248  1.00  0.00     0.049 A 
ATOM      3  C   UNL     1      -4.720   7.906  -4.658  1.00  0.00     0.115 A 
ATOM      4  C   UNL     1      -4.125   6.685  -4.326  1.00  0.00     0.046 A 
ATOM      5  C   UNL     1      -4.837   5.734  -3.591  1.00  0.00     0.004 A 
ATOM      6  C   UNL     1      -6.146   6.001  -3.181  1.00  0.00     0.004 A 
ENDROOT
BRANCH   1   7
ATOM      7  C   UNL     1      -8.171   7.505  -3.084  1.00  0.00     0.032 C 
ATOM      8  C   UNL     1      -8.714   8.732  -3.808  1.00  0.00     0.009 C 
ENDBRANCH   1   7
BRANCH   3   9
ATOM      9  O   UNL     1      -4.000   8.843  -5.398  1.00  0.00    -0.508 OA
ATOM     10  H   UNL     1      -4.446   9.668  -5.784  1.00  0.00     0.293 HD
ENDBRANCH   3   9
TORSDOF 2
ENDMDL
