MODEL 1
REMARK VINA RESULT:    -2.731      0.000      0.000
REMARK INTER + INTRA:          -7.146
REMARK INTER:                  -7.200
REMARK INTRA:                   0.054
REMARK UNBOUND:                 0.054
REMARK SMILES CCCCCCCCCCCCCCCCCCCCCCCCCCCCCC(=O)[O-]
REMARK SMILES IDX 16 1 17 2 18 3 19 4 20 5 21 6 22 7 23 8 24 9 25 10 26 11
REMARK SMILES IDX 27 12 28 13 29 14 30 15 31 16 32 17 15 18 14 19 13 20 12 21
REMARK SMILES IDX 11 22 10 23 9 24 8 25 7 26 6 27 5 28 4 29 3 30 2 31 1 32
REMARK H PARENT
REMARK Flexibility Score: inf
ROOT
ATOM      1  C   UNL     1      43.758  27.501   2.650  1.00  0.00     0.000 C 
ENDROOT
BRANCH   1   2
ATOM      2  C   UNL     1      43.316  28.978   2.748  1.00  0.00     0.000 C 
BRANCH   2   3
ATOM      3  C   UNL     1      44.499  29.925   3.013  1.00  0.00     0.000 C 
BRANCH   3   4
ATOM      4  C   UNL     1      44.947  29.899   4.491  1.00  0.00     0.000 C 
BRANCH   4   5
ATOM      5  C   UNL     1      46.464  30.071   4.683  1.00  0.00     0.000 C 
BRANCH   5   6
ATOM      6  C   UNL     1      46.973  29.446   5.993  1.00  0.00     0.000 C 
BRANCH   6   7
ATOM      7  C   UNL     1      46.385  30.124   7.245  1.00  0.00     0.000 C 
BRANCH   7   8
ATOM      8  C   UNL     1      45.277  29.320   7.952  1.00  0.00     0.000 C 
BRANCH   8   9
ATOM      9  C   UNL     1      45.658  28.923   9.389  1.00  0.00     0.000 C 
BRANCH   9  10
ATOM     10  C   UNL     1      44.983  27.615   9.838  1.00  0.00     0.000 C 
BRANCH  10  11
ATOM     11  C   UNL     1      46.001  26.532  10.234  1.00  0.00     0.000 C 
BRANCH  11  12
ATOM     12  C   UNL     1      47.125  26.371   9.198  1.00  0.00     0.000 C 
BRANCH  12  13
ATOM     13  C   UNL     1      46.624  25.786   7.864  1.00  0.00     0.006 C 
BRANCH  13  14
ATOM     14  C   UNL     1      46.922  26.711   6.677  1.00  0.00     0.053 C 
BRANCH  14  15
ATOM     15  C   UNL     1      46.287  26.215   5.414  1.00  0.00     0.041 C 
ATOM     16  O   UNL     1      45.045  26.019   5.363  1.00  0.00    -0.550 OA
ATOM     17  O   UNL     1      47.075  25.934   4.304  1.00  0.00    -0.550 OA
ENDBRANCH  14  15
ENDBRANCH  13  14
ENDBRANCH  12  13
ENDBRANCH  11  12
ENDBRANCH  10  11
ENDBRANCH   9  10
ENDBRANCH   8   9
ENDBRANCH   7   8
ENDBRANCH   6   7
ENDBRANCH   5   6
ENDBRANCH   4   5
ENDBRANCH   3   4
ENDBRANCH   2   3
ENDBRANCH   1   2
BRANCH   1  18
ATOM     18  C   UNL     1      45.181  27.321   2.088  1.00  0.00     0.000 C 
BRANCH  18  19
ATOM     19  C   UNL     1      45.415  27.968   0.713  1.00  0.00     0.000 C 
BRANCH  19  20
ATOM     20  C   UNL     1      45.892  29.428   0.819  1.00  0.00     0.000 C 
BRANCH  20  21
ATOM     21  C   UNL     1      46.397  29.980  -0.526  1.00  0.00     0.000 C 
BRANCH  21  22
ATOM     22  C   UNL     1      45.386  29.832  -1.687  1.00  0.00     0.000 C 
BRANCH  22  23
ATOM     23  C   UNL     1      45.494  28.491  -2.438  1.00  0.00     0.000 C 
BRANCH  23  24
ATOM     24  C   UNL     1      46.925  28.099  -2.858  1.00  0.00    -0.000 C 
BRANCH  24  25
ATOM     25  C   UNL     1      47.091  27.718  -4.345  1.00  0.00    -0.000 C 
BRANCH  25  26
ATOM     26  C   UNL     1      46.170  28.473  -5.320  1.00  0.00    -0.000 C 
BRANCH  26  27
ATOM     27  C   UNL     1      45.767  27.627  -6.536  1.00  0.00    -0.000 C 
BRANCH  27  28
ATOM     28  C   UNL     1      44.239  27.502  -6.634  1.00  0.00    -0.000 C 
BRANCH  28  29
ATOM     29  C   UNL     1      43.559  28.831  -7.001  1.00  0.00    -0.000 C 
BRANCH  29  30
ATOM     30  C   UNL     1      43.240  29.696  -5.767  1.00  0.00    -0.000 C 
BRANCH  30  31
ATOM     31  C   UNL     1      42.514  28.905  -4.667  1.00  0.00    -0.003 C 
ATOM     32  C   UNL     1      42.071  29.788  -3.501  1.00  0.00     0.004 C 
ENDBRANCH  30  31
ENDBRANCH  29  30
ENDBRANCH  28  29
ENDBRANCH  27  28
ENDBRANCH  26  27
ENDBRANCH  25  26
ENDBRANCH  24  25
ENDBRANCH  23  24
ENDBRANCH  22  23
ENDBRANCH  21  22
ENDBRANCH  20  21
ENDBRANCH  19  20
ENDBRANCH  18  19
ENDBRANCH   1  18
TORSDOF 28
ENDMDL
MODEL 2
REMARK VINA RESULT:    -1.394      3.028     11.262
REMARK INTER + INTRA:          -3.622
REMARK INTER:                  -4.289
REMARK INTRA:                   0.667
REMARK UNBOUND:                 0.054
REMARK SMILES CCCCCCCCCCCCCCCCCCCCCCCCCCCCCC(=O)[O-]
REMARK SMILES IDX 16 1 17 2 18 3 19 4 20 5 21 6 22 7 23 8 24 9 25 10 26 11
REMARK SMILES IDX 27 12 28 13 29 14 30 15 31 16 32 17 15 18 14 19 13 20 12 21
REMARK SMILES IDX 11 22 10 23 9 24 8 25 7 26 6 27 5 28 4 29 3 30 2 31 1 32
REMARK H PARENT
REMARK Flexibility Score: inf
ROOT
ATOM      1  C   UNL     1      43.416  27.200   2.680  1.00  0.00     0.000 C 
ENDROOT
BRANCH   1   2
ATOM      2  C   UNL     1      42.774  28.213   3.653  1.00  0.00     0.000 C 
BRANCH   2   3
ATOM      3  C   UNL     1      43.220  29.658   3.370  1.00  0.00     0.000 C 
BRANCH   3   4
ATOM      4  C   UNL     1      44.015  29.777   2.051  1.00  0.00     0.000 C 
BRANCH   4   5
ATOM      5  C   UNL     1      45.527  29.970   2.252  1.00  0.00     0.000 C 
BRANCH   5   6
ATOM      6  C   UNL     1      46.365  29.313   1.142  1.00  0.00     0.000 C 
BRANCH   6   7
ATOM      7  C   UNL     1      46.340  30.110  -0.175  1.00  0.00     0.000 C 
BRANCH   7   8
ATOM      8  C   UNL     1      44.982  30.103  -0.905  1.00  0.00     0.000 C 
BRANCH   8   9
ATOM      9  C   UNL     1      45.047  29.396  -2.271  1.00  0.00     0.000 C 
BRANCH   9  10
ATOM     10  C   UNL     1      45.291  27.883  -2.141  1.00  0.00     0.000 C 
BRANCH  10  11
ATOM     11  C   UNL     1      46.464  27.397  -3.010  1.00  0.00     0.000 C 
BRANCH  11  12
ATOM     12  C   UNL     1      46.768  28.350  -4.177  1.00  0.00     0.000 C 
BRANCH  12  13
ATOM     13  C   UNL     1      45.852  28.113  -5.391  1.00  0.00     0.006 C 
BRANCH  13  14
ATOM     14  C   UNL     1      44.909  29.297  -5.646  1.00  0.00     0.053 C 
BRANCH  14  15
ATOM     15  C   UNL     1      43.479  28.932  -5.387  1.00  0.00     0.041 C 
ATOM     16  O   UNL     1      43.055  27.783  -5.675  1.00  0.00    -0.550 OA
ATOM     17  O   UNL     1      42.606  29.877  -4.861  1.00  0.00    -0.550 OA
ENDBRANCH  14  15
ENDBRANCH  13  14
ENDBRANCH  12  13
ENDBRANCH  11  12
ENDBRANCH  10  11
ENDBRANCH   9  10
ENDBRANCH   8   9
ENDBRANCH   7   8
ENDBRANCH   6   7
ENDBRANCH   5   6
ENDBRANCH   4   5
ENDBRANCH   3   4
ENDBRANCH   2   3
ENDBRANCH   1   2
BRANCH   1  18
ATOM     18  C   UNL     1      44.919  26.974   2.930  1.00  0.00     0.000 C 
BRANCH  18  19
ATOM     19  C   UNL     1      45.256  26.358   4.299  1.00  0.00     0.000 C 
BRANCH  19  20
ATOM     20  C   UNL     1      45.032  27.341   5.461  1.00  0.00     0.000 C 
BRANCH  20  21
ATOM     21  C   UNL     1      45.736  28.691   5.234  1.00  0.00     0.000 C 
BRANCH  21  22
ATOM     22  C   UNL     1      47.125  28.798   5.905  1.00  0.00     0.000 C 
BRANCH  22  23
ATOM     23  C   UNL     1      47.064  28.963   7.436  1.00  0.00     0.000 C 
BRANCH  23  24
ATOM     24  C   UNL     1      46.162  30.113   7.926  1.00  0.00    -0.000 C 
BRANCH  24  25
ATOM     25  C   UNL     1      45.132  29.723   9.008  1.00  0.00    -0.000 C 
BRANCH  25  26
ATOM     26  C   UNL     1      45.666  29.726  10.452  1.00  0.00    -0.000 C 
BRANCH  26  27
ATOM     27  C   UNL     1      46.836  28.756  10.657  1.00  0.00    -0.000 C 
BRANCH  27  28
ATOM     28  C   UNL     1      46.729  28.048  12.016  1.00  0.00    -0.000 C 
BRANCH  28  29
ATOM     29  C   UNL     1      47.125  26.564  11.943  1.00  0.00    -0.000 C 
BRANCH  29  30
ATOM     30  C   UNL     1      46.846  25.942  10.562  1.00  0.00    -0.000 C 
BRANCH  30  31
ATOM     31  C   UNL     1      45.450  26.297  10.029  1.00  0.00    -0.003 C 
ATOM     32  C   UNL     1      45.403  26.374   8.503  1.00  0.00     0.004 C 
ENDBRANCH  30  31
ENDBRANCH  29  30
ENDBRANCH  28  29
ENDBRANCH  27  28
ENDBRANCH  26  27
ENDBRANCH  25  26
ENDBRANCH  24  25
ENDBRANCH  23  24
ENDBRANCH  22  23
ENDBRANCH  21  22
ENDBRANCH  20  21
ENDBRANCH  19  20
ENDBRANCH  18  19
ENDBRANCH   1  18
TORSDOF 28
ENDMDL
MODEL 3
REMARK VINA RESULT:    -0.739      1.779      3.898
REMARK INTER + INTRA:          -1.894
REMARK INTER:                  -3.393
REMARK INTRA:                   1.499
REMARK UNBOUND:                 0.054
REMARK SMILES CCCCCCCCCCCCCCCCCCCCCCCCCCCCCC(=O)[O-]
REMARK SMILES IDX 16 1 17 2 18 3 19 4 20 5 21 6 22 7 23 8 24 9 25 10 26 11
REMARK SMILES IDX 27 12 28 13 29 14 30 15 31 16 32 17 15 18 14 19 13 20 12 21
REMARK SMILES IDX 11 22 10 23 9 24 8 25 7 26 6 27 5 28 4 29 3 30 2 31 1 32
REMARK H PARENT
REMARK Flexibility Score: inf
ROOT
ATOM      1  C   UNL     1      44.594  27.231   1.061  1.00  0.00     0.000 C 
ENDROOT
BRANCH   1   2
ATOM      2  C   UNL     1      44.158  26.801   2.478  1.00  0.00     0.000 C 
BRANCH   2   3
ATOM      3  C   UNL     1      44.550  27.834   3.549  1.00  0.00     0.000 C 
BRANCH   3   4
ATOM      4  C   UNL     1      44.121  29.267   3.163  1.00  0.00     0.000 C 
BRANCH   4   5
ATOM      5  C   UNL     1      44.850  29.823   1.928  1.00  0.00     0.000 C 
BRANCH   5   6
ATOM      6  C   UNL     1      46.375  29.888   2.115  1.00  0.00     0.000 C 
BRANCH   6   7
ATOM      7  C   UNL     1      46.786  30.121   3.581  1.00  0.00     0.000 C 
BRANCH   7   8
ATOM      8  C   UNL     1      46.805  28.851   4.453  1.00  0.00     0.000 C 
BRANCH   8   9
ATOM      9  C   UNL     1      47.039  29.159   5.943  1.00  0.00     0.000 C 
BRANCH   9  10
ATOM     10  C   UNL     1      45.810  29.795   6.614  1.00  0.00     0.000 C 
BRANCH  10  11
ATOM     11  C   UNL     1      46.025  30.052   8.116  1.00  0.00     0.000 C 
BRANCH  11  12
ATOM     12  C   UNL     1      44.738  29.867   8.936  1.00  0.00     0.000 C 
BRANCH  12  13
ATOM     13  C   UNL     1      44.936  28.942  10.151  1.00  0.00     0.006 C 
BRANCH  13  14
ATOM     14  C   UNL     1      44.760  27.462   9.789  1.00  0.00     0.053 C 
BRANCH  14  15
ATOM     15  C   UNL     1      46.077  26.753   9.696  1.00  0.00     0.041 C 
ATOM     16  O   UNL     1      46.446  26.239   8.608  1.00  0.00    -0.550 OA
ATOM     17  O   UNL     1      46.880  26.628  10.823  1.00  0.00    -0.550 OA
ENDBRANCH  14  15
ENDBRANCH  13  14
ENDBRANCH  12  13
ENDBRANCH  11  12
ENDBRANCH  10  11
ENDBRANCH   9  10
ENDBRANCH   8   9
ENDBRANCH   7   8
ENDBRANCH   6   7
ENDBRANCH   5   6
ENDBRANCH   4   5
ENDBRANCH   3   4
ENDBRANCH   2   3
ENDBRANCH   1   2
BRANCH   1  18
ATOM     18  C   UNL     1      43.960  26.386  -0.062  1.00  0.00     0.000 C 
BRANCH  18  19
ATOM     19  C   UNL     1      44.429  26.750  -1.480  1.00  0.00     0.000 C 
BRANCH  19  20
ATOM     20  C   UNL     1      43.441  26.289  -2.567  1.00  0.00     0.000 C 
BRANCH  20  21
ATOM     21  C   UNL     1      43.589  27.090  -3.873  1.00  0.00     0.000 C 
BRANCH  21  22
ATOM     22  C   UNL     1      42.342  27.925  -4.245  1.00  0.00     0.000 C 
BRANCH  22  23
ATOM     23  C   UNL     1      42.533  28.805  -5.496  1.00  0.00     0.000 C 
BRANCH  23  24
ATOM     24  C   UNL     1      42.808  28.026  -6.796  1.00  0.00    -0.000 C 
BRANCH  24  25
ATOM     25  C   UNL     1      44.300  27.785  -7.114  1.00  0.00    -0.000 C 
BRANCH  25  26
ATOM     26  C   UNL     1      45.211  27.617  -5.884  1.00  0.00    -0.000 C 
BRANCH  26  27
ATOM     27  C   UNL     1      46.676  27.968  -6.174  1.00  0.00    -0.000 C 
BRANCH  27  28
ATOM     28  C   UNL     1      46.870  29.490  -6.252  1.00  0.00    -0.000 C 
BRANCH  28  29
ATOM     29  C   UNL     1      47.123  30.125  -4.875  1.00  0.00    -0.000 C 
BRANCH  29  30
ATOM     30  C   UNL     1      46.731  29.196  -3.711  1.00  0.00    -0.000 C 
BRANCH  30  31
ATOM     31  C   UNL     1      45.811  29.887  -2.693  1.00  0.00    -0.003 C 
ATOM     32  C   UNL     1      46.450  30.014  -1.310  1.00  0.00     0.004 C 
ENDBRANCH  30  31
ENDBRANCH  29  30
ENDBRANCH  28  29
ENDBRANCH  27  28
ENDBRANCH  26  27
ENDBRANCH  25  26
ENDBRANCH  24  25
ENDBRANCH  23  24
ENDBRANCH  22  23
ENDBRANCH  21  22
ENDBRANCH  20  21
ENDBRANCH  19  20
ENDBRANCH  18  19
ENDBRANCH   1  18
TORSDOF 28
ENDMDL
MODEL 4
REMARK VINA RESULT:    -0.679      1.826      2.518
REMARK INTER + INTRA:          -1.735
REMARK INTER:                  -5.162
REMARK INTRA:                   3.427
REMARK UNBOUND:                 0.054
REMARK SMILES CCCCCCCCCCCCCCCCCCCCCCCCCCCCCC(=O)[O-]
REMARK SMILES IDX 16 1 17 2 18 3 19 4 20 5 21 6 22 7 23 8 24 9 25 10 26 11
REMARK SMILES IDX 27 12 28 13 29 14 30 15 31 16 32 17 15 18 14 19 13 20 12 21
REMARK SMILES IDX 11 22 10 23 9 24 8 25 7 26 6 27 5 28 4 29 3 30 2 31 1 32
REMARK H PARENT
REMARK Flexibility Score: inf
ROOT
ATOM      1  C   UNL     1      43.841  26.926   2.663  1.00  0.00     0.000 C 
ENDROOT
BRANCH   1   2
ATOM      2  C   UNL     1      43.759  28.462   2.523  1.00  0.00     0.000 C 
BRANCH   2   3
ATOM      3  C   UNL     1      45.047  29.161   2.992  1.00  0.00     0.000 C 
BRANCH   3   4
ATOM      4  C   UNL     1      45.204  29.124   4.529  1.00  0.00     0.000 C 
BRANCH   4   5
ATOM      5  C   UNL     1      46.436  28.337   5.008  1.00  0.00     0.000 C 
BRANCH   5   6
ATOM      6  C   UNL     1      46.150  27.483   6.254  1.00  0.00     0.000 C 
BRANCH   6   7
ATOM      7  C   UNL     1      46.691  28.119   7.549  1.00  0.00     0.000 C 
BRANCH   7   8
ATOM      8  C   UNL     1      46.053  29.472   7.917  1.00  0.00     0.000 C 
BRANCH   8   9
ATOM      9  C   UNL     1      46.349  29.892   9.368  1.00  0.00     0.000 C 
BRANCH   9  10
ATOM     10  C   UNL     1      45.152  29.654  10.306  1.00  0.00     0.000 C 
BRANCH  10  11
ATOM     11  C   UNL     1      45.574  29.064  11.662  1.00  0.00     0.000 C 
BRANCH  11  12
ATOM     12  C   UNL     1      46.990  28.465  11.631  1.00  0.00     0.000 C 
BRANCH  12  13
ATOM     13  C   UNL     1      47.120  27.202  12.502  1.00  0.00     0.006 C 
BRANCH  13  14
ATOM     14  C   UNL     1      46.772  25.924  11.727  1.00  0.00     0.053 C 
BRANCH  14  15
ATOM     15  C   UNL     1      46.319  26.228  10.331  1.00  0.00     0.041 C 
ATOM     16  O   UNL     1      45.197  26.760  10.129  1.00  0.00    -0.550 OA
ATOM     17  O   UNL     1      47.124  25.887   9.251  1.00  0.00    -0.550 OA
ENDBRANCH  14  15
ENDBRANCH  13  14
ENDBRANCH  12  13
ENDBRANCH  11  12
ENDBRANCH  10  11
ENDBRANCH   9  10
ENDBRANCH   8   9
ENDBRANCH   7   8
ENDBRANCH   6   7
ENDBRANCH   5   6
ENDBRANCH   4   5
ENDBRANCH   3   4
ENDBRANCH   2   3
ENDBRANCH   1   2
BRANCH   1  18
ATOM     18  C   UNL     1      45.284  26.386   2.685  1.00  0.00     0.000 C 
BRANCH  18  19
ATOM     19  C   UNL     1      46.137  26.786   1.469  1.00  0.00     0.000 C 
BRANCH  19  20
ATOM     20  C   UNL     1      46.834  28.145   1.656  1.00  0.00     0.000 C 
BRANCH  20  21
ATOM     21  C   UNL     1      46.875  28.968   0.356  1.00  0.00     0.000 C 
BRANCH  21  22
ATOM     22  C   UNL     1      45.520  29.043  -0.385  1.00  0.00     0.000 C 
BRANCH  22  23
ATOM     23  C   UNL     1      45.645  28.962  -1.919  1.00  0.00     0.000 C 
BRANCH  23  24
ATOM     24  C   UNL     1      46.978  29.488  -2.487  1.00  0.00    -0.000 C 
BRANCH  24  25
ATOM     25  C   UNL     1      46.940  29.902  -3.973  1.00  0.00    -0.000 C 
BRANCH  25  26
ATOM     26  C   UNL     1      45.775  29.309  -4.788  1.00  0.00    -0.000 C 
BRANCH  26  27
ATOM     27  C   UNL     1      46.248  28.407  -5.935  1.00  0.00    -0.000 C 
BRANCH  27  28
ATOM     28  C   UNL     1      45.075  28.021  -6.849  1.00  0.00    -0.000 C 
BRANCH  28  29
ATOM     29  C   UNL     1      43.893  27.421  -6.072  1.00  0.00    -0.000 C 
BRANCH  29  30
ATOM     30  C   UNL     1      43.210  28.444  -5.144  1.00  0.00    -0.000 C 
BRANCH  30  31
ATOM     31  C   UNL     1      42.591  27.787  -3.900  1.00  0.00    -0.003 C 
ATOM     32  C   UNL     1      43.298  26.492  -3.503  1.00  0.00     0.004 C 
ENDBRANCH  30  31
ENDBRANCH  29  30
ENDBRANCH  28  29
ENDBRANCH  27  28
ENDBRANCH  26  27
ENDBRANCH  25  26
ENDBRANCH  24  25
ENDBRANCH  23  24
ENDBRANCH  22  23
ENDBRANCH  21  22
ENDBRANCH  20  21
ENDBRANCH  19  20
ENDBRANCH  18  19
ENDBRANCH   1  18
TORSDOF 28
ENDMDL
MODEL 5
REMARK VINA RESULT:    -0.435      2.151      3.361
REMARK INTER + INTRA:          -1.094
REMARK INTER:                  -5.079
REMARK INTRA:                   3.985
REMARK UNBOUND:                 0.054
REMARK SMILES CCCCCCCCCCCCCCCCCCCCCCCCCCCCCC(=O)[O-]
REMARK SMILES IDX 16 1 17 2 18 3 19 4 20 5 21 6 22 7 23 8 24 9 25 10 26 11
REMARK SMILES IDX 27 12 28 13 29 14 30 15 31 16 32 17 15 18 14 19 13 20 12 21
REMARK SMILES IDX 11 22 10 23 9 24 8 25 7 26 6 27 5 28 4 29 3 30 2 31 1 32
REMARK H PARENT
REMARK Flexibility Score: inf
ROOT
ATOM      1  C   UNL     1      44.076  26.078   3.211  1.00  0.00     0.000 C 
ENDROOT
BRANCH   1   2
ATOM      2  C   UNL     1      44.984  25.979   4.455  1.00  0.00     0.000 C 
BRANCH   2   3
ATOM      3  C   UNL     1      46.475  25.896   4.085  1.00  0.00     0.000 C 
BRANCH   3   4
ATOM      4  C   UNL     1      46.820  26.761   2.853  1.00  0.00     0.000 C 
BRANCH   4   5
ATOM      5  C   UNL     1      46.122  28.131   2.840  1.00  0.00     0.000 C 
BRANCH   5   6
ATOM      6  C   UNL     1      47.114  29.306   2.848  1.00  0.00     0.000 C 
BRANCH   6   7
ATOM      7  C   UNL     1      47.125  30.068   4.186  1.00  0.00     0.000 C 
BRANCH   7   8
ATOM      8  C   UNL     1      46.072  29.592   5.206  1.00  0.00     0.000 C 
BRANCH   8   9
ATOM      9  C   UNL     1      46.676  29.311   6.593  1.00  0.00     0.000 C 
BRANCH   9  10
ATOM     10  C   UNL     1      47.096  27.841   6.767  1.00  0.00     0.000 C 
BRANCH  10  11
ATOM     11  C   UNL     1      46.836  27.318   8.190  1.00  0.00     0.000 C 
BRANCH  11  12
ATOM     12  C   UNL     1      46.553  28.448   9.193  1.00  0.00     0.000 C 
BRANCH  12  13
ATOM     13  C   UNL     1      46.371  27.934  10.632  1.00  0.00     0.006 C 
BRANCH  13  14
ATOM     14  C   UNL     1      45.807  29.013  11.567  1.00  0.00     0.053 C 
BRANCH  14  15
ATOM     15  C   UNL     1      44.536  29.600  11.034  1.00  0.00     0.041 C 
ATOM     16  O   UNL     1      43.632  29.979  11.823  1.00  0.00    -0.550 OA
ATOM     17  O   UNL     1      44.336  29.695   9.662  1.00  0.00    -0.550 OA
ENDBRANCH  14  15
ENDBRANCH  13  14
ENDBRANCH  12  13
ENDBRANCH  11  12
ENDBRANCH  10  11
ENDBRANCH   9  10
ENDBRANCH   8   9
ENDBRANCH   7   8
ENDBRANCH   6   7
ENDBRANCH   5   6
ENDBRANCH   4   5
ENDBRANCH   3   4
ENDBRANCH   2   3
ENDBRANCH   1   2
BRANCH   1  18
ATOM     18  C   UNL     1      44.324  27.343   2.366  1.00  0.00     0.000 C 
BRANCH  18  19
ATOM     19  C   UNL     1      44.133  27.150   0.852  1.00  0.00     0.000 C 
BRANCH  19  20
ATOM     20  C   UNL     1      45.405  27.474   0.049  1.00  0.00     0.000 C 
BRANCH  20  21
ATOM     21  C   UNL     1      45.337  28.855  -0.627  1.00  0.00     0.000 C 
BRANCH  21  22
ATOM     22  C   UNL     1      46.711  29.405  -1.076  1.00  0.00     0.000 C 
BRANCH  22  23
ATOM     23  C   UNL     1      46.708  30.001  -2.497  1.00  0.00     0.000 C 
BRANCH  23  24
ATOM     24  C   UNL     1      45.558  29.514  -3.399  1.00  0.00    -0.000 C 
BRANCH  24  25
ATOM     25  C   UNL     1      45.737  28.096  -3.982  1.00  0.00    -0.000 C 
BRANCH  25  26
ATOM     26  C   UNL     1      46.362  28.041  -5.388  1.00  0.00    -0.000 C 
BRANCH  26  27
ATOM     27  C   UNL     1      46.406  29.413  -6.075  1.00  0.00    -0.000 C 
BRANCH  27  28
ATOM     28  C   UNL     1      45.254  29.558  -7.082  1.00  0.00    -0.000 C 
BRANCH  28  29
ATOM     29  C   UNL     1      43.917  29.901  -6.405  1.00  0.00    -0.000 C 
BRANCH  29  30
ATOM     30  C   UNL     1      42.766  28.989  -6.868  1.00  0.00    -0.000 C 
BRANCH  30  31
ATOM     31  C   UNL     1      41.803  28.632  -5.726  1.00  0.00    -0.003 C 
ATOM     32  C   UNL     1      42.509  28.508  -4.376  1.00  0.00     0.004 C 
ENDBRANCH  30  31
ENDBRANCH  29  30
ENDBRANCH  28  29
ENDBRANCH  27  28
ENDBRANCH  26  27
ENDBRANCH  25  26
ENDBRANCH  24  25
ENDBRANCH  23  24
ENDBRANCH  22  23
ENDBRANCH  21  22
ENDBRANCH  20  21
ENDBRANCH  19  20
ENDBRANCH  18  19
ENDBRANCH   1  18
TORSDOF 28
ENDMDL
MODEL 6
REMARK VINA RESULT:    -0.354      2.873     11.609
REMARK INTER + INTRA:          -0.880
REMARK INTER:                  -2.661
REMARK INTRA:                   1.781
REMARK UNBOUND:                 0.054
REMARK SMILES CCCCCCCCCCCCCCCCCCCCCCCCCCCCCC(=O)[O-]
REMARK SMILES IDX 16 1 17 2 18 3 19 4 20 5 21 6 22 7 23 8 24 9 25 10 26 11
REMARK SMILES IDX 27 12 28 13 29 14 30 15 31 16 32 17 15 18 14 19 13 20 12 21
REMARK SMILES IDX 11 22 10 23 9 24 8 25 7 26 6 27 5 28 4 29 3 30 2 31 1 32
REMARK H PARENT
REMARK Flexibility Score: inf
ROOT
ATOM      1  C   UNL     1      43.310  27.512   2.528  1.00  0.00     0.000 C 
ENDROOT
BRANCH   1   2
ATOM      2  C   UNL     1      43.728  27.972   1.115  1.00  0.00     0.000 C 
BRANCH   2   3
ATOM      3  C   UNL     1      44.920  27.168   0.567  1.00  0.00     0.000 C 
BRANCH   3   4
ATOM      4  C   UNL     1      46.245  27.958   0.650  1.00  0.00     0.000 C 
BRANCH   4   5
ATOM      5  C   UNL     1      46.133  29.413   0.164  1.00  0.00     0.000 C 
BRANCH   5   6
ATOM      6  C   UNL     1      44.840  29.680  -0.624  1.00  0.00     0.000 C 
BRANCH   6   7
ATOM      7  C   UNL     1      45.055  29.649  -2.149  1.00  0.00     0.000 C 
BRANCH   7   8
ATOM      8  C   UNL     1      46.299  28.863  -2.608  1.00  0.00     0.000 C 
BRANCH   8   9
ATOM      9  C   UNL     1      46.833  29.340  -3.970  1.00  0.00     0.000 C 
BRANCH   9  10
ATOM     10  C   UNL     1      45.729  29.934  -4.861  1.00  0.00     0.000 C 
BRANCH  10  11
ATOM     11  C   UNL     1      46.071  29.851  -6.359  1.00  0.00     0.000 C 
BRANCH  11  12
ATOM     12  C   UNL     1      46.290  28.405  -6.835  1.00  0.00     0.000 C 
BRANCH  12  13
ATOM     13  C   UNL     1      45.146  27.463  -6.418  1.00  0.00     0.006 C 
BRANCH  13  14
ATOM     14  C   UNL     1      43.765  28.099  -6.625  1.00  0.00     0.053 C 
BRANCH  14  15
ATOM     15  C   UNL     1      42.920  28.003  -5.392  1.00  0.00     0.041 C 
ATOM     16  O   UNL     1      43.278  27.274  -4.431  1.00  0.00    -0.550 OA
ATOM     17  O   UNL     1      41.715  28.693  -5.320  1.00  0.00    -0.550 OA
ENDBRANCH  14  15
ENDBRANCH  13  14
ENDBRANCH  12  13
ENDBRANCH  11  12
ENDBRANCH  10  11
ENDBRANCH   9  10
ENDBRANCH   8   9
ENDBRANCH   7   8
ENDBRANCH   6   7
ENDBRANCH   5   6
ENDBRANCH   4   5
ENDBRANCH   3   4
ENDBRANCH   2   3
ENDBRANCH   1   2
BRANCH   1  18
ATOM     18  C   UNL     1      43.835  28.424   3.653  1.00  0.00     0.000 C 
BRANCH  18  19
ATOM     19  C   UNL     1      44.594  29.671   3.166  1.00  0.00     0.000 C 
BRANCH  19  20
ATOM     20  C   UNL     1      45.932  29.873   3.899  1.00  0.00     0.000 C 
BRANCH  20  21
ATOM     21  C   UNL     1      46.895  28.690   3.701  1.00  0.00     0.000 C 
BRANCH  21  22
ATOM     22  C   UNL     1      46.676  27.525   4.694  1.00  0.00     0.000 C 
BRANCH  22  23
ATOM     23  C   UNL     1      46.790  27.939   6.174  1.00  0.00     0.000 C 
BRANCH  23  24
ATOM     24  C   UNL     1      46.883  29.459   6.413  1.00  0.00    -0.000 C 
BRANCH  24  25
ATOM     25  C   UNL     1      46.887  29.890   7.896  1.00  0.00    -0.000 C 
BRANCH  25  26
ATOM     26  C   UNL     1      45.496  30.022   8.543  1.00  0.00    -0.000 C 
BRANCH  26  27
ATOM     27  C   UNL     1      45.287  29.050   9.712  1.00  0.00    -0.000 C 
BRANCH  27  28
ATOM     28  C   UNL     1      46.464  29.117  10.697  1.00  0.00    -0.000 C 
BRANCH  28  29
ATOM     29  C   UNL     1      46.364  28.062  11.810  1.00  0.00    -0.000 C 
BRANCH  29  30
ATOM     30  C   UNL     1      47.076  26.745  11.448  1.00  0.00    -0.000 C 
BRANCH  30  31
ATOM     31  C   UNL     1      46.838  26.331   9.988  1.00  0.00    -0.003 C 
ATOM     32  C   UNL     1      45.395  26.558   9.538  1.00  0.00     0.004 C 
ENDBRANCH  30  31
ENDBRANCH  29  30
ENDBRANCH  28  29
ENDBRANCH  27  28
ENDBRANCH  26  27
ENDBRANCH  25  26
ENDBRANCH  24  25
ENDBRANCH  23  24
ENDBRANCH  22  23
ENDBRANCH  21  22
ENDBRANCH  20  21
ENDBRANCH  19  20
ENDBRANCH  18  19
ENDBRANCH   1  18
TORSDOF 28
ENDMDL
