MODEL 1
REMARK VINA RESULT:    -3.878      0.000      0.000
REMARK INTER + INTRA:         -10.621
REMARK INTER:                  -7.505
REMARK INTRA:                  -3.115
REMARK UNBOUND:                -3.115
REMARK SMILES CCCCCCCCCCCCCCCCCC(=O)[O-]
REMARK SMILES IDX 10 1 11 2 12 3 13 4 14 5 15 6 16 7 17 8 18 9 19 10 20 11
REMARK SMILES IDX 9 12 8 13 7 14 6 15 5 16 4 17 3 18 2 19 1 20
REMARK H PARENT
REMARK Flexibility Score: inf
ROOT
ATOM      1  C   UNL     1     -19.270  45.443  -6.033  1.00  0.00     0.000 C 
ENDROOT
BRANCH   1   2
ATOM      2  C   UNL     1     -18.295  46.635  -6.021  1.00  0.00     0.000 C 
BRANCH   2   3
ATOM      3  C   UNL     1     -18.409  47.581  -7.231  1.00  0.00     0.000 C 
BRANCH   3   4
ATOM      4  C   UNL     1     -17.614  47.092  -8.452  1.00  0.00     0.000 C 
BRANCH   4   5
ATOM      5  C   UNL     1     -16.204  47.700  -8.466  1.00  0.00     0.000 C 
BRANCH   5   6
ATOM      6  C   UNL     1     -15.100  46.636  -8.575  1.00  0.00     0.000 C 
BRANCH   6   7
ATOM      7  C   UNL     1     -14.519  46.242  -7.206  1.00  0.00     0.006 C 
BRANCH   7   8
ATOM      8  C   UNL     1     -14.581  47.398  -6.197  1.00  0.00     0.053 C 
BRANCH   8   9
ATOM      9  C   UNL     1     -14.721  46.900  -4.791  1.00  0.00     0.041 C 
ATOM     10  O   UNL     1     -15.389  47.556  -3.950  1.00  0.00    -0.550 OA
ATOM     11  O   UNL     1     -14.136  45.696  -4.418  1.00  0.00    -0.550 OA
ENDBRANCH   8   9
ENDBRANCH   7   8
ENDBRANCH   6   7
ENDBRANCH   5   6
ENDBRANCH   4   5
ENDBRANCH   3   4
ENDBRANCH   2   3
ENDBRANCH   1   2
BRANCH   1  12
ATOM     12  C   UNL     1     -18.592  44.113  -5.665  1.00  0.00     0.000 C 
BRANCH  12  13
ATOM     13  C   UNL     1     -17.167  43.996  -6.229  1.00  0.00    -0.000 C 
BRANCH  13  14
ATOM     14  C   UNL     1     -17.040  42.878  -7.278  1.00  0.00    -0.000 C 
BRANCH  14  15
ATOM     15  C   UNL     1     -16.580  43.402  -8.648  1.00  0.00    -0.000 C 
BRANCH  15  16
ATOM     16  C   UNL     1     -17.742  43.563  -9.641  1.00  0.00    -0.000 C 
BRANCH  16  17
ATOM     17  C   UNL     1     -18.896  42.611  -9.295  1.00  0.00    -0.000 C 
BRANCH  17  18
ATOM     18  C   UNL     1     -20.245  43.335  -9.170  1.00  0.00    -0.000 C 
BRANCH  18  19
ATOM     19  C   UNL     1     -20.165  44.812  -9.586  1.00  0.00    -0.003 C 
ATOM     20  C   UNL     1     -20.691  45.012 -11.003  1.00  0.00     0.004 C 
ENDBRANCH  18  19
ENDBRANCH  17  18
ENDBRANCH  16  17
ENDBRANCH  15  16
ENDBRANCH  14  15
ENDBRANCH  13  14
ENDBRANCH  12  13
ENDBRANCH   1  12
TORSDOF 16
ENDMDL
MODEL 2
REMARK VINA RESULT:    -3.855      2.843      5.267
REMARK INTER + INTRA:         -10.577
REMARK INTER:                  -7.548
REMARK INTRA:                  -3.028
REMARK UNBOUND:                -3.115
REMARK SMILES CCCCCCCCCCCCCCCCCC(=O)[O-]
REMARK SMILES IDX 10 1 11 2 12 3 13 4 14 5 15 6 16 7 17 8 18 9 19 10 20 11
REMARK SMILES IDX 9 12 8 13 7 14 6 15 5 16 4 17 3 18 2 19 1 20
REMARK H PARENT
REMARK Flexibility Score: inf
ROOT
ATOM      1  C   UNL     1     -18.343  47.886  -7.187  1.00  0.00     0.000 C 
ENDROOT
BRANCH   1   2
ATOM      2  C   UNL     1     -17.825  47.147  -8.435  1.00  0.00     0.000 C 
BRANCH   2   3
ATOM      3  C   UNL     1     -16.564  47.758  -9.074  1.00  0.00     0.000 C 
BRANCH   3   4
ATOM      4  C   UNL     1     -15.584  46.698  -9.600  1.00  0.00     0.000 C 
BRANCH   4   5
ATOM      5  C   UNL     1     -16.216  45.887 -10.741  1.00  0.00     0.000 C 
BRANCH   5   6
ATOM      6  C   UNL     1     -16.141  44.370 -10.501  1.00  0.00     0.000 C 
BRANCH   6   7
ATOM      7  C   UNL     1     -17.398  43.630 -10.991  1.00  0.00     0.006 C 
BRANCH   7   8
ATOM      8  C   UNL     1     -18.674  44.141 -10.306  1.00  0.00     0.053 C 
BRANCH   8   9
ATOM      9  C   UNL     1     -19.430  43.031  -9.642  1.00  0.00     0.041 C 
ATOM     10  O   UNL     1     -18.874  41.921  -9.433  1.00  0.00    -0.550 OA
ATOM     11  O   UNL     1     -20.741  43.233  -9.229  1.00  0.00    -0.550 OA
ENDBRANCH   8   9
ENDBRANCH   7   8
ENDBRANCH   6   7
ENDBRANCH   5   6
ENDBRANCH   4   5
ENDBRANCH   3   4
ENDBRANCH   2   3
ENDBRANCH   1   2
BRANCH   1  12
ATOM     12  C   UNL     1     -19.170  46.981  -6.257  1.00  0.00     0.000 C 
BRANCH  12  13
ATOM     13  C   UNL     1     -19.753  45.759  -6.984  1.00  0.00    -0.000 C 
BRANCH  13  14
ATOM     14  C   UNL     1     -19.775  44.502  -6.096  1.00  0.00    -0.000 C 
BRANCH  14  15
ATOM     15  C   UNL     1     -18.379  44.119  -5.578  1.00  0.00    -0.000 C 
BRANCH  15  16
ATOM     16  C   UNL     1     -17.486  43.516  -6.674  1.00  0.00    -0.000 C 
BRANCH  16  17
ATOM     17  C   UNL     1     -16.245  44.390  -6.913  1.00  0.00    -0.000 C 
BRANCH  17  18
ATOM     18  C   UNL     1     -16.000  45.394  -5.776  1.00  0.00    -0.000 C 
BRANCH  18  19
ATOM     19  C   UNL     1     -14.734  46.236  -5.993  1.00  0.00    -0.003 C 
ATOM     20  C   UNL     1     -14.494  47.180  -4.819  1.00  0.00     0.004 C 
ENDBRANCH  18  19
ENDBRANCH  17  18
ENDBRANCH  16  17
ENDBRANCH  15  16
ENDBRANCH  14  15
ENDBRANCH  13  14
ENDBRANCH  12  13
ENDBRANCH   1  12
TORSDOF 16
ENDMDL
MODEL 3
REMARK VINA RESULT:    -3.749      0.934      2.378
REMARK INTER + INTRA:         -10.371
REMARK INTER:                  -7.957
REMARK INTRA:                  -2.414
REMARK UNBOUND:                -3.115
REMARK SMILES CCCCCCCCCCCCCCCCCC(=O)[O-]
REMARK SMILES IDX 10 1 11 2 12 3 13 4 14 5 15 6 16 7 17 8 18 9 19 10 20 11
REMARK SMILES IDX 9 12 8 13 7 14 6 15 5 16 4 17 3 18 2 19 1 20
REMARK H PARENT
REMARK Flexibility Score: inf
ROOT
ATOM      1  C   UNL     1     -18.214  45.247  -6.007  1.00  0.00     0.000 C 
ENDROOT
BRANCH   1   2
ATOM      2  C   UNL     1     -18.774  46.675  -5.868  1.00  0.00     0.000 C 
BRANCH   2   3
ATOM      3  C   UNL     1     -18.377  47.641  -7.000  1.00  0.00     0.000 C 
BRANCH   3   4
ATOM      4  C   UNL     1     -17.680  46.937  -8.174  1.00  0.00     0.000 C 
BRANCH   4   5
ATOM      5  C   UNL     1     -16.705  47.889  -8.883  1.00  0.00     0.000 C 
BRANCH   5   6
ATOM      6  C   UNL     1     -15.233  47.524  -8.632  1.00  0.00     0.000 C 
BRANCH   6   7
ATOM      7  C   UNL     1     -15.059  46.531  -7.471  1.00  0.00     0.006 C 
BRANCH   7   8
ATOM      8  C   UNL     1     -14.160  47.092  -6.359  1.00  0.00     0.053 C 
BRANCH   8   9
ATOM      9  C   UNL     1     -14.660  46.716  -4.998  1.00  0.00     0.041 C 
ATOM     10  O   UNL     1     -14.054  45.848  -4.317  1.00  0.00    -0.550 OA
ATOM     11  O   UNL     1     -15.781  47.346  -4.470  1.00  0.00    -0.550 OA
ENDBRANCH   8   9
ENDBRANCH   7   8
ENDBRANCH   6   7
ENDBRANCH   5   6
ENDBRANCH   4   5
ENDBRANCH   3   4
ENDBRANCH   2   3
ENDBRANCH   1   2
BRANCH   1  12
ATOM     12  C   UNL     1     -19.190  44.171  -5.502  1.00  0.00     0.000 C 
BRANCH  12  13
ATOM     13  C   UNL     1     -20.610  44.346  -6.065  1.00  0.00    -0.000 C 
BRANCH  13  14
ATOM     14  C   UNL     1     -20.607  44.807  -7.533  1.00  0.00    -0.000 C 
BRANCH  14  15
ATOM     15  C   UNL     1     -20.424  43.641  -8.519  1.00  0.00    -0.000 C 
BRANCH  15  16
ATOM     16  C   UNL     1     -19.903  44.100  -9.890  1.00  0.00    -0.000 C 
BRANCH  16  17
ATOM     17  C   UNL     1     -18.542  43.460 -10.202  1.00  0.00    -0.000 C 
BRANCH  17  18
ATOM     18  C   UNL     1     -17.916  42.771  -8.979  1.00  0.00    -0.000 C 
BRANCH  18  19
ATOM     19  C   UNL     1     -16.552  43.366  -8.598  1.00  0.00    -0.003 C 
ATOM     20  C   UNL     1     -15.789  43.826  -9.837  1.00  0.00     0.004 C 
ENDBRANCH  18  19
ENDBRANCH  17  18
ENDBRANCH  16  17
ENDBRANCH  15  16
ENDBRANCH  14  15
ENDBRANCH  13  14
ENDBRANCH  12  13
ENDBRANCH   1  12
TORSDOF 16
ENDMDL
MODEL 4
REMARK VINA RESULT:    -3.669      3.269      5.335
REMARK INTER + INTRA:         -10.216
REMARK INTER:                  -7.254
REMARK INTRA:                  -2.962
REMARK UNBOUND:                -3.115
REMARK SMILES CCCCCCCCCCCCCCCCCC(=O)[O-]
REMARK SMILES IDX 10 1 11 2 12 3 13 4 14 5 15 6 16 7 17 8 18 9 19 10 20 11
REMARK SMILES IDX 9 12 8 13 7 14 6 15 5 16 4 17 3 18 2 19 1 20
REMARK H PARENT
REMARK Flexibility Score: inf
ROOT
ATOM      1  C   UNL     1     -17.356  44.048  -5.895  1.00  0.00     0.000 C 
ENDROOT
BRANCH   1   2
ATOM      2  C   UNL     1     -16.565  45.357  -6.079  1.00  0.00     0.000 C 
BRANCH   2   3
ATOM      3  C   UNL     1     -17.354  46.642  -5.769  1.00  0.00     0.000 C 
BRANCH   3   4
ATOM      4  C   UNL     1     -18.875  46.427  -5.770  1.00  0.00     0.000 C 
BRANCH   4   5
ATOM      5  C   UNL     1     -19.499  46.931  -7.080  1.00  0.00     0.000 C 
BRANCH   5   6
ATOM      6  C   UNL     1     -19.458  45.878  -8.200  1.00  0.00     0.000 C 
BRANCH   6   7
ATOM      7  C   UNL     1     -20.774  45.092  -8.323  1.00  0.00     0.006 C 
BRANCH   7   8
ATOM      8  C   UNL     1     -20.536  43.609  -8.637  1.00  0.00     0.053 C 
BRANCH   8   9
ATOM      9  C   UNL     1     -20.492  43.354 -10.113  1.00  0.00     0.041 C 
ATOM     10  O   UNL     1     -20.698  44.293 -10.925  1.00  0.00    -0.550 OA
ATOM     11  O   UNL     1     -20.196  42.083 -10.590  1.00  0.00    -0.550 OA
ENDBRANCH   8   9
ENDBRANCH   7   8
ENDBRANCH   6   7
ENDBRANCH   5   6
ENDBRANCH   4   5
ENDBRANCH   3   4
ENDBRANCH   2   3
ENDBRANCH   1   2
BRANCH   1  12
ATOM     12  C   UNL     1     -17.221  43.096  -7.096  1.00  0.00     0.000 C 
BRANCH  12  13
ATOM     13  C   UNL     1     -16.434  43.717  -8.261  1.00  0.00    -0.000 C 
BRANCH  13  14
ATOM     14  C   UNL     1     -17.011  43.328  -9.633  1.00  0.00    -0.000 C 
BRANCH  14  15
ATOM     15  C   UNL     1     -16.807  44.425 -10.691  1.00  0.00    -0.000 C 
BRANCH  15  16
ATOM     16  C   UNL     1     -15.323  44.714 -10.968  1.00  0.00    -0.000 C 
BRANCH  16  17
ATOM     17  C   UNL     1     -15.009  46.205 -10.771  1.00  0.00    -0.000 C 
BRANCH  17  18
ATOM     18  C   UNL     1     -14.452  46.514  -9.373  1.00  0.00    -0.000 C 
BRANCH  18  19
ATOM     19  C   UNL     1     -15.186  47.676  -8.687  1.00  0.00    -0.003 C 
ATOM     20  C   UNL     1     -16.576  47.874  -9.282  1.00  0.00     0.004 C 
ENDBRANCH  18  19
ENDBRANCH  17  18
ENDBRANCH  16  17
ENDBRANCH  15  16
ENDBRANCH  14  15
ENDBRANCH  13  14
ENDBRANCH  12  13
ENDBRANCH   1  12
TORSDOF 16
ENDMDL
MODEL 5
REMARK VINA RESULT:    -3.660      2.354      3.673
REMARK INTER + INTRA:         -10.198
REMARK INTER:                  -7.196
REMARK INTRA:                  -3.002
REMARK UNBOUND:                -3.115
REMARK SMILES CCCCCCCCCCCCCCCCCC(=O)[O-]
REMARK SMILES IDX 10 1 11 2 12 3 13 4 14 5 15 6 16 7 17 8 18 9 19 10 20 11
REMARK SMILES IDX 9 12 8 13 7 14 6 15 5 16 4 17 3 18 2 19 1 20
REMARK H PARENT
REMARK Flexibility Score: inf
ROOT
ATOM      1  C   UNL     1     -19.222  45.316  -5.909  1.00  0.00     0.000 C 
ENDROOT
BRANCH   1   2
ATOM      2  C   UNL     1     -19.067  46.616  -6.721  1.00  0.00     0.000 C 
BRANCH   2   3
ATOM      3  C   UNL     1     -17.615  47.089  -6.919  1.00  0.00     0.000 C 
BRANCH   3   4
ATOM      4  C   UNL     1     -16.646  46.505  -5.879  1.00  0.00     0.000 C 
BRANCH   4   5
ATOM      5  C   UNL     1     -15.351  46.021  -6.548  1.00  0.00     0.000 C 
BRANCH   5   6
ATOM      6  C   UNL     1     -14.651  47.128  -7.354  1.00  0.00     0.000 C 
BRANCH   6   7
ATOM      7  C   UNL     1     -14.530  46.787  -8.849  1.00  0.00     0.006 C 
BRANCH   7   8
ATOM      8  C   UNL     1     -14.491  48.044  -9.728  1.00  0.00     0.053 C 
BRANCH   8   9
ATOM      9  C   UNL     1     -15.829  48.714  -9.801  1.00  0.00     0.041 C 
ATOM     10  O   UNL     1     -15.946  49.933  -9.507  1.00  0.00    -0.550 OA
ATOM     11  O   UNL     1     -16.943  47.997 -10.220  1.00  0.00    -0.550 OA
ENDBRANCH   8   9
ENDBRANCH   7   8
ENDBRANCH   6   7
ENDBRANCH   5   6
ENDBRANCH   4   5
ENDBRANCH   3   4
ENDBRANCH   2   3
ENDBRANCH   1   2
BRANCH   1  12
ATOM     12  C   UNL     1     -20.294  44.376  -6.487  1.00  0.00     0.000 C 
BRANCH  12  13
ATOM     13  C   UNL     1     -20.714  44.760  -7.915  1.00  0.00    -0.000 C 
BRANCH  13  14
ATOM     14  C   UNL     1     -20.728  43.553  -8.868  1.00  0.00    -0.000 C 
BRANCH  14  15
ATOM     15  C   UNL     1     -20.359  43.934 -10.311  1.00  0.00    -0.000 C 
BRANCH  15  16
ATOM     16  C   UNL     1     -19.369  45.107 -10.379  1.00  0.00    -0.000 C 
BRANCH  16  17
ATOM     17  C   UNL     1     -17.936  44.603 -10.609  1.00  0.00    -0.000 C 
BRANCH  17  18
ATOM     18  C   UNL     1     -17.166  44.386  -9.297  1.00  0.00    -0.000 C 
BRANCH  18  19
ATOM     19  C   UNL     1     -17.229  42.932  -8.806  1.00  0.00    -0.003 C 
ATOM     20  C   UNL     1     -16.938  42.844  -7.312  1.00  0.00     0.004 C 
ENDBRANCH  18  19
ENDBRANCH  17  18
ENDBRANCH  16  17
ENDBRANCH  15  16
ENDBRANCH  14  15
ENDBRANCH  13  14
ENDBRANCH  12  13
ENDBRANCH   1  12
TORSDOF 16
ENDMDL
MODEL 6
REMARK VINA RESULT:    -3.659      2.135      5.483
REMARK INTER + INTRA:         -10.196
REMARK INTER:                  -7.423
REMARK INTRA:                  -2.773
REMARK UNBOUND:                -3.115
REMARK SMILES CCCCCCCCCCCCCCCCCC(=O)[O-]
REMARK SMILES IDX 10 1 11 2 12 3 13 4 14 5 15 6 16 7 17 8 18 9 19 10 20 11
REMARK SMILES IDX 9 12 8 13 7 14 6 15 5 16 4 17 3 18 2 19 1 20
REMARK H PARENT
REMARK Flexibility Score: inf
ROOT
ATOM      1  C   UNL     1     -16.922  43.626  -9.396  1.00  0.00     0.000 C 
ENDROOT
BRANCH   1   2
ATOM      2  C   UNL     1     -17.993  42.663  -8.851  1.00  0.00     0.000 C 
BRANCH   2   3
ATOM      3  C   UNL     1     -19.312  42.640  -9.647  1.00  0.00     0.000 C 
BRANCH   3   4
ATOM      4  C   UNL     1     -20.473  43.319  -8.904  1.00  0.00     0.000 C 
BRANCH   4   5
ATOM      5  C   UNL     1     -20.584  44.799  -9.299  1.00  0.00     0.000 C 
BRANCH   5   6
ATOM      6  C   UNL     1     -20.608  45.738  -8.081  1.00  0.00     0.000 C 
BRANCH   6   7
ATOM      7  C   UNL     1     -19.200  46.055  -7.551  1.00  0.00     0.006 C 
BRANCH   7   8
ATOM      8  C   UNL     1     -19.121  45.956  -6.021  1.00  0.00     0.053 C 
BRANCH   8   9
ATOM      9  C   UNL     1     -19.144  44.532  -5.555  1.00  0.00     0.041 C 
ATOM     10  O   UNL     1     -18.082  43.857  -5.525  1.00  0.00    -0.550 OA
ATOM     11  O   UNL     1     -20.336  43.960  -5.127  1.00  0.00    -0.550 OA
ENDBRANCH   8   9
ENDBRANCH   7   8
ENDBRANCH   6   7
ENDBRANCH   5   6
ENDBRANCH   4   5
ENDBRANCH   3   4
ENDBRANCH   2   3
ENDBRANCH   1   2
BRANCH   1  12
ATOM     12  C   UNL     1     -17.268  44.177 -10.790  1.00  0.00     0.000 C 
BRANCH  12  13
ATOM     13  C   UNL     1     -17.149  45.707 -10.870  1.00  0.00    -0.000 C 
BRANCH  13  14
ATOM     14  C   UNL     1     -15.695  46.174 -11.058  1.00  0.00    -0.000 C 
BRANCH  14  15
ATOM     15  C   UNL     1     -15.368  47.432 -10.237  1.00  0.00    -0.000 C 
BRANCH  15  16
ATOM     16  C   UNL     1     -16.061  47.442  -8.865  1.00  0.00    -0.000 C 
BRANCH  16  17
ATOM     17  C   UNL     1     -15.081  47.042  -7.753  1.00  0.00    -0.000 C 
BRANCH  17  18
ATOM     18  C   UNL     1     -15.541  45.799  -6.975  1.00  0.00    -0.000 C 
BRANCH  18  19
ATOM     19  C   UNL     1     -15.133  45.841  -5.496  1.00  0.00    -0.003 C 
ATOM     20  C   UNL     1     -14.540  47.198  -5.128  1.00  0.00     0.004 C 
ENDBRANCH  18  19
ENDBRANCH  17  18
ENDBRANCH  16  17
ENDBRANCH  15  16
ENDBRANCH  14  15
ENDBRANCH  13  14
ENDBRANCH  12  13
ENDBRANCH   1  12
TORSDOF 16
ENDMDL
MODEL 7
REMARK VINA RESULT:    -3.637      1.467      4.050
REMARK INTER + INTRA:         -10.154
REMARK INTER:                  -7.537
REMARK INTRA:                  -2.618
REMARK UNBOUND:                -3.115
REMARK SMILES CCCCCCCCCCCCCCCCCC(=O)[O-]
REMARK SMILES IDX 10 1 11 2 12 3 13 4 14 5 15 6 16 7 17 8 18 9 19 10 20 11
REMARK SMILES IDX 9 12 8 13 7 14 6 15 5 16 4 17 3 18 2 19 1 20
REMARK H PARENT
REMARK Flexibility Score: inf
ROOT
ATOM      1  C   UNL     1     -20.246  42.957  -9.133  1.00  0.00     0.000 C 
ENDROOT
BRANCH   1   2
ATOM      2  C   UNL     1     -20.448  44.484  -9.105  1.00  0.00     0.000 C 
BRANCH   2   3
ATOM      3  C   UNL     1     -20.950  45.048  -7.763  1.00  0.00     0.000 C 
BRANCH   3   4
ATOM      4  C   UNL     1     -19.811  45.520  -6.847  1.00  0.00     0.000 C 
BRANCH   4   5
ATOM      5  C   UNL     1     -19.498  44.465  -5.775  1.00  0.00     0.000 C 
BRANCH   5   6
ATOM      6  C   UNL     1     -18.030  44.010  -5.801  1.00  0.00     0.000 C 
BRANCH   6   7
ATOM      7  C   UNL     1     -17.154  44.888  -6.712  1.00  0.00     0.006 C 
BRANCH   7   8
ATOM      8  C   UNL     1     -15.845  45.307  -6.027  1.00  0.00     0.053 C 
BRANCH   8   9
ATOM      9  C   UNL     1     -15.974  46.636  -5.347  1.00  0.00     0.041 C 
ATOM     10  O   UNL     1     -14.967  47.180  -4.822  1.00  0.00    -0.550 OA
ATOM     11  O   UNL     1     -17.201  47.286  -5.319  1.00  0.00    -0.550 OA
ENDBRANCH   8   9
ENDBRANCH   7   8
ENDBRANCH   6   7
ENDBRANCH   5   6
ENDBRANCH   4   5
ENDBRANCH   3   4
ENDBRANCH   2   3
ENDBRANCH   1   2
BRANCH   1  12
ATOM     12  C   UNL     1     -18.835  42.550  -9.594  1.00  0.00     0.000 C 
BRANCH  12  13
ATOM     13  C   UNL     1     -18.069  43.707 -10.255  1.00  0.00    -0.000 C 
BRANCH  13  14
ATOM     14  C   UNL     1     -16.587  43.741  -9.844  1.00  0.00    -0.000 C 
BRANCH  14  15
ATOM     15  C   UNL     1     -15.646  43.941 -11.043  1.00  0.00    -0.000 C 
BRANCH  15  16
ATOM     16  C   UNL     1     -14.401  44.769 -10.688  1.00  0.00    -0.000 C 
BRANCH  16  17
ATOM     17  C   UNL     1     -14.724  46.270 -10.682  1.00  0.00    -0.000 C 
BRANCH  17  18
ATOM     18  C   UNL     1     -14.832  46.847  -9.261  1.00  0.00    -0.000 C 
BRANCH  18  19
ATOM     19  C   UNL     1     -15.883  47.962  -9.154  1.00  0.00    -0.003 C 
ATOM     20  C   UNL     1     -17.290  47.382  -9.058  1.00  0.00     0.004 C 
ENDBRANCH  18  19
ENDBRANCH  17  18
ENDBRANCH  16  17
ENDBRANCH  15  16
ENDBRANCH  14  15
ENDBRANCH  13  14
ENDBRANCH  12  13
ENDBRANCH   1  12
TORSDOF 16
ENDMDL
MODEL 8
REMARK VINA RESULT:    -3.616      2.129      2.864
REMARK INTER + INTRA:         -10.113
REMARK INTER:                  -7.145
REMARK INTRA:                  -2.968
REMARK UNBOUND:                -3.115
REMARK SMILES CCCCCCCCCCCCCCCCCC(=O)[O-]
REMARK SMILES IDX 10 1 11 2 12 3 13 4 14 5 15 6 16 7 17 8 18 9 19 10 20 11
REMARK SMILES IDX 9 12 8 13 7 14 6 15 5 16 4 17 3 18 2 19 1 20
REMARK H PARENT
REMARK Flexibility Score: inf
ROOT
ATOM      1  C   UNL     1     -19.006  44.374  -5.880  1.00  0.00     0.000 C 
ENDROOT
BRANCH   1   2
ATOM      2  C   UNL     1     -19.046  45.913  -5.931  1.00  0.00     0.000 C 
BRANCH   2   3
ATOM      3  C   UNL     1     -17.710  46.586  -6.298  1.00  0.00     0.000 C 
BRANCH   3   4
ATOM      4  C   UNL     1     -16.996  47.202  -5.086  1.00  0.00     0.000 C 
BRANCH   4   5
ATOM      5  C   UNL     1     -15.512  46.806  -5.066  1.00  0.00     0.000 C 
BRANCH   5   6
ATOM      6  C   UNL     1     -15.026  46.258  -6.417  1.00  0.00     0.000 C 
BRANCH   6   7
ATOM      7  C   UNL     1     -14.121  47.251  -7.168  1.00  0.00     0.006 C 
BRANCH   7   8
ATOM      8  C   UNL     1     -14.093  46.981  -8.679  1.00  0.00     0.053 C 
BRANCH   8   9
ATOM      9  C   UNL     1     -14.959  47.944  -9.432  1.00  0.00     0.041 C 
ATOM     10  O   UNL     1     -16.177  48.065  -9.137  1.00  0.00    -0.550 OA
ATOM     11  O   UNL     1     -14.413  48.728 -10.440  1.00  0.00    -0.550 OA
ENDBRANCH   8   9
ENDBRANCH   7   8
ENDBRANCH   6   7
ENDBRANCH   5   6
ENDBRANCH   4   5
ENDBRANCH   3   4
ENDBRANCH   2   3
ENDBRANCH   1   2
BRANCH   1  12
ATOM     12  C   UNL     1     -17.589  43.807  -6.070  1.00  0.00     0.000 C 
BRANCH  12  13
ATOM     13  C   UNL     1     -17.468  42.916  -7.316  1.00  0.00    -0.000 C 
BRANCH  13  14
ATOM     14  C   UNL     1     -16.243  43.271  -8.177  1.00  0.00    -0.000 C 
BRANCH  14  15
ATOM     15  C   UNL     1     -16.543  44.375  -9.204  1.00  0.00    -0.000 C 
BRANCH  15  16
ATOM     16  C   UNL     1     -17.161  43.827 -10.500  1.00  0.00    -0.000 C 
BRANCH  16  17
ATOM     17  C   UNL     1     -18.467  44.561 -10.839  1.00  0.00    -0.000 C 
BRANCH  17  18
ATOM     18  C   UNL     1     -18.996  45.401  -9.666  1.00  0.00    -0.000 C 
BRANCH  18  19
ATOM     19  C   UNL     1     -20.412  44.991  -9.236  1.00  0.00    -0.003 C 
ATOM     20  C   UNL     1     -20.537  43.474  -9.136  1.00  0.00     0.004 C 
ENDBRANCH  18  19
ENDBRANCH  17  18
ENDBRANCH  16  17
ENDBRANCH  15  16
ENDBRANCH  14  15
ENDBRANCH  13  14
ENDBRANCH  12  13
ENDBRANCH   1  12
TORSDOF 16
ENDMDL
MODEL 9
REMARK VINA RESULT:    -3.575      2.383      4.935
REMARK INTER + INTRA:         -10.034
REMARK INTER:                  -7.378
REMARK INTRA:                  -2.656
REMARK UNBOUND:                -3.115
REMARK SMILES CCCCCCCCCCCCCCCCCC(=O)[O-]
REMARK SMILES IDX 10 1 11 2 12 3 13 4 14 5 15 6 16 7 17 8 18 9 19 10 20 11
REMARK SMILES IDX 9 12 8 13 7 14 6 15 5 16 4 17 3 18 2 19 1 20
REMARK H PARENT
REMARK Flexibility Score: inf
ROOT
ATOM      1  C   UNL     1     -20.591  43.425  -8.880  1.00  0.00     0.000 C 
ENDROOT
BRANCH   1   2
ATOM      2  C   UNL     1     -19.978  42.792 -10.143  1.00  0.00     0.000 C 
BRANCH   2   3
ATOM      3  C   UNL     1     -18.730  43.510 -10.689  1.00  0.00     0.000 C 
BRANCH   3   4
ATOM      4  C   UNL     1     -17.465  43.227  -9.865  1.00  0.00     0.000 C 
BRANCH   4   5
ATOM      5  C   UNL     1     -16.563  44.469  -9.801  1.00  0.00     0.000 C 
BRANCH   5   6
ATOM      6  C   UNL     1     -17.236  45.721 -10.389  1.00  0.00     0.000 C 
BRANCH   6   7
ATOM      7  C   UNL     1     -16.239  46.864 -10.644  1.00  0.00     0.006 C 
BRANCH   7   8
ATOM      8  C   UNL     1     -16.714  48.192 -10.039  1.00  0.00     0.053 C 
BRANCH   8   9
ATOM      9  C   UNL     1     -15.574  49.137  -9.806  1.00  0.00     0.041 C 
ATOM     10  O   UNL     1     -15.798  50.342  -9.520  1.00  0.00    -0.550 OA
ATOM     11  O   UNL     1     -14.265  48.677  -9.878  1.00  0.00    -0.550 OA
ENDBRANCH   8   9
ENDBRANCH   7   8
ENDBRANCH   6   7
ENDBRANCH   5   6
ENDBRANCH   4   5
ENDBRANCH   3   4
ENDBRANCH   2   3
ENDBRANCH   1   2
BRANCH   1  12
ATOM     12  C   UNL     1     -20.471  44.958  -8.862  1.00  0.00     0.000 C 
BRANCH  12  13
ATOM     13  C   UNL     1     -20.018  45.503  -7.498  1.00  0.00    -0.000 C 
BRANCH  13  14
ATOM     14  C   UNL     1     -20.247  44.496  -6.357  1.00  0.00    -0.000 C 
BRANCH  14  15
ATOM     15  C   UNL     1     -18.989  44.274  -5.503  1.00  0.00    -0.000 C 
BRANCH  15  16
ATOM     16  C   UNL     1     -17.724  44.071  -6.352  1.00  0.00    -0.000 C 
BRANCH  16  17
ATOM     17  C   UNL     1     -16.572  44.948  -5.840  1.00  0.00    -0.000 C 
BRANCH  17  18
ATOM     18  C   UNL     1     -16.457  46.279  -6.599  1.00  0.00    -0.000 C 
BRANCH  18  19
ATOM     19  C   UNL     1     -15.033  46.550  -7.106  1.00  0.00    -0.003 C 
ATOM     20  C   UNL     1     -14.076  46.802  -5.946  1.00  0.00     0.004 C 
ENDBRANCH  18  19
ENDBRANCH  17  18
ENDBRANCH  16  17
ENDBRANCH  15  16
ENDBRANCH  14  15
ENDBRANCH  13  14
ENDBRANCH  12  13
ENDBRANCH   1  12
TORSDOF 16
ENDMDL
