MODEL 1
REMARK VINA RESULT:    -5.473      0.000      0.000
REMARK INTER + INTRA:          -6.924
REMARK INTER:                  -6.593
REMARK INTRA:                  -0.331
REMARK UNBOUND:                -0.331
REMARK SMILES O=c1c(O)c(-c2ccc(O)c(O)c2)oc2cc(O)cc(O)c12
REMARK SMILES IDX 5 1 3 2 2 3 1 4 22 5 20 6 19 7 17 8 16 9 15 10 14 11 6 12
REMARK SMILES IDX 7 13 8 14 9 15 13 16 11 17 10 18 12 20 4 22 21 24 18 26
REMARK H PARENT 10 19 12 21 4 23 21 25 18 27
REMARK Flexibility Score: inf
ROOT
ATOM      1  C   UNL     1      23.667  29.585   5.777  1.00  0.00     0.180 A 
ATOM      2  C   UNL     1      25.057  29.593   5.993  1.00  0.00     0.208 A 
ATOM      3  C   UNL     1      25.733  28.369   6.115  1.00  0.00     0.238 A 
ATOM      4  O   UNL     1      26.985  28.381   6.253  1.00  0.00    -0.285 OA
ATOM      5  C   UNL     1      25.011  27.154   6.035  1.00  0.00     0.111 A 
ATOM      6  C   UNL     1      25.589  25.857   6.184  1.00  0.00     0.134 A 
ATOM      7  C   UNL     1      24.803  24.720   5.957  1.00  0.00     0.093 A 
ATOM      8  C   UNL     1      23.445  24.833   5.650  1.00  0.00     0.123 A 
ATOM      9  C   UNL     1      22.859  26.094   5.561  1.00  0.00     0.094 A 
ATOM     10  C   UNL     1      23.625  27.248   5.747  1.00  0.00     0.146 A 
ATOM     11  O   UNL     1      23.029  28.429   5.642  1.00  0.00    -0.452 OA
ENDROOT
BRANCH   1  12
ATOM     12  C   UNL     1      22.880  30.835   5.664  1.00  0.00     0.025 A 
ATOM     13  C   UNL     1      22.649  31.392   4.397  1.00  0.00     0.016 A 
ATOM     14  C   UNL     1      21.891  32.560   4.264  1.00  0.00     0.051 A 
ATOM     15  C   UNL     1      21.342  33.176   5.396  1.00  0.00     0.157 A 
ATOM     16  C   UNL     1      22.309  31.446   6.795  1.00  0.00     0.062 A 
ATOM     17  C   UNL     1      21.548  32.616   6.663  1.00  0.00     0.158 A 
BRANCH  15  18
ATOM     18  O   UNL     1      20.588  34.341   5.269  1.00  0.00    -0.504 OA
ATOM     19  H   UNL     1      19.586  34.309   5.114  1.00  0.00     0.293 HD
ENDBRANCH  15  18
BRANCH  17  20
ATOM     20  O   UNL     1      20.987  33.224   7.785  1.00  0.00    -0.504 OA
ATOM     21  H   UNL     1      20.398  32.707   8.429  1.00  0.00     0.293 HD
ENDBRANCH  17  20
ENDBRANCH   1  12
BRANCH   2  22
ATOM     22  O   UNL     1      25.753  30.803   6.046  1.00  0.00    -0.502 OA
ATOM     23  H   UNL     1      25.297  31.699   5.928  1.00  0.00     0.293 HD
ENDBRANCH   2  22
BRANCH   6  24
ATOM     24  O   UNL     1      26.911  25.633   6.579  1.00  0.00    -0.507 OA
ATOM     25  H   UNL     1      27.198  25.380   7.512  1.00  0.00     0.293 HD
ENDBRANCH   6  24
BRANCH   8  26
ATOM     26  O   UNL     1      22.667  23.697   5.442  1.00  0.00    -0.508 OA
ATOM     27  H   UNL     1      22.098  23.301   6.181  1.00  0.00     0.293 HD
ENDBRANCH   8  26
TORSDOF 6
ENDMDL
MODEL 2
REMARK VINA RESULT:    -5.461      1.416      1.623
REMARK INTER + INTRA:          -6.909
REMARK INTER:                  -6.637
REMARK INTRA:                  -0.272
REMARK UNBOUND:                -0.331
REMARK SMILES O=c1c(O)c(-c2ccc(O)c(O)c2)oc2cc(O)cc(O)c12
REMARK SMILES IDX 5 1 3 2 2 3 1 4 22 5 20 6 19 7 17 8 16 9 15 10 14 11 6 12
REMARK SMILES IDX 7 13 8 14 9 15 13 16 11 17 10 18 12 20 4 22 21 24 18 26
REMARK H PARENT 10 19 12 21 4 23 21 25 18 27
REMARK Flexibility Score: inf
ROOT
ATOM      1  C   UNL     1      24.460  30.298   6.245  1.00  0.00     0.180 A 
ATOM      2  C   UNL     1      25.603  30.532   7.030  1.00  0.00     0.208 A 
ATOM      3  C   UNL     1      26.496  29.474   7.264  1.00  0.00     0.238 A 
ATOM      4  O   UNL     1      27.545  29.703   7.922  1.00  0.00    -0.285 OA
ATOM      5  C   UNL     1      26.229  28.194   6.723  1.00  0.00     0.111 A 
ATOM      6  C   UNL     1      27.045  27.041   6.929  1.00  0.00     0.134 A 
ATOM      7  C   UNL     1      26.754  25.857   6.240  1.00  0.00     0.093 A 
ATOM      8  C   UNL     1      25.640  25.766   5.402  1.00  0.00     0.123 A 
ATOM      9  C   UNL     1      24.805  26.869   5.241  1.00  0.00     0.094 A 
ATOM     10  C   UNL     1      25.088  28.075   5.888  1.00  0.00     0.146 A 
ATOM     11  O   UNL     1      24.271  29.104   5.698  1.00  0.00    -0.452 OA
ENDROOT
BRANCH   1  12
ATOM     12  C   UNL     1      23.460  31.357   5.975  1.00  0.00     0.025 A 
ATOM     13  C   UNL     1      23.364  31.904   4.687  1.00  0.00     0.016 A 
ATOM     14  C   UNL     1      22.412  32.889   4.405  1.00  0.00     0.051 A 
ATOM     15  C   UNL     1      21.534  33.327   5.403  1.00  0.00     0.157 A 
ATOM     16  C   UNL     1      22.561  31.785   6.970  1.00  0.00     0.062 A 
ATOM     17  C   UNL     1      21.605  32.772   6.687  1.00  0.00     0.158 A 
BRANCH  15  18
ATOM     18  O   UNL     1      20.585  34.310   5.128  1.00  0.00    -0.504 OA
ATOM     19  H   UNL     1      20.845  35.286   5.035  1.00  0.00     0.293 HD
ENDBRANCH  15  18
BRANCH  17  20
ATOM     20  O   UNL     1      20.720  33.200   7.675  1.00  0.00    -0.504 OA
ATOM     21  H   UNL     1      20.361  34.149   7.690  1.00  0.00     0.293 HD
ENDBRANCH  17  20
ENDBRANCH   1  12
BRANCH   2  22
ATOM     22  O   UNL     1      25.859  31.810   7.536  1.00  0.00    -0.502 OA
ATOM     23  H   UNL     1      25.506  32.650   7.096  1.00  0.00     0.293 HD
ENDBRANCH   2  22
BRANCH   6  24
ATOM     24  O   UNL     1      28.125  26.998   7.815  1.00  0.00    -0.507 OA
ATOM     25  H   UNL     1      29.010  26.554   7.622  1.00  0.00     0.293 HD
ENDBRANCH   6  24
BRANCH   8  26
ATOM     26  O   UNL     1      25.350  24.580   4.732  1.00  0.00    -0.508 OA
ATOM     27  H   UNL     1      25.205  24.559   3.729  1.00  0.00     0.293 HD
ENDBRANCH   8  26
TORSDOF 6
ENDMDL
MODEL 3
REMARK VINA RESULT:    -5.044      1.462      2.815
REMARK INTER + INTRA:          -6.407
REMARK INTER:                  -6.226
REMARK INTRA:                  -0.181
REMARK UNBOUND:                -0.331
REMARK SMILES O=c1c(O)c(-c2ccc(O)c(O)c2)oc2cc(O)cc(O)c12
REMARK SMILES IDX 5 1 3 2 2 3 1 4 22 5 20 6 19 7 17 8 16 9 15 10 14 11 6 12
REMARK SMILES IDX 7 13 8 14 9 15 13 16 11 17 10 18 12 20 4 22 21 24 18 26
REMARK H PARENT 10 19 12 21 4 23 21 25 18 27
REMARK Flexibility Score: inf
ROOT
ATOM      1  C   UNL     1      23.463  29.574   5.123  1.00  0.00     0.180 A 
ATOM      2  C   UNL     1      22.956  28.502   4.369  1.00  0.00     0.208 A 
ATOM      3  C   UNL     1      23.633  27.273   4.393  1.00  0.00     0.238 A 
ATOM      4  O   UNL     1      23.144  26.301   3.758  1.00  0.00    -0.285 OA
ATOM      5  C   UNL     1      24.816  27.135   5.158  1.00  0.00     0.111 A 
ATOM      6  C   UNL     1      25.604  25.946   5.223  1.00  0.00     0.134 A 
ATOM      7  C   UNL     1      26.683  25.882   6.114  1.00  0.00     0.093 A 
ATOM      8  C   UNL     1      27.041  26.984   6.894  1.00  0.00     0.123 A 
ATOM      9  C   UNL     1      26.313  28.167   6.793  1.00  0.00     0.094 A 
ATOM     10  C   UNL     1      25.210  28.252   5.939  1.00  0.00     0.146 A 
ATOM     11  O   UNL     1      24.538  29.395   5.882  1.00  0.00    -0.452 OA
ENDROOT
BRANCH   1  12
ATOM     12  C   UNL     1      22.819  30.909   5.129  1.00  0.00     0.025 A 
ATOM     13  C   UNL     1      22.796  31.669   3.950  1.00  0.00     0.016 A 
ATOM     14  C   UNL     1      22.176  32.922   3.926  1.00  0.00     0.051 A 
ATOM     15  C   UNL     1      21.556  33.423   5.078  1.00  0.00     0.157 A 
ATOM     16  C   UNL     1      22.177  31.407   6.277  1.00  0.00     0.062 A 
ATOM     17  C   UNL     1      21.553  32.663   6.254  1.00  0.00     0.158 A 
BRANCH  15  18
ATOM     18  O   UNL     1      20.938  34.671   5.060  1.00  0.00    -0.504 OA
ATOM     19  H   UNL     1      21.338  35.467   5.544  1.00  0.00     0.293 HD
ENDBRANCH  15  18
BRANCH  17  20
ATOM     20  O   UNL     1      20.922  33.158   7.395  1.00  0.00    -0.504 OA
ATOM     21  H   UNL     1      20.466  34.063   7.396  1.00  0.00     0.293 HD
ENDBRANCH  17  20
ENDBRANCH   1  12
BRANCH   2  22
ATOM     22  O   UNL     1      21.774  28.654   3.638  1.00  0.00    -0.502 OA
ATOM     23  H   UNL     1      21.752  29.083   2.722  1.00  0.00     0.293 HD
ENDBRANCH   2  22
BRANCH   6  24
ATOM     24  O   UNL     1      25.389  24.822   4.420  1.00  0.00    -0.507 OA
ATOM     25  H   UNL     1      25.096  24.852   3.456  1.00  0.00     0.293 HD
ENDBRANCH   6  24
BRANCH   8  26
ATOM     26  O   UNL     1      28.125  26.916   7.765  1.00  0.00    -0.508 OA
ATOM     27  H   UNL     1      28.415  26.040   8.184  1.00  0.00     0.293 HD
ENDBRANCH   8  26
TORSDOF 6
ENDMDL
MODEL 4
REMARK VINA RESULT:    -4.916      1.160      1.764
REMARK INTER + INTRA:          -6.253
REMARK INTER:                  -5.995
REMARK INTRA:                  -0.258
REMARK UNBOUND:                -0.331
REMARK SMILES O=c1c(O)c(-c2ccc(O)c(O)c2)oc2cc(O)cc(O)c12
REMARK SMILES IDX 5 1 3 2 2 3 1 4 22 5 20 6 19 7 17 8 16 9 15 10 14 11 6 12
REMARK SMILES IDX 7 13 8 14 9 15 13 16 11 17 10 18 12 20 4 22 21 24 18 26
REMARK H PARENT 10 19 12 21 4 23 21 25 18 27
REMARK Flexibility Score: inf
ROOT
ATOM      1  C   UNL     1      24.311  29.385   6.517  1.00  0.00     0.180 A 
ATOM      2  C   UNL     1      25.670  29.585   6.815  1.00  0.00     0.208 A 
ATOM      3  C   UNL     1      26.533  28.477   6.829  1.00  0.00     0.238 A 
ATOM      4  O   UNL     1      27.759  28.670   7.044  1.00  0.00    -0.285 OA
ATOM      5  C   UNL     1      26.024  27.184   6.561  1.00  0.00     0.111 A 
ATOM      6  C   UNL     1      26.801  25.987   6.588  1.00  0.00     0.134 A 
ATOM      7  C   UNL     1      26.222  24.779   6.179  1.00  0.00     0.093 A 
ATOM      8  C   UNL     1      24.877  24.714   5.807  1.00  0.00     0.123 A 
ATOM      9  C   UNL     1      24.096  25.867   5.834  1.00  0.00     0.094 A 
ATOM     10  C   UNL     1      24.654  27.094   6.203  1.00  0.00     0.146 A 
ATOM     11  O   UNL     1      23.877  28.170   6.206  1.00  0.00    -0.452 OA
ENDROOT
BRANCH   1  12
ATOM     12  C   UNL     1      23.334  30.499   6.507  1.00  0.00     0.025 A 
ATOM     13  C   UNL     1      22.907  31.054   7.723  1.00  0.00     0.016 A 
ATOM     14  C   UNL     1      22.003  32.120   7.737  1.00  0.00     0.051 A 
ATOM     15  C   UNL     1      21.526  32.655   6.535  1.00  0.00     0.157 A 
ATOM     16  C   UNL     1      22.869  31.055   5.301  1.00  0.00     0.062 A 
ATOM     17  C   UNL     1      21.962  32.125   5.314  1.00  0.00     0.158 A 
BRANCH  15  18
ATOM     18  O   UNL     1      20.623  33.716   6.543  1.00  0.00    -0.504 OA
ATOM     19  H   UNL     1      19.914  33.803   7.262  1.00  0.00     0.293 HD
ENDBRANCH  15  18
BRANCH  17  20
ATOM     20  O   UNL     1      21.497  32.670   4.118  1.00  0.00    -0.504 OA
ATOM     21  H   UNL     1      20.849  32.166   3.523  1.00  0.00     0.293 HD
ENDBRANCH  17  20
ENDBRANCH   1  12
BRANCH   2  22
ATOM     22  O   UNL     1      26.155  30.873   7.055  1.00  0.00    -0.502 OA
ATOM     23  H   UNL     1      26.857  31.308   6.469  1.00  0.00     0.293 HD
ENDBRANCH   2  22
BRANCH   6  24
ATOM     24  O   UNL     1      28.125  25.925   7.032  1.00  0.00    -0.507 OA
ATOM     25  H   UNL     1      28.884  26.472   6.654  1.00  0.00     0.293 HD
ENDBRANCH   6  24
BRANCH   8  26
ATOM     26  O   UNL     1      24.305  23.506   5.416  1.00  0.00    -0.508 OA
ATOM     27  H   UNL     1      23.928  23.374   4.485  1.00  0.00     0.293 HD
ENDBRANCH   8  26
TORSDOF 6
ENDMDL
MODEL 5
REMARK VINA RESULT:    -4.808      2.253      6.100
REMARK INTER + INTRA:          -6.123
REMARK INTER:                  -5.831
REMARK INTRA:                  -0.292
REMARK UNBOUND:                -0.331
REMARK SMILES O=c1c(O)c(-c2ccc(O)c(O)c2)oc2cc(O)cc(O)c12
REMARK SMILES IDX 5 1 3 2 2 3 1 4 22 5 20 6 19 7 17 8 16 9 15 10 14 11 6 12
REMARK SMILES IDX 7 13 8 14 9 15 13 16 11 17 10 18 12 20 4 22 21 24 18 26
REMARK H PARENT 10 19 12 21 4 23 21 25 18 27
REMARK Flexibility Score: inf
ROOT
ATOM      1  C   UNL     1      24.279  27.592   5.919  1.00  0.00     0.180 A 
ATOM      2  C   UNL     1      25.650  27.396   6.160  1.00  0.00     0.208 A 
ATOM      3  C   UNL     1      26.379  28.408   6.803  1.00  0.00     0.238 A 
ATOM      4  O   UNL     1      27.594  28.205   7.065  1.00  0.00    -0.285 OA
ATOM      5  C   UNL     1      25.733  29.608   7.185  1.00  0.00     0.111 A 
ATOM      6  C   UNL     1      26.384  30.716   7.807  1.00  0.00     0.134 A 
ATOM      7  C   UNL     1      25.620  31.801   8.258  1.00  0.00     0.093 A 
ATOM      8  C   UNL     1      24.240  31.846   8.051  1.00  0.00     0.123 A 
ATOM      9  C   UNL     1      23.605  30.796   7.392  1.00  0.00     0.094 A 
ATOM     10  C   UNL     1      24.334  29.684   6.961  1.00  0.00     0.146 A 
ATOM     11  O   UNL     1      23.688  28.701   6.346  1.00  0.00    -0.452 OA
ENDROOT
BRANCH   1  12
ATOM     12  C   UNL     1      23.449  26.581   5.223  1.00  0.00     0.025 A 
ATOM     13  C   UNL     1      23.515  26.478   3.825  1.00  0.00     0.016 A 
ATOM     14  C   UNL     1      22.757  25.518   3.149  1.00  0.00     0.051 A 
ATOM     15  C   UNL     1      21.934  24.638   3.864  1.00  0.00     0.157 A 
ATOM     16  C   UNL     1      22.637  25.681   5.938  1.00  0.00     0.062 A 
ATOM     17  C   UNL     1      21.877  24.717   5.261  1.00  0.00     0.158 A 
BRANCH  15  18
ATOM     18  O   UNL     1      21.175  23.680   3.195  1.00  0.00    -0.504 OA
ATOM     19  H   UNL     1      20.192  23.828   2.996  1.00  0.00     0.293 HD
ENDBRANCH  15  18
BRANCH  17  20
ATOM     20  O   UNL     1      21.069  23.830   5.970  1.00  0.00    -0.504 OA
ATOM     21  H   UNL     1      20.355  24.160   6.610  1.00  0.00     0.293 HD
ENDBRANCH  17  20
ENDBRANCH   1  12
BRANCH   2  22
ATOM     22  O   UNL     1      26.263  26.194   5.795  1.00  0.00    -0.502 OA
ATOM     23  H   UNL     1      25.946  25.296   6.137  1.00  0.00     0.293 HD
ENDBRANCH   2  22
BRANCH   6  24
ATOM     24  O   UNL     1      27.767  30.813   7.978  1.00  0.00    -0.507 OA
ATOM     25  H   UNL     1      28.332  31.591   7.674  1.00  0.00     0.293 HD
ENDBRANCH   6  24
BRANCH   8  26
ATOM     26  O   UNL     1      23.491  32.935   8.489  1.00  0.00    -0.508 OA
ATOM     27  H   UNL     1      22.928  33.484   7.849  1.00  0.00     0.293 HD
ENDBRANCH   8  26
TORSDOF 6
ENDMDL
MODEL 6
REMARK VINA RESULT:    -4.793      2.434      6.667
REMARK INTER + INTRA:          -6.105
REMARK INTER:                  -5.845
REMARK INTRA:                  -0.260
REMARK UNBOUND:                -0.331
REMARK SMILES O=c1c(O)c(-c2ccc(O)c(O)c2)oc2cc(O)cc(O)c12
REMARK SMILES IDX 5 1 3 2 2 3 1 4 22 5 20 6 19 7 17 8 16 9 15 10 14 11 6 12
REMARK SMILES IDX 7 13 8 14 9 15 13 16 11 17 10 18 12 20 4 22 21 24 18 26
REMARK H PARENT 10 19 12 21 4 23 21 25 18 27
REMARK Flexibility Score: inf
ROOT
ATOM      1  C   UNL     1      23.647  27.138   5.477  1.00  0.00     0.180 A 
ATOM      2  C   UNL     1      22.907  28.274   5.105  1.00  0.00     0.208 A 
ATOM      3  C   UNL     1      23.336  29.538   5.541  1.00  0.00     0.238 A 
ATOM      4  O   UNL     1      22.700  30.556   5.160  1.00  0.00    -0.285 OA
ATOM      5  C   UNL     1      24.489  29.649   6.353  1.00  0.00     0.111 A 
ATOM      6  C   UNL     1      24.991  30.876   6.884  1.00  0.00     0.134 A 
ATOM      7  C   UNL     1      26.213  30.884   7.568  1.00  0.00     0.093 A 
ATOM      8  C   UNL     1      26.918  29.700   7.797  1.00  0.00     0.123 A 
ATOM      9  C   UNL     1      26.406  28.490   7.334  1.00  0.00     0.094 A 
ATOM     10  C   UNL     1      25.207  28.454   6.617  1.00  0.00     0.146 A 
ATOM     11  O   UNL     1      24.760  27.281   6.185  1.00  0.00    -0.452 OA
ENDROOT
BRANCH   1  12
ATOM     12  C   UNL     1      23.244  25.770   5.078  1.00  0.00     0.025 A 
ATOM     13  C   UNL     1      24.021  25.065   4.146  1.00  0.00     0.016 A 
ATOM     14  C   UNL     1      23.671  23.765   3.770  1.00  0.00     0.051 A 
ATOM     15  C   UNL     1      22.549  23.146   4.334  1.00  0.00     0.157 A 
ATOM     16  C   UNL     1      22.129  25.137   5.658  1.00  0.00     0.062 A 
ATOM     17  C   UNL     1      21.778  23.832   5.282  1.00  0.00     0.158 A 
BRANCH  15  18
ATOM     18  O   UNL     1      22.194  21.851   3.963  1.00  0.00    -0.504 OA
ATOM     19  H   UNL     1      22.896  21.146   3.764  1.00  0.00     0.293 HD
ENDBRANCH  15  18
BRANCH  17  20
ATOM     20  O   UNL     1      20.670  23.207   5.853  1.00  0.00    -0.504 OA
ATOM     21  H   UNL     1      19.938  22.802   5.281  1.00  0.00     0.293 HD
ENDBRANCH  17  20
ENDBRANCH   1  12
BRANCH   2  22
ATOM     22  O   UNL     1      21.784  28.144   4.283  1.00  0.00    -0.502 OA
ATOM     23  H   UNL     1      20.855  28.407   4.586  1.00  0.00     0.293 HD
ENDBRANCH   2  22
BRANCH   6  24
ATOM     24  O   UNL     1      24.320  32.099   6.792  1.00  0.00    -0.507 OA
ATOM     25  H   UNL     1      24.722  32.995   7.020  1.00  0.00     0.293 HD
ENDBRANCH   6  24
BRANCH   8  26
ATOM     26  O   UNL     1      28.125  29.714   8.492  1.00  0.00    -0.508 OA
ATOM     27  H   UNL     1      28.401  28.945   9.091  1.00  0.00     0.293 HD
ENDBRANCH   8  26
TORSDOF 6
ENDMDL
MODEL 7
REMARK VINA RESULT:    -4.550      1.800      7.011
REMARK INTER + INTRA:          -5.812
REMARK INTER:                  -5.482
REMARK INTRA:                  -0.331
REMARK UNBOUND:                -0.331
REMARK SMILES O=c1c(O)c(-c2ccc(O)c(O)c2)oc2cc(O)cc(O)c12
REMARK SMILES IDX 5 1 3 2 2 3 1 4 22 5 20 6 19 7 17 8 16 9 15 10 14 11 6 12
REMARK SMILES IDX 7 13 8 14 9 15 13 16 11 17 10 18 12 20 4 22 21 24 18 26
REMARK H PARENT 10 19 12 21 4 23 21 25 18 27
REMARK Flexibility Score: inf
ROOT
ATOM      1  C   UNL     1      25.187  28.804   5.617  1.00  0.00     0.180 A 
ATOM      2  C   UNL     1      25.311  29.365   4.334  1.00  0.00     0.208 A 
ATOM      3  C   UNL     1      24.543  30.493   4.007  1.00  0.00     0.238 A 
ATOM      4  O   UNL     1      24.698  31.023   2.875  1.00  0.00    -0.285 OA
ATOM      5  C   UNL     1      23.650  31.038   4.960  1.00  0.00     0.111 A 
ATOM      6  C   UNL     1      22.794  32.156   4.723  1.00  0.00     0.134 A 
ATOM      7  C   UNL     1      22.046  32.690   5.780  1.00  0.00     0.093 A 
ATOM      8  C   UNL     1      22.075  32.107   7.050  1.00  0.00     0.123 A 
ATOM      9  C   UNL     1      22.862  30.980   7.275  1.00  0.00     0.094 A 
ATOM     10  C   UNL     1      23.646  30.445   6.250  1.00  0.00     0.146 A 
ATOM     11  O   UNL     1      24.390  29.377   6.511  1.00  0.00    -0.452 OA
ENDROOT
BRANCH   1  12
ATOM     12  C   UNL     1      25.945  27.599   6.027  1.00  0.00     0.025 A 
ATOM     13  C   UNL     1      27.183  27.748   6.669  1.00  0.00     0.016 A 
ATOM     14  C   UNL     1      27.906  26.625   7.084  1.00  0.00     0.051 A 
ATOM     15  C   UNL     1      27.391  25.340   6.876  1.00  0.00     0.157 A 
ATOM     16  C   UNL     1      25.422  26.306   5.840  1.00  0.00     0.062 A 
ATOM     17  C   UNL     1      26.145  25.180   6.257  1.00  0.00     0.158 A 
BRANCH  15  18
ATOM     18  O   UNL     1      28.108  24.217   7.286  1.00  0.00    -0.504 OA
ATOM     19  H   UNL     1      28.867  24.288   7.954  1.00  0.00     0.293 HD
ENDBRANCH  15  18
BRANCH  17  20
ATOM     20  O   UNL     1      25.629  23.899   6.065  1.00  0.00    -0.504 OA
ATOM     21  H   UNL     1      24.733  23.626   6.452  1.00  0.00     0.293 HD
ENDBRANCH  17  20
ENDBRANCH   1  12
BRANCH   2  22
ATOM     22  O   UNL     1      26.215  28.825   3.415  1.00  0.00    -0.502 OA
ATOM     23  H   UNL     1      26.430  29.275   2.534  1.00  0.00     0.293 HD
ENDBRANCH   2  22
BRANCH   6  24
ATOM     24  O   UNL     1      22.621  32.754   3.472  1.00  0.00    -0.507 OA
ATOM     25  H   UNL     1      22.129  33.620   3.311  1.00  0.00     0.293 HD
ENDBRANCH   6  24
BRANCH   8  26
ATOM     26  O   UNL     1      21.316  32.635   8.091  1.00  0.00    -0.508 OA
ATOM     27  H   UNL     1      21.398  32.283   9.038  1.00  0.00     0.293 HD
ENDBRANCH   8  26
TORSDOF 6
ENDMDL
MODEL 8
REMARK VINA RESULT:    -4.525      1.856      6.526
REMARK INTER + INTRA:          -5.782
REMARK INTER:                  -5.692
REMARK INTRA:                  -0.090
REMARK UNBOUND:                -0.331
REMARK SMILES O=c1c(O)c(-c2ccc(O)c(O)c2)oc2cc(O)cc(O)c12
REMARK SMILES IDX 5 1 3 2 2 3 1 4 22 5 20 6 19 7 17 8 16 9 15 10 14 11 6 12
REMARK SMILES IDX 7 13 8 14 9 15 13 16 11 17 10 18 12 20 4 22 21 24 18 26
REMARK H PARENT 10 19 12 21 4 23 21 25 18 27
REMARK Flexibility Score: inf
ROOT
ATOM      1  C   UNL     1      23.383  28.321   4.865  1.00  0.00     0.180 A 
ATOM      2  C   UNL     1      24.738  28.466   4.520  1.00  0.00     0.208 A 
ATOM      3  C   UNL     1      25.241  29.753   4.266  1.00  0.00     0.238 A 
ATOM      4  O   UNL     1      26.467  29.883   4.011  1.00  0.00    -0.285 OA
ATOM      5  C   UNL     1      24.380  30.874   4.345  1.00  0.00     0.111 A 
ATOM      6  C   UNL     1      24.774  32.218   4.069  1.00  0.00     0.134 A 
ATOM      7  C   UNL     1      23.872  33.264   4.306  1.00  0.00     0.093 A 
ATOM      8  C   UNL     1      22.571  33.008   4.746  1.00  0.00     0.123 A 
ATOM      9  C   UNL     1      22.160  31.695   4.960  1.00  0.00     0.094 A 
ATOM     10  C   UNL     1      23.048  30.632   4.768  1.00  0.00     0.146 A 
ATOM     11  O   UNL     1      22.617  29.397   4.995  1.00  0.00    -0.452 OA
ENDROOT
BRANCH   1  12
ATOM     12  C   UNL     1      22.774  26.995   5.123  1.00  0.00     0.025 A 
ATOM     13  C   UNL     1      23.263  26.203   6.172  1.00  0.00     0.016 A 
ATOM     14  C   UNL     1      22.690  24.957   6.447  1.00  0.00     0.051 A 
ATOM     15  C   UNL     1      21.610  24.496   5.685  1.00  0.00     0.157 A 
ATOM     16  C   UNL     1      21.675  26.536   4.374  1.00  0.00     0.062 A 
ATOM     17  C   UNL     1      21.098  25.288   4.649  1.00  0.00     0.158 A 
BRANCH  15  18
ATOM     18  O   UNL     1      21.035  23.255   5.953  1.00  0.00    -0.504 OA
ATOM     19  H   UNL     1      21.393  22.653   6.686  1.00  0.00     0.293 HD
ENDBRANCH  15  18
BRANCH  17  20
ATOM     20  O   UNL     1      20.013  24.831   3.903  1.00  0.00    -0.504 OA
ATOM     21  H   UNL     1      19.505  23.994   4.164  1.00  0.00     0.293 HD
ENDBRANCH  17  20
ENDBRANCH   1  12
BRANCH   2  22
ATOM     22  O   UNL     1      25.575  27.349   4.470  1.00  0.00    -0.502 OA
ATOM     23  H   UNL     1      26.567  27.402   4.665  1.00  0.00     0.293 HD
ENDBRANCH   2  22
BRANCH   6  24
ATOM     24  O   UNL     1      26.017  32.574   3.540  1.00  0.00    -0.507 OA
ATOM     25  H   UNL     1      26.907  32.345   3.957  1.00  0.00     0.293 HD
ENDBRANCH   6  24
BRANCH   8  26
ATOM     26  O   UNL     1      21.676  34.053   4.963  1.00  0.00    -0.508 OA
ATOM     27  H   UNL     1      21.975  35.021   4.936  1.00  0.00     0.293 HD
ENDBRANCH   8  26
TORSDOF 6
ENDMDL
MODEL 9
REMARK VINA RESULT:    -4.145      2.110      6.902
REMARK INTER + INTRA:          -5.323
REMARK INTER:                  -5.026
REMARK INTRA:                  -0.298
REMARK UNBOUND:                -0.331
REMARK SMILES O=c1c(O)c(-c2ccc(O)c(O)c2)oc2cc(O)cc(O)c12
REMARK SMILES IDX 5 1 3 2 2 3 1 4 22 5 20 6 19 7 17 8 16 9 15 10 14 11 6 12
REMARK SMILES IDX 7 13 8 14 9 15 13 16 11 17 10 18 12 20 4 22 21 24 18 26
REMARK H PARENT 10 19 12 21 4 23 21 25 18 27
REMARK Flexibility Score: inf
ROOT
ATOM      1  C   UNL     1      25.633  27.374   5.753  1.00  0.00     0.180 A 
ATOM      2  C   UNL     1      26.571  27.807   6.706  1.00  0.00     0.208 A 
ATOM      3  C   UNL     1      26.365  29.035   7.354  1.00  0.00     0.238 A 
ATOM      4  O   UNL     1      27.180  29.392   8.245  1.00  0.00    -0.285 OA
ATOM      5  C   UNL     1      25.233  29.821   7.032  1.00  0.00     0.111 A 
ATOM      6  C   UNL     1      24.947  31.100   7.598  1.00  0.00     0.134 A 
ATOM      7  C   UNL     1      23.731  31.729   7.302  1.00  0.00     0.093 A 
ATOM      8  C   UNL     1      22.821  31.156   6.410  1.00  0.00     0.123 A 
ATOM      9  C   UNL     1      23.120  29.937   5.807  1.00  0.00     0.094 A 
ATOM     10  C   UNL     1      24.308  29.267   6.109  1.00  0.00     0.146 A 
ATOM     11  O   UNL     1      24.548  28.102   5.520  1.00  0.00    -0.452 OA
ENDROOT
BRANCH   1  12
ATOM     12  C   UNL     1      25.794  26.103   5.009  1.00  0.00     0.025 A 
ATOM     13  C   UNL     1      26.371  26.120   3.731  1.00  0.00     0.016 A 
ATOM     14  C   UNL     1      26.553  24.930   3.019  1.00  0.00     0.051 A 
ATOM     15  C   UNL     1      26.174  23.706   3.584  1.00  0.00     0.157 A 
ATOM     16  C   UNL     1      25.435  24.868   5.582  1.00  0.00     0.062 A 
ATOM     17  C   UNL     1      25.617  23.674   4.869  1.00  0.00     0.158 A 
BRANCH  15  18
ATOM     18  O   UNL     1      26.351  22.518   2.879  1.00  0.00    -0.504 OA
ATOM     19  H   UNL     1      25.862  22.340   2.008  1.00  0.00     0.293 HD
ENDBRANCH  15  18
BRANCH  17  20
ATOM     20  O   UNL     1      25.255  22.453   5.435  1.00  0.00    -0.504 OA
ATOM     21  H   UNL     1      24.996  21.659   4.859  1.00  0.00     0.293 HD
ENDBRANCH  17  20
ENDBRANCH   1  12
BRANCH   2  22
ATOM     22  O   UNL     1      27.670  27.005   7.025  1.00  0.00    -0.502 OA
ATOM     23  H   UNL     1      27.987  26.253   6.427  1.00  0.00     0.293 HD
ENDBRANCH   2  22
BRANCH   6  24
ATOM     24  O   UNL     1      25.827  31.801   8.427  1.00  0.00    -0.507 OA
ATOM     25  H   UNL     1      25.961  32.800   8.409  1.00  0.00     0.293 HD
ENDBRANCH   6  24
BRANCH   8  26
ATOM     26  O   UNL     1      21.622  31.797   6.109  1.00  0.00    -0.508 OA
ATOM     27  H   UNL     1      20.736  31.461   6.469  1.00  0.00     0.293 HD
ENDBRANCH   8  26
TORSDOF 6
ENDMDL
