MODEL 1
REMARK VINA RESULT:    -7.907      0.000      0.000
REMARK INTER + INTRA:         -12.241
REMARK INTER:                 -10.912
REMARK INTRA:                  -1.329
REMARK UNBOUND:                -1.329
REMARK SMILES O=C([O-])[C@H]1O[C@@H](Oc2cc3oc(-c4ccccc4)cc(=O)c3c(O)c2O)[C@H](O)[C@@H](O)[C@@H]1O
REMARK SMILES IDX 7 1 6 2 4 3 31 4 5 5 29 6 27 7 2 8 1 9 3 10 32 11 30 13
REMARK SMILES IDX 28 15 8 17 25 18 9 19 23 20 10 21 22 22 11 23 20 24 12 25
REMARK SMILES IDX 19 26 21 27 26 28 24 30 13 32 14 33 18 34 15 35 17 36 16 37
REMARK H PARENT 32 12 30 14 28 16 26 29 24 31
REMARK Flexibility Score: inf
ROOT
ATOM      1  O   UNL     1       4.470   7.769 -24.220  1.00  0.00    -0.458 OA
ENDROOT
BRANCH   1   2
ATOM      2  C   UNL     1       3.683   8.872 -23.759  1.00  0.00     0.339 C 
ATOM      3  C   UNL     1       4.835  10.507 -25.055  1.00  0.00     0.199 C 
ATOM      4  C   UNL     1       5.492  11.139 -23.797  1.00  0.00     0.180 C 
ATOM      5  O   UNL     1       3.593   9.877 -24.763  1.00  0.00    -0.328 OA
ATOM      6  C   UNL     1       5.575  10.130 -22.637  1.00  0.00     0.181 C 
ATOM      7  C   UNL     1       4.223   9.436 -22.426  1.00  0.00     0.214 C 
BRANCH   3   8
ATOM      8  C   UNL     1       5.746   9.617 -25.869  1.00  0.00     0.073 C 
ATOM      9  O   UNL     1       6.982   9.560 -25.634  1.00  0.00    -0.547 OA
ATOM     10  O   UNL     1       5.231   8.919 -26.955  1.00  0.00    -0.547 OA
ENDBRANCH   3   8
BRANCH   4  11
ATOM     11  O   UNL     1       4.738  12.250 -23.381  1.00  0.00    -0.387 OA
ATOM     12  H   UNL     1       4.768  12.265 -22.389  1.00  0.00     0.211 HD
ENDBRANCH   4  11
BRANCH   6  13
ATOM     13  O   UNL     1       6.564   9.165 -22.891  1.00  0.00    -0.387 OA
ATOM     14  H   UNL     1       6.182   8.285 -22.632  1.00  0.00     0.211 HD
ENDBRANCH   6  13
BRANCH   7  15
ATOM     15  O   UNL     1       3.303  10.352 -21.888  1.00  0.00    -0.384 OA
ATOM     16  H   UNL     1       3.221  11.094 -22.542  1.00  0.00     0.211 HD
ENDBRANCH   7  15
ENDBRANCH   1   2
BRANCH   1  17
ATOM     17  C   UNL     1       3.992   6.499 -24.585  1.00  0.00     0.172 A 
ATOM     18  C   UNL     1       3.040   6.426 -25.608  1.00  0.00     0.201 A 
ATOM     19  C   UNL     1       4.432   5.319 -23.968  1.00  0.00     0.098 A 
ATOM     20  C   UNL     1       2.525   5.184 -26.029  1.00  0.00     0.176 A 
ATOM     21  C   UNL     1       3.908   4.082 -24.342  1.00  0.00     0.146 A 
ATOM     22  C   UNL     1       2.925   3.991 -25.360  1.00  0.00     0.111 A 
ATOM     23  O   UNL     1       4.345   2.993 -23.718  1.00  0.00    -0.456 OA
ATOM     24  C   UNL     1       2.380   2.708 -25.607  1.00  0.00     0.197 A 
ATOM     25  C   UNL     1       3.896   1.770 -23.975  1.00  0.00     0.138 A 
ATOM     26  C   UNL     1       2.881   1.599 -24.926  1.00  0.00     0.100 A 
ATOM     27  O   UNL     1       1.421   2.534 -26.403  1.00  0.00    -0.289 OA
BRANCH  18  28
ATOM     28  O   UNL     1       2.627   7.613 -26.218  1.00  0.00    -0.502 OA
ATOM     29  H   UNL     1       3.279   8.273 -26.623  1.00  0.00     0.293 HD
ENDBRANCH  18  28
BRANCH  20  30
ATOM     30  O   UNL     1       1.654   5.191 -27.125  1.00  0.00    -0.504 OA
ATOM     31  H   UNL     1       1.451   4.388 -27.701  1.00  0.00     0.293 HD
ENDBRANCH  20  30
BRANCH  25  32
ATOM     32  C   UNL     1       4.467   0.625 -23.222  1.00  0.00     0.017 A 
ATOM     33  C   UNL     1       4.112  -0.688 -23.582  1.00  0.00     0.012 A 
ATOM     34  C   UNL     1       5.337   0.817 -22.128  1.00  0.00     0.012 A 
ATOM     35  C   UNL     1       4.630  -1.782 -22.882  1.00  0.00     0.001 A 
ATOM     36  C   UNL     1       5.850  -0.281 -21.432  1.00  0.00     0.001 A 
ATOM     37  C   UNL     1       5.500  -1.579 -21.810  1.00  0.00     0.000 A 
ENDBRANCH  25  32
ENDBRANCH   1  17
TORSDOF 9
ENDMDL
MODEL 2
REMARK VINA RESULT:    -7.830      3.304      9.220
REMARK INTER + INTRA:         -12.135
REMARK INTER:                 -10.686
REMARK INTRA:                  -1.449
REMARK UNBOUND:                -1.329
REMARK SMILES O=C([O-])[C@H]1O[C@@H](Oc2cc3oc(-c4ccccc4)cc(=O)c3c(O)c2O)[C@H](O)[C@@H](O)[C@@H]1O
REMARK SMILES IDX 7 1 6 2 4 3 31 4 5 5 29 6 27 7 2 8 1 9 3 10 32 11 30 13
REMARK SMILES IDX 28 15 8 17 25 18 9 19 23 20 10 21 22 22 11 23 20 24 12 25
REMARK SMILES IDX 19 26 21 27 26 28 24 30 13 32 14 33 18 34 15 35 17 36 16 37
REMARK H PARENT 32 12 30 14 28 16 26 29 24 31
REMARK Flexibility Score: inf
ROOT
ATOM      1  O   UNL     1       3.850  -0.483 -24.677  1.00  0.00    -0.458 OA
ENDROOT
BRANCH   1   2
ATOM      2  C   UNL     1       4.184  -1.091 -23.424  1.00  0.00     0.339 C 
ATOM      3  C   UNL     1       5.208  -3.013 -24.392  1.00  0.00     0.199 C 
ATOM      4  C   UNL     1       4.054  -3.944 -23.929  1.00  0.00     0.180 C 
ATOM      5  O   UNL     1       5.364  -1.877 -23.548  1.00  0.00    -0.328 OA
ATOM      6  C   UNL     1       2.748  -3.159 -23.714  1.00  0.00     0.181 C 
ATOM      7  C   UNL     1       3.002  -1.910 -22.859  1.00  0.00     0.214 C 
BRANCH   3   8
ATOM      8  C   UNL     1       5.173  -2.634 -25.855  1.00  0.00     0.073 C 
ATOM      9  O   UNL     1       4.284  -3.087 -26.623  1.00  0.00    -0.547 OA
ATOM     10  O   UNL     1       6.188  -1.848 -26.384  1.00  0.00    -0.547 OA
ENDBRANCH   3   8
BRANCH   4  11
ATOM     11  O   UNL     1       4.412  -4.573 -22.724  1.00  0.00    -0.387 OA
ATOM     12  H   UNL     1       4.819  -5.446 -22.961  1.00  0.00     0.211 HD
ENDBRANCH   4  11
BRANCH   6  13
ATOM     13  O   UNL     1       2.190  -2.779 -24.946  1.00  0.00    -0.387 OA
ATOM     14  H   UNL     1       1.845  -3.607 -25.374  1.00  0.00     0.211 HD
ENDBRANCH   6  13
BRANCH   7  15
ATOM     15  O   UNL     1       3.278  -2.294 -21.536  1.00  0.00    -0.384 OA
ATOM     16  H   UNL     1       2.692  -1.747 -20.950  1.00  0.00     0.211 HD
ENDBRANCH   7  15
ENDBRANCH   1   2
BRANCH   1  17
ATOM     17  C   UNL     1       3.241   0.770 -24.859  1.00  0.00     0.172 A 
ATOM     18  C   UNL     1       2.154   0.850 -25.737  1.00  0.00     0.201 A 
ATOM     19  C   UNL     1       3.678   1.926 -24.197  1.00  0.00     0.098 A 
ATOM     20  C   UNL     1       1.492   2.074 -25.959  1.00  0.00     0.176 A 
ATOM     21  C   UNL     1       3.063   3.156 -24.430  1.00  0.00     0.146 A 
ATOM     22  C   UNL     1       1.976   3.260 -25.335  1.00  0.00     0.111 A 
ATOM     23  O   UNL     1       3.523   4.227 -23.792  1.00  0.00    -0.456 OA
ATOM     24  C   UNL     1       1.475   4.561 -25.583  1.00  0.00     0.197 A 
ATOM     25  C   UNL     1       3.029   5.449 -23.958  1.00  0.00     0.138 A 
ATOM     26  C   UNL     1       1.992   5.648 -24.879  1.00  0.00     0.100 A 
ATOM     27  O   UNL     1       0.594   4.781 -26.454  1.00  0.00    -0.289 OA
BRANCH  18  28
ATOM     28  O   UNL     1       1.728  -0.318 -26.374  1.00  0.00    -0.502 OA
ATOM     29  H   UNL     1       1.084  -0.308 -27.156  1.00  0.00     0.293 HD
ENDBRANCH  18  28
BRANCH  20  30
ATOM     30  O   UNL     1       0.353   2.046 -26.772  1.00  0.00    -0.504 OA
ATOM     31  H   UNL     1      -0.206   1.226 -26.948  1.00  0.00     0.293 HD
ENDBRANCH  20  30
BRANCH  25  32
ATOM     32  C   UNL     1       3.616   6.569 -23.181  1.00  0.00     0.017 A 
ATOM     33  C   UNL     1       3.705   7.846 -23.765  1.00  0.00     0.012 A 
ATOM     34  C   UNL     1       4.119   6.383 -21.877  1.00  0.00     0.012 A 
ATOM     35  C   UNL     1       4.262   8.915 -23.056  1.00  0.00     0.001 A 
ATOM     36  C   UNL     1       4.676   7.456 -21.174  1.00  0.00     0.001 A 
ATOM     37  C   UNL     1       4.744   8.721 -21.761  1.00  0.00     0.000 A 
ENDBRANCH  25  32
ENDBRANCH   1  17
TORSDOF 9
ENDMDL
MODEL 3
REMARK VINA RESULT:    -7.790      1.073      1.930
REMARK INTER + INTRA:         -12.079
REMARK INTER:                 -10.751
REMARK INTRA:                  -1.329
REMARK UNBOUND:                -1.329
REMARK SMILES O=C([O-])[C@H]1O[C@@H](Oc2cc3oc(-c4ccccc4)cc(=O)c3c(O)c2O)[C@H](O)[C@@H](O)[C@@H]1O
REMARK SMILES IDX 7 1 6 2 4 3 31 4 5 5 29 6 27 7 2 8 1 9 3 10 32 11 30 13
REMARK SMILES IDX 28 15 8 17 25 18 9 19 23 20 10 21 22 22 11 23 20 24 12 25
REMARK SMILES IDX 19 26 21 27 26 28 24 30 13 32 14 33 18 34 15 35 17 36 16 37
REMARK H PARENT 32 12 30 14 28 16 26 29 24 31
REMARK Flexibility Score: inf
ROOT
ATOM      1  O   UNL     1       3.652   8.056 -23.201  1.00  0.00    -0.458 OA
ENDROOT
BRANCH   1   2
ATOM      2  C   UNL     1       4.739   8.481 -22.373  1.00  0.00     0.339 C 
ATOM      3  C   UNL     1       4.597  10.775 -23.003  1.00  0.00     0.199 C 
ATOM      4  C   UNL     1       5.929  10.708 -23.800  1.00  0.00     0.180 C 
ATOM      5  O   UNL     1       4.546   9.824 -21.945  1.00  0.00    -0.328 OA
ATOM      6  C   UNL     1       6.244   9.271 -24.253  1.00  0.00     0.181 C 
ATOM      7  C   UNL     1       6.099   8.291 -23.081  1.00  0.00     0.214 C 
BRANCH   3   8
ATOM      8  C   UNL     1       3.346  10.747 -23.852  1.00  0.00     0.073 C 
ATOM      9  O   UNL     1       3.412  10.657 -25.107  1.00  0.00    -0.547 OA
ATOM     10  O   UNL     1       2.106  10.917 -23.250  1.00  0.00    -0.547 OA
ENDBRANCH   3   8
BRANCH   4  11
ATOM     11  O   UNL     1       6.982  11.173 -22.994  1.00  0.00    -0.387 OA
ATOM     12  H   UNL     1       7.808  10.717 -23.304  1.00  0.00     0.211 HD
ENDBRANCH   4  11
BRANCH   6  13
ATOM     13  O   UNL     1       5.390   8.883 -25.298  1.00  0.00    -0.387 OA
ATOM     14  H   UNL     1       4.490   8.746 -24.900  1.00  0.00     0.211 HD
ENDBRANCH   6  13
BRANCH   7  15
ATOM     15  O   UNL     1       7.146   8.494 -22.165  1.00  0.00    -0.384 OA
ATOM     16  H   UNL     1       7.809   7.773 -22.323  1.00  0.00     0.211 HD
ENDBRANCH   7  15
ENDBRANCH   1   2
BRANCH   1  17
ATOM     17  C   UNL     1       3.519   6.803 -23.823  1.00  0.00     0.172 A 
ATOM     18  C   UNL     1       2.912   6.756 -25.083  1.00  0.00     0.201 A 
ATOM     19  C   UNL     1       3.970   5.614 -23.232  1.00  0.00     0.098 A 
ATOM     20  C   UNL     1       2.755   5.534 -25.766  1.00  0.00     0.176 A 
ATOM     21  C   UNL     1       3.792   4.387 -23.872  1.00  0.00     0.146 A 
ATOM     22  C   UNL     1       3.157   4.319 -25.138  1.00  0.00     0.111 A 
ATOM     23  O   UNL     1       4.222   3.286 -23.265  1.00  0.00    -0.456 OA
ATOM     24  C   UNL     1       2.932   3.026 -25.669  1.00  0.00     0.197 A 
ATOM     25  C   UNL     1       4.080   2.067 -23.772  1.00  0.00     0.138 A 
ATOM     26  C   UNL     1       3.411   1.905 -24.992  1.00  0.00     0.100 A 
ATOM     27  O   UNL     1       2.273   2.846 -26.726  1.00  0.00    -0.289 OA
BRANCH  18  28
ATOM     28  O   UNL     1       2.483   7.955 -25.658  1.00  0.00    -0.502 OA
ATOM     29  H   UNL     1       1.550   8.077 -26.032  1.00  0.00     0.293 HD
ENDBRANCH  18  28
BRANCH  20  30
ATOM     30  O   UNL     1       2.232   5.588 -27.063  1.00  0.00    -0.504 OA
ATOM     31  H   UNL     1       2.014   4.782 -27.627  1.00  0.00     0.293 HD
ENDBRANCH  20  30
BRANCH  25  32
ATOM     32  C   UNL     1       4.612   0.909 -23.009  1.00  0.00     0.017 A 
ATOM     33  C   UNL     1       4.250  -0.396 -23.389  1.00  0.00     0.012 A 
ATOM     34  C   UNL     1       5.449   1.082 -21.887  1.00  0.00     0.012 A 
ATOM     35  C   UNL     1       4.731  -1.502 -22.680  1.00  0.00     0.001 A 
ATOM     36  C   UNL     1       5.926  -0.027 -21.183  1.00  0.00     0.001 A 
ATOM     37  C   UNL     1       5.570  -1.318 -21.580  1.00  0.00     0.000 A 
ENDBRANCH  25  32
ENDBRANCH   1  17
TORSDOF 9
ENDMDL
MODEL 4
REMARK VINA RESULT:    -7.686      0.755      2.300
REMARK INTER + INTRA:         -11.935
REMARK INTER:                 -10.546
REMARK INTRA:                  -1.389
REMARK UNBOUND:                -1.329
REMARK SMILES O=C([O-])[C@H]1O[C@@H](Oc2cc3oc(-c4ccccc4)cc(=O)c3c(O)c2O)[C@H](O)[C@@H](O)[C@@H]1O
REMARK SMILES IDX 7 1 6 2 4 3 31 4 5 5 29 6 27 7 2 8 1 9 3 10 32 11 30 13
REMARK SMILES IDX 28 15 8 17 25 18 9 19 23 20 10 21 22 22 11 23 20 24 12 25
REMARK SMILES IDX 19 26 21 27 26 28 24 30 13 32 14 33 18 34 15 35 17 36 16 37
REMARK H PARENT 32 12 30 14 28 16 26 29 24 31
REMARK Flexibility Score: inf
ROOT
ATOM      1  O   UNL     1       4.422   8.075 -24.276  1.00  0.00    -0.458 OA
ENDROOT
BRANCH   1   2
ATOM      2  C   UNL     1       5.688   8.631 -24.648  1.00  0.00     0.339 C 
ATOM      3  C   UNL     1       5.619  10.396 -23.047  1.00  0.00     0.199 C 
ATOM      4  C   UNL     1       5.422  11.476 -24.145  1.00  0.00     0.180 C 
ATOM      5  O   UNL     1       6.312   9.249 -23.528  1.00  0.00    -0.328 OA
ATOM      6  C   UNL     1       4.802  10.876 -25.421  1.00  0.00     0.181 C 
ATOM      7  C   UNL     1       5.551   9.605 -25.840  1.00  0.00     0.214 C 
BRANCH   3   8
ATOM      8  C   UNL     1       4.366  10.025 -22.286  1.00  0.00     0.073 C 
ATOM      9  O   UNL     1       3.342  10.757 -22.323  1.00  0.00    -0.547 OA
ATOM     10  O   UNL     1       4.371   8.909 -21.460  1.00  0.00    -0.547 OA
ENDBRANCH   3   8
BRANCH   4  11
ATOM     11  O   UNL     1       6.664  12.049 -24.469  1.00  0.00    -0.387 OA
ATOM     12  H   UNL     1       7.246  11.949 -23.671  1.00  0.00     0.211 HD
ENDBRANCH   4  11
BRANCH   6  13
ATOM     13  O   UNL     1       3.445  10.577 -25.218  1.00  0.00    -0.387 OA
ATOM     14  H   UNL     1       3.100  10.205 -26.072  1.00  0.00     0.211 HD
ENDBRANCH   6  13
BRANCH   7  15
ATOM     15  O   UNL     1       6.825   9.947 -26.325  1.00  0.00    -0.384 OA
ATOM     16  H   UNL     1       6.704  10.730 -26.923  1.00  0.00     0.211 HD
ENDBRANCH   7  15
ENDBRANCH   1   2
BRANCH   1  17
ATOM     17  C   UNL     1       3.946   6.795 -24.606  1.00  0.00     0.172 A 
ATOM     18  C   UNL     1       2.970   6.696 -25.604  1.00  0.00     0.201 A 
ATOM     19  C   UNL     1       4.411   5.630 -23.980  1.00  0.00     0.098 A 
ATOM     20  C   UNL     1       2.454   5.443 -25.990  1.00  0.00     0.176 A 
ATOM     21  C   UNL     1       3.888   4.382 -24.318  1.00  0.00     0.146 A 
ATOM     22  C   UNL     1       2.881   4.266 -25.310  1.00  0.00     0.111 A 
ATOM     23  O   UNL     1       4.349   3.308 -23.686  1.00  0.00    -0.456 OA
ATOM     24  C   UNL     1       2.341   2.974 -25.521  1.00  0.00     0.197 A 
ATOM     25  C   UNL     1       3.904   2.077 -23.911  1.00  0.00     0.138 A 
ATOM     26  C   UNL     1       2.867   1.881 -24.833  1.00  0.00     0.100 A 
ATOM     27  O   UNL     1       1.363   2.778 -26.290  1.00  0.00    -0.289 OA
BRANCH  18  28
ATOM     28  O   UNL     1       2.532   7.869 -26.224  1.00  0.00    -0.502 OA
ATOM     29  H   UNL     1       1.624   8.278 -26.039  1.00  0.00     0.293 HD
ENDBRANCH  18  28
BRANCH  20  30
ATOM     30  O   UNL     1       1.557   5.424 -27.064  1.00  0.00    -0.504 OA
ATOM     31  H   UNL     1       1.819   5.532 -28.032  1.00  0.00     0.293 HD
ENDBRANCH  20  30
BRANCH  25  32
ATOM     32  C   UNL     1       4.503   0.950 -23.152  1.00  0.00     0.017 A 
ATOM     33  C   UNL     1       4.158  -0.372 -23.487  1.00  0.00     0.012 A 
ATOM     34  C   UNL     1       5.389   1.169 -22.076  1.00  0.00     0.012 A 
ATOM     35  C   UNL     1       4.702  -1.450 -22.781  1.00  0.00     0.001 A 
ATOM     36  C   UNL     1       5.928   0.087 -21.374  1.00  0.00     0.001 A 
ATOM     37  C   UNL     1       5.588  -1.221 -21.727  1.00  0.00     0.000 A 
ENDBRANCH  25  32
ENDBRANCH   1  17
TORSDOF 9
ENDMDL
MODEL 5
REMARK VINA RESULT:    -7.498      2.083      3.822
REMARK INTER + INTRA:         -11.676
REMARK INTER:                 -10.188
REMARK INTRA:                  -1.488
REMARK UNBOUND:                -1.329
REMARK SMILES O=C([O-])[C@H]1O[C@@H](Oc2cc3oc(-c4ccccc4)cc(=O)c3c(O)c2O)[C@H](O)[C@@H](O)[C@@H]1O
REMARK SMILES IDX 7 1 6 2 4 3 31 4 5 5 29 6 27 7 2 8 1 9 3 10 32 11 30 13
REMARK SMILES IDX 28 15 8 17 25 18 9 19 23 20 10 21 22 22 11 23 20 24 12 25
REMARK SMILES IDX 19 26 21 27 26 28 24 30 13 32 14 33 18 34 15 35 17 36 16 37
REMARK H PARENT 32 12 30 14 28 16 26 29 24 31
REMARK Flexibility Score: inf
ROOT
ATOM      1  O   UNL     1       4.080   6.824 -24.960  1.00  0.00    -0.458 OA
ENDROOT
BRANCH   1   2
ATOM      2  C   UNL     1       3.347   7.079 -26.163  1.00  0.00     0.339 C 
ATOM      3  C   UNL     1       3.546   9.450 -26.029  1.00  0.00     0.199 C 
ATOM      4  C   UNL     1       2.038   9.627 -25.704  1.00  0.00     0.180 C 
ATOM      5  O   UNL     1       3.807   8.273 -26.786  1.00  0.00    -0.328 OA
ATOM      6  C   UNL     1       1.443   8.352 -25.077  1.00  0.00     0.181 C 
ATOM      7  C   UNL     1       1.824   7.116 -25.902  1.00  0.00     0.214 C 
BRANCH   3   8
ATOM      8  C   UNL     1       4.473   9.579 -24.841  1.00  0.00     0.073 C 
ATOM      9  O   UNL     1       4.028   9.849 -23.695  1.00  0.00    -0.547 OA
ATOM     10  O   UNL     1       5.846   9.492 -25.031  1.00  0.00    -0.547 OA
ENDBRANCH   3   8
BRANCH   4  11
ATOM     11  O   UNL     1       1.334   9.924 -26.884  1.00  0.00    -0.387 OA
ATOM     12  H   UNL     1       0.842   9.102 -27.143  1.00  0.00     0.211 HD
ENDBRANCH   4  11
BRANCH   6  13
ATOM     13  O   UNL     1       1.895   8.193 -23.756  1.00  0.00    -0.387 OA
ATOM     14  H   UNL     1       2.883   8.293 -23.775  1.00  0.00     0.211 HD
ENDBRANCH   6  13
BRANCH   7  15
ATOM     15  O   UNL     1       1.131   7.133 -27.124  1.00  0.00    -0.384 OA
ATOM     16  H   UNL     1       0.241   7.534 -26.943  1.00  0.00     0.211 HD
ENDBRANCH   7  15
ENDBRANCH   1   2
BRANCH   1  17
ATOM     17  C   UNL     1       4.111   5.615 -24.244  1.00  0.00     0.172 A 
ATOM     18  C   UNL     1       3.932   5.669 -22.858  1.00  0.00     0.201 A 
ATOM     19  C   UNL     1       4.311   4.374 -24.865  1.00  0.00     0.098 A 
ATOM     20  C   UNL     1       3.943   4.493 -22.081  1.00  0.00     0.176 A 
ATOM     21  C   UNL     1       4.365   3.201 -24.112  1.00  0.00     0.146 A 
ATOM     22  C   UNL     1       4.209   3.239 -22.704  1.00  0.00     0.111 A 
ATOM     23  O   UNL     1       4.572   2.050 -24.744  1.00  0.00    -0.456 OA
ATOM     24  C   UNL     1       4.373   2.016 -22.010  1.00  0.00     0.197 A 
ATOM     25  C   UNL     1       4.667   0.880 -24.123  1.00  0.00     0.138 A 
ATOM     26  C   UNL     1       4.583   0.837 -22.725  1.00  0.00     0.100 A 
ATOM     27  O   UNL     1       4.374   1.957 -20.753  1.00  0.00    -0.289 OA
BRANCH  18  28
ATOM     28  O   UNL     1       3.720   6.915 -22.263  1.00  0.00    -0.502 OA
ATOM     29  H   UNL     1       4.169   7.760 -22.594  1.00  0.00     0.293 HD
ENDBRANCH  18  28
BRANCH  20  30
ATOM     30  O   UNL     1       3.655   4.625 -20.718  1.00  0.00    -0.504 OA
ATOM     31  H   UNL     1       2.983   4.064 -20.217  1.00  0.00     0.293 HD
ENDBRANCH  20  30
BRANCH  25  32
ATOM     32  C   UNL     1       4.887  -0.344 -24.935  1.00  0.00     0.017 A 
ATOM     33  C   UNL     1       5.846  -0.329 -25.964  1.00  0.00     0.012 A 
ATOM     34  C   UNL     1       4.136  -1.519 -24.723  1.00  0.00     0.012 A 
ATOM     35  C   UNL     1       6.065  -1.467 -26.748  1.00  0.00     0.001 A 
ATOM     36  C   UNL     1       4.360  -2.652 -25.511  1.00  0.00     0.001 A 
ATOM     37  C   UNL     1       5.325  -2.628 -26.520  1.00  0.00     0.000 A 
ENDBRANCH  25  32
ENDBRANCH   1  17
TORSDOF 9
ENDMDL
MODEL 6
REMARK VINA RESULT:    -7.252      2.660      4.851
REMARK INTER + INTRA:         -11.336
REMARK INTER:                  -9.887
REMARK INTRA:                  -1.449
REMARK UNBOUND:                -1.329
REMARK SMILES O=C([O-])[C@H]1O[C@@H](Oc2cc3oc(-c4ccccc4)cc(=O)c3c(O)c2O)[C@H](O)[C@@H](O)[C@@H]1O
REMARK SMILES IDX 7 1 6 2 4 3 31 4 5 5 29 6 27 7 2 8 1 9 3 10 32 11 30 13
REMARK SMILES IDX 28 15 8 17 25 18 9 19 23 20 10 21 22 22 11 23 20 24 12 25
REMARK SMILES IDX 19 26 21 27 26 28 24 30 13 32 14 33 18 34 15 35 17 36 16 37
REMARK H PARENT 32 12 30 14 28 16 26 29 24 31
REMARK Flexibility Score: inf
ROOT
ATOM      1  O   UNL     1       3.233   3.967 -25.124  1.00  0.00    -0.458 OA
ENDROOT
BRANCH   1   2
ATOM      2  C   UNL     1       3.303   4.802 -23.963  1.00  0.00     0.339 C 
ATOM      3  C   UNL     1       1.534   6.249 -24.639  1.00  0.00     0.199 C 
ATOM      4  C   UNL     1       2.508   7.432 -24.895  1.00  0.00     0.180 C 
ATOM      5  O   UNL     1       2.023   5.342 -23.657  1.00  0.00    -0.328 OA
ATOM      6  C   UNL     1       3.938   6.934 -25.177  1.00  0.00     0.181 C 
ATOM      7  C   UNL     1       4.372   5.907 -24.123  1.00  0.00     0.214 C 
BRANCH   3   8
ATOM      8  C   UNL     1       1.060   5.535 -25.885  1.00  0.00     0.073 C 
ATOM      9  O   UNL     1       1.359   5.960 -27.032  1.00  0.00    -0.547 OA
ATOM     10  O   UNL     1       0.203   4.448 -25.767  1.00  0.00    -0.547 OA
ENDBRANCH   3   8
BRANCH   4  11
ATOM     11  O   UNL     1       2.533   8.272 -23.768  1.00  0.00    -0.387 OA
ATOM     12  H   UNL     1       3.261   8.932 -23.914  1.00  0.00     0.211 HD
ENDBRANCH   4  11
BRANCH   6  13
ATOM     13  O   UNL     1       4.017   6.357 -26.456  1.00  0.00    -0.387 OA
ATOM     14  H   UNL     1       4.902   6.607 -26.831  1.00  0.00     0.211 HD
ENDBRANCH   6  13
BRANCH   7  15
ATOM     15  O   UNL     1       4.577   6.555 -22.892  1.00  0.00    -0.384 OA
ATOM     16  H   UNL     1       5.559   6.624 -22.765  1.00  0.00     0.211 HD
ENDBRANCH   7  15
ENDBRANCH   1   2
BRANCH   1  17
ATOM     17  C   UNL     1       3.798   2.689 -25.265  1.00  0.00     0.172 A 
ATOM     18  C   UNL     1       4.884   2.543 -26.135  1.00  0.00     0.201 A 
ATOM     19  C   UNL     1       3.317   1.569 -24.571  1.00  0.00     0.098 A 
ATOM     20  C   UNL     1       5.503   1.291 -26.317  1.00  0.00     0.176 A 
ATOM     21  C   UNL     1       3.889   0.311 -24.764  1.00  0.00     0.146 A 
ATOM     22  C   UNL     1       4.974   0.141 -25.660  1.00  0.00     0.111 A 
ATOM     23  O   UNL     1       3.389  -0.723 -24.096  1.00  0.00    -0.456 OA
ATOM     24  C   UNL     1       5.429  -1.183 -25.866  1.00  0.00     0.197 A 
ATOM     25  C   UNL     1       3.839  -1.966 -24.224  1.00  0.00     0.138 A 
ATOM     26  C   UNL     1       4.872  -2.230 -25.133  1.00  0.00     0.100 A 
ATOM     27  O   UNL     1       6.305  -1.460 -26.727  1.00  0.00    -0.289 OA
BRANCH  18  28
ATOM     28  O   UNL     1       5.354   3.675 -26.804  1.00  0.00    -0.502 OA
ATOM     29  H   UNL     1       4.735   4.372 -27.199  1.00  0.00     0.293 HD
ENDBRANCH  18  28
BRANCH  20  30
ATOM     30  O   UNL     1       6.644   1.253 -27.125  1.00  0.00    -0.504 OA
ATOM     31  H   UNL     1       6.716   1.678 -28.036  1.00  0.00     0.293 HD
ENDBRANCH  20  30
BRANCH  25  32
ATOM     32  C   UNL     1       3.210  -3.041 -23.415  1.00  0.00     0.017 A 
ATOM     33  C   UNL     1       2.027  -2.771 -22.704  1.00  0.00     0.012 A 
ATOM     34  C   UNL     1       3.785  -4.324 -23.313  1.00  0.00     0.012 A 
ATOM     35  C   UNL     1       1.420  -3.764 -21.928  1.00  0.00     0.001 A 
ATOM     36  C   UNL     1       3.175  -5.313 -22.535  1.00  0.00     0.001 A 
ATOM     37  C   UNL     1       1.993  -5.035 -21.846  1.00  0.00     0.000 A 
ENDBRANCH  25  32
ENDBRANCH   1  17
TORSDOF 9
ENDMDL
MODEL 7
REMARK VINA RESULT:    -7.204      3.101      9.201
REMARK INTER + INTRA:         -11.270
REMARK INTER:                 -10.574
REMARK INTRA:                  -0.696
REMARK UNBOUND:                -1.329
REMARK SMILES O=C([O-])[C@H]1O[C@@H](Oc2cc3oc(-c4ccccc4)cc(=O)c3c(O)c2O)[C@H](O)[C@@H](O)[C@@H]1O
REMARK SMILES IDX 7 1 6 2 4 3 31 4 5 5 29 6 27 7 2 8 1 9 3 10 32 11 30 13
REMARK SMILES IDX 28 15 8 17 25 18 9 19 23 20 10 21 22 22 11 23 20 24 12 25
REMARK SMILES IDX 19 26 21 27 26 28 24 30 13 32 14 33 18 34 15 35 17 36 16 37
REMARK H PARENT 32 12 30 14 28 16 26 29 24 31
REMARK Flexibility Score: inf
ROOT
ATOM      1  O   UNL     1       3.911  -0.541 -23.876  1.00  0.00    -0.458 OA
ENDROOT
BRANCH   1   2
ATOM      2  C   UNL     1       3.022  -1.623 -23.581  1.00  0.00     0.339 C 
ATOM      3  C   UNL     1       4.035  -2.163 -21.492  1.00  0.00     0.199 C 
ATOM      4  C   UNL     1       4.618  -3.493 -22.042  1.00  0.00     0.180 C 
ATOM      5  O   UNL     1       2.852  -1.763 -22.175  1.00  0.00    -0.328 OA
ATOM      6  C   UNL     1       4.780  -3.448 -23.572  1.00  0.00     0.181 C 
ATOM      7  C   UNL     1       3.494  -2.940 -24.238  1.00  0.00     0.214 C 
BRANCH   3   8
ATOM      8  C   UNL     1       5.032  -1.032 -21.373  1.00  0.00     0.073 C 
ATOM      9  O   UNL     1       6.256  -1.217 -21.601  1.00  0.00    -0.547 OA
ATOM     10  O   UNL     1       4.608   0.208 -20.914  1.00  0.00    -0.547 OA
ENDBRANCH   3   8
BRANCH   4  11
ATOM     11  O   UNL     1       3.762  -4.556 -21.706  1.00  0.00    -0.387 OA
ATOM     12  H   UNL     1       2.946  -4.156 -21.304  1.00  0.00     0.211 HD
ENDBRANCH   4  11
BRANCH   6  13
ATOM     13  O   UNL     1       5.855  -2.619 -23.932  1.00  0.00    -0.387 OA
ATOM     14  H   UNL     1       5.655  -2.262 -24.837  1.00  0.00     0.211 HD
ENDBRANCH   6  13
BRANCH   7  15
ATOM     15  O   UNL     1       2.489  -3.916 -24.127  1.00  0.00    -0.384 OA
ATOM     16  H   UNL     1       2.919  -4.729 -23.753  1.00  0.00     0.211 HD
ENDBRANCH   7  15
ENDBRANCH   1   2
BRANCH   1  17
ATOM     17  C   UNL     1       3.548   0.727 -24.360  1.00  0.00     0.172 A 
ATOM     18  C   UNL     1       2.747   0.788 -25.505  1.00  0.00     0.201 A 
ATOM     19  C   UNL     1       3.955   1.918 -23.740  1.00  0.00     0.098 A 
ATOM     20  C   UNL     1       2.339   2.027 -26.038  1.00  0.00     0.176 A 
ATOM     21  C   UNL     1       3.596   3.157 -24.272  1.00  0.00     0.146 A 
ATOM     22  C   UNL     1       2.804   3.236 -25.446  1.00  0.00     0.111 A 
ATOM     23  O   UNL     1       4.018   4.257 -23.658  1.00  0.00    -0.456 OA
ATOM     24  C   UNL     1       2.568   4.531 -25.968  1.00  0.00     0.197 A 
ATOM     25  C   UNL     1       3.757   5.485 -24.093  1.00  0.00     0.138 A 
ATOM     26  C   UNL     1       3.031   5.652 -25.279  1.00  0.00     0.100 A 
ATOM     27  O   UNL     1       1.981   4.709 -27.067  1.00  0.00    -0.289 OA
BRANCH  18  28
ATOM     28  O   UNL     1       2.342  -0.411 -26.096  1.00  0.00    -0.502 OA
ATOM     29  H   UNL     1       1.394  -0.760 -26.028  1.00  0.00     0.293 HD
ENDBRANCH  18  28
BRANCH  20  30
ATOM     30  O   UNL     1       1.456   1.996 -27.124  1.00  0.00    -0.504 OA
ATOM     31  H   UNL     1       1.341   2.744 -27.790  1.00  0.00     0.293 HD
ENDBRANCH  20  30
BRANCH  25  32
ATOM     32  C   UNL     1       4.272   6.642 -23.318  1.00  0.00     0.017 A 
ATOM     33  C   UNL     1       4.763   7.770 -24.000  1.00  0.00     0.012 A 
ATOM     34  C   UNL     1       4.313   6.631 -21.908  1.00  0.00     0.012 A 
ATOM     35  C   UNL     1       5.261   8.869 -23.293  1.00  0.00     0.001 A 
ATOM     36  C   UNL     1       4.813   7.732 -21.206  1.00  0.00     0.001 A 
ATOM     37  C   UNL     1       5.284   8.850 -21.897  1.00  0.00     0.000 A 
ENDBRANCH  25  32
ENDBRANCH   1  17
TORSDOF 9
ENDMDL
MODEL 8
REMARK VINA RESULT:    -7.190      2.397      3.827
REMARK INTER + INTRA:         -11.251
REMARK INTER:                 -10.341
REMARK INTRA:                  -0.910
REMARK UNBOUND:                -1.329
REMARK SMILES O=C([O-])[C@H]1O[C@@H](Oc2cc3oc(-c4ccccc4)cc(=O)c3c(O)c2O)[C@H](O)[C@@H](O)[C@@H]1O
REMARK SMILES IDX 7 1 6 2 4 3 31 4 5 5 29 6 27 7 2 8 1 9 3 10 32 11 30 13
REMARK SMILES IDX 28 15 8 17 25 18 9 19 23 20 10 21 22 22 11 23 20 24 12 25
REMARK SMILES IDX 19 26 21 27 26 28 24 30 13 32 14 33 18 34 15 35 17 36 16 37
REMARK H PARENT 32 12 30 14 28 16 26 29 24 31
REMARK Flexibility Score: inf
ROOT
ATOM      1  O   UNL     1       4.636  10.107 -25.531  1.00  0.00    -0.458 OA
ENDROOT
BRANCH   1   2
ATOM      2  C   UNL     1       6.058  10.087 -25.692  1.00  0.00     0.339 C 
ATOM      3  C   UNL     1       6.534  10.584 -23.410  1.00  0.00     0.199 C 
ATOM      4  C   UNL     1       7.048  12.008 -23.756  1.00  0.00     0.180 C 
ATOM      5  O   UNL     1       6.692   9.669 -24.489  1.00  0.00    -0.328 OA
ATOM      6  C   UNL     1       6.452  12.515 -25.083  1.00  0.00     0.181 C 
ATOM      7  C   UNL     1       6.592  11.452 -26.180  1.00  0.00     0.214 C 
BRANCH   3   8
ATOM      8  C   UNL     1       5.140  10.535 -22.824  1.00  0.00     0.073 C 
ATOM      9  O   UNL     1       4.372  11.531 -22.889  1.00  0.00    -0.547 OA
ATOM     10  O   UNL     1       4.731   9.409 -22.122  1.00  0.00    -0.547 OA
ENDBRANCH   3   8
BRANCH   4  11
ATOM     11  O   UNL     1       8.449  11.987 -23.865  1.00  0.00    -0.387 OA
ATOM     12  H   UNL     1       8.715  11.043 -24.019  1.00  0.00     0.211 HD
ENDBRANCH   4  11
BRANCH   6  13
ATOM     13  O   UNL     1       5.097  12.848 -24.921  1.00  0.00    -0.387 OA
ATOM     14  H   UNL     1       5.069  13.762 -24.533  1.00  0.00     0.211 HD
ENDBRANCH   6  13
BRANCH   7  15
ATOM     15  O   UNL     1       7.943  11.332 -26.549  1.00  0.00    -0.384 OA
ATOM     16  H   UNL     1       8.400  12.156 -26.237  1.00  0.00     0.211 HD
ENDBRANCH   7  15
ENDBRANCH   1   2
BRANCH   1  17
ATOM     17  C   UNL     1       3.799   8.988 -25.381  1.00  0.00     0.172 A 
ATOM     18  C   UNL     1       2.497   9.200 -24.915  1.00  0.00     0.201 A 
ATOM     19  C   UNL     1       4.220   7.684 -25.680  1.00  0.00     0.098 A 
ATOM     20  C   UNL     1       1.603   8.123 -24.749  1.00  0.00     0.176 A 
ATOM     21  C   UNL     1       3.366   6.598 -25.487  1.00  0.00     0.146 A 
ATOM     22  C   UNL     1       2.051   6.792 -24.993  1.00  0.00     0.111 A 
ATOM     23  O   UNL     1       3.815   5.379 -25.770  1.00  0.00    -0.456 OA
ATOM     24  C   UNL     1       1.287   5.627 -24.738  1.00  0.00     0.197 A 
ATOM     25  C   UNL     1       3.096   4.276 -25.600  1.00  0.00     0.138 A 
ATOM     26  C   UNL     1       1.807   4.374 -25.060  1.00  0.00     0.100 A 
ATOM     27  O   UNL     1       0.156   5.679 -24.189  1.00  0.00    -0.289 OA
BRANCH  18  28
ATOM     28  O   UNL     1       2.096  10.509 -24.637  1.00  0.00    -0.502 OA
ATOM     29  H   UNL     1       1.220  10.724 -24.176  1.00  0.00     0.293 HD
ENDBRANCH  18  28
BRANCH  20  30
ATOM     30  O   UNL     1       0.290   8.433 -24.378  1.00  0.00    -0.504 OA
ATOM     31  H   UNL     1      -0.149   9.329 -24.518  1.00  0.00     0.293 HD
ENDBRANCH  20  30
BRANCH  25  32
ATOM     32  C   UNL     1       3.698   2.968 -25.962  1.00  0.00     0.017 A 
ATOM     33  C   UNL     1       3.025   1.778 -25.628  1.00  0.00     0.012 A 
ATOM     34  C   UNL     1       4.949   2.881 -26.607  1.00  0.00     0.012 A 
ATOM     35  C   UNL     1       3.576   0.534 -25.950  1.00  0.00     0.001 A 
ATOM     36  C   UNL     1       5.495   1.634 -26.926  1.00  0.00     0.001 A 
ATOM     37  C   UNL     1       4.809   0.462 -26.601  1.00  0.00     0.000 A 
ENDBRANCH  25  32
ENDBRANCH   1  17
TORSDOF 9
ENDMDL
