MODEL 1
REMARK VINA RESULT:    -7.991      0.000      0.000
REMARK INTER + INTRA:          -9.689
REMARK INTER:                  -9.626
REMARK INTRA:                  -0.064
REMARK UNBOUND:                -0.064
REMARK SMILES Oc1cc(O)c2c(c1)O[C@@H](c1ccc(O)c(O)c1)[C@H](O)C2
REMARK SMILES IDX 21 1 19 2 10 3 9 4 7 5 8 6 2 7 3 8 4 9 6 10 20 11 11 13
REMARK SMILES IDX 18 14 12 15 16 16 13 17 14 18 17 19 15 21 5 23 1 25
REMARK H PARENT 20 12 17 20 15 22 5 24 1 26
REMARK Flexibility Score: inf
ROOT
ATOM      1  C   UNL     1     -35.374  -3.936 -18.801  1.00  0.00     0.079 C 
ATOM      2  C   UNL     1     -36.268  -4.567 -17.717  1.00  0.00     0.164 C 
ATOM      3  C   UNL     1     -35.587  -5.822 -17.144  1.00  0.00     0.232 C 
ATOM      4  O   UNL     1     -34.297  -5.484 -16.636  1.00  0.00    -0.482 OA
ATOM      5  C   UNL     1     -33.457  -4.568 -17.279  1.00  0.00     0.131 A 
ATOM      6  C   UNL     1     -32.141  -4.426 -16.833  1.00  0.00     0.093 A 
ATOM      7  C   UNL     1     -31.275  -3.532 -17.465  1.00  0.00     0.122 A 
ATOM      8  C   UNL     1     -31.726  -2.781 -18.557  1.00  0.00     0.092 A 
ATOM      9  C   UNL     1     -33.042  -2.910 -19.016  1.00  0.00     0.126 A 
ATOM     10  C   UNL     1     -33.936  -3.783 -18.351  1.00  0.00     0.039 A 
ENDROOT
BRANCH   2  11
ATOM     11  O   UNL     1     -37.512  -4.913 -18.269  1.00  0.00    -0.389 OA
ATOM     12  H   UNL     1     -37.414  -5.828 -18.641  1.00  0.00     0.211 HD
ENDBRANCH   2  11
BRANCH   3  13
ATOM     13  C   UNL     1     -36.418  -6.441 -16.045  1.00  0.00    -0.001 A 
ATOM     14  C   UNL     1     -37.527  -7.246 -16.354  1.00  0.00     0.057 A 
ATOM     15  C   UNL     1     -36.061  -6.255 -14.699  1.00  0.00     0.012 A 
ATOM     16  C   UNL     1     -38.281  -7.842 -15.337  1.00  0.00     0.157 A 
ATOM     17  C   UNL     1     -36.813  -6.848 -13.680  1.00  0.00     0.050 A 
ATOM     18  C   UNL     1     -37.925  -7.642 -13.993  1.00  0.00     0.157 A 
BRANCH  16  19
ATOM     19  O   UNL     1     -39.380  -8.630 -15.682  1.00  0.00    -0.504 OA
ATOM     20  H   UNL     1     -39.573  -8.892 -16.642  1.00  0.00     0.293 HD
ENDBRANCH  16  19
BRANCH  18  21
ATOM     21  O   UNL     1     -38.673  -8.231 -12.975  1.00  0.00    -0.504 OA
ATOM     22  H   UNL     1     -39.661  -8.036 -12.862  1.00  0.00     0.293 HD
ENDBRANCH  18  21
ENDBRANCH   3  13
BRANCH   9  23
ATOM     23  O   UNL     1     -33.422  -2.168 -20.137  1.00  0.00    -0.507 OA
ATOM     24  H   UNL     1     -34.007  -2.536 -20.875  1.00  0.00     0.293 HD
ENDBRANCH   9  23
BRANCH   7  25
ATOM     25  O   UNL     1     -29.966  -3.403 -17.006  1.00  0.00    -0.508 OA
ATOM     26  H   UNL     1     -29.249  -4.076 -17.252  1.00  0.00     0.293 HD
ENDBRANCH   7  25
TORSDOF 6
ENDMDL
MODEL 2
REMARK VINA RESULT:    -7.792      0.865      1.394
REMARK INTER + INTRA:          -9.449
REMARK INTER:                  -9.097
REMARK INTRA:                  -0.352
REMARK UNBOUND:                -0.064
REMARK SMILES Oc1cc(O)c2c(c1)O[C@@H](c1ccc(O)c(O)c1)[C@H](O)C2
REMARK SMILES IDX 21 1 19 2 10 3 9 4 7 5 8 6 2 7 3 8 4 9 6 10 20 11 11 13
REMARK SMILES IDX 18 14 12 15 16 16 13 17 14 18 17 19 15 21 5 23 1 25
REMARK H PARENT 20 12 17 20 15 22 5 24 1 26
REMARK Flexibility Score: inf
ROOT
ATOM      1  C   UNL     1     -35.354  -4.009 -18.923  1.00  0.00     0.079 C 
ATOM      2  C   UNL     1     -36.288  -4.572 -17.834  1.00  0.00     0.164 C 
ATOM      3  C   UNL     1     -35.611  -5.758 -17.127  1.00  0.00     0.232 C 
ATOM      4  O   UNL     1     -34.355  -5.347 -16.587  1.00  0.00    -0.482 OA
ATOM      5  C   UNL     1     -33.503  -4.467 -17.263  1.00  0.00     0.131 A 
ATOM      6  C   UNL     1     -32.214  -4.258 -16.768  1.00  0.00     0.093 A 
ATOM      7  C   UNL     1     -31.336  -3.397 -17.429  1.00  0.00     0.122 A 
ATOM      8  C   UNL     1     -31.747  -2.750 -18.601  1.00  0.00     0.092 A 
ATOM      9  C   UNL     1     -33.036  -2.948 -19.111  1.00  0.00     0.126 A 
ATOM     10  C   UNL     1     -33.944  -3.785 -18.419  1.00  0.00     0.039 A 
ENDROOT
BRANCH   2  11
ATOM     11  O   UNL     1     -37.495  -4.992 -18.414  1.00  0.00    -0.389 OA
ATOM     12  H   UNL     1     -38.143  -4.250 -18.294  1.00  0.00     0.211 HD
ENDBRANCH   2  11
BRANCH   3  13
ATOM     13  C   UNL     1     -36.483  -6.304 -16.021  1.00  0.00    -0.001 A 
ATOM     14  C   UNL     1     -36.989  -5.454 -15.023  1.00  0.00     0.057 A 
ATOM     15  C   UNL     1     -36.837  -7.664 -16.006  1.00  0.00     0.012 A 
ATOM     16  C   UNL     1     -37.820  -5.955 -14.014  1.00  0.00     0.157 A 
ATOM     17  C   UNL     1     -37.666  -8.167 -14.999  1.00  0.00     0.050 A 
ATOM     18  C   UNL     1     -38.160  -7.317 -14.000  1.00  0.00     0.157 A 
BRANCH  16  19
ATOM     19  O   UNL     1     -38.298  -5.082 -13.037  1.00  0.00    -0.504 OA
ATOM     20  H   UNL     1     -38.371  -5.353 -12.063  1.00  0.00     0.293 HD
ENDBRANCH  16  19
BRANCH  18  21
ATOM     21  O   UNL     1     -38.985  -7.822 -12.996  1.00  0.00    -0.504 OA
ATOM     22  H   UNL     1     -39.806  -8.376 -13.213  1.00  0.00     0.293 HD
ENDBRANCH  18  21
ENDBRANCH   3  13
BRANCH   9  23
ATOM     23  O   UNL     1     -33.375  -2.310 -20.306  1.00  0.00    -0.507 OA
ATOM     24  H   UNL     1     -34.318  -2.030 -20.538  1.00  0.00     0.293 HD
ENDBRANCH   9  23
BRANCH   7  25
ATOM     25  O   UNL     1     -30.055  -3.198 -16.921  1.00  0.00    -0.508 OA
ATOM     26  H   UNL     1     -29.905  -2.785 -16.007  1.00  0.00     0.293 HD
ENDBRANCH   7  25
TORSDOF 6
ENDMDL
MODEL 3
REMARK VINA RESULT:    -7.778      4.651      7.836
REMARK INTER + INTRA:          -9.433
REMARK INTER:                  -9.066
REMARK INTRA:                  -0.367
REMARK UNBOUND:                -0.064
REMARK SMILES Oc1cc(O)c2c(c1)O[C@@H](c1ccc(O)c(O)c1)[C@H](O)C2
REMARK SMILES IDX 21 1 19 2 10 3 9 4 7 5 8 6 2 7 3 8 4 9 6 10 20 11 11 13
REMARK SMILES IDX 18 14 12 15 16 16 13 17 14 18 17 19 15 21 5 23 1 25
REMARK H PARENT 20 12 17 20 15 22 5 24 1 26
REMARK Flexibility Score: inf
ROOT
ATOM      1  C   UNL     1     -36.066  -6.309 -13.834  1.00  0.00     0.079 C 
ATOM      2  C   UNL     1     -36.074  -5.080 -12.906  1.00  0.00     0.164 C 
ATOM      3  C   UNL     1     -37.357  -4.262 -13.135  1.00  0.00     0.232 C 
ATOM      4  O   UNL     1     -38.501  -5.089 -12.928  1.00  0.00    -0.482 OA
ATOM      5  C   UNL     1     -38.542  -6.425 -13.342  1.00  0.00     0.131 A 
ATOM      6  C   UNL     1     -39.754  -7.118 -13.280  1.00  0.00     0.093 A 
ATOM      7  C   UNL     1     -39.829  -8.447 -13.699  1.00  0.00     0.122 A 
ATOM      8  C   UNL     1     -38.686  -9.085 -14.195  1.00  0.00     0.092 A 
ATOM      9  C   UNL     1     -37.463  -8.406 -14.265  1.00  0.00     0.126 A 
ATOM     10  C   UNL     1     -37.373  -7.073 -13.799  1.00  0.00     0.039 A 
ENDROOT
BRANCH   2  11
ATOM     11  O   UNL     1     -34.950  -4.280 -13.167  1.00  0.00    -0.389 OA
ATOM     12  H   UNL     1     -34.181  -4.897 -13.280  1.00  0.00     0.211 HD
ENDBRANCH   2  11
BRANCH   3  13
ATOM     13  C   UNL     1     -37.418  -3.072 -12.206  1.00  0.00    -0.001 A 
ATOM     14  C   UNL     1     -37.361  -1.764 -12.716  1.00  0.00     0.057 A 
ATOM     15  C   UNL     1     -37.582  -3.260 -10.824  1.00  0.00     0.012 A 
ATOM     16  C   UNL     1     -37.445  -0.660 -11.860  1.00  0.00     0.157 A 
ATOM     17  C   UNL     1     -37.666  -2.161  -9.966  1.00  0.00     0.050 A 
ATOM     18  C   UNL     1     -37.597  -0.858 -10.478  1.00  0.00     0.157 A 
BRANCH  16  19
ATOM     19  O   UNL     1     -37.378   0.624 -12.402  1.00  0.00    -0.504 OA
ATOM     20  H   UNL     1     -37.073   0.790 -13.354  1.00  0.00     0.293 HD
ENDBRANCH  16  19
BRANCH  18  21
ATOM     21  O   UNL     1     -37.680   0.237  -9.619  1.00  0.00    -0.504 OA
ATOM     22  H   UNL     1     -37.817   1.178  -9.970  1.00  0.00     0.293 HD
ENDBRANCH  18  21
ENDBRANCH   3  13
BRANCH   9  23
ATOM     23  O   UNL     1     -36.368  -9.080 -14.810  1.00  0.00    -0.507 OA
ATOM     24  H   UNL     1     -35.432  -9.017 -14.431  1.00  0.00     0.293 HD
ENDBRANCH   9  23
BRANCH   7  25
ATOM     25  O   UNL     1     -41.045  -9.122 -13.629  1.00  0.00    -0.508 OA
ATOM     26  H   UNL     1     -41.422  -9.444 -12.744  1.00  0.00     0.293 HD
ENDBRANCH   7  25
TORSDOF 6
ENDMDL
MODEL 4
REMARK VINA RESULT:    -7.580      2.226      7.359
REMARK INTER + INTRA:          -9.195
REMARK INTER:                  -8.858
REMARK INTRA:                  -0.337
REMARK UNBOUND:                -0.064
REMARK SMILES Oc1cc(O)c2c(c1)O[C@@H](c1ccc(O)c(O)c1)[C@H](O)C2
REMARK SMILES IDX 21 1 19 2 10 3 9 4 7 5 8 6 2 7 3 8 4 9 6 10 20 11 11 13
REMARK SMILES IDX 18 14 12 15 16 16 13 17 14 18 17 19 15 21 5 23 1 25
REMARK H PARENT 20 12 17 20 15 22 5 24 1 26
REMARK Flexibility Score: inf
ROOT
ATOM      1  C   UNL     1     -37.842  -4.052 -13.732  1.00  0.00     0.079 C 
ATOM      2  C   UNL     1     -37.073  -3.787 -15.040  1.00  0.00     0.164 C 
ATOM      3  C   UNL     1     -36.226  -5.018 -15.407  1.00  0.00     0.232 C 
ATOM      4  O   UNL     1     -37.063  -6.169 -15.508  1.00  0.00    -0.482 OA
ATOM      5  C   UNL     1     -38.131  -6.397 -14.633  1.00  0.00     0.131 A 
ATOM      6  C   UNL     1     -38.787  -7.629 -14.669  1.00  0.00     0.093 A 
ATOM      7  C   UNL     1     -39.846  -7.890 -13.798  1.00  0.00     0.122 A 
ATOM      8  C   UNL     1     -40.244  -6.915 -12.875  1.00  0.00     0.092 A 
ATOM      9  C   UNL     1     -39.597  -5.674 -12.825  1.00  0.00     0.126 A 
ATOM     10  C   UNL     1     -38.553  -5.389 -13.736  1.00  0.00     0.039 A 
ENDROOT
BRANCH   2  11
ATOM     11  O   UNL     1     -36.240  -2.668 -14.884  1.00  0.00    -0.389 OA
ATOM     12  H   UNL     1     -36.790  -1.871 -15.100  1.00  0.00     0.211 HD
ENDBRANCH   2  11
BRANCH   3  13
ATOM     13  C   UNL     1     -35.493  -4.808 -16.711  1.00  0.00    -0.001 A 
ATOM     14  C   UNL     1     -34.107  -4.577 -16.723  1.00  0.00     0.057 A 
ATOM     15  C   UNL     1     -36.184  -4.890 -17.931  1.00  0.00     0.012 A 
ATOM     16  C   UNL     1     -33.423  -4.410 -17.932  1.00  0.00     0.157 A 
ATOM     17  C   UNL     1     -35.504  -4.723 -19.141  1.00  0.00     0.050 A 
ATOM     18  C   UNL     1     -34.124  -4.481 -19.148  1.00  0.00     0.157 A 
BRANCH  16  19
ATOM     19  O   UNL     1     -32.048  -4.175 -17.905  1.00  0.00    -0.504 OA
ATOM     20  H   UNL     1     -31.436  -4.644 -17.247  1.00  0.00     0.293 HD
ENDBRANCH  16  19
BRANCH  18  21
ATOM     21  O   UNL     1     -33.448  -4.314 -20.356  1.00  0.00    -0.504 OA
ATOM     22  H   UNL     1     -33.874  -4.564 -21.241  1.00  0.00     0.293 HD
ENDBRANCH  18  21
ENDBRANCH   3  13
BRANCH   9  23
ATOM     23  O   UNL     1     -40.009  -4.758 -11.855  1.00  0.00    -0.507 OA
ATOM     24  H   UNL     1     -40.939  -4.748 -11.458  1.00  0.00     0.293 HD
ENDBRANCH   9  23
BRANCH   7  25
ATOM     25  O   UNL     1     -40.490  -9.124 -13.849  1.00  0.00    -0.508 OA
ATOM     26  H   UNL     1     -40.014  -9.982 -13.593  1.00  0.00     0.293 HD
ENDBRANCH   7  25
TORSDOF 6
ENDMDL
MODEL 5
REMARK VINA RESULT:    -7.568      2.049      6.940
REMARK INTER + INTRA:          -9.179
REMARK INTER:                  -8.886
REMARK INTRA:                  -0.293
REMARK UNBOUND:                -0.064
REMARK SMILES Oc1cc(O)c2c(c1)O[C@@H](c1ccc(O)c(O)c1)[C@H](O)C2
REMARK SMILES IDX 21 1 19 2 10 3 9 4 7 5 8 6 2 7 3 8 4 9 6 10 20 11 11 13
REMARK SMILES IDX 18 14 12 15 16 16 13 17 14 18 17 19 15 21 5 23 1 25
REMARK H PARENT 20 12 17 20 15 22 5 24 1 26
REMARK Flexibility Score: inf
ROOT
ATOM      1  C   UNL     1     -36.555  -5.813 -16.941  1.00  0.00     0.079 C 
ATOM      2  C   UNL     1     -35.275  -5.369 -17.674  1.00  0.00     0.164 C 
ATOM      3  C   UNL     1     -35.072  -3.854 -17.500  1.00  0.00     0.232 C 
ATOM      4  O   UNL     1     -35.028  -3.528 -16.112  1.00  0.00    -0.482 OA
ATOM      5  C   UNL     1     -35.857  -4.148 -15.171  1.00  0.00     0.131 A 
ATOM      6  C   UNL     1     -35.895  -3.650 -13.867  1.00  0.00     0.093 A 
ATOM      7  C   UNL     1     -36.723  -4.239 -12.911  1.00  0.00     0.122 A 
ATOM      8  C   UNL     1     -37.528  -5.328 -13.264  1.00  0.00     0.092 A 
ATOM      9  C   UNL     1     -37.503  -5.841 -14.567  1.00  0.00     0.126 A 
ATOM     10  C   UNL     1     -36.631  -5.275 -15.527  1.00  0.00     0.039 A 
ENDROOT
BRANCH   2  11
ATOM     11  O   UNL     1     -35.377  -5.681 -19.039  1.00  0.00    -0.389 OA
ATOM     12  H   UNL     1     -36.281  -6.065 -19.177  1.00  0.00     0.211 HD
ENDBRANCH   2  11
BRANCH   3  13
ATOM     13  C   UNL     1     -33.799  -3.394 -18.170  1.00  0.00    -0.001 A 
ATOM     14  C   UNL     1     -33.838  -2.775 -19.431  1.00  0.00     0.057 A 
ATOM     15  C   UNL     1     -32.564  -3.536 -17.516  1.00  0.00     0.012 A 
ATOM     16  C   UNL     1     -32.662  -2.324 -20.040  1.00  0.00     0.157 A 
ATOM     17  C   UNL     1     -31.387  -3.087 -18.121  1.00  0.00     0.050 A 
ATOM     18  C   UNL     1     -31.430  -2.481 -19.384  1.00  0.00     0.157 A 
BRANCH  16  19
ATOM     19  O   UNL     1     -32.738  -1.720 -21.296  1.00  0.00    -0.504 OA
ATOM     20  H   UNL     1     -32.189  -0.902 -21.534  1.00  0.00     0.293 HD
ENDBRANCH  16  19
BRANCH  18  21
ATOM     21  O   UNL     1     -30.254  -2.034 -19.987  1.00  0.00    -0.504 OA
ATOM     22  H   UNL     1     -29.695  -1.295 -19.577  1.00  0.00     0.293 HD
ENDBRANCH  18  21
ENDBRANCH   3  13
BRANCH   9  23
ATOM     23  O   UNL     1     -38.360  -6.900 -14.872  1.00  0.00    -0.507 OA
ATOM     24  H   UNL     1     -38.716  -7.077 -15.802  1.00  0.00     0.293 HD
ENDBRANCH   9  23
BRANCH   7  25
ATOM     25  O   UNL     1     -36.747  -3.729 -11.614  1.00  0.00    -0.508 OA
ATOM     26  H   UNL     1     -36.024  -3.105 -11.277  1.00  0.00     0.293 HD
ENDBRANCH   7  25
TORSDOF 6
ENDMDL
MODEL 6
REMARK VINA RESULT:    -7.526      3.855      7.687
REMARK INTER + INTRA:          -9.130
REMARK INTER:                  -8.763
REMARK INTRA:                  -0.366
REMARK UNBOUND:                -0.064
REMARK SMILES Oc1cc(O)c2c(c1)O[C@@H](c1ccc(O)c(O)c1)[C@H](O)C2
REMARK SMILES IDX 21 1 19 2 10 3 9 4 7 5 8 6 2 7 3 8 4 9 6 10 20 11 11 13
REMARK SMILES IDX 18 14 12 15 16 16 13 17 14 18 17 19 15 21 5 23 1 25
REMARK H PARENT 20 12 17 20 15 22 5 24 1 26
REMARK Flexibility Score: inf
ROOT
ATOM      1  C   UNL     1     -35.792  -6.252 -13.674  1.00  0.00     0.079 C 
ATOM      2  C   UNL     1     -35.798  -4.712 -13.624  1.00  0.00     0.164 C 
ATOM      3  C   UNL     1     -36.757  -4.159 -14.692  1.00  0.00     0.232 C 
ATOM      4  O   UNL     1     -38.063  -4.701 -14.497  1.00  0.00    -0.482 OA
ATOM      5  C   UNL     1     -38.271  -6.030 -14.114  1.00  0.00     0.131 A 
ATOM      6  C   UNL     1     -39.570  -6.544 -14.125  1.00  0.00     0.093 A 
ATOM      7  C   UNL     1     -39.807  -7.870 -13.762  1.00  0.00     0.122 A 
ATOM      8  C   UNL     1     -38.735  -8.693 -13.396  1.00  0.00     0.092 A 
ATOM      9  C   UNL     1     -37.427  -8.195 -13.378  1.00  0.00     0.126 A 
ATOM     10  C   UNL     1     -37.188  -6.838 -13.702  1.00  0.00     0.039 A 
ENDROOT
BRANCH   2  11
ATOM     11  O   UNL     1     -34.501  -4.224 -13.852  1.00  0.00    -0.389 OA
ATOM     12  H   UNL     1     -33.943  -4.529 -13.091  1.00  0.00     0.211 HD
ENDBRANCH   2  11
BRANCH   3  13
ATOM     13  C   UNL     1     -36.821  -2.651 -14.639  1.00  0.00    -0.001 A 
ATOM     14  C   UNL     1     -37.189  -1.991 -13.454  1.00  0.00     0.057 A 
ATOM     15  C   UNL     1     -36.467  -1.888 -15.764  1.00  0.00     0.012 A 
ATOM     16  C   UNL     1     -37.222  -0.594 -13.396  1.00  0.00     0.157 A 
ATOM     17  C   UNL     1     -36.499  -0.492 -15.711  1.00  0.00     0.050 A 
ATOM     18  C   UNL     1     -36.877   0.161 -14.529  1.00  0.00     0.157 A 
BRANCH  16  19
ATOM     19  O   UNL     1     -37.597   0.026 -12.203  1.00  0.00    -0.504 OA
ATOM     20  H   UNL     1     -36.976   0.653 -11.705  1.00  0.00     0.293 HD
ENDBRANCH  16  19
BRANCH  18  21
ATOM     21  O   UNL     1     -36.910   1.554 -14.479  1.00  0.00    -0.504 OA
ATOM     22  H   UNL     1     -36.674   2.120 -15.286  1.00  0.00     0.293 HD
ENDBRANCH  18  21
ENDBRANCH   3  13
BRANCH   9  23
ATOM     23  O   UNL     1     -36.394  -9.074 -13.046  1.00  0.00    -0.507 OA
ATOM     24  H   UNL     1     -35.791  -8.946 -12.244  1.00  0.00     0.293 HD
ENDBRANCH   9  23
BRANCH   7  25
ATOM     25  O   UNL     1     -41.109  -8.365 -13.778  1.00  0.00    -0.508 OA
ATOM     26  H   UNL     1     -41.760  -8.168 -13.027  1.00  0.00     0.293 HD
ENDBRANCH   7  25
TORSDOF 6
ENDMDL
MODEL 7
REMARK VINA RESULT:    -7.490      2.011      6.831
REMARK INTER + INTRA:          -9.086
REMARK INTER:                  -8.720
REMARK INTRA:                  -0.366
REMARK UNBOUND:                -0.064
REMARK SMILES Oc1cc(O)c2c(c1)O[C@@H](c1ccc(O)c(O)c1)[C@H](O)C2
REMARK SMILES IDX 21 1 19 2 10 3 9 4 7 5 8 6 2 7 3 8 4 9 6 10 20 11 11 13
REMARK SMILES IDX 18 14 12 15 16 16 13 17 14 18 17 19 15 21 5 23 1 25
REMARK H PARENT 20 12 17 20 15 22 5 24 1 26
REMARK Flexibility Score: inf
ROOT
ATOM      1  C   UNL     1     -36.491  -5.411 -17.640  1.00  0.00     0.079 C 
ATOM      2  C   UNL     1     -34.987  -5.229 -17.917  1.00  0.00     0.164 C 
ATOM      3  C   UNL     1     -34.520  -3.862 -17.388  1.00  0.00     0.232 C 
ATOM      4  O   UNL     1     -34.821  -3.752 -15.997  1.00  0.00    -0.482 OA
ATOM      5  C   UNL     1     -36.006  -4.253 -15.447  1.00  0.00     0.131 A 
ATOM      6  C   UNL     1     -36.320  -3.945 -14.121  1.00  0.00     0.093 A 
ATOM      7  C   UNL     1     -37.503  -4.417 -13.549  1.00  0.00     0.122 A 
ATOM      8  C   UNL     1     -38.383  -5.193 -14.313  1.00  0.00     0.092 A 
ATOM      9  C   UNL     1     -38.084  -5.511 -15.643  1.00  0.00     0.126 A 
ATOM     10  C   UNL     1     -36.865  -5.072 -16.213  1.00  0.00     0.039 A 
ENDROOT
BRANCH   2  11
ATOM     11  O   UNL     1     -34.743  -5.312 -19.297  1.00  0.00    -0.389 OA
ATOM     12  H   UNL     1     -35.626  -5.426 -19.736  1.00  0.00     0.211 HD
ENDBRANCH   2  11
BRANCH   3  13
ATOM     13  C   UNL     1     -33.037  -3.670 -17.602  1.00  0.00    -0.001 A 
ATOM     14  C   UNL     1     -32.107  -4.495 -16.947  1.00  0.00     0.057 A 
ATOM     15  C   UNL     1     -32.573  -2.693 -18.498  1.00  0.00     0.012 A 
ATOM     16  C   UNL     1     -30.735  -4.337 -17.167  1.00  0.00     0.157 A 
ATOM     17  C   UNL     1     -31.202  -2.531 -18.720  1.00  0.00     0.050 A 
ATOM     18  C   UNL     1     -30.278  -3.350 -18.056  1.00  0.00     0.157 A 
BRANCH  16  19
ATOM     19  O   UNL     1     -29.841  -5.171 -16.494  1.00  0.00    -0.504 OA
ATOM     20  H   UNL     1     -29.324  -5.901 -16.971  1.00  0.00     0.293 HD
ENDBRANCH  16  19
BRANCH  18  21
ATOM     21  O   UNL     1     -28.911  -3.185 -18.277  1.00  0.00    -0.504 OA
ATOM     22  H   UNL     1     -28.541  -2.347 -18.711  1.00  0.00     0.293 HD
ENDBRANCH  18  21
ENDBRANCH   3  13
BRANCH   9  23
ATOM     23  O   UNL     1     -39.020  -6.250 -16.368  1.00  0.00    -0.507 OA
ATOM     24  H   UNL     1     -39.901  -5.871 -16.689  1.00  0.00     0.293 HD
ENDBRANCH   9  23
BRANCH   7  25
ATOM     25  O   UNL     1     -37.799  -4.103 -12.225  1.00  0.00    -0.508 OA
ATOM     26  H   UNL     1     -38.502  -3.411 -11.989  1.00  0.00     0.293 HD
ENDBRANCH   7  25
TORSDOF 6
ENDMDL
MODEL 8
REMARK VINA RESULT:    -7.488      1.890      2.263
REMARK INTER + INTRA:          -9.084
REMARK INTER:                  -8.731
REMARK INTRA:                  -0.354
REMARK UNBOUND:                -0.064
REMARK SMILES Oc1cc(O)c2c(c1)O[C@@H](c1ccc(O)c(O)c1)[C@H](O)C2
REMARK SMILES IDX 21 1 19 2 10 3 9 4 7 5 8 6 2 7 3 8 4 9 6 10 20 11 11 13
REMARK SMILES IDX 18 14 12 15 16 16 13 17 14 18 17 19 15 21 5 23 1 25
REMARK H PARENT 20 12 17 20 15 22 5 24 1 26
REMARK Flexibility Score: inf
ROOT
ATOM      1  C   UNL     1     -36.724  -4.520 -18.121  1.00  0.00     0.079 C 
ATOM      2  C   UNL     1     -37.722  -4.614 -16.951  1.00  0.00     0.164 C 
ATOM      3  C   UNL     1     -37.247  -5.675 -15.943  1.00  0.00     0.232 C 
ATOM      4  O   UNL     1     -35.930  -5.360 -15.493  1.00  0.00    -0.482 OA
ATOM      5  C   UNL     1     -34.951  -4.843 -16.349  1.00  0.00     0.131 A 
ATOM      6  C   UNL     1     -33.637  -4.736 -15.889  1.00  0.00     0.093 A 
ATOM      7  C   UNL     1     -32.636  -4.238 -16.725  1.00  0.00     0.122 A 
ATOM      8  C   UNL     1     -32.950  -3.855 -18.034  1.00  0.00     0.092 A 
ATOM      9  C   UNL     1     -34.262  -3.956 -18.512  1.00  0.00     0.126 A 
ATOM     10  C   UNL     1     -35.288  -4.417 -17.653  1.00  0.00     0.039 A 
ENDROOT
BRANCH   2  11
ATOM     11  O   UNL     1     -38.994  -4.958 -17.437  1.00  0.00    -0.389 OA
ATOM     12  H   UNL     1     -39.420  -4.115 -17.742  1.00  0.00     0.211 HD
ENDBRANCH   2  11
BRANCH   3  13
ATOM     13  C   UNL     1     -38.181  -5.760 -14.759  1.00  0.00    -0.001 A 
ATOM     14  C   UNL     1     -38.709  -6.997 -14.352  1.00  0.00     0.057 A 
ATOM     15  C   UNL     1     -38.494  -4.607 -14.022  1.00  0.00     0.012 A 
ATOM     16  C   UNL     1     -39.552  -7.080 -13.238  1.00  0.00     0.157 A 
ATOM     17  C   UNL     1     -39.337  -4.686 -12.909  1.00  0.00     0.050 A 
ATOM     18  C   UNL     1     -39.870  -5.920 -12.513  1.00  0.00     0.157 A 
BRANCH  16  19
ATOM     19  O   UNL     1     -40.062  -8.325 -12.867  1.00  0.00    -0.504 OA
ATOM     20  H   UNL     1     -40.513  -8.476 -11.972  1.00  0.00     0.293 HD
ENDBRANCH  16  19
BRANCH  18  21
ATOM     21  O   UNL     1     -40.710  -5.997 -11.404  1.00  0.00    -0.504 OA
ATOM     22  H   UNL     1     -41.114  -6.876 -11.103  1.00  0.00     0.293 HD
ENDBRANCH  18  21
ENDBRANCH   3  13
BRANCH   9  23
ATOM     23  O   UNL     1     -34.507  -3.600 -19.840  1.00  0.00    -0.507 OA
ATOM     24  H   UNL     1     -35.213  -2.930 -20.115  1.00  0.00     0.293 HD
ENDBRANCH   9  23
BRANCH   7  25
ATOM     25  O   UNL     1     -31.330  -4.136 -16.249  1.00  0.00    -0.508 OA
ATOM     26  H   UNL     1     -30.860  -3.241 -16.178  1.00  0.00     0.293 HD
ENDBRANCH   7  25
TORSDOF 6
ENDMDL
