MODEL 1
REMARK VINA RESULT:    -3.718      0.000      0.000
REMARK INTER + INTRA:          -3.835
REMARK INTER:                  -4.588
REMARK INTRA:                   0.753
REMARK UNBOUND:                 0.753
REMARK SMILES CC1=CC=CC(C)(C)CC1=O
REMARK SMILES IDX 1 1 2 2 3 3 10 4 11 5 9 6 4 8 5 9 6 10 7 11 8 12
REMARK H PARENT
REMARK Flexibility Score: 80.00
ROOT
ATOM      1  C   UNL     1     -27.498 -10.036  24.374  1.00  0.00     0.048 C 
ATOM      2  C   UNL     1     -28.122 -11.404  24.230  1.00  0.00    -0.008 C 
ATOM      3  C   UNL     1     -29.203 -11.682  24.987  1.00  0.00     0.007 C 
ENDROOT
BRANCH   2   4
ATOM      4  C   UNL     1     -27.537 -12.309  23.208  1.00  0.00     0.159 C 
ATOM      5  O   UNL     1     -26.716 -11.836  22.375  1.00  0.00    -0.295 OA
BRANCH   4   6
ATOM      6  C   UNL     1     -27.858 -13.769  23.117  1.00  0.00     0.091 CG0
ATOM      7  G   UNL     1     -29.355 -14.049  22.864  1.00  0.00     0.000 G0
ENDBRANCH   4   6
ENDBRANCH   2   4
BRANCH   3   8
ATOM      8  C   UNL     1     -30.035 -12.907  25.047  1.00  0.00    -0.003 C 
ATOM      9  C   UNL     1     -30.125 -13.910  24.164  1.00  0.00    -0.020 C 
BRANCH   9  10
ATOM     10  C   UNL     1     -29.353 -14.040  22.873  1.00  0.00    -0.010 CG0
ATOM     11  C   UNL     1     -29.483 -15.498  22.375  1.00  0.00     0.016 C 
ATOM     12  C   UNL     1     -29.964 -13.113  21.796  1.00  0.00     0.016 C 
ATOM     13  G   UNL     1     -27.858 -13.750  23.128  1.00  0.00     0.000 G0
ENDBRANCH   9  10
ENDBRANCH   3   8
TORSDOF 0
ENDMDL
MODEL 2
REMARK VINA RESULT:    -3.589      1.536      3.519
REMARK INTER + INTRA:          -3.675
REMARK INTER:                  -4.425
REMARK INTRA:                   0.750
REMARK UNBOUND:                 0.753
REMARK SMILES CC1=CC=CC(C)(C)CC1=O
REMARK SMILES IDX 1 1 2 2 3 3 10 4 11 5 9 6 4 8 5 9 6 10 7 11 8 12
REMARK H PARENT
REMARK Flexibility Score: 80.00
ROOT
ATOM      1  C   UNL     1     -29.240 -14.663  22.031  1.00  0.00     0.048 C 
ATOM      2  C   UNL     1     -29.093 -13.665  23.155  1.00  0.00    -0.008 C 
ATOM      3  C   UNL     1     -29.874 -13.830  24.244  1.00  0.00     0.007 C 
ENDROOT
BRANCH   2   4
ATOM      4  C   UNL     1     -28.045 -12.626  23.002  1.00  0.00     0.159 C 
ATOM      5  O   UNL     1     -27.216 -12.731  22.057  1.00  0.00    -0.295 OA
BRANCH   4   6
ATOM      6  C   UNL     1     -27.922 -11.437  23.906  1.00  0.00     0.091 CG0
ATOM      7  G   UNL     1     -27.703 -11.818  25.386  1.00  0.00     0.000 G0
ENDBRANCH   4   6
ENDBRANCH   2   4
BRANCH   3   8
ATOM      8  C   UNL     1     -29.937 -13.042  25.497  1.00  0.00    -0.003 C 
ATOM      9  C   UNL     1     -29.035 -12.194  26.008  1.00  0.00    -0.020 C 
BRANCH   9  10
ATOM     10  C   UNL     1     -27.711 -11.814  25.389  1.00  0.00    -0.010 CG0
ATOM     11  C   UNL     1     -27.177 -10.560  26.120  1.00  0.00     0.016 C 
ATOM     12  C   UNL     1     -26.687 -12.955  25.591  1.00  0.00     0.016 C 
ATOM     13  G   UNL     1     -27.915 -11.453  23.902  1.00  0.00     0.000 G0
ENDBRANCH   9  10
ENDBRANCH   3   8
TORSDOF 0
ENDMDL
MODEL 3
REMARK VINA RESULT:    -3.432      1.783      3.314
REMARK INTER + INTRA:          -3.482
REMARK INTER:                  -4.228
REMARK INTRA:                   0.747
REMARK UNBOUND:                 0.753
REMARK SMILES CC1=CC=CC(C)(C)CC1=O
REMARK SMILES IDX 1 1 2 2 3 3 10 4 11 5 9 6 4 8 5 9 6 10 7 11 8 12
REMARK H PARENT
REMARK Flexibility Score: 80.00
ROOT
ATOM      1  C   UNL     1     -30.002 -12.528  20.972  1.00  0.00     0.048 C 
ATOM      2  C   UNL     1     -28.950 -12.406  22.048  1.00  0.00    -0.008 C 
ATOM      3  C   UNL     1     -28.612 -11.164  22.454  1.00  0.00     0.007 C 
ENDROOT
BRANCH   2   4
ATOM      4  C   UNL     1     -28.427 -13.668  22.628  1.00  0.00     0.159 C 
ATOM      5  O   UNL     1     -29.005 -14.754  22.345  1.00  0.00    -0.295 OA
BRANCH   4   6
ATOM      6  C   UNL     1     -27.231 -13.730  23.527  1.00  0.00     0.091 CG0
ATOM      7  G   UNL     1     -27.392 -12.894  24.815  1.00  0.00     0.000 G0
ENDBRANCH   4   6
ENDBRANCH   2   4
BRANCH   3   8
ATOM      8  C   UNL     1     -27.648 -10.732  23.494  1.00  0.00    -0.003 C 
ATOM      9  C   UNL     1     -27.125 -11.437  24.505  1.00  0.00    -0.020 C 
BRANCH   9  10
ATOM     10  C   UNL     1     -27.385 -12.892  24.813  1.00  0.00    -0.010 CG0
ATOM     11  C   UNL     1     -26.311 -13.375  25.814  1.00  0.00     0.016 C 
ATOM     12  C   UNL     1     -28.769 -13.050  25.485  1.00  0.00     0.016 C 
ATOM     13  G   UNL     1     -27.251 -13.729  23.523  1.00  0.00     0.000 G0
ENDBRANCH   9  10
ENDBRANCH   3   8
TORSDOF 0
ENDMDL
MODEL 4
REMARK VINA RESULT:    -3.425      2.020      3.846
REMARK INTER + INTRA:          -3.473
REMARK INTER:                  -4.237
REMARK INTRA:                   0.763
REMARK UNBOUND:                 0.753
REMARK SMILES CC1=CC=CC(C)(C)CC1=O
REMARK SMILES IDX 1 1 2 2 3 3 10 4 11 5 9 6 4 8 5 9 6 10 7 11 8 12
REMARK H PARENT
REMARK Flexibility Score: 80.00
ROOT
ATOM      1  C   UNL     1     -28.221 -14.072  21.750  1.00  0.00     0.048 C 
ATOM      2  C   UNL     1     -28.260 -13.303  23.049  1.00  0.00    -0.008 C 
ATOM      3  C   UNL     1     -27.328 -13.596  23.979  1.00  0.00     0.007 C 
ENDROOT
BRANCH   2   4
ATOM      4  C   UNL     1     -29.279 -12.229  23.166  1.00  0.00     0.159 C 
ATOM      5  O   UNL     1     -29.926 -11.888  22.138  1.00  0.00    -0.295 OA
BRANCH   4   6
ATOM      6  C   UNL     1     -29.597 -11.530  24.453  1.00  0.00     0.091 CG0
ATOM      7  G   UNL     1     -28.375 -10.825  25.081  1.00  0.00     0.000 G0
ENDBRANCH   4   6
ENDBRANCH   2   4
BRANCH   3   8
ATOM      8  C   UNL     1     -27.099 -13.003  25.318  1.00  0.00    -0.003 C 
ATOM      9  C   UNL     1     -27.518 -11.826  25.802  1.00  0.00    -0.020 C 
BRANCH   9  10
ATOM     10  C   UNL     1     -28.372 -10.812  25.081  1.00  0.00    -0.010 CG0
ATOM     11  C   UNL     1     -28.890  -9.790  26.118  1.00  0.00     0.016 C 
ATOM     12  C   UNL     1     -27.520 -10.047  24.042  1.00  0.00     0.016 C 
ATOM     13  G   UNL     1     -29.593 -11.515  24.448  1.00  0.00     0.000 G0
ENDBRANCH   9  10
ENDBRANCH   3   8
TORSDOF 0
ENDMDL
MODEL 5
REMARK VINA RESULT:    -3.226      1.311      2.063
REMARK INTER + INTRA:          -3.228
REMARK INTER:                  -4.263
REMARK INTRA:                   1.035
REMARK UNBOUND:                 0.753
REMARK SMILES CC1=CC=CC(C)(C)CC1=O
REMARK SMILES IDX 1 1 2 2 3 3 10 4 11 5 9 6 4 8 5 9 6 10 7 11 8 12
REMARK H PARENT
REMARK Flexibility Score: 80.00
ROOT
ATOM      1  C   UNL     1     -27.357 -10.841  23.853  1.00  0.00     0.048 C 
ATOM      2  C   UNL     1     -28.067 -11.949  23.111  1.00  0.00    -0.008 C 
ATOM      3  C   UNL     1     -29.051 -11.600  22.257  1.00  0.00     0.007 C 
ENDROOT
BRANCH   2   4
ATOM      4  C   UNL     1     -27.571 -13.332  23.328  1.00  0.00     0.159 C 
ATOM      5  O   UNL     1     -26.796 -13.556  24.299  1.00  0.00    -0.295 OA
BRANCH   4   6
ATOM      6  C   UNL     1     -27.951 -14.491  22.460  1.00  0.00     0.091 CG0
ATOM      7  G   UNL     1     -29.475 -14.731  22.397  1.00  0.00     0.000 G0
ENDBRANCH   4   6
ENDBRANCH   2   4
BRANCH   3   8
ATOM      8  C   UNL     1     -29.896 -12.447  21.382  1.00  0.00    -0.003 C 
ATOM      9  C   UNL     1     -30.080 -13.773  21.412  1.00  0.00    -0.020 C 
BRANCH   9  10
ATOM     10  C   UNL     1     -29.468 -14.741  22.397  1.00  0.00    -0.010 CG0
ATOM     11  C   UNL     1     -30.083 -14.468  23.789  1.00  0.00     0.016 C 
ATOM     12  C   UNL     1     -29.818 -16.193  21.997  1.00  0.00     0.016 C 
ATOM     13  G   UNL     1     -27.946 -14.499  22.488  1.00  0.00     0.000 G0
ENDBRANCH   9  10
ENDBRANCH   3   8
TORSDOF 0
ENDMDL
MODEL 6
REMARK VINA RESULT:    -3.060      1.615      1.921
REMARK INTER + INTRA:          -3.023
REMARK INTER:                  -4.077
REMARK INTRA:                   1.055
REMARK UNBOUND:                 0.753
REMARK SMILES CC1=CC=CC(C)(C)CC1=O
REMARK SMILES IDX 1 1 2 2 3 3 10 4 11 5 9 6 4 8 5 9 6 10 7 11 8 12
REMARK H PARENT
REMARK Flexibility Score: 80.00
ROOT
ATOM      1  C   UNL     1     -26.064 -13.296  25.803  1.00  0.00     0.048 C 
ATOM      2  C   UNL     1     -27.254 -12.987  24.925  1.00  0.00    -0.008 C 
ATOM      3  C   UNL     1     -28.460 -13.441  25.324  1.00  0.00     0.007 C 
ENDROOT
BRANCH   2   4
ATOM      4  C   UNL     1     -27.008 -12.143  23.729  1.00  0.00     0.159 C 
ATOM      5  O   UNL     1     -25.819 -11.948  23.355  1.00  0.00    -0.295 OA
BRANCH   4   6
ATOM      6  C   UNL     1     -28.104 -11.515  22.923  1.00  0.00     0.091 CG0
ATOM      7  G   UNL     1     -29.116 -12.539  22.368  1.00  0.00     0.000 G0
ENDBRANCH   4   6
ENDBRANCH   2   4
BRANCH   3   8
ATOM      8  C   UNL     1     -29.793 -13.276  24.698  1.00  0.00    -0.003 C 
ATOM      9  C   UNL     1     -30.100 -12.878  23.456  1.00  0.00    -0.020 C 
BRANCH   9  10
ATOM     10  C   UNL     1     -29.122 -12.520  22.362  1.00  0.00    -0.010 CG0
ATOM     11  C   UNL     1     -28.368 -13.805  21.947  1.00  0.00     0.016 C 
ATOM     12  C   UNL     1     -29.884 -11.994  21.124  1.00  0.00     0.016 C 
ATOM     13  G   UNL     1     -28.087 -11.508  22.899  1.00  0.00     0.000 G0
ENDBRANCH   9  10
ENDBRANCH   3   8
TORSDOF 0
ENDMDL
MODEL 7
REMARK VINA RESULT:    -2.968      1.690      2.591
REMARK INTER + INTRA:          -2.910
REMARK INTER:                  -3.714
REMARK INTRA:                   0.805
REMARK UNBOUND:                 0.753
REMARK SMILES CC1=CC=CC(C)(C)CC1=O
REMARK SMILES IDX 1 1 2 2 3 3 10 4 11 5 9 6 4 8 5 9 6 10 7 11 8 12
REMARK H PARENT
REMARK Flexibility Score: 80.00
ROOT
ATOM      1  C   UNL     1     -27.704  -9.313  24.462  1.00  0.00     0.048 C 
ATOM      2  C   UNL     1     -28.096 -10.649  23.875  1.00  0.00    -0.008 C 
ATOM      3  C   UNL     1     -27.207 -11.262  23.066  1.00  0.00     0.007 C 
ENDROOT
BRANCH   2   4
ATOM      4  C   UNL     1     -29.401 -11.215  24.299  1.00  0.00     0.159 C 
ATOM      5  O   UNL     1     -29.997 -10.701  25.286  1.00  0.00    -0.295 OA
BRANCH   4   6
ATOM      6  C   UNL     1     -30.067 -12.364  23.606  1.00  0.00     0.091 CG0
ATOM      7  G   UNL     1     -29.238 -13.666  23.652  1.00  0.00     0.000 G0
ENDBRANCH   4   6
ENDBRANCH   2   4
BRANCH   3   8
ATOM      8  C   UNL     1     -27.294 -12.570  22.375  1.00  0.00    -0.003 C 
ATOM      9  C   UNL     1     -28.123 -13.595  22.610  1.00  0.00    -0.020 C 
BRANCH   9  10
ATOM     10  C   UNL     1     -29.217 -13.645  23.650  1.00  0.00    -0.010 CG0
ATOM     11  C   UNL     1     -30.125 -14.857  23.341  1.00  0.00     0.016 C 
ATOM     12  C   UNL     1     -28.601 -13.856  25.053  1.00  0.00     0.016 C 
ATOM     13  G   UNL     1     -30.076 -12.365  23.563  1.00  0.00     0.000 G0
ENDBRANCH   9  10
ENDBRANCH   3   8
TORSDOF 0
ENDMDL
MODEL 8
REMARK VINA RESULT:    -2.182      1.941      3.713
REMARK INTER + INTRA:          -1.939
REMARK INTER:                  -2.992
REMARK INTRA:                   1.053
REMARK UNBOUND:                 0.753
REMARK SMILES CC1=CC=CC(C)(C)CC1=O
REMARK SMILES IDX 1 1 2 2 3 3 10 4 11 5 9 6 4 8 5 9 6 10 7 11 8 12
REMARK H PARENT
REMARK Flexibility Score: 80.00
ROOT
ATOM      1  C   UNL     1     -27.671 -14.061  22.160  1.00  0.00     0.048 C 
ATOM      2  C   UNL     1     -28.108 -13.005  23.147  1.00  0.00    -0.008 C 
ATOM      3  C   UNL     1     -29.405 -12.633  23.133  1.00  0.00     0.007 C 
ENDROOT
BRANCH   2   4
ATOM      4  C   UNL     1     -27.086 -12.514  24.107  1.00  0.00     0.159 C 
ATOM      5  O   UNL     1     -25.871 -12.777  23.891  1.00  0.00    -0.295 OA
BRANCH   4   6
ATOM      6  C   UNL     1     -27.418 -11.705  25.323  1.00  0.00     0.091 CG0
ATOM      7  G   UNL     1     -28.193 -10.409  25.000  1.00  0.00     0.000 G0
ENDBRANCH   4   6
ENDBRANCH   2   4
BRANCH   3   8
ATOM      8  C   UNL     1     -30.124 -11.657  23.984  1.00  0.00    -0.003 C 
ATOM      9  C   UNL     1     -29.625 -10.714  24.795  1.00  0.00    -0.020 C 
BRANCH   9  10
ATOM     10  C   UNL     1     -28.165 -10.401  25.013  1.00  0.00    -0.010 CG0
ATOM     11  C   UNL     1     -27.595  -9.807  23.704  1.00  0.00     0.016 C 
ATOM     12  C   UNL     1     -28.014  -9.336  26.125  1.00  0.00     0.016 C 
ATOM     13  G   UNL     1     -27.394 -11.702  25.326  1.00  0.00     0.000 G0
ENDBRANCH   9  10
ENDBRANCH   3   8
TORSDOF 0
ENDMDL
