MODEL 1
REMARK VINA RESULT:    -4.709      0.000      0.000
REMARK INTER + INTRA:          -4.847
REMARK INTER:                  -4.847
REMARK INTRA:                   0.000
REMARK UNBOUND:                 0.000
REMARK SMILES Nc1ncnc2nc[nH]c12
REMARK SMILES IDX 8 1 7 2 6 3 5 4 4 5 3 6 2 7 10 8 9 9 1 11
REMARK H PARENT 9 10 1 12 1 13
REMARK Flexibility Score: inf
ROOT
ATOM      1  C   UNL     1      11.662  43.062  52.027  1.00  0.00     0.199 A 
ATOM      2  N   UNL     1      12.139  44.287  51.677  1.00  0.00    -0.217 NA
ATOM      3  C   UNL     1      12.927  44.596  52.719  1.00  0.00     0.182 A 
ATOM      4  N   UNL     1      13.653  45.729  52.877  1.00  0.00    -0.215 NA
ATOM      5  C   UNL     1      14.400  45.864  54.013  1.00  0.00     0.226 A 
ATOM      6  N   UNL     1      14.409  44.874  54.963  1.00  0.00    -0.217 NA
ATOM      7  C   UNL     1      13.677  43.730  54.806  1.00  0.00     0.152 A 
ATOM      8  C   UNL     1      12.922  43.608  53.644  1.00  0.00     0.127 A 
ATOM      9  N   UNL     1      12.122  42.619  53.225  1.00  0.00    -0.340 N 
ATOM     10  H   UNL     1      11.897  41.716  53.698  1.00  0.00     0.168 HD
ENDROOT
BRANCH   7  11
ATOM     11  N   UNL     1      13.702  42.713  55.809  1.00  0.00    -0.382 N 
ATOM     12  H   UNL     1      14.322  41.881  55.694  1.00  0.00     0.158 HD
ATOM     13  H   UNL     1      13.109  42.779  56.665  1.00  0.00     0.158 HD
ENDBRANCH   7  11
TORSDOF 1
ENDMDL
MODEL 2
REMARK VINA RESULT:    -4.253      1.687      2.594
REMARK INTER + INTRA:          -4.377
REMARK INTER:                  -4.377
REMARK INTRA:                   0.000
REMARK UNBOUND:                 0.000
REMARK SMILES Nc1ncnc2nc[nH]c12
REMARK SMILES IDX 8 1 7 2 6 3 5 4 4 5 3 6 2 7 10 8 9 9 1 11
REMARK H PARENT 9 10 1 12 1 13
REMARK Flexibility Score: inf
ROOT
ATOM      1  C   UNL     1      12.446  44.227  51.216  1.00  0.00     0.199 A 
ATOM      2  N   UNL     1      11.449  43.675  51.961  1.00  0.00    -0.217 NA
ATOM      3  C   UNL     1      11.685  44.190  53.179  1.00  0.00     0.182 A 
ATOM      4  N   UNL     1      10.970  43.960  54.306  1.00  0.00    -0.215 NA
ATOM      5  C   UNL     1      11.366  44.578  55.460  1.00  0.00     0.226 A 
ATOM      6  N   UNL     1      12.458  45.408  55.465  1.00  0.00    -0.217 NA
ATOM      7  C   UNL     1      13.180  45.642  54.328  1.00  0.00     0.152 A 
ATOM      8  C   UNL     1      12.764  45.006  53.163  1.00  0.00     0.127 A 
ATOM      9  N   UNL     1      13.267  45.044  51.923  1.00  0.00    -0.340 N 
ATOM     10  H   UNL     1      14.094  45.574  51.570  1.00  0.00     0.168 HD
ENDROOT
BRANCH   7  11
ATOM     11  N   UNL     1      14.314  46.511  54.358  1.00  0.00    -0.382 N 
ATOM     12  H   UNL     1      15.207  46.221  53.902  1.00  0.00     0.158 HD
ATOM     13  H   UNL     1      14.273  47.442  54.830  1.00  0.00     0.158 HD
ENDBRANCH   7  11
TORSDOF 1
ENDMDL
MODEL 3
REMARK VINA RESULT:    -4.105      1.601      3.779
REMARK INTER + INTRA:          -4.225
REMARK INTER:                  -4.225
REMARK INTRA:                   0.000
REMARK UNBOUND:                 0.000
REMARK SMILES Nc1ncnc2nc[nH]c12
REMARK SMILES IDX 8 1 7 2 6 3 5 4 4 5 3 6 2 7 10 8 9 9 1 11
REMARK H PARENT 9 10 1 12 1 13
REMARK Flexibility Score: inf
ROOT
ATOM      1  C   UNL     1      14.771  46.077  54.574  1.00  0.00     0.199 A 
ATOM      2  N   UNL     1      13.756  45.742  55.417  1.00  0.00    -0.217 NA
ATOM      3  C   UNL     1      12.864  45.184  54.582  1.00  0.00     0.182 A 
ATOM      4  N   UNL     1      11.655  44.672  54.916  1.00  0.00    -0.215 NA
ATOM      5  C   UNL     1      10.882  44.142  53.921  1.00  0.00     0.226 A 
ATOM      6  N   UNL     1      11.327  44.133  52.623  1.00  0.00    -0.217 NA
ATOM      7  C   UNL     1      12.547  44.649  52.285  1.00  0.00     0.152 A 
ATOM      8  C   UNL     1      13.322  45.184  53.309  1.00  0.00     0.127 A 
ATOM      9  N   UNL     1      14.536  45.749  53.279  1.00  0.00    -0.340 N 
ATOM     10  H   UNL     1      15.162  45.905  52.459  1.00  0.00     0.168 HD
ENDROOT
BRANCH   7  11
ATOM     11  N   UNL     1      12.989  44.628  50.926  1.00  0.00    -0.382 N 
ATOM     12  H   UNL     1      13.479  43.786  50.549  1.00  0.00     0.158 HD
ATOM     13  H   UNL     1      12.833  45.441  50.292  1.00  0.00     0.158 HD
ENDBRANCH   7  11
TORSDOF 1
ENDMDL
MODEL 4
REMARK VINA RESULT:    -4.103      1.873      3.408
REMARK INTER + INTRA:          -4.223
REMARK INTER:                  -4.223
REMARK INTRA:                   0.000
REMARK UNBOUND:                 0.000
REMARK SMILES Nc1ncnc2nc[nH]c12
REMARK SMILES IDX 8 1 7 2 6 3 5 4 4 5 3 6 2 7 10 8 9 9 1 11
REMARK H PARENT 9 10 1 12 1 13
REMARK Flexibility Score: inf
ROOT
ATOM      1  C   UNL     1      11.595  44.236  56.768  1.00  0.00     0.199 A 
ATOM      2  N   UNL     1      11.021  43.537  55.751  1.00  0.00    -0.217 NA
ATOM      3  C   UNL     1      11.649  44.033  54.673  1.00  0.00     0.182 A 
ATOM      4  N   UNL     1      11.448  43.673  53.383  1.00  0.00    -0.215 NA
ATOM      5  C   UNL     1      12.188  44.294  52.416  1.00  0.00     0.226 A 
ATOM      6  N   UNL     1      13.108  45.255  52.752  1.00  0.00    -0.217 NA
ATOM      7  C   UNL     1      13.312  45.620  54.054  1.00  0.00     0.152 A 
ATOM      8  C   UNL     1      12.551  44.978  55.026  1.00  0.00     0.127 A 
ATOM      9  N   UNL     1      12.534  45.125  56.357  1.00  0.00    -0.340 N 
ATOM     10  H   UNL     1      13.104  45.768  56.950  1.00  0.00     0.168 HD
ENDROOT
BRANCH   7  11
ATOM     11  N   UNL     1      14.275  46.623  54.381  1.00  0.00    -0.382 N 
ATOM     12  H   UNL     1      14.446  47.417  53.725  1.00  0.00     0.158 HD
ATOM     13  H   UNL     1      14.820  46.584  55.271  1.00  0.00     0.158 HD
ENDBRANCH   7  11
TORSDOF 1
ENDMDL
MODEL 5
REMARK VINA RESULT:    -4.095      1.811      3.311
REMARK INTER + INTRA:          -4.215
REMARK INTER:                  -4.215
REMARK INTRA:                   0.000
REMARK UNBOUND:                 0.000
REMARK SMILES Nc1ncnc2nc[nH]c12
REMARK SMILES IDX 8 1 7 2 6 3 5 4 4 5 3 6 2 7 10 8 9 9 1 11
REMARK H PARENT 9 10 1 12 1 13
REMARK Flexibility Score: inf
ROOT
ATOM      1  C   UNL     1      14.602  46.241  54.608  1.00  0.00     0.199 A 
ATOM      2  N   UNL     1      14.438  45.826  53.322  1.00  0.00    -0.217 NA
ATOM      3  C   UNL     1      13.224  45.252  53.360  1.00  0.00     0.182 A 
ATOM      4  N   UNL     1      12.572  44.669  52.326  1.00  0.00    -0.215 NA
ATOM      5  C   UNL     1      11.335  44.136  52.560  1.00  0.00     0.226 A 
ATOM      6  N   UNL     1      10.777  44.195  53.812  1.00  0.00    -0.217 NA
ATOM      7  C   UNL     1      11.433  44.784  54.857  1.00  0.00     0.152 A 
ATOM      8  C   UNL     1      12.691  45.322  54.602  1.00  0.00     0.127 A 
ATOM      9  N   UNL     1      13.552  45.947  55.415  1.00  0.00    -0.340 N 
ATOM     10  H   UNL     1      13.451  46.164  56.431  1.00  0.00     0.168 HD
ENDROOT
BRANCH   7  11
ATOM     11  N   UNL     1      10.832  44.834  56.153  1.00  0.00    -0.382 N 
ATOM     12  H   UNL     1      11.368  45.217  56.963  1.00  0.00     0.158 HD
ATOM     13  H   UNL     1       9.858  44.494  56.313  1.00  0.00     0.158 HD
ENDBRANCH   7  11
TORSDOF 1
ENDMDL
MODEL 6
REMARK VINA RESULT:    -4.068      2.535      4.778
REMARK INTER + INTRA:          -4.187
REMARK INTER:                  -4.187
REMARK INTRA:                   0.000
REMARK UNBOUND:                 0.000
REMARK SMILES Nc1ncnc2nc[nH]c12
REMARK SMILES IDX 8 1 7 2 6 3 5 4 4 5 3 6 2 7 10 8 9 9 1 11
REMARK H PARENT 9 10 1 12 1 13
REMARK Flexibility Score: inf
ROOT
ATOM      1  C   UNL     1      12.906  44.672  52.757  1.00  0.00     0.199 A 
ATOM      2  N   UNL     1      12.055  43.755  52.219  1.00  0.00    -0.217 NA
ATOM      3  C   UNL     1      12.240  43.932  50.901  1.00  0.00     0.182 A 
ATOM      4  N   UNL     1      11.626  43.258  49.900  1.00  0.00    -0.215 NA
ATOM      5  C   UNL     1      11.947  43.581  48.611  1.00  0.00     0.226 A 
ATOM      6  N   UNL     1      12.870  44.562  48.348  1.00  0.00    -0.217 NA
ATOM      7  C   UNL     1      13.492  45.243  49.357  1.00  0.00     0.152 A 
ATOM      8  C   UNL     1      13.153  44.903  50.663  1.00  0.00     0.127 A 
ATOM      9  N   UNL     1      13.591  45.389  51.831  1.00  0.00    -0.340 N 
ATOM     10  H   UNL     1      14.293  46.143  52.002  1.00  0.00     0.168 HD
ENDROOT
BRANCH   7  11
ATOM     11  N   UNL     1      14.449  46.260  49.059  1.00  0.00    -0.382 N 
ATOM     12  H   UNL     1      14.565  46.598  48.077  1.00  0.00     0.158 HD
ATOM     13  H   UNL     1      15.044  46.682  49.805  1.00  0.00     0.158 HD
ENDBRANCH   7  11
TORSDOF 1
ENDMDL
MODEL 7
REMARK VINA RESULT:    -3.978      1.615      3.004
REMARK INTER + INTRA:          -4.094
REMARK INTER:                  -4.094
REMARK INTRA:                   0.000
REMARK UNBOUND:                 0.000
REMARK SMILES Nc1ncnc2nc[nH]c12
REMARK SMILES IDX 8 1 7 2 6 3 5 4 4 5 3 6 2 7 10 8 9 9 1 11
REMARK H PARENT 9 10 1 12 1 13
REMARK Flexibility Score: inf
ROOT
ATOM      1  C   UNL     1      11.319  43.696  56.187  1.00  0.00     0.199 A 
ATOM      2  N   UNL     1      12.186  44.593  56.731  1.00  0.00    -0.217 NA
ATOM      3  C   UNL     1      12.868  45.020  55.655  1.00  0.00     0.182 A 
ATOM      4  N   UNL     1      13.865  45.936  55.641  1.00  0.00    -0.215 NA
ATOM      5  C   UNL     1      14.442  46.244  54.441  1.00  0.00     0.226 A 
ATOM      6  N   UNL     1      14.015  45.638  53.286  1.00  0.00    -0.217 NA
ATOM      7  C   UNL     1      13.008  44.714  53.299  1.00  0.00     0.152 A 
ATOM      8  C   UNL     1      12.431  44.411  54.528  1.00  0.00     0.127 A 
ATOM      9  N   UNL     1      11.445  43.562  54.842  1.00  0.00    -0.340 N 
ATOM     10  H   UNL     1      10.894  42.939  54.211  1.00  0.00     0.168 HD
ENDROOT
BRANCH   7  11
ATOM     11  N   UNL     1      12.579  44.096  52.084  1.00  0.00    -0.382 N 
ATOM     12  H   UNL     1      12.397  44.679  51.237  1.00  0.00     0.158 HD
ATOM     13  H   UNL     1      12.442  43.063  52.019  1.00  0.00     0.158 HD
ENDBRANCH   7  11
TORSDOF 1
ENDMDL
MODEL 8
REMARK VINA RESULT:    -3.810      1.857      2.454
REMARK INTER + INTRA:          -3.922
REMARK INTER:                  -3.922
REMARK INTRA:                   0.000
REMARK UNBOUND:                 0.000
REMARK SMILES Nc1ncnc2nc[nH]c12
REMARK SMILES IDX 8 1 7 2 6 3 5 4 4 5 3 6 2 7 10 8 9 9 1 11
REMARK H PARENT 9 10 1 12 1 13
REMARK Flexibility Score: inf
ROOT
ATOM      1  C   UNL     1      10.936  43.192  51.937  1.00  0.00     0.199 A 
ATOM      2  N   UNL     1      12.121  42.687  52.375  1.00  0.00    -0.217 NA
ATOM      3  C   UNL     1      12.418  43.502  53.402  1.00  0.00     0.182 A 
ATOM      4  N   UNL     1      13.511  43.435  54.198  1.00  0.00    -0.215 NA
ATOM      5  C   UNL     1      13.639  44.358  55.198  1.00  0.00     0.226 A 
ATOM      6  N   UNL     1      12.680  45.321  55.384  1.00  0.00    -0.217 NA
ATOM      7  C   UNL     1      11.575  45.389  54.582  1.00  0.00     0.152 A 
ATOM      8  C   UNL     1      11.460  44.443  53.568  1.00  0.00     0.127 A 
ATOM      9  N   UNL     1      10.506  44.267  52.646  1.00  0.00    -0.340 N 
ATOM     10  H   UNL     1       9.632  44.818  52.496  1.00  0.00     0.168 HD
ENDROOT
BRANCH   7  11
ATOM     11  N   UNL     1      10.589  46.402  54.794  1.00  0.00    -0.382 N 
ATOM     12  H   UNL     1       9.575  46.166  54.723  1.00  0.00     0.158 HD
ATOM     13  H   UNL     1      10.859  47.384  55.023  1.00  0.00     0.158 HD
ENDBRANCH   7  11
TORSDOF 1
ENDMDL
MODEL 9
REMARK VINA RESULT:    -3.762     17.428     17.915
REMARK INTER + INTRA:          -3.872
REMARK INTER:                  -3.872
REMARK INTRA:                   0.000
REMARK UNBOUND:                 0.000
REMARK SMILES Nc1ncnc2nc[nH]c12
REMARK SMILES IDX 8 1 7 2 6 3 5 4 4 5 3 6 2 7 10 8 9 9 1 11
REMARK H PARENT 9 10 1 12 1 13
REMARK Flexibility Score: inf
ROOT
ATOM      1  C   UNL     1      27.320  35.596  50.410  1.00  0.00     0.199 A 
ATOM      2  N   UNL     1      27.480  34.285  50.084  1.00  0.00    -0.217 NA
ATOM      3  C   UNL     1      27.323  34.300  48.750  1.00  0.00     0.182 A 
ATOM      4  N   UNL     1      27.388  33.236  47.915  1.00  0.00    -0.215 NA
ATOM      5  C   UNL     1      27.200  33.451  46.578  1.00  0.00     0.226 A 
ATOM      6  N   UNL     1      26.954  34.715  46.104  1.00  0.00    -0.217 NA
ATOM      7  C   UNL     1      26.889  35.790  46.945  1.00  0.00     0.152 A 
ATOM      8  C   UNL     1      27.082  35.555  48.303  1.00  0.00     0.127 A 
ATOM      9  N   UNL     1      27.074  36.398  49.343  1.00  0.00    -0.340 N 
ATOM     10  H   UNL     1      26.918  37.430  49.346  1.00  0.00     0.168 HD
ENDROOT
BRANCH   7  11
ATOM     11  N   UNL     1      26.631  37.097  46.428  1.00  0.00    -0.382 N 
ATOM     12  H   UNL     1      27.370  37.601  45.891  1.00  0.00     0.158 HD
ATOM     13  H   UNL     1      25.711  37.568  46.575  1.00  0.00     0.158 HD
ENDBRANCH   7  11
TORSDOF 1
ENDMDL
