MODEL 1
REMARK VINA RESULT:    -6.953      0.000      0.000
REMARK INTER + INTRA:          -8.691
REMARK INTER:                  -8.376
REMARK INTRA:                  -0.316
REMARK UNBOUND:                -0.316
REMARK SMILES O=c1c(O)c(-c2ccc(O)c(O)c2)oc2cc(O)cc(O)c12
REMARK SMILES IDX 5 1 3 2 2 3 1 4 22 5 20 6 19 7 17 8 16 9 15 10 14 11 6 12
REMARK SMILES IDX 7 13 8 14 9 15 13 16 11 17 10 18 12 20 4 22 21 24 18 26
REMARK H PARENT 10 19 12 21 4 23 21 25 18 27
REMARK Flexibility Score: inf
ROOT
ATOM      1  C   UNL     1       4.629   3.698 -15.944  1.00  0.00     0.180 A 
ATOM      2  C   UNL     1       3.740   4.406 -16.770  1.00  0.00     0.208 A 
ATOM      3  C   UNL     1       3.178   5.603 -16.296  1.00  0.00     0.238 A 
ATOM      4  O   UNL     1       2.341   6.204 -17.018  1.00  0.00    -0.285 OA
ATOM      5  C   UNL     1       3.526   6.084 -15.011  1.00  0.00     0.111 A 
ATOM      6  C   UNL     1       3.048   7.305 -14.447  1.00  0.00     0.134 A 
ATOM      7  C   UNL     1       3.355   7.618 -13.117  1.00  0.00     0.093 A 
ATOM      8  C   UNL     1       4.175   6.785 -12.352  1.00  0.00     0.123 A 
ATOM      9  C   UNL     1       4.694   5.620 -12.913  1.00  0.00     0.094 A 
ATOM     10  C   UNL     1       4.377   5.264 -14.225  1.00  0.00     0.146 A 
ATOM     11  O   UNL     1       4.885   4.140 -14.719  1.00  0.00    -0.452 OA
ENDROOT
BRANCH   1  12
ATOM     12  C   UNL     1       5.281   2.442 -16.382  1.00  0.00     0.025 A 
ATOM     13  C   UNL     1       4.638   1.199 -16.248  1.00  0.00     0.016 A 
ATOM     14  C   UNL     1       5.263   0.030 -16.691  1.00  0.00     0.051 A 
ATOM     15  C   UNL     1       6.531   0.086 -17.285  1.00  0.00     0.157 A 
ATOM     16  C   UNL     1       6.543   2.495 -16.997  1.00  0.00     0.062 A 
ATOM     17  C   UNL     1       7.171   1.326 -17.441  1.00  0.00     0.158 A 
BRANCH  15  18
ATOM     18  O   UNL     1       7.152  -1.083 -17.723  1.00  0.00    -0.504 OA
ATOM     19  H   UNL     1       8.137  -1.253 -17.559  1.00  0.00     0.293 HD
ENDBRANCH  15  18
BRANCH  17  20
ATOM     20  O   UNL     1       8.430   1.418 -18.035  1.00  0.00    -0.504 OA
ATOM     21  H   UNL     1       8.633   2.092 -18.764  1.00  0.00     0.293 HD
ENDBRANCH  17  20
ENDBRANCH   1  12
BRANCH   2  22
ATOM     22  O   UNL     1       3.394   3.902 -18.026  1.00  0.00    -0.502 OA
ATOM     23  H   UNL     1       4.002   3.983 -18.832  1.00  0.00     0.293 HD
ENDBRANCH   2  22
BRANCH   6  24
ATOM     24  O   UNL     1       2.299   8.251 -15.153  1.00  0.00    -0.507 OA
ATOM     25  H   UNL     1       2.069   8.186 -16.133  1.00  0.00     0.293 HD
ENDBRANCH   6  24
BRANCH   8  26
ATOM     26  O   UNL     1       4.487   7.110 -11.034  1.00  0.00    -0.508 OA
ATOM     27  H   UNL     1       3.776   7.419 -10.381  1.00  0.00     0.293 HD
ENDBRANCH   8  26
TORSDOF 6
ENDMDL
MODEL 2
REMARK VINA RESULT:    -6.846      2.157      6.688
REMARK INTER + INTRA:          -8.562
REMARK INTER:                  -8.645
REMARK INTRA:                   0.084
REMARK UNBOUND:                -0.316
REMARK SMILES O=c1c(O)c(-c2ccc(O)c(O)c2)oc2cc(O)cc(O)c12
REMARK SMILES IDX 5 1 3 2 2 3 1 4 22 5 20 6 19 7 17 8 16 9 15 10 14 11 6 12
REMARK SMILES IDX 7 13 8 14 9 15 13 16 11 17 10 18 12 20 4 22 21 24 18 26
REMARK H PARENT 10 19 12 21 4 23 21 25 18 27
REMARK Flexibility Score: inf
ROOT
ATOM      1  C   UNL     1       4.821   3.012 -15.776  1.00  0.00     0.180 A 
ATOM      2  C   UNL     1       4.925   2.337 -17.004  1.00  0.00     0.208 A 
ATOM      3  C   UNL     1       5.739   1.196 -17.086  1.00  0.00     0.238 A 
ATOM      4  O   UNL     1       5.871   0.628 -18.201  1.00  0.00    -0.285 OA
ATOM      5  C   UNL     1       6.425   0.735 -15.937  1.00  0.00     0.111 A 
ATOM      6  C   UNL     1       7.245  -0.433 -15.897  1.00  0.00     0.134 A 
ATOM      7  C   UNL     1       7.979  -0.722 -14.740  1.00  0.00     0.093 A 
ATOM      8  C   UNL     1       7.873   0.080 -13.601  1.00  0.00     0.123 A 
ATOM      9  C   UNL     1       7.030   1.189 -13.611  1.00  0.00     0.094 A 
ATOM     10  C   UNL     1       6.313   1.522 -14.762  1.00  0.00     0.146 A 
ATOM     11  O   UNL     1       5.528   2.594 -14.732  1.00  0.00    -0.452 OA
ENDROOT
BRANCH   1  12
ATOM     12  C   UNL     1       3.964   4.207 -15.603  1.00  0.00     0.025 A 
ATOM     13  C   UNL     1       4.445   5.369 -14.975  1.00  0.00     0.016 A 
ATOM     14  C   UNL     1       3.626   6.493 -14.846  1.00  0.00     0.051 A 
ATOM     15  C   UNL     1       2.319   6.479 -15.351  1.00  0.00     0.157 A 
ATOM     16  C   UNL     1       2.660   4.205 -16.127  1.00  0.00     0.062 A 
ATOM     17  C   UNL     1       1.837   5.329 -15.998  1.00  0.00     0.158 A 
BRANCH  15  18
ATOM     18  O   UNL     1       1.503   7.601 -15.218  1.00  0.00    -0.504 OA
ATOM     19  H   UNL     1       1.871   8.489 -14.896  1.00  0.00     0.293 HD
ENDBRANCH  15  18
BRANCH  17  20
ATOM     20  O   UNL     1       0.544   5.285 -16.520  1.00  0.00    -0.504 OA
ATOM     21  H   UNL     1      -0.139   6.008 -16.327  1.00  0.00     0.293 HD
ENDBRANCH  17  20
ENDBRANCH   1  12
BRANCH   2  22
ATOM     22  O   UNL     1       4.257   2.822 -18.131  1.00  0.00    -0.502 OA
ATOM     23  H   UNL     1       3.609   2.255 -18.666  1.00  0.00     0.293 HD
ENDBRANCH   2  22
BRANCH   6  24
ATOM     24  O   UNL     1       7.349  -1.350 -16.947  1.00  0.00    -0.507 OA
ATOM     25  H   UNL     1       6.611  -1.560 -17.601  1.00  0.00     0.293 HD
ENDBRANCH   6  24
BRANCH   8  26
ATOM     26  O   UNL     1       8.596  -0.222 -12.449  1.00  0.00    -0.508 OA
ATOM     27  H   UNL     1       8.146  -0.607 -11.627  1.00  0.00     0.293 HD
ENDBRANCH   8  26
TORSDOF 6
ENDMDL
MODEL 3
REMARK VINA RESULT:    -6.765      3.081      6.600
REMARK INTER + INTRA:          -8.464
REMARK INTER:                  -8.137
REMARK INTRA:                  -0.328
REMARK UNBOUND:                -0.316
REMARK SMILES O=c1c(O)c(-c2ccc(O)c(O)c2)oc2cc(O)cc(O)c12
REMARK SMILES IDX 5 1 3 2 2 3 1 4 22 5 20 6 19 7 17 8 16 9 15 10 14 11 6 12
REMARK SMILES IDX 7 13 8 14 9 15 13 16 11 17 10 18 12 20 4 22 21 24 18 26
REMARK H PARENT 10 19 12 21 4 23 21 25 18 27
REMARK Flexibility Score: inf
ROOT
ATOM      1  C   UNL     1       1.498   6.036 -15.843  1.00  0.00     0.180 A 
ATOM      2  C   UNL     1       2.240   5.010 -16.452  1.00  0.00     0.208 A 
ATOM      3  C   UNL     1       3.407   4.549 -15.822  1.00  0.00     0.238 A 
ATOM      4  O   UNL     1       4.096   3.668 -16.399  1.00  0.00    -0.285 OA
ATOM      5  C   UNL     1       3.807   5.107 -14.584  1.00  0.00     0.111 A 
ATOM      6  C   UNL     1       4.950   4.687 -13.839  1.00  0.00     0.134 A 
ATOM      7  C   UNL     1       5.325   5.398 -12.692  1.00  0.00     0.093 A 
ATOM      8  C   UNL     1       4.561   6.472 -12.228  1.00  0.00     0.123 A 
ATOM      9  C   UNL     1       3.411   6.851 -12.917  1.00  0.00     0.094 A 
ATOM     10  C   UNL     1       3.032   6.185 -14.084  1.00  0.00     0.146 A 
ATOM     11  O   UNL     1       1.935   6.585 -14.715  1.00  0.00    -0.452 OA
ENDROOT
BRANCH   1  12
ATOM     12  C   UNL     1       0.244   6.559 -16.432  1.00  0.00     0.025 A 
ATOM     13  C   UNL     1      -0.991   5.927 -16.203  1.00  0.00     0.016 A 
ATOM     14  C   UNL     1      -2.165   6.452 -16.750  1.00  0.00     0.051 A 
ATOM     15  C   UNL     1      -2.126   7.620 -17.523  1.00  0.00     0.157 A 
ATOM     16  C   UNL     1       0.275   7.741 -17.190  1.00  0.00     0.062 A 
ATOM     17  C   UNL     1      -0.899   8.269 -17.740  1.00  0.00     0.158 A 
BRANCH  15  18
ATOM     18  O   UNL     1      -3.298   8.140 -18.069  1.00  0.00    -0.504 OA
ATOM     19  H   UNL     1      -3.801   8.897 -17.622  1.00  0.00     0.293 HD
ENDBRANCH  15  18
BRANCH  17  20
ATOM     20  O   UNL     1      -0.825   9.437 -18.498  1.00  0.00    -0.504 OA
ATOM     21  H   UNL     1       0.060   9.872 -18.732  1.00  0.00     0.293 HD
ENDBRANCH  17  20
ENDBRANCH   1  12
BRANCH   2  22
ATOM     22  O   UNL     1       1.838   4.489 -17.684  1.00  0.00    -0.502 OA
ATOM     23  H   UNL     1       1.737   3.494 -17.848  1.00  0.00     0.293 HD
ENDBRANCH   2  22
BRANCH   6  24
ATOM     24  O   UNL     1       5.727   3.572 -14.163  1.00  0.00    -0.507 OA
ATOM     25  H   UNL     1       5.608   2.653 -13.765  1.00  0.00     0.293 HD
ENDBRANCH   6  24
BRANCH   8  26
ATOM     26  O   UNL     1       4.933   7.165 -11.078  1.00  0.00    -0.508 OA
ATOM     27  H   UNL     1       4.255   7.675 -10.524  1.00  0.00     0.293 HD
ENDBRANCH   8  26
TORSDOF 6
ENDMDL
MODEL 4
REMARK VINA RESULT:    -6.681      2.299      4.516
REMARK INTER + INTRA:          -8.364
REMARK INTER:                  -8.084
REMARK INTRA:                  -0.279
REMARK UNBOUND:                -0.316
REMARK SMILES O=c1c(O)c(-c2ccc(O)c(O)c2)oc2cc(O)cc(O)c12
REMARK SMILES IDX 5 1 3 2 2 3 1 4 22 5 20 6 19 7 17 8 16 9 15 10 14 11 6 12
REMARK SMILES IDX 7 13 8 14 9 15 13 16 11 17 10 18 12 20 4 22 21 24 18 26
REMARK H PARENT 10 19 12 21 4 23 21 25 18 27
REMARK Flexibility Score: inf
ROOT
ATOM      1  C   UNL     1       6.007   0.789 -16.561  1.00  0.00     0.180 A 
ATOM      2  C   UNL     1       6.850   0.975 -15.453  1.00  0.00     0.208 A 
ATOM      3  C   UNL     1       6.497   1.923 -14.479  1.00  0.00     0.238 A 
ATOM      4  O   UNL     1       7.283   2.124 -13.518  1.00  0.00    -0.285 OA
ATOM      5  C   UNL     1       5.296   2.661 -14.618  1.00  0.00     0.111 A 
ATOM      6  C   UNL     1       4.820   3.618 -13.671  1.00  0.00     0.134 A 
ATOM      7  C   UNL     1       3.687   4.383 -13.974  1.00  0.00     0.093 A 
ATOM      8  C   UNL     1       2.976   4.179 -15.160  1.00  0.00     0.123 A 
ATOM      9  C   UNL     1       3.400   3.206 -16.062  1.00  0.00     0.094 A 
ATOM     10  C   UNL     1       4.547   2.453 -15.804  1.00  0.00     0.146 A 
ATOM     11  O   UNL     1       4.922   1.543 -16.696  1.00  0.00    -0.452 OA
ENDROOT
BRANCH   1  12
ATOM     12  C   UNL     1       6.299  -0.209 -17.615  1.00  0.00     0.025 A 
ATOM     13  C   UNL     1       6.856   0.172 -18.849  1.00  0.00     0.016 A 
ATOM     14  C   UNL     1       7.146  -0.790 -19.820  1.00  0.00     0.051 A 
ATOM     15  C   UNL     1       6.896  -2.146 -19.570  1.00  0.00     0.157 A 
ATOM     16  C   UNL     1       6.071  -1.571 -17.361  1.00  0.00     0.062 A 
ATOM     17  C   UNL     1       6.359  -2.537 -18.332  1.00  0.00     0.158 A 
BRANCH  15  18
ATOM     18  O   UNL     1       7.185  -3.103 -20.541  1.00  0.00    -0.504 OA
ATOM     19  H   UNL     1       7.213  -2.866 -21.526  1.00  0.00     0.293 HD
ENDBRANCH  15  18
BRANCH  17  20
ATOM     20  O   UNL     1       6.107  -3.879 -18.048  1.00  0.00    -0.504 OA
ATOM     21  H   UNL     1       5.866  -4.546 -18.772  1.00  0.00     0.293 HD
ENDBRANCH  17  20
ENDBRANCH   1  12
BRANCH   2  22
ATOM     22  O   UNL     1       8.041   0.252 -15.347  1.00  0.00    -0.502 OA
ATOM     23  H   UNL     1       8.692   0.158 -16.118  1.00  0.00     0.293 HD
ENDBRANCH   2  22
BRANCH   6  24
ATOM     24  O   UNL     1       5.402   3.834 -12.419  1.00  0.00    -0.507 OA
ATOM     25  H   UNL     1       5.424   4.722 -11.942  1.00  0.00     0.293 HD
ENDBRANCH   6  24
BRANCH   8  26
ATOM     26  O   UNL     1       1.841   4.934 -15.447  1.00  0.00    -0.508 OA
ATOM     27  H   UNL     1       1.795   5.534 -16.262  1.00  0.00     0.293 HD
ENDBRANCH   8  26
TORSDOF 6
ENDMDL
MODEL 5
REMARK VINA RESULT:    -6.671      1.471      3.007
REMARK INTER + INTRA:          -8.351
REMARK INTER:                  -8.181
REMARK INTRA:                  -0.171
REMARK UNBOUND:                -0.316
REMARK SMILES O=c1c(O)c(-c2ccc(O)c(O)c2)oc2cc(O)cc(O)c12
REMARK SMILES IDX 5 1 3 2 2 3 1 4 22 5 20 6 19 7 17 8 16 9 15 10 14 11 6 12
REMARK SMILES IDX 7 13 8 14 9 15 13 16 11 17 10 18 12 20 4 22 21 24 18 26
REMARK H PARENT 10 19 12 21 4 23 21 25 18 27
REMARK Flexibility Score: inf
ROOT
ATOM      1  C   UNL     1       4.984   3.275 -14.743  1.00  0.00     0.180 A 
ATOM      2  C   UNL     1       4.954   3.474 -13.353  1.00  0.00     0.208 A 
ATOM      3  C   UNL     1       4.332   4.626 -12.844  1.00  0.00     0.238 A 
ATOM      4  O   UNL     1       4.356   4.826 -11.602  1.00  0.00    -0.285 OA
ATOM      5  C   UNL     1       3.734   5.554 -13.730  1.00  0.00     0.111 A 
ATOM      6  C   UNL     1       3.042   6.734 -13.322  1.00  0.00     0.134 A 
ATOM      7  C   UNL     1       2.604   7.647 -14.289  1.00  0.00     0.093 A 
ATOM      8  C   UNL     1       2.775   7.390 -15.652  1.00  0.00     0.123 A 
ATOM      9  C   UNL     1       3.397   6.213 -16.061  1.00  0.00     0.094 A 
ATOM     10  C   UNL     1       3.877   5.301 -15.119  1.00  0.00     0.146 A 
ATOM     11  O   UNL     1       4.472   4.195 -15.552  1.00  0.00    -0.452 OA
ENDROOT
BRANCH   1  12
ATOM     12  C   UNL     1       5.598   2.073 -15.354  1.00  0.00     0.025 A 
ATOM     13  C   UNL     1       4.826   1.137 -16.064  1.00  0.00     0.016 A 
ATOM     14  C   UNL     1       5.432   0.024 -16.652  1.00  0.00     0.051 A 
ATOM     15  C   UNL     1       6.817  -0.165 -16.551  1.00  0.00     0.157 A 
ATOM     16  C   UNL     1       6.989   1.891 -15.273  1.00  0.00     0.062 A 
ATOM     17  C   UNL     1       7.598   0.776 -15.861  1.00  0.00     0.158 A 
BRANCH  15  18
ATOM     18  O   UNL     1       7.418  -1.278 -17.137  1.00  0.00    -0.504 OA
ATOM     19  H   UNL     1       8.350  -1.232 -17.530  1.00  0.00     0.293 HD
ENDBRANCH  15  18
BRANCH  17  20
ATOM     20  O   UNL     1       8.980   0.623 -15.748  1.00  0.00    -0.504 OA
ATOM     21  H   UNL     1       9.561   1.306 -15.276  1.00  0.00     0.293 HD
ENDBRANCH  17  20
ENDBRANCH   1  12
BRANCH   2  22
ATOM     22  O   UNL     1       5.569   2.557 -12.497  1.00  0.00    -0.502 OA
ATOM     23  H   UNL     1       6.382   2.017 -12.771  1.00  0.00     0.293 HD
ENDBRANCH   2  22
BRANCH   6  24
ATOM     24  O   UNL     1       2.738   7.040 -11.992  1.00  0.00    -0.507 OA
ATOM     25  H   UNL     1       2.907   6.428 -11.209  1.00  0.00     0.293 HD
ENDBRANCH   6  24
BRANCH   8  26
ATOM     26  O   UNL     1       2.323   8.297 -16.608  1.00  0.00    -0.508 OA
ATOM     27  H   UNL     1       2.951   8.705 -17.290  1.00  0.00     0.293 HD
ENDBRANCH   8  26
TORSDOF 6
ENDMDL
MODEL 6
REMARK VINA RESULT:    -6.564      3.428      7.352
REMARK INTER + INTRA:          -8.223
REMARK INTER:                  -7.899
REMARK INTRA:                  -0.324
REMARK UNBOUND:                -0.316
REMARK SMILES O=c1c(O)c(-c2ccc(O)c(O)c2)oc2cc(O)cc(O)c12
REMARK SMILES IDX 5 1 3 2 2 3 1 4 22 5 20 6 19 7 17 8 16 9 15 10 14 11 6 12
REMARK SMILES IDX 7 13 8 14 9 15 13 16 11 17 10 18 12 20 4 22 21 24 18 26
REMARK H PARENT 10 19 12 21 4 23 21 25 18 27
REMARK Flexibility Score: inf
ROOT
ATOM      1  C   UNL     1       1.230   6.258 -15.924  1.00  0.00     0.180 A 
ATOM      2  C   UNL     1       1.870   6.982 -14.904  1.00  0.00     0.208 A 
ATOM      3  C   UNL     1       2.999   6.427 -14.280  1.00  0.00     0.238 A 
ATOM      4  O   UNL     1       3.534   7.056 -13.330  1.00  0.00    -0.285 OA
ATOM      5  C   UNL     1       3.482   5.163 -14.695  1.00  0.00     0.111 A 
ATOM      6  C   UNL     1       4.641   4.524 -14.160  1.00  0.00     0.134 A 
ATOM      7  C   UNL     1       4.952   3.216 -14.553  1.00  0.00     0.093 A 
ATOM      8  C   UNL     1       4.183   2.550 -15.511  1.00  0.00     0.123 A 
ATOM      9  C   UNL     1       3.085   3.189 -16.082  1.00  0.00     0.094 A 
ATOM     10  C   UNL     1       2.729   4.479 -15.683  1.00  0.00     0.146 A 
ATOM     11  O   UNL     1       1.668   5.047 -16.246  1.00  0.00    -0.452 OA
ENDROOT
BRANCH   1  12
ATOM     12  C   UNL     1       0.051   6.788 -16.646  1.00  0.00     0.025 A 
ATOM     13  C   UNL     1       0.192   7.672 -17.730  1.00  0.00     0.016 A 
ATOM     14  C   UNL     1      -0.934   8.140 -18.411  1.00  0.00     0.051 A 
ATOM     15  C   UNL     1      -2.217   7.724 -18.029  1.00  0.00     0.157 A 
ATOM     16  C   UNL     1      -1.235   6.357 -16.280  1.00  0.00     0.062 A 
ATOM     17  C   UNL     1      -2.366   6.825 -16.960  1.00  0.00     0.158 A 
BRANCH  15  18
ATOM     18  O   UNL     1      -3.339   8.194 -18.709  1.00  0.00    -0.504 OA
ATOM     19  H   UNL     1      -3.259   8.878 -19.453  1.00  0.00     0.293 HD
ENDBRANCH  15  18
BRANCH  17  20
ATOM     20  O   UNL     1      -3.627   6.384 -16.560  1.00  0.00    -0.504 OA
ATOM     21  H   UNL     1      -4.367   7.028 -16.305  1.00  0.00     0.293 HD
ENDBRANCH  17  20
ENDBRANCH   1  12
BRANCH   2  22
ATOM     22  O   UNL     1       1.363   8.218 -14.495  1.00  0.00    -0.502 OA
ATOM     23  H   UNL     1       0.440   8.321 -14.088  1.00  0.00     0.293 HD
ENDBRANCH   2  22
BRANCH   6  24
ATOM     24  O   UNL     1       5.528   5.134 -13.268  1.00  0.00    -0.507 OA
ATOM     25  H   UNL     1       5.854   4.720 -12.408  1.00  0.00     0.293 HD
ENDBRANCH   6  24
BRANCH   8  26
ATOM     26  O   UNL     1       4.508   1.255 -15.908  1.00  0.00    -0.508 OA
ATOM     27  H   UNL     1       3.985   0.775 -16.631  1.00  0.00     0.293 HD
ENDBRANCH   8  26
TORSDOF 6
ENDMDL
MODEL 7
REMARK VINA RESULT:    -6.550      2.032      7.483
REMARK INTER + INTRA:          -8.206
REMARK INTER:                  -7.913
REMARK INTRA:                  -0.293
REMARK UNBOUND:                -0.316
REMARK SMILES O=c1c(O)c(-c2ccc(O)c(O)c2)oc2cc(O)cc(O)c12
REMARK SMILES IDX 5 1 3 2 2 3 1 4 22 5 20 6 19 7 17 8 16 9 15 10 14 11 6 12
REMARK SMILES IDX 7 13 8 14 9 15 13 16 11 17 10 18 12 20 4 22 21 24 18 26
REMARK H PARENT 10 19 12 21 4 23 21 25 18 27
REMARK Flexibility Score: inf
ROOT
ATOM      1  C   UNL     1       5.854   1.995 -16.175  1.00  0.00     0.180 A 
ATOM      2  C   UNL     1       6.751   2.519 -17.121  1.00  0.00     0.208 A 
ATOM      3  C   UNL     1       7.328   1.653 -18.064  1.00  0.00     0.238 A 
ATOM      4  O   UNL     1       8.171   2.118 -18.874  1.00  0.00    -0.285 OA
ATOM      5  C   UNL     1       6.989   0.279 -18.058  1.00  0.00     0.111 A 
ATOM      6  C   UNL     1       7.483  -0.681 -18.993  1.00  0.00     0.134 A 
ATOM      7  C   UNL     1       7.183  -2.037 -18.813  1.00  0.00     0.093 A 
ATOM      8  C   UNL     1       6.354  -2.459 -17.771  1.00  0.00     0.123 A 
ATOM      9  C   UNL     1       5.819  -1.522 -16.889  1.00  0.00     0.094 A 
ATOM     10  C   UNL     1       6.130  -0.168 -17.022  1.00  0.00     0.146 A 
ATOM     11  O   UNL     1       5.607   0.691 -16.154  1.00  0.00    -0.452 OA
ENDROOT
BRANCH   1  12
ATOM     12  C   UNL     1       5.186   2.849 -15.166  1.00  0.00     0.025 A 
ATOM     13  C   UNL     1       5.673   2.944 -13.850  1.00  0.00     0.016 A 
ATOM     14  C   UNL     1       5.041   3.775 -12.922  1.00  0.00     0.051 A 
ATOM     15  C   UNL     1       3.922   4.531 -13.295  1.00  0.00     0.157 A 
ATOM     16  C   UNL     1       4.077   3.625 -15.541  1.00  0.00     0.062 A 
ATOM     17  C   UNL     1       3.441   4.457 -14.612  1.00  0.00     0.158 A 
BRANCH  15  18
ATOM     18  O   UNL     1       3.292   5.357 -12.365  1.00  0.00    -0.504 OA
ATOM     19  H   UNL     1       3.811   6.036 -11.822  1.00  0.00     0.293 HD
ENDBRANCH  15  18
BRANCH  17  20
ATOM     20  O   UNL     1       2.335   5.203 -15.019  1.00  0.00    -0.504 OA
ATOM     21  H   UNL     1       1.569   4.790 -15.540  1.00  0.00     0.293 HD
ENDBRANCH  17  20
ENDBRANCH   1  12
BRANCH   2  22
ATOM     22  O   UNL     1       7.088   3.875 -17.095  1.00  0.00    -0.502 OA
ATOM     23  H   UNL     1       6.429   4.605 -17.338  1.00  0.00     0.293 HD
ENDBRANCH   2  22
BRANCH   6  24
ATOM     24  O   UNL     1       8.242  -0.355 -20.120  1.00  0.00    -0.507 OA
ATOM     25  H   UNL     1       9.238  -0.495 -20.202  1.00  0.00     0.293 HD
ENDBRANCH   6  24
BRANCH   8  26
ATOM     26  O   UNL     1       6.048  -3.809 -17.608  1.00  0.00    -0.508 OA
ATOM     27  H   UNL     1       6.536  -4.385 -16.932  1.00  0.00     0.293 HD
ENDBRANCH   8  26
TORSDOF 6
ENDMDL
MODEL 8
REMARK VINA RESULT:    -6.521      1.632      2.394
REMARK INTER + INTRA:          -8.170
REMARK INTER:                  -7.843
REMARK INTRA:                  -0.327
REMARK UNBOUND:                -0.316
REMARK SMILES O=c1c(O)c(-c2ccc(O)c(O)c2)oc2cc(O)cc(O)c12
REMARK SMILES IDX 5 1 3 2 2 3 1 4 22 5 20 6 19 7 17 8 16 9 15 10 14 11 6 12
REMARK SMILES IDX 7 13 8 14 9 15 13 16 11 17 10 18 12 20 4 22 21 24 18 26
REMARK H PARENT 10 19 12 21 4 23 21 25 18 27
REMARK Flexibility Score: inf
ROOT
ATOM      1  C   UNL     1       5.501   2.095 -16.056  1.00  0.00     0.180 A 
ATOM      2  C   UNL     1       4.687   2.908 -16.862  1.00  0.00     0.208 A 
ATOM      3  C   UNL     1       4.071   4.033 -16.291  1.00  0.00     0.238 A 
ATOM      4  O   UNL     1       3.300   4.727 -17.004  1.00  0.00    -0.285 OA
ATOM      5  C   UNL     1       4.290   4.339 -14.926  1.00  0.00     0.111 A 
ATOM      6  C   UNL     1       3.748   5.477 -14.254  1.00  0.00     0.134 A 
ATOM      7  C   UNL     1       3.924   5.609 -12.871  1.00  0.00     0.093 A 
ATOM      8  C   UNL     1       4.677   4.680 -12.148  1.00  0.00     0.123 A 
ATOM      9  C   UNL     1       5.259   3.599 -12.806  1.00  0.00     0.094 A 
ATOM     10  C   UNL     1       5.071   3.421 -14.178  1.00  0.00     0.146 A 
ATOM     11  O   UNL     1       5.634   2.371 -14.764  1.00  0.00    -0.452 OA
ENDROOT
BRANCH   1  12
ATOM     12  C   UNL     1       6.204   0.906 -16.592  1.00  0.00     0.025 A 
ATOM     13  C   UNL     1       7.520   0.993 -17.080  1.00  0.00     0.016 A 
ATOM     14  C   UNL     1       8.171  -0.147 -17.558  1.00  0.00     0.051 A 
ATOM     15  C   UNL     1       7.525  -1.391 -17.546  1.00  0.00     0.157 A 
ATOM     16  C   UNL     1       5.568  -0.346 -16.562  1.00  0.00     0.062 A 
ATOM     17  C   UNL     1       6.218  -1.489 -17.041  1.00  0.00     0.158 A 
BRANCH  15  18
ATOM     18  O   UNL     1       8.177  -2.525 -18.026  1.00  0.00    -0.504 OA
ATOM     19  H   UNL     1       9.188  -2.585 -18.048  1.00  0.00     0.293 HD
ENDBRANCH  15  18
BRANCH  17  20
ATOM     20  O   UNL     1       5.549  -2.712 -17.007  1.00  0.00    -0.504 OA
ATOM     21  H   UNL     1       5.809  -3.450 -16.362  1.00  0.00     0.293 HD
ENDBRANCH  17  20
ENDBRANCH   1  12
BRANCH   2  22
ATOM     22  O   UNL     1       4.466   2.576 -18.201  1.00  0.00    -0.502 OA
ATOM     23  H   UNL     1       3.549   2.335 -18.559  1.00  0.00     0.293 HD
ENDBRANCH   2  22
BRANCH   6  24
ATOM     24  O   UNL     1       3.060   6.509 -14.897  1.00  0.00    -0.507 OA
ATOM     25  H   UNL     1       3.498   7.254 -15.418  1.00  0.00     0.293 HD
ENDBRANCH   6  24
BRANCH   8  26
ATOM     26  O   UNL     1       4.860   4.828 -10.775  1.00  0.00    -0.508 OA
ATOM     27  H   UNL     1       5.543   5.474 -10.397  1.00  0.00     0.293 HD
ENDBRANCH   8  26
TORSDOF 6
ENDMDL
MODEL 9
REMARK VINA RESULT:    -6.465      1.705      6.782
REMARK INTER + INTRA:          -8.104
REMARK INTER:                  -7.778
REMARK INTRA:                  -0.326
REMARK UNBOUND:                -0.316
REMARK SMILES O=c1c(O)c(-c2ccc(O)c(O)c2)oc2cc(O)cc(O)c12
REMARK SMILES IDX 5 1 3 2 2 3 1 4 22 5 20 6 19 7 17 8 16 9 15 10 14 11 6 12
REMARK SMILES IDX 7 13 8 14 9 15 13 16 11 17 10 18 12 20 4 22 21 24 18 26
REMARK H PARENT 10 19 12 21 4 23 21 25 18 27
REMARK Flexibility Score: inf
ROOT
ATOM      1  C   UNL     1       4.747   4.078 -15.800  1.00  0.00     0.180 A 
ATOM      2  C   UNL     1       4.222   2.787 -15.979  1.00  0.00     0.208 A 
ATOM      3  C   UNL     1       5.095   1.736 -16.302  1.00  0.00     0.238 A 
ATOM      4  O   UNL     1       4.612   0.593 -16.514  1.00  0.00    -0.285 OA
ATOM      5  C   UNL     1       6.483   1.986 -16.425  1.00  0.00     0.111 A 
ATOM      6  C   UNL     1       7.464   0.987 -16.709  1.00  0.00     0.134 A 
ATOM      7  C   UNL     1       8.791   1.370 -16.938  1.00  0.00     0.093 A 
ATOM      8  C   UNL     1       9.185   2.706 -16.828  1.00  0.00     0.123 A 
ATOM      9  C   UNL     1       8.246   3.679 -16.493  1.00  0.00     0.094 A 
ATOM     10  C   UNL     1       6.908   3.333 -16.295  1.00  0.00     0.146 A 
ATOM     11  O   UNL     1       6.044   4.293 -15.987  1.00  0.00    -0.452 OA
ENDROOT
BRANCH   1  12
ATOM     12  C   UNL     1       3.894   5.232 -15.434  1.00  0.00     0.025 A 
ATOM     13  C   UNL     1       3.703   5.604 -14.092  1.00  0.00     0.016 A 
ATOM     14  C   UNL     1       2.913   6.711 -13.772  1.00  0.00     0.051 A 
ATOM     15  C   UNL     1       2.312   7.470 -14.786  1.00  0.00     0.157 A 
ATOM     16  C   UNL     1       3.307   6.007 -16.448  1.00  0.00     0.062 A 
ATOM     17  C   UNL     1       2.515   7.117 -16.131  1.00  0.00     0.158 A 
BRANCH  15  18
ATOM     18  O   UNL     1       1.523   8.573 -14.464  1.00  0.00    -0.504 OA
ATOM     19  H   UNL     1       1.242   9.247 -15.166  1.00  0.00     0.293 HD
ENDBRANCH  15  18
BRANCH  17  20
ATOM     20  O   UNL     1       1.938   7.855 -17.164  1.00  0.00    -0.504 OA
ATOM     21  H   UNL     1       0.999   8.230 -17.099  1.00  0.00     0.293 HD
ENDBRANCH  17  20
ENDBRANCH   1  12
BRANCH   2  22
ATOM     22  O   UNL     1       2.846   2.567 -15.875  1.00  0.00    -0.502 OA
ATOM     23  H   UNL     1       2.344   1.948 -16.501  1.00  0.00     0.293 HD
ENDBRANCH   2  22
BRANCH   6  24
ATOM     24  O   UNL     1       7.193  -0.383 -16.750  1.00  0.00    -0.507 OA
ATOM     25  H   UNL     1       7.747  -1.063 -17.248  1.00  0.00     0.293 HD
ENDBRANCH   6  24
BRANCH   8  26
ATOM     26  O   UNL     1      10.511   3.076 -17.043  1.00  0.00    -0.508 OA
ATOM     27  H   UNL     1      11.210   2.988 -16.314  1.00  0.00     0.293 HD
ENDBRANCH   8  26
TORSDOF 6
ENDMDL
