MODEL 1
REMARK VINA RESULT:    -3.320      0.000      0.000
REMARK INTER + INTRA:          -3.941
REMARK INTER:                  -3.902
REMARK INTRA:                  -0.039
REMARK UNBOUND:                -0.039
REMARK SMILES O=C([O-])CCC(=O)[O-]
REMARK SMILES IDX 4 1 2 2 1 3 3 4 5 5 6 6 7 7 8 8
REMARK H PARENT
REMARK Flexibility Score: inf
ROOT
ATOM      1  C   UNL     1       6.428  12.331  23.038  1.00  0.00     0.059 C 
ENDROOT
BRANCH   1   2
ATOM      2  C   UNL     1       5.807  11.033  22.633  1.00  0.00     0.042 C 
ATOM      3  O   UNL     1       4.556  10.934  22.527  1.00  0.00    -0.550 OA
ATOM      4  O   UNL     1       6.605   9.916  22.421  1.00  0.00    -0.550 OA
ENDBRANCH   1   2
BRANCH   1   5
ATOM      5  C   UNL     1       7.744  12.552  22.290  1.00  0.00     0.059 C 
BRANCH   5   6
ATOM      6  C   UNL     1       8.084  14.007  22.245  1.00  0.00     0.042 C 
ATOM      7  O   UNL     1       7.171  14.869  22.139  1.00  0.00    -0.550 OA
ATOM      8  O   UNL     1       9.413  14.413  22.268  1.00  0.00    -0.550 OA
ENDBRANCH   5   6
ENDBRANCH   1   5
TORSDOF 3
ENDMDL
MODEL 2
REMARK VINA RESULT:    -3.315      0.106      4.095
REMARK INTER + INTRA:          -3.935
REMARK INTER:                  -3.895
REMARK INTRA:                  -0.040
REMARK UNBOUND:                -0.039
REMARK SMILES O=C([O-])CCC(=O)[O-]
REMARK SMILES IDX 4 1 2 2 1 3 3 4 5 5 6 6 7 7 8 8
REMARK H PARENT
REMARK Flexibility Score: inf
ROOT
ATOM      1  C   UNL     1       7.836  12.557  22.290  1.00  0.00     0.059 C 
ENDROOT
BRANCH   1   2
ATOM      2  C   UNL     1       8.177  14.010  22.189  1.00  0.00     0.042 C 
ATOM      3  O   UNL     1       7.263  14.872  22.115  1.00  0.00    -0.550 OA
ATOM      4  O   UNL     1       9.506  14.409  22.126  1.00  0.00    -0.550 OA
ENDBRANCH   1   2
BRANCH   1   5
ATOM      5  C   UNL     1       6.498  12.369  23.007  1.00  0.00     0.059 C 
BRANCH   5   6
ATOM      6  C   UNL     1       5.882  11.059  22.631  1.00  0.00     0.042 C 
ATOM      7  O   UNL     1       4.629  10.940  22.580  1.00  0.00    -0.550 OA
ATOM      8  O   UNL     1       6.689   9.955  22.387  1.00  0.00    -0.550 OA
ENDBRANCH   5   6
ENDBRANCH   1   5
TORSDOF 3
ENDMDL
MODEL 3
REMARK VINA RESULT:    -3.259      0.155      1.621
REMARK INTER + INTRA:          -3.869
REMARK INTER:                  -3.837
REMARK INTRA:                  -0.032
REMARK UNBOUND:                -0.039
REMARK SMILES O=C([O-])CCC(=O)[O-]
REMARK SMILES IDX 4 1 2 2 1 3 3 4 5 5 6 6 7 7 8 8
REMARK H PARENT
REMARK Flexibility Score: inf
ROOT
ATOM      1  C   UNL     1       6.568  12.299  23.015  1.00  0.00     0.059 C 
ENDROOT
BRANCH   1   2
ATOM      2  C   UNL     1       5.920  10.994  22.678  1.00  0.00     0.042 C 
ATOM      3  O   UNL     1       6.623   9.970  22.474  1.00  0.00    -0.550 OA
ATOM      4  O   UNL     1       4.539  10.918  22.538  1.00  0.00    -0.550 OA
ENDBRANCH   1   2
BRANCH   1   5
ATOM      5  C   UNL     1       7.748  12.568  22.080  1.00  0.00     0.059 C 
BRANCH   5   6
ATOM      6  C   UNL     1       8.194  13.991  22.196  1.00  0.00     0.042 C 
ATOM      7  O   UNL     1       9.400  14.259  22.441  1.00  0.00    -0.550 OA
ATOM      8  O   UNL     1       7.269  15.021  22.083  1.00  0.00    -0.550 OA
ENDBRANCH   5   6
ENDBRANCH   1   5
TORSDOF 3
ENDMDL
MODEL 4
REMARK VINA RESULT:    -3.197      7.602      8.979
REMARK INTER + INTRA:          -3.796
REMARK INTER:                  -3.693
REMARK INTRA:                  -0.103
REMARK UNBOUND:                -0.039
REMARK SMILES O=C([O-])CCC(=O)[O-]
REMARK SMILES IDX 4 1 2 2 1 3 3 4 5 5 6 6 7 7 8 8
REMARK H PARENT
REMARK Flexibility Score: inf
ROOT
ATOM      1  C   UNL     1      13.333  17.206  24.845  1.00  0.00     0.059 C 
ENDROOT
BRANCH   1   2
ATOM      2  C   UNL     1      14.193  17.893  23.833  1.00  0.00     0.042 C 
ATOM      3  O   UNL     1      14.988  18.802  24.189  1.00  0.00    -0.550 OA
ATOM      4  O   UNL     1      14.082  17.564  22.488  1.00  0.00    -0.550 OA
ENDBRANCH   1   2
BRANCH   1   5
ATOM      5  C   UNL     1      12.489  18.226  25.612  1.00  0.00     0.059 C 
BRANCH   5   6
ATOM      6  C   UNL     1      11.286  18.617  24.814  1.00  0.00     0.042 C 
ATOM      7  O   UNL     1      10.660  19.675  25.089  1.00  0.00    -0.550 OA
ATOM      8  O   UNL     1      10.825  17.788  23.799  1.00  0.00    -0.550 OA
ENDBRANCH   5   6
ENDBRANCH   1   5
TORSDOF 3
ENDMDL
MODEL 5
REMARK VINA RESULT:    -3.136      8.077      8.810
REMARK INTER + INTRA:          -3.725
REMARK INTER:                  -3.572
REMARK INTRA:                  -0.153
REMARK UNBOUND:                -0.039
REMARK SMILES O=C([O-])CCC(=O)[O-]
REMARK SMILES IDX 4 1 2 2 1 3 3 4 5 5 6 6 7 7 8 8
REMARK H PARENT
REMARK Flexibility Score: inf
ROOT
ATOM      1  C   UNL     1      11.774  17.373  24.739  1.00  0.00     0.059 C 
ENDROOT
BRANCH   1   2
ATOM      2  C   UNL     1      11.567  18.668  25.458  1.00  0.00     0.042 C 
ATOM      3  O   UNL     1      10.957  19.615  24.895  1.00  0.00    -0.550 OA
ATOM      4  O   UNL     1      12.092  18.849  26.731  1.00  0.00    -0.550 OA
ENDBRANCH   1   2
BRANCH   1   5
ATOM      5  C   UNL     1      13.243  16.953  24.803  1.00  0.00     0.059 C 
BRANCH   5   6
ATOM      6  C   UNL     1      14.052  17.723  23.809  1.00  0.00     0.042 C 
ATOM      7  O   UNL     1      14.038  17.399  22.592  1.00  0.00    -0.550 OA
ATOM      8  O   UNL     1      14.863  18.769  24.233  1.00  0.00    -0.550 OA
ENDBRANCH   5   6
ENDBRANCH   1   5
TORSDOF 3
ENDMDL
MODEL 6
REMARK VINA RESULT:    -3.117      8.155      9.130
REMARK INTER + INTRA:          -3.702
REMARK INTER:                  -3.538
REMARK INTRA:                  -0.164
REMARK UNBOUND:                -0.039
REMARK SMILES O=C([O-])CCC(=O)[O-]
REMARK SMILES IDX 4 1 2 2 1 3 3 4 5 5 6 6 7 7 8 8
REMARK H PARENT
REMARK Flexibility Score: inf
ROOT
ATOM      1  C   UNL     1      13.536  16.869  24.507  1.00  0.00     0.059 C 
ENDROOT
BRANCH   1   2
ATOM      2  C   UNL     1      14.164  17.895  23.619  1.00  0.00     0.042 C 
ATOM      3  O   UNL     1      13.947  17.879  22.379  1.00  0.00    -0.550 OA
ATOM      4  O   UNL     1      15.031  18.840  24.153  1.00  0.00    -0.550 OA
ENDBRANCH   1   2
BRANCH   1   5
ATOM      5  C   UNL     1      12.046  17.161  24.694  1.00  0.00     0.059 C 
BRANCH   5   6
ATOM      6  C   UNL     1      11.852  18.389  25.524  1.00  0.00     0.042 C 
ATOM      7  O   UNL     1      12.325  18.446  26.691  1.00  0.00    -0.550 OA
ATOM      8  O   UNL     1      11.107  19.452  25.031  1.00  0.00    -0.550 OA
ENDBRANCH   5   6
ENDBRANCH   1   5
TORSDOF 3
ENDMDL
MODEL 7
REMARK VINA RESULT:    -3.114     20.084     21.003
REMARK INTER + INTRA:          -3.699
REMARK INTER:                  -3.594
REMARK INTRA:                  -0.105
REMARK UNBOUND:                -0.039
REMARK SMILES O=C([O-])CCC(=O)[O-]
REMARK SMILES IDX 4 1 2 2 1 3 3 4 5 5 6 6 7 7 8 8
REMARK H PARENT
REMARK Flexibility Score: inf
ROOT
ATOM      1  C   UNL     1      19.245  29.532  16.848  1.00  0.00     0.059 C 
ENDROOT
BRANCH   1   2
ATOM      2  C   UNL     1      18.404  28.414  16.320  1.00  0.00     0.042 C 
ATOM      3  O   UNL     1      18.693  27.865  15.224  1.00  0.00    -0.550 OA
ATOM      4  O   UNL     1      17.270  28.009  17.013  1.00  0.00    -0.550 OA
ENDBRANCH   1   2
BRANCH   1   5
ATOM      5  C   UNL     1      19.248  29.525  18.377  1.00  0.00     0.059 C 
BRANCH   5   6
ATOM      6  C   UNL     1      20.332  28.634  18.895  1.00  0.00     0.042 C 
ATOM      7  O   UNL     1      20.097  27.417  19.125  1.00  0.00    -0.550 OA
ATOM      8  O   UNL     1      21.588  29.156  19.173  1.00  0.00    -0.550 OA
ENDBRANCH   5   6
ENDBRANCH   1   5
TORSDOF 3
ENDMDL
MODEL 8
REMARK VINA RESULT:    -3.109      6.658      9.132
REMARK INTER + INTRA:          -3.693
REMARK INTER:                  -3.576
REMARK INTRA:                  -0.117
REMARK UNBOUND:                -0.039
REMARK SMILES O=C([O-])CCC(=O)[O-]
REMARK SMILES IDX 4 1 2 2 1 3 3 4 5 5 6 6 7 7 8 8
REMARK H PARENT
REMARK Flexibility Score: inf
ROOT
ATOM      1  C   UNL     1      14.047  17.315  24.139  1.00  0.00     0.059 C 
ENDROOT
BRANCH   1   2
ATOM      2  C   UNL     1      14.405  18.731  23.819  1.00  0.00     0.042 C 
ATOM      3  O   UNL     1      13.565  19.490  23.269  1.00  0.00    -0.550 OA
ATOM      4  O   UNL     1      15.686  19.201  24.082  1.00  0.00    -0.550 OA
ENDBRANCH   1   2
BRANCH   1   5
ATOM      5  C   UNL     1      12.988  17.267  25.242  1.00  0.00     0.059 C 
BRANCH   5   6
ATOM      6  C   UNL     1      11.673  16.822  24.687  1.00  0.00     0.042 C 
ATOM      7  O   UNL     1      10.923  17.645  24.098  1.00  0.00    -0.550 OA
ATOM      8  O   UNL     1      11.250  15.511  24.865  1.00  0.00    -0.550 OA
ENDBRANCH   5   6
ENDBRANCH   1   5
TORSDOF 3
ENDMDL
MODEL 9
REMARK VINA RESULT:    -3.086     20.383     21.199
REMARK INTER + INTRA:          -3.666
REMARK INTER:                  -3.552
REMARK INTRA:                  -0.114
REMARK UNBOUND:                -0.039
REMARK SMILES O=C([O-])CCC(=O)[O-]
REMARK SMILES IDX 4 1 2 2 1 3 3 4 5 5 6 6 7 7 8 8
REMARK H PARENT
REMARK Flexibility Score: inf
ROOT
ATOM      1  C   UNL     1      19.259  29.627  18.477  1.00  0.00     0.059 C 
ENDROOT
BRANCH   1   2
ATOM      2  C   UNL     1      20.336  28.687  18.916  1.00  0.00     0.042 C 
ATOM      3  O   UNL     1      21.511  29.105  19.090  1.00  0.00    -0.550 OA
ATOM      4  O   UNL     1      20.055  27.337  19.086  1.00  0.00    -0.550 OA
ENDBRANCH   1   2
BRANCH   1   5
ATOM      5  C   UNL     1      19.229  29.732  16.952  1.00  0.00     0.059 C 
BRANCH   5   6
ATOM      6  C   UNL     1      18.401  28.634  16.366  1.00  0.00     0.042 C 
ATOM      7  O   UNL     1      18.931  27.772  15.615  1.00  0.00    -0.550 OA
ATOM      8  O   UNL     1      17.034  28.589  16.607  1.00  0.00    -0.550 OA
ENDBRANCH   5   6
ENDBRANCH   1   5
TORSDOF 3
ENDMDL
