MODEL 1
REMARK VINA RESULT:    -5.892      0.000      0.000
REMARK INTER + INTRA:          -6.393
REMARK INTER:                  -6.236
REMARK INTRA:                  -0.157
REMARK UNBOUND:                -0.157
REMARK SMILES C=C(C)[C@H]1CC=C(C)CC1
REMARK SMILES IDX 8 1 7 2 6 3 5 4 4 5 10 6 9 7 2 8 1 9 3 10
REMARK H PARENT
REMARK Flexibility Score: inf
ROOT
ATOM      1  C   UNL     1      20.451  29.000  28.624  1.00  0.00     0.039 C 
ATOM      2  C   UNL     1      19.373  29.441  27.674  1.00  0.00    -0.077 C 
ATOM      3  C   UNL     1      19.322  30.715  27.254  1.00  0.00    -0.027 C 
ATOM      4  C   UNL     1      18.266  31.124  26.264  1.00  0.00     0.035 C 
ATOM      5  C   UNL     1      18.180  30.089  25.116  1.00  0.00     0.018 C 
ATOM      6  C   UNL     1      18.220  28.605  25.610  1.00  0.00     0.013 C 
ATOM      7  C   UNL     1      18.355  28.461  27.137  1.00  0.00     0.031 C 
ENDROOT
BRANCH   5   8
ATOM      8  C   UNL     1      16.969  30.362  24.233  1.00  0.00    -0.077 C 
ATOM      9  C   UNL     1      15.978  29.461  24.126  1.00  0.00     0.008 C 
ATOM     10  C   UNL     1      16.863  31.653  23.463  1.00  0.00     0.039 C 
ENDBRANCH   5   8
TORSDOF 1
ENDMDL
MODEL 2
REMARK VINA RESULT:    -5.734      1.245      4.791
REMARK INTER + INTRA:          -6.227
REMARK INTER:                  -6.067
REMARK INTRA:                  -0.160
REMARK UNBOUND:                -0.157
REMARK SMILES C=C(C)[C@H]1CC=C(C)CC1
REMARK SMILES IDX 8 1 7 2 6 3 5 4 4 5 10 6 9 7 2 8 1 9 3 10
REMARK H PARENT
REMARK Flexibility Score: inf
ROOT
ATOM      1  C   UNL     1      15.061  31.043  22.064  1.00  0.00     0.039 C 
ATOM      2  C   UNL     1      15.851  30.685  23.291  1.00  0.00    -0.077 C 
ATOM      3  C   UNL     1      15.678  29.493  23.883  1.00  0.00    -0.027 C 
ATOM      4  C   UNL     1      16.514  29.134  25.080  1.00  0.00     0.035 C 
ATOM      5  C   UNL     1      17.999  29.485  24.819  1.00  0.00     0.018 C 
ATOM      6  C   UNL     1      18.200  30.884  24.148  1.00  0.00     0.013 C 
ATOM      7  C   UNL     1      16.884  31.631  23.861  1.00  0.00     0.031 C 
ENDROOT
BRANCH   5   8
ATOM      8  C   UNL     1      18.819  29.344  26.096  1.00  0.00    -0.077 C 
ATOM      9  C   UNL     1      19.063  30.409  26.879  1.00  0.00     0.008 C 
ATOM     10  C   UNL     1      19.372  28.003  26.502  1.00  0.00     0.039 C 
ENDBRANCH   5   8
TORSDOF 1
ENDMDL
MODEL 3
REMARK VINA RESULT:    -5.273      8.052      9.798
REMARK INTER + INTRA:          -5.738
REMARK INTER:                  -5.583
REMARK INTRA:                  -0.155
REMARK UNBOUND:                -0.157
REMARK SMILES C=C(C)[C@H]1CC=C(C)CC1
REMARK SMILES IDX 8 1 7 2 6 3 5 4 4 5 10 6 9 7 2 8 1 9 3 10
REMARK H PARENT
REMARK Flexibility Score: inf
ROOT
ATOM      1  C   UNL     1      12.196  33.856  20.000  1.00  0.00     0.039 C 
ATOM      2  C   UNL     1      11.426  33.433  21.219  1.00  0.00    -0.077 C 
ATOM      3  C   UNL     1      12.075  32.992  22.309  1.00  0.00    -0.027 C 
ATOM      4  C   UNL     1      11.289  32.621  23.537  1.00  0.00     0.035 C 
ATOM      5  C   UNL     1      10.233  33.711  23.844  1.00  0.00     0.018 C 
ATOM      6  C   UNL     1       9.464  34.209  22.576  1.00  0.00     0.013 C 
ATOM      7  C   UNL     1       9.918  33.535  21.268  1.00  0.00     0.031 C 
ENDROOT
BRANCH   5   8
ATOM      8  C   UNL     1       9.281  33.245  24.939  1.00  0.00    -0.077 C 
ATOM      9  C   UNL     1       7.950  33.346  24.783  1.00  0.00     0.008 C 
ATOM     10  C   UNL     1       9.820  32.663  26.220  1.00  0.00     0.039 C 
ENDBRANCH   5   8
TORSDOF 1
ENDMDL
MODEL 4
REMARK VINA RESULT:    -5.186     10.168     11.186
REMARK INTER + INTRA:          -5.646
REMARK INTER:                  -5.488
REMARK INTRA:                  -0.158
REMARK UNBOUND:                -0.157
REMARK SMILES C=C(C)[C@H]1CC=C(C)CC1
REMARK SMILES IDX 8 1 7 2 6 3 5 4 4 5 10 6 9 7 2 8 1 9 3 10
REMARK H PARENT
REMARK Flexibility Score: inf
ROOT
ATOM      1  C   UNL     1       5.889  29.267  24.575  1.00  0.00     0.039 C 
ATOM      2  C   UNL     1       6.925  30.318  24.294  1.00  0.00    -0.077 C 
ATOM      3  C   UNL     1       7.330  30.548  23.034  1.00  0.00    -0.027 C 
ATOM      4  C   UNL     1       8.331  31.639  22.768  1.00  0.00     0.035 C 
ATOM      5  C   UNL     1       7.938  32.924  23.537  1.00  0.00     0.018 C 
ATOM      6  C   UNL     1       7.485  32.656  25.010  1.00  0.00     0.013 C 
ATOM      7  C   UNL     1       7.501  31.168  25.404  1.00  0.00     0.031 C 
ENDROOT
BRANCH   5   8
ATOM      8  C   UNL     1       9.054  33.959  23.464  1.00  0.00    -0.077 C 
ATOM      9  C   UNL     1       9.613  34.287  22.287  1.00  0.00     0.008 C 
ATOM     10  C   UNL     1       9.552  34.631  24.717  1.00  0.00     0.039 C 
ENDBRANCH   5   8
TORSDOF 1
ENDMDL
MODEL 5
REMARK VINA RESULT:    -5.161      7.362      9.474
REMARK INTER + INTRA:          -5.620
REMARK INTER:                  -5.464
REMARK INTRA:                  -0.157
REMARK UNBOUND:                -0.157
REMARK SMILES C=C(C)[C@H]1CC=C(C)CC1
REMARK SMILES IDX 8 1 7 2 6 3 5 4 4 5 10 6 9 7 2 8 1 9 3 10
REMARK H PARENT
REMARK Flexibility Score: inf
ROOT
ATOM      1  C   UNL     1       7.836  33.299  24.617  1.00  0.00     0.039 C 
ATOM      2  C   UNL     1       9.144  33.499  23.903  1.00  0.00    -0.077 C 
ATOM      3  C   UNL     1      10.231  32.807  24.278  1.00  0.00    -0.027 C 
ATOM      4  C   UNL     1      11.517  32.984  23.518  1.00  0.00     0.035 C 
ATOM      5  C   UNL     1      11.248  32.937  21.994  1.00  0.00     0.018 C 
ATOM      6  C   UNL     1       9.992  33.761  21.557  1.00  0.00     0.013 C 
ATOM      7  C   UNL     1       9.258  34.442  22.726  1.00  0.00     0.031 C 
ENDROOT
BRANCH   5   8
ATOM      8  C   UNL     1      12.493  33.342  21.214  1.00  0.00    -0.077 C 
ATOM      9  C   UNL     1      13.713  33.255  21.771  1.00  0.00     0.008 C 
ATOM     10  C   UNL     1      12.375  33.850  19.801  1.00  0.00     0.039 C 
ENDBRANCH   5   8
TORSDOF 1
ENDMDL
MODEL 6
REMARK VINA RESULT:    -5.061     10.124     11.019
REMARK INTER + INTRA:          -5.514
REMARK INTER:                  -5.355
REMARK INTRA:                  -0.158
REMARK UNBOUND:                -0.157
REMARK SMILES C=C(C)[C@H]1CC=C(C)CC1
REMARK SMILES IDX 8 1 7 2 6 3 5 4 4 5 10 6 9 7 2 8 1 9 3 10
REMARK H PARENT
REMARK Flexibility Score: inf
ROOT
ATOM      1  C   UNL     1       6.512  28.749  24.241  1.00  0.00     0.039 C 
ATOM      2  C   UNL     1       6.950  30.184  24.148  1.00  0.00    -0.077 C 
ATOM      3  C   UNL     1       7.229  30.879  25.262  1.00  0.00    -0.027 C 
ATOM      4  C   UNL     1       7.713  32.299  25.145  1.00  0.00     0.035 C 
ATOM      5  C   UNL     1       8.813  32.400  24.060  1.00  0.00     0.018 C 
ATOM      6  C   UNL     1       8.477  31.605  22.756  1.00  0.00     0.013 C 
ATOM      7  C   UNL     1       7.129  30.863  22.809  1.00  0.00     0.031 C 
ENDROOT
BRANCH   5   8
ATOM      8  C   UNL     1       9.149  33.857  23.768  1.00  0.00    -0.077 C 
ATOM      9  C   UNL     1       9.430  34.712  24.766  1.00  0.00     0.008 C 
ATOM     10  C   UNL     1       9.171  34.363  22.350  1.00  0.00     0.039 C 
ENDBRANCH   5   8
TORSDOF 1
ENDMDL
MODEL 7
REMARK VINA RESULT:    -4.997      8.934     10.607
REMARK INTER + INTRA:          -5.446
REMARK INTER:                  -5.291
REMARK INTRA:                  -0.155
REMARK UNBOUND:                -0.157
REMARK SMILES C=C(C)[C@H]1CC=C(C)CC1
REMARK SMILES IDX 8 1 7 2 6 3 5 4 4 5 10 6 9 7 2 8 1 9 3 10
REMARK H PARENT
REMARK Flexibility Score: inf
ROOT
ATOM      1  C   UNL     1      10.001  32.648  26.473  1.00  0.00     0.039 C 
ATOM      2  C   UNL     1       9.355  33.133  25.205  1.00  0.00    -0.077 C 
ATOM      3  C   UNL     1      10.066  33.839  24.311  1.00  0.00    -0.027 C 
ATOM      4  C   UNL     1       9.416  34.271  23.026  1.00  0.00     0.035 C 
ATOM      5  C   UNL     1       8.632  33.092  22.401  1.00  0.00     0.018 C 
ATOM      6  C   UNL     1       7.788  32.283  23.440  1.00  0.00     0.013 C 
ATOM      7  C   UNL     1       7.915  32.804  24.884  1.00  0.00     0.031 C 
ENDROOT
BRANCH   5   8
ATOM      8  C   UNL     1       7.783  33.570  21.229  1.00  0.00    -0.077 C 
ATOM      9  C   UNL     1       6.478  33.259  21.151  1.00  0.00     0.008 C 
ATOM     10  C   UNL     1       8.397  34.402  20.133  1.00  0.00     0.039 C 
ENDBRANCH   5   8
TORSDOF 1
ENDMDL
MODEL 8
REMARK VINA RESULT:    -4.991      8.279     10.397
REMARK INTER + INTRA:          -5.440
REMARK INTER:                  -5.285
REMARK INTRA:                  -0.155
REMARK UNBOUND:                -0.157
REMARK SMILES C=C(C)[C@H]1CC=C(C)CC1
REMARK SMILES IDX 8 1 7 2 6 3 5 4 4 5 10 6 9 7 2 8 1 9 3 10
REMARK H PARENT
REMARK Flexibility Score: inf
ROOT
ATOM      1  C   UNL     1      10.675  32.715  26.135  1.00  0.00     0.039 C 
ATOM      2  C   UNL     1       9.920  32.755  24.836  1.00  0.00    -0.077 C 
ATOM      3  C   UNL     1       8.591  32.947  24.832  1.00  0.00    -0.027 C 
ATOM      4  C   UNL     1       7.862  33.034  23.519  1.00  0.00     0.035 C 
ATOM      5  C   UNL     1       8.625  33.964  22.544  1.00  0.00     0.018 C 
ATOM      6  C   UNL     1      10.171  33.724  22.536  1.00  0.00     0.013 C 
ATOM      7  C   UNL     1      10.635  32.626  23.510  1.00  0.00     0.031 C 
ENDROOT
BRANCH   5   8
ATOM      8  C   UNL     1       8.029  33.882  21.144  1.00  0.00    -0.077 C 
ATOM      9  C   UNL     1       8.689  34.381  20.085  1.00  0.00     0.008 C 
ATOM     10  C   UNL     1       6.685  33.238  20.925  1.00  0.00     0.039 C 
ENDBRANCH   5   8
TORSDOF 1
ENDMDL
MODEL 9
REMARK VINA RESULT:    -4.866      7.984      9.757
REMARK INTER + INTRA:          -5.307
REMARK INTER:                  -5.154
REMARK INTRA:                  -0.153
REMARK UNBOUND:                -0.157
REMARK SMILES C=C(C)[C@H]1CC=C(C)CC1
REMARK SMILES IDX 8 1 7 2 6 3 5 4 4 5 10 6 9 7 2 8 1 9 3 10
REMARK H PARENT
REMARK Flexibility Score: inf
ROOT
ATOM      1  C   UNL     1      11.649  32.804  19.300  1.00  0.00     0.039 C 
ATOM      2  C   UNL     1      11.255  33.246  20.681  1.00  0.00    -0.077 C 
ATOM      3  C   UNL     1      10.001  33.657  20.927  1.00  0.00    -0.027 C 
ATOM      4  C   UNL     1       9.613  34.047  22.327  1.00  0.00     0.035 C 
ATOM      5  C   UNL     1      10.128  32.994  23.338  1.00  0.00     0.018 C 
ATOM      6  C   UNL     1      11.596  32.530  23.061  1.00  0.00     0.013 C 
ATOM      7  C   UNL     1      12.237  33.197  21.829  1.00  0.00     0.031 C 
ENDROOT
BRANCH   5   8
ATOM      8  C   UNL     1       9.947  33.485  24.769  1.00  0.00    -0.077 C 
ATOM      9  C   UNL     1       9.275  34.620  25.027  1.00  0.00     0.008 C 
ATOM     10  C   UNL     1      10.523  32.704  25.921  1.00  0.00     0.039 C 
ENDBRANCH   5   8
TORSDOF 1
ENDMDL
