MODEL 1
REMARK VINA RESULT:    -5.445      0.000      0.000
REMARK INTER + INTRA:          -5.445
REMARK INTER:                  -5.445
REMARK INTRA:                   0.000
REMARK UNBOUND:                 0.000
REMARK SMILES CC1=CC=CC(C)(C)[C@@H]1C
REMARK SMILES IDX 10 1 9 2 2 3 3 4 4 5 5 6 6 7 7 8 8 9 1 10
REMARK H PARENT
REMARK Flexibility Score: inf
ROOT
ATOM      1  C   UNL     1       1.774  14.545   2.371  1.00  0.00     0.013 C 
ATOM      2  C   UNL     1       2.355  14.393   3.789  1.00  0.00     0.021 C 
ATOM      3  C   UNL     1       3.821  14.002   3.666  1.00  0.00    -0.070 C 
ATOM      4  C   UNL     1       4.164  12.705   3.610  1.00  0.00    -0.001 C 
ATOM      5  C   UNL     1       3.154  11.647   3.792  1.00  0.00    -0.004 C 
ATOM      6  C   UNL     1       1.930  11.941   4.245  1.00  0.00    -0.020 C 
ATOM      7  C   UNL     1       1.579  13.353   4.676  1.00  0.00    -0.011 C 
ATOM      8  C   UNL     1       0.049  13.550   4.590  1.00  0.00     0.016 C 
ATOM      9  C   UNL     1       1.999  13.527   6.154  1.00  0.00     0.016 C 
ATOM     10  C   UNL     1       4.878  15.058   3.516  1.00  0.00     0.040 C 
ENDROOT
TORSDOF 0
ENDMDL
MODEL 2
REMARK VINA RESULT:    -5.350      1.369      3.576
REMARK INTER + INTRA:          -5.350
REMARK INTER:                  -5.350
REMARK INTRA:                   0.000
REMARK UNBOUND:                 0.000
REMARK SMILES CC1=CC=CC(C)(C)[C@@H]1C
REMARK SMILES IDX 10 1 9 2 2 3 3 4 4 5 5 6 6 7 7 8 8 9 1 10
REMARK H PARENT
REMARK Flexibility Score: inf
ROOT
ATOM      1  C   UNL     1       0.341  14.314   3.757  1.00  0.00     0.013 C 
ATOM      2  C   UNL     1       1.015  12.969   4.086  1.00  0.00     0.021 C 
ATOM      3  C   UNL     1       0.590  12.551   5.486  1.00  0.00    -0.070 C 
ATOM      4  C   UNL     1       1.314  12.938   6.549  1.00  0.00    -0.001 C 
ATOM      5  C   UNL     1       2.588  13.659   6.373  1.00  0.00    -0.004 C 
ATOM      6  C   UNL     1       3.167  13.741   5.171  1.00  0.00    -0.020 C 
ATOM      7  C   UNL     1       2.583  13.011   3.975  1.00  0.00    -0.011 C 
ATOM      8  C   UNL     1       3.050  13.701   2.675  1.00  0.00     0.016 C 
ATOM      9  C   UNL     1       3.134  11.567   3.972  1.00  0.00     0.016 C 
ATOM     10  C   UNL     1      -0.683  11.782   5.695  1.00  0.00     0.040 C 
ENDROOT
TORSDOF 0
ENDMDL
MODEL 3
REMARK VINA RESULT:    -5.126      1.536      2.774
REMARK INTER + INTRA:          -5.126
REMARK INTER:                  -5.126
REMARK INTRA:                   0.000
REMARK UNBOUND:                 0.000
REMARK SMILES CC1=CC=CC(C)(C)[C@@H]1C
REMARK SMILES IDX 10 1 9 2 2 3 3 4 4 5 5 6 6 7 7 8 8 9 1 10
REMARK H PARENT
REMARK Flexibility Score: inf
ROOT
ATOM      1  C   UNL     1       3.102  13.901   5.752  1.00  0.00     0.013 C 
ATOM      2  C   UNL     1       2.158  12.796   5.245  1.00  0.00     0.021 C 
ATOM      3  C   UNL     1       2.520  12.482   3.800  1.00  0.00    -0.070 C 
ATOM      4  C   UNL     1       1.930  13.158   2.801  1.00  0.00    -0.001 C 
ATOM      5  C   UNL     1       0.842  14.114   3.075  1.00  0.00    -0.004 C 
ATOM      6  C   UNL     1       0.260  14.162   4.278  1.00  0.00    -0.020 C 
ATOM      7  C   UNL     1       0.635  13.169   5.364  1.00  0.00    -0.011 C 
ATOM      8  C   UNL     1       0.295  13.768   6.746  1.00  0.00     0.016 C 
ATOM      9  C   UNL     1      -0.220  11.896   5.172  1.00  0.00     0.016 C 
ATOM     10  C   UNL     1       3.599  11.485   3.487  1.00  0.00     0.040 C 
ENDROOT
TORSDOF 0
ENDMDL
MODEL 4
REMARK VINA RESULT:    -5.062      1.362      3.215
REMARK INTER + INTRA:          -5.062
REMARK INTER:                  -5.062
REMARK INTRA:                   0.000
REMARK UNBOUND:                 0.000
REMARK SMILES CC1=CC=CC(C)(C)[C@@H]1C
REMARK SMILES IDX 10 1 9 2 2 3 3 4 4 5 5 6 6 7 7 8 8 9 1 10
REMARK H PARENT
REMARK Flexibility Score: inf
ROOT
ATOM      1  C   UNL     1       0.936  13.750   4.546  1.00  0.00     0.013 C 
ATOM      2  C   UNL     1       1.500  13.208   3.219  1.00  0.00     0.021 C 
ATOM      3  C   UNL     1       3.010  13.073   3.362  1.00  0.00    -0.070 C 
ATOM      4  C   UNL     1       3.807  14.105   3.040  1.00  0.00    -0.001 C 
ATOM      5  C   UNL     1       3.252  15.327   2.431  1.00  0.00    -0.004 C 
ATOM      6  C   UNL     1       1.996  15.354   1.972  1.00  0.00    -0.020 C 
ATOM      7  C   UNL     1       1.141  14.099   1.975  1.00  0.00    -0.011 C 
ATOM      8  C   UNL     1      -0.351  14.497   1.963  1.00  0.00     0.016 C 
ATOM      9  C   UNL     1       1.435  13.310   0.679  1.00  0.00     0.016 C 
ATOM     10  C   UNL     1       3.608  11.824   3.943  1.00  0.00     0.040 C 
ENDROOT
TORSDOF 0
ENDMDL
MODEL 5
REMARK VINA RESULT:    -4.733      1.154      3.278
REMARK INTER + INTRA:          -4.733
REMARK INTER:                  -4.733
REMARK INTRA:                   0.000
REMARK UNBOUND:                 0.000
REMARK SMILES CC1=CC=CC(C)(C)[C@@H]1C
REMARK SMILES IDX 10 1 9 2 2 3 3 4 4 5 5 6 6 7 7 8 8 9 1 10
REMARK H PARENT
REMARK Flexibility Score: inf
ROOT
ATOM      1  C   UNL     1       2.885  15.341   2.640  1.00  0.00     0.013 C 
ATOM      2  C   UNL     1       2.400  13.882   2.723  1.00  0.00     0.021 C 
ATOM      3  C   UNL     1       0.938  13.886   3.144  1.00  0.00    -0.070 C 
ATOM      4  C   UNL     1       0.617  13.849   4.448  1.00  0.00    -0.001 C 
ATOM      5  C   UNL     1       1.658  13.677   5.477  1.00  0.00    -0.004 C 
ATOM      6  C   UNL     1       2.903  13.323   5.139  1.00  0.00    -0.020 C 
ATOM      7  C   UNL     1       3.253  12.993   3.699  1.00  0.00    -0.011 C 
ATOM      8  C   UNL     1       4.769  13.191   3.483  1.00  0.00     0.016 C 
ATOM      9  C   UNL     1       2.927  11.502   3.451  1.00  0.00     0.016 C 
ATOM     10  C   UNL     1      -0.148  14.022   2.116  1.00  0.00     0.040 C 
ENDROOT
TORSDOF 0
ENDMDL
MODEL 6
REMARK VINA RESULT:    -4.660      0.794      3.381
REMARK INTER + INTRA:          -4.660
REMARK INTER:                  -4.660
REMARK INTRA:                   0.000
REMARK UNBOUND:                 0.000
REMARK SMILES CC1=CC=CC(C)(C)[C@@H]1C
REMARK SMILES IDX 10 1 9 2 2 3 3 4 4 5 5 6 6 7 7 8 8 9 1 10
REMARK H PARENT
REMARK Flexibility Score: inf
ROOT
ATOM      1  C   UNL     1       3.460  13.842   6.235  1.00  0.00     0.013 C 
ATOM      2  C   UNL     1       2.661  14.077   4.940  1.00  0.00     0.021 C 
ATOM      3  C   UNL     1       1.569  13.021   4.853  1.00  0.00    -0.070 C 
ATOM      4  C   UNL     1       1.818  11.851   4.241  1.00  0.00    -0.001 C 
ATOM      5  C   UNL     1       3.094  11.620   3.542  1.00  0.00    -0.004 C 
ATOM      6  C   UNL     1       3.933  12.633   3.297  1.00  0.00    -0.020 C 
ATOM      7  C   UNL     1       3.550  14.061   3.643  1.00  0.00    -0.011 C 
ATOM      8  C   UNL     1       4.830  14.908   3.811  1.00  0.00     0.016 C 
ATOM      9  C   UNL     1       2.743  14.646   2.462  1.00  0.00     0.016 C 
ATOM     10  C   UNL     1       0.243  13.242   5.523  1.00  0.00     0.040 C 
ENDROOT
TORSDOF 0
ENDMDL
MODEL 7
REMARK VINA RESULT:    -4.391      1.335      3.136
REMARK INTER + INTRA:          -4.391
REMARK INTER:                  -4.391
REMARK INTRA:                   0.000
REMARK UNBOUND:                 0.000
REMARK SMILES CC1=CC=CC(C)(C)[C@@H]1C
REMARK SMILES IDX 10 1 9 2 2 3 3 4 4 5 5 6 6 7 7 8 8 9 1 10
REMARK H PARENT
REMARK Flexibility Score: inf
ROOT
ATOM      1  C   UNL     1       2.835  11.622   3.632  1.00  0.00     0.013 C 
ATOM      2  C   UNL     1       2.806  13.161   3.657  1.00  0.00     0.021 C 
ATOM      3  C   UNL     1       2.424  13.611   5.060  1.00  0.00    -0.070 C 
ATOM      4  C   UNL     1       1.131  13.788   5.377  1.00  0.00    -0.001 C 
ATOM      5  C   UNL     1       0.079  13.675   4.350  1.00  0.00    -0.004 C 
ATOM      6  C   UNL     1       0.393  13.627   3.051  1.00  0.00    -0.020 C 
ATOM      7  C   UNL     1       1.832  13.787   2.593  1.00  0.00    -0.011 C 
ATOM      8  C   UNL     1       2.002  13.136   1.203  1.00  0.00     0.016 C 
ATOM      9  C   UNL     1       2.131  15.297   2.451  1.00  0.00     0.016 C 
ATOM     10  C   UNL     1       3.477  13.771   6.119  1.00  0.00     0.040 C 
ENDROOT
TORSDOF 0
ENDMDL
MODEL 8
REMARK VINA RESULT:    -4.319      1.028      2.326
REMARK INTER + INTRA:          -4.319
REMARK INTER:                  -4.319
REMARK INTRA:                   0.000
REMARK UNBOUND:                 0.000
REMARK SMILES CC1=CC=CC(C)(C)[C@@H]1C
REMARK SMILES IDX 10 1 9 2 2 3 3 4 4 5 5 6 6 7 7 8 8 9 1 10
REMARK H PARENT
REMARK Flexibility Score: inf
ROOT
ATOM      1  C   UNL     1       0.223  13.490   4.401  1.00  0.00     0.013 C 
ATOM      2  C   UNL     1       1.598  14.099   4.071  1.00  0.00     0.021 C 
ATOM      3  C   UNL     1       1.848  13.935   2.579  1.00  0.00    -0.070 C 
ATOM      4  C   UNL     1       2.459  12.829   2.121  1.00  0.00    -0.001 C 
ATOM      5  C   UNL     1       3.004  11.827   3.053  1.00  0.00    -0.004 C 
ATOM      6  C   UNL     1       3.116  12.095   4.358  1.00  0.00    -0.020 C 
ATOM      7  C   UNL     1       2.777  13.472   4.900  1.00  0.00    -0.011 C 
ATOM      8  C   UNL     1       2.430  13.360   6.401  1.00  0.00     0.016 C 
ATOM      9  C   UNL     1       4.030  14.367   4.766  1.00  0.00     0.016 C 
ATOM     10  C   UNL     1       1.338  14.958   1.606  1.00  0.00     0.040 C 
ENDROOT
TORSDOF 0
ENDMDL
MODEL 9
REMARK VINA RESULT:    -4.120      1.382      3.299
REMARK INTER + INTRA:          -4.120
REMARK INTER:                  -4.120
REMARK INTRA:                   0.000
REMARK UNBOUND:                 0.000
REMARK SMILES CC1=CC=CC(C)(C)[C@@H]1C
REMARK SMILES IDX 10 1 9 2 2 3 3 4 4 5 5 6 6 7 7 8 8 9 1 10
REMARK H PARENT
REMARK Flexibility Score: inf
ROOT
ATOM      1  C   UNL     1       2.125  12.654   0.927  1.00  0.00     0.013 C 
ATOM      2  C   UNL     1       1.651  13.351   2.217  1.00  0.00     0.021 C 
ATOM      3  C   UNL     1       1.338  14.804   1.888  1.00  0.00    -0.070 C 
ATOM      4  C   UNL     1       2.301  15.735   1.986  1.00  0.00    -0.001 C 
ATOM      5  C   UNL     1       3.629  15.393   2.527  1.00  0.00    -0.004 C 
ATOM      6  C   UNL     1       3.837  14.226   3.145  1.00  0.00    -0.020 C 
ATOM      7  C   UNL     1       2.689  13.263   3.394  1.00  0.00    -0.011 C 
ATOM      8  C   UNL     1       3.248  11.833   3.564  1.00  0.00     0.016 C 
ATOM      9  C   UNL     1       1.998  13.664   4.717  1.00  0.00     0.016 C 
ATOM     10  C   UNL     1      -0.018  15.189   1.370  1.00  0.00     0.040 C 
ENDROOT
TORSDOF 0
ENDMDL
