MODEL 1
REMARK VINA RESULT:    -3.470      0.000      0.000
REMARK INTER + INTRA:          -8.705
REMARK INTER:                  -6.716
REMARK INTRA:                  -1.989
REMARK UNBOUND:                -1.989
REMARK SMILES CCCCCCCCCCCCCCCCCC(=O)[O-]
REMARK SMILES IDX 10 1 11 2 12 3 13 4 14 5 15 6 16 7 17 8 18 9 19 10 20 11
REMARK SMILES IDX 9 12 8 13 7 14 6 15 5 16 4 17 3 18 2 19 1 20
REMARK H PARENT
REMARK Flexibility Score: inf
ROOT
ATOM      1  C   UNL     1     -19.080  44.329 -10.793  1.00  0.00     0.000 C 
ENDROOT
BRANCH   1   2
ATOM      2  C   UNL     1     -19.326  43.620  -9.448  1.00  0.00     0.000 C 
BRANCH   2   3
ATOM      3  C   UNL     1     -19.745  44.544  -8.289  1.00  0.00     0.000 C 
BRANCH   3   4
ATOM      4  C   UNL     1     -18.729  44.644  -7.136  1.00  0.00     0.000 C 
BRANCH   4   5
ATOM      5  C   UNL     1     -17.775  43.434  -7.043  1.00  0.00     0.000 C 
BRANCH   5   6
ATOM      6  C   UNL     1     -16.632  43.667  -6.039  1.00  0.00     0.000 C 
BRANCH   6   7
ATOM      7  C   UNL     1     -16.706  42.727  -4.826  1.00  0.00     0.006 C 
BRANCH   7   8
ATOM      8  C   UNL     1     -18.108  42.140  -4.615  1.00  0.00     0.053 C 
BRANCH   8   9
ATOM      9  C   UNL     1     -18.824  42.881  -3.529  1.00  0.00     0.041 C 
ATOM     10  O   UNL     1     -18.761  44.137  -3.472  1.00  0.00    -0.550 OA
ATOM     11  O   UNL     1     -19.516  42.180  -2.549  1.00  0.00    -0.550 OA
ENDBRANCH   8   9
ENDBRANCH   7   8
ENDBRANCH   6   7
ENDBRANCH   5   6
ENDBRANCH   4   5
ENDBRANCH   3   4
ENDBRANCH   2   3
ENDBRANCH   1   2
BRANCH   1  12
ATOM     12  C   UNL     1     -17.715  45.035 -10.858  1.00  0.00     0.000 C 
BRANCH  12  13
ATOM     13  C   UNL     1     -16.537  44.052 -10.769  1.00  0.00    -0.000 C 
BRANCH  13  14
ATOM     14  C   UNL     1     -15.487  44.473  -9.724  1.00  0.00    -0.000 C 
BRANCH  14  15
ATOM     15  C   UNL     1     -15.413  46.006  -9.559  1.00  0.00    -0.000 C 
BRANCH  15  16
ATOM     16  C   UNL     1     -15.237  46.459  -8.100  1.00  0.00    -0.000 C 
BRANCH  16  17
ATOM     17  C   UNL     1     -14.946  47.964  -7.973  1.00  0.00    -0.000 C 
BRANCH  17  18
ATOM     18  C   UNL     1     -14.646  48.625  -9.327  1.00  0.00    -0.000 C 
BRANCH  18  19
ATOM     19  C   UNL     1     -14.613  50.158  -9.241  1.00  0.00    -0.003 C 
ATOM     20  C   UNL     1     -14.878  50.632  -7.814  1.00  0.00     0.004 C 
ENDBRANCH  18  19
ENDBRANCH  17  18
ENDBRANCH  16  17
ENDBRANCH  15  16
ENDBRANCH  14  15
ENDBRANCH  13  14
ENDBRANCH  12  13
ENDBRANCH   1  12
TORSDOF 16
ENDMDL
MODEL 2
REMARK VINA RESULT:    -3.414      3.233      6.712
REMARK INTER + INTRA:          -8.595
REMARK INTER:                  -6.533
REMARK INTRA:                  -2.062
REMARK UNBOUND:                -1.989
REMARK SMILES CCCCCCCCCCCCCCCCCC(=O)[O-]
REMARK SMILES IDX 10 1 11 2 12 3 13 4 14 5 15 6 16 7 17 8 18 9 19 10 20 11
REMARK SMILES IDX 9 12 8 13 7 14 6 15 5 16 4 17 3 18 2 19 1 20
REMARK H PARENT
REMARK Flexibility Score: inf
ROOT
ATOM      1  C   UNL     1     -18.913  45.319 -10.744  1.00  0.00     0.000 C 
ENDROOT
BRANCH   1   2
ATOM      2  C   UNL     1     -17.468  45.736 -11.076  1.00  0.00     0.000 C 
BRANCH   2   3
ATOM      3  C   UNL     1     -16.397  44.667 -10.785  1.00  0.00     0.000 C 
BRANCH   3   4
ATOM      4  C   UNL     1     -15.374  45.050  -9.699  1.00  0.00     0.000 C 
BRANCH   4   5
ATOM      5  C   UNL     1     -15.781  46.288  -8.872  1.00  0.00     0.000 C 
BRANCH   5   6
ATOM      6  C   UNL     1     -14.729  46.654  -7.810  1.00  0.00     0.000 C 
BRANCH   6   7
ATOM      7  C   UNL     1     -14.136  48.056  -8.019  1.00  0.00     0.006 C 
BRANCH   7   8
ATOM      8  C   UNL     1     -14.810  48.820  -9.167  1.00  0.00     0.053 C 
BRANCH   8   9
ATOM      9  C   UNL     1     -14.662  50.296  -8.966  1.00  0.00     0.041 C 
ATOM     10  O   UNL     1     -15.115  50.842  -7.925  1.00  0.00    -0.550 OA
ATOM     11  O   UNL     1     -14.074  51.077  -9.954  1.00  0.00    -0.550 OA
ENDBRANCH   8   9
ENDBRANCH   7   8
ENDBRANCH   6   7
ENDBRANCH   5   6
ENDBRANCH   4   5
ENDBRANCH   3   4
ENDBRANCH   2   3
ENDBRANCH   1   2
BRANCH   1  12
ATOM     12  C   UNL     1     -19.100  43.793 -10.690  1.00  0.00     0.000 C 
BRANCH  12  13
ATOM     13  C   UNL     1     -19.263  43.268  -9.254  1.00  0.00    -0.000 C 
BRANCH  13  14
ATOM     14  C   UNL     1     -19.740  44.355  -8.273  1.00  0.00    -0.000 C 
BRANCH  14  15
ATOM     15  C   UNL     1     -18.682  44.668  -7.193  1.00  0.00    -0.000 C 
BRANCH  15  16
ATOM     16  C   UNL     1     -17.625  43.564  -7.029  1.00  0.00    -0.000 C 
BRANCH  16  17
ATOM     17  C   UNL     1     -17.176  43.379  -5.569  1.00  0.00    -0.000 C 
BRANCH  17  18
ATOM     18  C   UNL     1     -17.787  42.129  -4.917  1.00  0.00    -0.000 C 
BRANCH  18  19
ATOM     19  C   UNL     1     -18.467  42.438  -3.574  1.00  0.00    -0.003 C 
ATOM     20  C   UNL     1     -18.974  43.876  -3.536  1.00  0.00     0.004 C 
ENDBRANCH  18  19
ENDBRANCH  17  18
ENDBRANCH  16  17
ENDBRANCH  15  16
ENDBRANCH  14  15
ENDBRANCH  13  14
ENDBRANCH  12  13
ENDBRANCH   1  12
TORSDOF 16
ENDMDL
MODEL 3
REMARK VINA RESULT:    -3.336      2.672      6.432
REMARK INTER + INTRA:          -8.445
REMARK INTER:                  -6.643
REMARK INTRA:                  -1.802
REMARK UNBOUND:                -1.989
REMARK SMILES CCCCCCCCCCCCCCCCCC(=O)[O-]
REMARK SMILES IDX 10 1 11 2 12 3 13 4 14 5 15 6 16 7 17 8 18 9 19 10 20 11
REMARK SMILES IDX 9 12 8 13 7 14 6 15 5 16 4 17 3 18 2 19 1 20
REMARK H PARENT
REMARK Flexibility Score: inf
ROOT
ATOM      1  C   UNL     1     -19.408  42.932  -9.350  1.00  0.00     0.000 C 
ENDROOT
BRANCH   1   2
ATOM      2  C   UNL     1     -18.355  42.418 -10.350  1.00  0.00     0.000 C 
BRANCH   2   3
ATOM      3  C   UNL     1     -17.598  43.515 -11.123  1.00  0.00     0.000 C 
BRANCH   3   4
ATOM      4  C   UNL     1     -16.134  43.722 -10.693  1.00  0.00     0.000 C 
BRANCH   4   5
ATOM      5  C   UNL     1     -15.588  45.131 -11.009  1.00  0.00     0.000 C 
BRANCH   5   6
ATOM      6  C   UNL     1     -16.055  46.182  -9.986  1.00  0.00     0.000 C 
BRANCH   6   7
ATOM      7  C   UNL     1     -14.918  46.672  -9.076  1.00  0.00     0.006 C 
BRANCH   7   8
ATOM      8  C   UNL     1     -14.575  48.151  -9.300  1.00  0.00     0.053 C 
BRANCH   8   9
ATOM      9  C   UNL     1     -14.792  48.931  -8.040  1.00  0.00     0.041 C 
ATOM     10  O   UNL     1     -14.908  48.333  -6.938  1.00  0.00    -0.550 OA
ATOM     11  O   UNL     1     -14.920  50.314  -8.091  1.00  0.00    -0.550 OA
ENDBRANCH   8   9
ENDBRANCH   7   8
ENDBRANCH   6   7
ENDBRANCH   5   6
ENDBRANCH   4   5
ENDBRANCH   3   4
ENDBRANCH   2   3
ENDBRANCH   1   2
BRANCH   1  12
ATOM     12  C   UNL     1     -19.489  44.467  -9.301  1.00  0.00     0.000 C 
BRANCH  12  13
ATOM     13  C   UNL     1     -18.976  45.043  -7.971  1.00  0.00    -0.000 C 
BRANCH  13  14
ATOM     14  C   UNL     1     -18.327  43.976  -7.070  1.00  0.00    -0.000 C 
BRANCH  14  15
ATOM     15  C   UNL     1     -16.785  44.058  -7.088  1.00  0.00    -0.000 C 
BRANCH  15  16
ATOM     16  C   UNL     1     -16.118  43.352  -5.896  1.00  0.00    -0.000 C 
BRANCH  16  17
ATOM     17  C   UNL     1     -17.062  43.194  -4.691  1.00  0.00    -0.000 C 
BRANCH  17  18
ATOM     18  C   UNL     1     -17.736  41.813  -4.647  1.00  0.00    -0.000 C 
BRANCH  18  19
ATOM     19  C   UNL     1     -19.121  41.855  -3.982  1.00  0.00    -0.003 C 
ATOM     20  C   UNL     1     -19.182  42.943  -2.914  1.00  0.00     0.004 C 
ENDBRANCH  18  19
ENDBRANCH  17  18
ENDBRANCH  16  17
ENDBRANCH  15  16
ENDBRANCH  14  15
ENDBRANCH  13  14
ENDBRANCH  12  13
ENDBRANCH   1  12
TORSDOF 16
ENDMDL
MODEL 4
REMARK VINA RESULT:    -3.240      2.899      6.616
REMARK INTER + INTRA:          -8.259
REMARK INTER:                  -7.009
REMARK INTRA:                  -1.250
REMARK UNBOUND:                -1.989
REMARK SMILES CCCCCCCCCCCCCCCCCC(=O)[O-]
REMARK SMILES IDX 10 1 11 2 12 3 13 4 14 5 15 6 16 7 17 8 18 9 19 10 20 11
REMARK SMILES IDX 9 12 8 13 7 14 6 15 5 16 4 17 3 18 2 19 1 20
REMARK H PARENT
REMARK Flexibility Score: inf
ROOT
ATOM      1  C   UNL     1     -19.096  44.115 -11.118  1.00  0.00     0.000 C 
ENDROOT
BRANCH   1   2
ATOM      2  C   UNL     1     -18.929  45.549 -10.581  1.00  0.00     0.000 C 
BRANCH   2   3
ATOM      3  C   UNL     1     -17.699  46.307 -11.117  1.00  0.00     0.000 C 
BRANCH   3   4
ATOM      4  C   UNL     1     -16.339  45.750 -10.657  1.00  0.00     0.000 C 
BRANCH   4   5
ATOM      5  C   UNL     1     -15.224  46.816 -10.587  1.00  0.00     0.000 C 
BRANCH   5   6
ATOM      6  C   UNL     1     -15.742  48.226 -10.921  1.00  0.00     0.000 C 
BRANCH   6   7
ATOM      7  C   UNL     1     -14.914  49.336 -10.255  1.00  0.00     0.006 C 
BRANCH   7   8
ATOM      8  C   UNL     1     -14.183  48.856  -8.994  1.00  0.00     0.053 C 
BRANCH   8   9
ATOM      9  C   UNL     1     -14.685  49.591  -7.790  1.00  0.00     0.041 C 
ATOM     10  O   UNL     1     -15.137  50.761  -7.907  1.00  0.00    -0.550 OA
ATOM     11  O   UNL     1     -14.603  49.005  -6.533  1.00  0.00    -0.550 OA
ENDBRANCH   8   9
ENDBRANCH   7   8
ENDBRANCH   6   7
ENDBRANCH   5   6
ENDBRANCH   4   5
ENDBRANCH   3   4
ENDBRANCH   2   3
ENDBRANCH   1   2
BRANCH   1  12
ATOM     12  C   UNL     1     -19.664  43.144 -10.069  1.00  0.00     0.000 C 
BRANCH  12  13
ATOM     13  C   UNL     1     -18.610  42.703  -9.040  1.00  0.00    -0.000 C 
BRANCH  13  14
ATOM     14  C   UNL     1     -18.496  43.673  -7.850  1.00  0.00    -0.000 C 
BRANCH  14  15
ATOM     15  C   UNL     1     -17.045  44.147  -7.621  1.00  0.00    -0.000 C 
BRANCH  15  16
ATOM     16  C   UNL     1     -16.397  43.554  -6.359  1.00  0.00    -0.000 C 
BRANCH  16  17
ATOM     17  C   UNL     1     -17.414  42.870  -5.430  1.00  0.00    -0.000 C 
BRANCH  17  18
ATOM     18  C   UNL     1     -17.316  43.365  -3.978  1.00  0.00    -0.000 C 
BRANCH  18  19
ATOM     19  C   UNL     1     -18.693  43.622  -3.349  1.00  0.00    -0.003 C 
ATOM     20  C   UNL     1     -19.512  42.336  -3.282  1.00  0.00     0.004 C 
ENDBRANCH  18  19
ENDBRANCH  17  18
ENDBRANCH  16  17
ENDBRANCH  15  16
ENDBRANCH  14  15
ENDBRANCH  13  14
ENDBRANCH  12  13
ENDBRANCH   1  12
TORSDOF 16
ENDMDL
MODEL 5
REMARK VINA RESULT:    -2.844      1.412      4.560
REMARK INTER + INTRA:          -7.493
REMARK INTER:                  -5.795
REMARK INTRA:                  -1.698
REMARK UNBOUND:                -1.989
REMARK SMILES CCCCCCCCCCCCCCCCCC(=O)[O-]
REMARK SMILES IDX 10 1 11 2 12 3 13 4 14 5 15 6 16 7 17 8 18 9 19 10 20 11
REMARK SMILES IDX 9 12 8 13 7 14 6 15 5 16 4 17 3 18 2 19 1 20
REMARK H PARENT
REMARK Flexibility Score: inf
ROOT
ATOM      1  C   UNL     1     -14.782  47.160  -7.972  1.00  0.00     0.000 C 
ENDROOT
BRANCH   1   2
ATOM      2  C   UNL     1     -14.475  45.743  -8.491  1.00  0.00     0.000 C 
BRANCH   2   3
ATOM      3  C   UNL     1     -14.965  44.596  -7.587  1.00  0.00     0.000 C 
BRANCH   3   4
ATOM      4  C   UNL     1     -16.441  44.201  -7.778  1.00  0.00     0.000 C 
BRANCH   4   5
ATOM      5  C   UNL     1     -17.148  43.790  -6.468  1.00  0.00     0.000 C 
BRANCH   5   6
ATOM      6  C   UNL     1     -16.185  43.126  -5.467  1.00  0.00     0.000 C 
BRANCH   6   7
ATOM      7  C   UNL     1     -16.644  43.280  -4.009  1.00  0.00     0.006 C 
BRANCH   7   8
ATOM      8  C   UNL     1     -17.803  42.340  -3.651  1.00  0.00     0.053 C 
BRANCH   8   9
ATOM      9  C   UNL     1     -19.026  43.131  -3.304  1.00  0.00     0.041 C 
ATOM     10  O   UNL     1     -20.006  42.568  -2.748  1.00  0.00    -0.550 OA
ATOM     11  O   UNL     1     -19.105  44.475  -3.645  1.00  0.00    -0.550 OA
ENDBRANCH   8   9
ENDBRANCH   7   8
ENDBRANCH   6   7
ENDBRANCH   5   6
ENDBRANCH   4   5
ENDBRANCH   3   4
ENDBRANCH   2   3
ENDBRANCH   1   2
BRANCH   1  12
ATOM     12  C   UNL     1     -14.517  48.254  -9.020  1.00  0.00     0.000 C 
BRANCH  12  13
ATOM     13  C   UNL     1     -14.557  47.715 -10.459  1.00  0.00    -0.000 C 
BRANCH  13  14
ATOM     14  C   UNL     1     -15.963  47.786 -11.083  1.00  0.00    -0.000 C 
BRANCH  14  15
ATOM     15  C   UNL     1     -16.652  46.405 -11.124  1.00  0.00    -0.000 C 
BRANCH  15  16
ATOM     16  C   UNL     1     -18.080  46.414 -10.554  1.00  0.00    -0.000 C 
BRANCH  16  17
ATOM     17  C   UNL     1     -18.913  45.204 -11.010  1.00  0.00    -0.000 C 
BRANCH  17  18
ATOM     18  C   UNL     1     -18.076  43.920 -11.125  1.00  0.00    -0.000 C 
BRANCH  18  19
ATOM     19  C   UNL     1     -18.908  42.651 -10.885  1.00  0.00    -0.003 C 
ATOM     20  C   UNL     1     -18.989  42.324  -9.396  1.00  0.00     0.004 C 
ENDBRANCH  18  19
ENDBRANCH  17  18
ENDBRANCH  16  17
ENDBRANCH  15  16
ENDBRANCH  14  15
ENDBRANCH  13  14
ENDBRANCH  12  13
ENDBRANCH   1  12
TORSDOF 16
ENDMDL
MODEL 6
REMARK VINA RESULT:    -2.793      1.237      2.307
REMARK INTER + INTRA:          -7.394
REMARK INTER:                  -6.097
REMARK INTRA:                  -1.298
REMARK UNBOUND:                -1.989
REMARK SMILES CCCCCCCCCCCCCCCCCC(=O)[O-]
REMARK SMILES IDX 10 1 11 2 12 3 13 4 14 5 15 6 16 7 17 8 18 9 19 10 20 11
REMARK SMILES IDX 9 12 8 13 7 14 6 15 5 16 4 17 3 18 2 19 1 20
REMARK H PARENT
REMARK Flexibility Score: inf
ROOT
ATOM      1  C   UNL     1     -16.680  45.085 -11.096  1.00  0.00     0.000 C 
ENDROOT
BRANCH   1   2
ATOM      2  C   UNL     1     -18.035  45.810 -10.991  1.00  0.00     0.000 C 
BRANCH   2   3
ATOM      3  C   UNL     1     -19.211  44.931 -10.525  1.00  0.00     0.000 C 
BRANCH   3   4
ATOM      4  C   UNL     1     -18.833  43.488 -10.139  1.00  0.00     0.000 C 
BRANCH   4   5
ATOM      5  C   UNL     1     -18.965  43.196  -8.629  1.00  0.00     0.000 C 
BRANCH   5   6
ATOM      6  C   UNL     1     -17.868  43.889  -7.801  1.00  0.00     0.000 C 
BRANCH   6   7
ATOM      7  C   UNL     1     -18.192  43.928  -6.300  1.00  0.00     0.006 C 
BRANCH   7   8
ATOM      8  C   UNL     1     -17.725  42.667  -5.560  1.00  0.00     0.053 C 
BRANCH   8   9
ATOM      9  C   UNL     1     -17.657  42.925  -4.086  1.00  0.00     0.041 C 
ATOM     10  O   UNL     1     -16.597  43.368  -3.570  1.00  0.00    -0.550 OA
ATOM     11  O   UNL     1     -18.744  42.624  -3.276  1.00  0.00    -0.550 OA
ENDBRANCH   8   9
ENDBRANCH   7   8
ENDBRANCH   6   7
ENDBRANCH   5   6
ENDBRANCH   4   5
ENDBRANCH   3   4
ENDBRANCH   2   3
ENDBRANCH   1   2
BRANCH   1  12
ATOM     12  C   UNL     1     -15.482  46.049 -11.099  1.00  0.00     0.000 C 
BRANCH  12  13
ATOM     13  C   UNL     1     -15.621  47.167 -10.053  1.00  0.00    -0.000 C 
BRANCH  13  14
ATOM     14  C   UNL     1     -15.290  46.693  -8.626  1.00  0.00    -0.000 C 
BRANCH  14  15
ATOM     15  C   UNL     1     -14.134  47.499  -7.998  1.00  0.00    -0.000 C 
BRANCH  15  16
ATOM     16  C   UNL     1     -14.572  48.386  -6.820  1.00  0.00    -0.000 C 
BRANCH  16  17
ATOM     17  C   UNL     1     -14.287  49.879  -7.059  1.00  0.00    -0.000 C 
BRANCH  17  18
ATOM     18  C   UNL     1     -14.658  50.332  -8.480  1.00  0.00    -0.000 C 
BRANCH  18  19
ATOM     19  C   UNL     1     -14.310  51.806  -8.737  1.00  0.00    -0.003 C 
ATOM     20  C   UNL     1     -14.733  52.682  -7.562  1.00  0.00     0.004 C 
ENDBRANCH  18  19
ENDBRANCH  17  18
ENDBRANCH  16  17
ENDBRANCH  15  16
ENDBRANCH  14  15
ENDBRANCH  13  14
ENDBRANCH  12  13
ENDBRANCH   1  12
TORSDOF 16
ENDMDL
MODEL 7
REMARK VINA RESULT:    -2.730      3.359      6.620
REMARK INTER + INTRA:          -7.272
REMARK INTER:                  -5.191
REMARK INTRA:                  -2.081
REMARK UNBOUND:                -1.989
REMARK SMILES CCCCCCCCCCCCCCCCCC(=O)[O-]
REMARK SMILES IDX 10 1 11 2 12 3 13 4 14 5 15 6 16 7 17 8 18 9 19 10 20 11
REMARK SMILES IDX 9 12 8 13 7 14 6 15 5 16 4 17 3 18 2 19 1 20
REMARK H PARENT
REMARK Flexibility Score: inf
ROOT
ATOM      1  C   UNL     1     -17.938  43.115  -3.678  1.00  0.00     0.000 C 
ENDROOT
BRANCH   1   2
ATOM      2  C   UNL     1     -16.922  42.608  -4.717  1.00  0.00     0.000 C 
BRANCH   2   3
ATOM      3  C   UNL     1     -16.024  43.695  -5.338  1.00  0.00     0.000 C 
BRANCH   3   4
ATOM      4  C   UNL     1     -15.822  43.581  -6.861  1.00  0.00     0.000 C 
BRANCH   4   5
ATOM      5  C   UNL     1     -15.202  44.842  -7.500  1.00  0.00     0.000 C 
BRANCH   5   6
ATOM      6  C   UNL     1     -14.531  44.543  -8.852  1.00  0.00     0.000 C 
BRANCH   6   7
ATOM      7  C   UNL     1     -14.575  45.740  -9.815  1.00  0.00     0.006 C 
BRANCH   7   8
ATOM      8  C   UNL     1     -14.680  47.085  -9.084  1.00  0.00     0.053 C 
BRANCH   8   9
ATOM      9  C   UNL     1     -15.317  48.110  -9.970  1.00  0.00     0.041 C 
ATOM     10  O   UNL     1     -16.063  47.751 -10.918  1.00  0.00    -0.550 OA
ATOM     11  O   UNL     1     -15.041  49.459  -9.783  1.00  0.00    -0.550 OA
ENDBRANCH   8   9
ENDBRANCH   7   8
ENDBRANCH   6   7
ENDBRANCH   5   6
ENDBRANCH   4   5
ENDBRANCH   3   4
ENDBRANCH   2   3
ENDBRANCH   1   2
BRANCH   1  12
ATOM     12  C   UNL     1     -18.966  44.093  -4.271  1.00  0.00     0.000 C 
BRANCH  12  13
ATOM     13  C   UNL     1     -19.324  43.762  -5.729  1.00  0.00    -0.000 C 
BRANCH  13  14
ATOM     14  C   UNL     1     -19.310  45.001  -6.642  1.00  0.00    -0.000 C 
BRANCH  14  15
ATOM     15  C   UNL     1     -19.317  44.623  -8.138  1.00  0.00    -0.000 C 
BRANCH  15  16
ATOM     16  C   UNL     1     -18.264  45.377  -8.968  1.00  0.00    -0.000 C 
BRANCH  16  17
ATOM     17  C   UNL     1     -18.231  44.929 -10.440  1.00  0.00    -0.000 C 
BRANCH  17  18
ATOM     18  C   UNL     1     -19.155  43.732 -10.714  1.00  0.00    -0.000 C 
BRANCH  18  19
ATOM     19  C   UNL     1     -18.393  42.399 -10.768  1.00  0.00    -0.003 C 
ATOM     20  C   UNL     1     -16.926  42.622 -11.125  1.00  0.00     0.004 C 
ENDBRANCH  18  19
ENDBRANCH  17  18
ENDBRANCH  16  17
ENDBRANCH  15  16
ENDBRANCH  14  15
ENDBRANCH  13  14
ENDBRANCH  12  13
ENDBRANCH   1  12
TORSDOF 16
ENDMDL
MODEL 8
REMARK VINA RESULT:    -2.717      1.138      1.829
REMARK INTER + INTRA:          -7.248
REMARK INTER:                  -5.942
REMARK INTRA:                  -1.306
REMARK UNBOUND:                -1.989
REMARK SMILES CCCCCCCCCCCCCCCCCC(=O)[O-]
REMARK SMILES IDX 10 1 11 2 12 3 13 4 14 5 15 6 16 7 17 8 18 9 19 10 20 11
REMARK SMILES IDX 9 12 8 13 7 14 6 15 5 16 4 17 3 18 2 19 1 20
REMARK H PARENT
REMARK Flexibility Score: inf
ROOT
ATOM      1  C   UNL     1     -17.400  42.927 -10.530  1.00  0.00     0.000 C 
ENDROOT
BRANCH   1   2
ATOM      2  C   UNL     1     -18.845  43.166 -11.006  1.00  0.00     0.000 C 
BRANCH   2   3
ATOM      3  C   UNL     1     -19.678  44.110 -10.117  1.00  0.00     0.000 C 
BRANCH   3   4
ATOM      4  C   UNL     1     -19.643  43.786  -8.612  1.00  0.00     0.000 C 
BRANCH   4   5
ATOM      5  C   UNL     1     -18.970  44.882  -7.757  1.00  0.00     0.000 C 
BRANCH   5   6
ATOM      6  C   UNL     1     -18.662  44.402  -6.328  1.00  0.00     0.000 C 
BRANCH   6   7
ATOM      7  C   UNL     1     -17.567  43.324  -6.286  1.00  0.00     0.006 C 
BRANCH   7   8
ATOM      8  C   UNL     1     -17.868  42.212  -5.273  1.00  0.00     0.053 C 
BRANCH   8   9
ATOM      9  C   UNL     1     -17.822  42.754  -3.877  1.00  0.00     0.041 C 
ATOM     10  O   UNL     1     -18.841  42.689  -3.140  1.00  0.00    -0.550 OA
ATOM     11  O   UNL     1     -16.672  43.378  -3.410  1.00  0.00    -0.550 OA
ENDBRANCH   8   9
ENDBRANCH   7   8
ENDBRANCH   6   7
ENDBRANCH   5   6
ENDBRANCH   4   5
ENDBRANCH   3   4
ENDBRANCH   2   3
ENDBRANCH   1   2
BRANCH   1  12
ATOM     12  C   UNL     1     -16.423  44.012 -11.012  1.00  0.00     0.000 C 
BRANCH  12  13
ATOM     13  C   UNL     1     -15.408  44.416  -9.931  1.00  0.00    -0.000 C 
BRANCH  13  14
ATOM     14  C   UNL     1     -14.284  45.317 -10.475  1.00  0.00    -0.000 C 
BRANCH  14  15
ATOM     15  C   UNL     1     -14.253  46.694  -9.779  1.00  0.00    -0.000 C 
BRANCH  15  16
ATOM     16  C   UNL     1     -15.320  47.671 -10.302  1.00  0.00    -0.000 C 
BRANCH  16  17
ATOM     17  C   UNL     1     -14.982  49.141 -10.001  1.00  0.00    -0.000 C 
BRANCH  17  18
ATOM     18  C   UNL     1     -14.011  49.295  -8.820  1.00  0.00    -0.000 C 
BRANCH  18  19
ATOM     19  C   UNL     1     -14.669  49.951  -7.597  1.00  0.00    -0.003 C 
ATOM     20  C   UNL     1     -15.038  51.403  -7.887  1.00  0.00     0.004 C 
ENDBRANCH  18  19
ENDBRANCH  17  18
ENDBRANCH  16  17
ENDBRANCH  15  16
ENDBRANCH  14  15
ENDBRANCH  13  14
ENDBRANCH  12  13
ENDBRANCH   1  12
TORSDOF 16
ENDMDL
MODEL 9
REMARK VINA RESULT:    -2.700      2.474      6.469
REMARK INTER + INTRA:          -7.214
REMARK INTER:                  -5.479
REMARK INTRA:                  -1.736
REMARK UNBOUND:                -1.989
REMARK SMILES CCCCCCCCCCCCCCCCCC(=O)[O-]
REMARK SMILES IDX 10 1 11 2 12 3 13 4 14 5 15 6 16 7 17 8 18 9 19 10 20 11
REMARK SMILES IDX 9 12 8 13 7 14 6 15 5 16 4 17 3 18 2 19 1 20
REMARK H PARENT
REMARK Flexibility Score: inf
ROOT
ATOM      1  C   UNL     1     -15.280  46.748  -8.018  1.00  0.00     0.000 C 
ENDROOT
BRANCH   1   2
ATOM      2  C   UNL     1     -14.634  47.977  -8.683  1.00  0.00     0.000 C 
BRANCH   2   3
ATOM      3  C   UNL     1     -14.337  47.825 -10.187  1.00  0.00     0.000 C 
BRANCH   3   4
ATOM      4  C   UNL     1     -15.382  48.458 -11.125  1.00  0.00     0.000 C 
BRANCH   4   5
ATOM      5  C   UNL     1     -16.807  47.893 -10.936  1.00  0.00     0.000 C 
BRANCH   5   6
ATOM      6  C   UNL     1     -16.847  46.359 -11.047  1.00  0.00     0.000 C 
BRANCH   6   7
ATOM      7  C   UNL     1     -18.067  45.744 -10.343  1.00  0.00     0.006 C 
BRANCH   7   8
ATOM      8  C   UNL     1     -18.570  44.469 -11.033  1.00  0.00     0.053 C 
BRANCH   8   9
ATOM      9  C   UNL     1     -19.243  43.571 -10.042  1.00  0.00     0.041 C 
ATOM     10  O   UNL     1     -20.146  44.024  -9.290  1.00  0.00    -0.550 OA
ATOM     11  O   UNL     1     -18.834  42.250  -9.910  1.00  0.00    -0.550 OA
ENDBRANCH   8   9
ENDBRANCH   7   8
ENDBRANCH   6   7
ENDBRANCH   5   6
ENDBRANCH   4   5
ENDBRANCH   3   4
ENDBRANCH   2   3
ENDBRANCH   1   2
BRANCH   1  12
ATOM     12  C   UNL     1     -14.575  45.430  -8.380  1.00  0.00     0.000 C 
BRANCH  12  13
ATOM     13  C   UNL     1     -15.337  44.194  -7.874  1.00  0.00    -0.000 C 
BRANCH  13  14
ATOM     14  C   UNL     1     -16.744  44.535  -7.348  1.00  0.00    -0.000 C 
BRANCH  14  15
ATOM     15  C   UNL     1     -17.334  43.400  -6.485  1.00  0.00    -0.000 C 
BRANCH  15  16
ATOM     16  C   UNL     1     -16.375  42.893  -5.396  1.00  0.00    -0.000 C 
BRANCH  16  17
ATOM     17  C   UNL     1     -16.974  42.983  -3.982  1.00  0.00    -0.000 C 
BRANCH  17  18
ATOM     18  C   UNL     1     -18.243  42.130  -3.823  1.00  0.00    -0.000 C 
BRANCH  18  19
ATOM     19  C   UNL     1     -19.430  42.936  -3.276  1.00  0.00    -0.003 C 
ATOM     20  C   UNL     1     -19.187  44.435  -3.421  1.00  0.00     0.004 C 
ENDBRANCH  18  19
ENDBRANCH  17  18
ENDBRANCH  16  17
ENDBRANCH  15  16
ENDBRANCH  14  15
ENDBRANCH  13  14
ENDBRANCH  12  13
ENDBRANCH   1  12
TORSDOF 16
ENDMDL
