MODEL 1
REMARK VINA RESULT:    -4.673      0.000      0.000
REMARK INTER + INTRA:          -8.145
REMARK INTER:                  -6.859
REMARK INTRA:                  -1.287
REMARK UNBOUND:                -1.287
REMARK SMILES Cc1cc2c(C(C)C)c(O)c(O)c(C=O)c2c(O)c1-c1c(C)cc2c(C(C)C)c(O)c(O)c(C=O)c2c1O
REMARK SMILES IDX 1 1 2 2 3 3 4 4 16 5 13 6 11 7 9 8 5 9 17 10 19 11 20 12
REMARK SMILES IDX 37 13 21 14 36 15 23 16 22 17 24 18 33 19 25 20 31 21 29 22
REMARK SMILES IDX 38 23 34 25 35 26 26 27 27 28 28 29 32 30 30 32 18 34 6 36
REMARK SMILES IDX 7 37 8 38 14 39 15 40 10 41 12 43
REMARK H PARENT 38 24 32 31 30 33 18 35 10 42 12 44
REMARK Flexibility Score: inf
ROOT
ATOM      1  C   UNL     1     114.263 107.625 100.805  1.00  0.00     0.045 C 
ATOM      2  C   UNL     1     115.141 108.715 100.239  1.00  0.00    -0.039 A 
ATOM      3  C   UNL     1     115.138 109.975 100.838  1.00  0.00     0.013 A 
ATOM      4  C   UNL     1     115.926 111.039 100.346  1.00  0.00    -0.006 A 
ATOM      5  C   UNL     1     116.806 110.790  99.250  1.00  0.00     0.039 A 
ATOM      6  C   UNL     1     117.617 111.856  98.761  1.00  0.00     0.072 A 
ATOM      7  C   UNL     1     117.684 113.069  99.472  1.00  0.00     0.169 A 
ATOM      8  C   UNL     1     116.886 113.269 100.612  1.00  0.00     0.162 A 
ATOM      9  C   UNL     1     115.887 112.331 100.956  1.00  0.00     0.008 A 
ATOM     10  C   UNL     1     116.881 109.472  98.707  1.00  0.00     0.132 A 
ATOM     11  C   UNL     1     116.021 108.457  99.175  1.00  0.00     0.031 A 
ENDROOT
BRANCH  11  12
ATOM     12  C   UNL     1     116.074 107.098  98.574  1.00  0.00     0.031 A 
ATOM     13  C   UNL     1     116.927 106.113  99.117  1.00  0.00     0.132 A 
ATOM     14  C   UNL     1     115.275 106.798  97.459  1.00  0.00    -0.039 A 
ATOM     15  C   UNL     1     117.003 104.818  98.523  1.00  0.00     0.039 A 
ATOM     16  C   UNL     1     115.265 105.499  96.950  1.00  0.00     0.013 A 
ATOM     17  C   UNL     1     114.405 107.854  96.821  1.00  0.00     0.045 C 
ATOM     18  C   UNL     1     116.060 104.475  97.510  1.00  0.00    -0.006 A 
ATOM     19  C   UNL     1     117.966 103.849  98.924  1.00  0.00     0.072 A 
ATOM     20  C   UNL     1     115.957 103.125  97.055  1.00  0.00     0.008 A 
ATOM     21  C   UNL     1     117.944 102.556  98.367  1.00  0.00     0.169 A 
ATOM     22  C   UNL     1     116.969 102.207  97.412  1.00  0.00     0.162 A 
BRANCH  13  23
ATOM     23  O   UNL     1     117.672 106.408 100.265  1.00  0.00    -0.507 OA
ATOM     24  H   UNL     1     118.426 107.082 100.291  1.00  0.00     0.293 HD
ENDBRANCH  13  23
BRANCH  19  25
ATOM     25  C   UNL     1     119.094 104.187  99.824  1.00  0.00     0.264 C 
ATOM     26  O   UNL     1     119.124 103.771 101.013  1.00  0.00    -0.298 OA
ENDBRANCH  19  25
BRANCH  20  27
ATOM     27  C   UNL     1     114.779 102.662  96.178  1.00  0.00     0.017 C 
ATOM     28  C   UNL     1     113.447 102.815  96.919  1.00  0.00     0.012 C 
ATOM     29  C   UNL     1     114.735 103.340  94.795  1.00  0.00     0.012 C 
ENDBRANCH  20  27
BRANCH  21  30
ATOM     30  O   UNL     1     118.917 101.637  98.781  1.00  0.00    -0.504 OA
ATOM     31  H   UNL     1     118.724 100.694  99.084  1.00  0.00     0.293 HD
ENDBRANCH  21  30
BRANCH  22  32
ATOM     32  O   UNL     1     117.008 100.965  96.771  1.00  0.00    -0.504 OA
ATOM     33  H   UNL     1     117.616 100.202  97.027  1.00  0.00     0.293 HD
ENDBRANCH  22  32
ENDBRANCH  11  12
BRANCH  10  34
ATOM     34  O   UNL     1     117.843 109.160  97.740  1.00  0.00    -0.507 OA
ATOM     35  H   UNL     1     117.684 109.225  96.742  1.00  0.00     0.293 HD
ENDBRANCH  10  34
BRANCH   9  36
ATOM     36  C   UNL     1     114.826 112.702 102.007  1.00  0.00     0.017 C 
ATOM     37  C   UNL     1     115.422 112.682 103.418  1.00  0.00     0.012 C 
ATOM     38  C   UNL     1     114.105 114.034 101.724  1.00  0.00     0.012 C 
ENDBRANCH   9  36
BRANCH   6  39
ATOM     39  C   UNL     1     118.338 111.769  97.468  1.00  0.00     0.264 C 
ATOM     40  O   UNL     1     118.057 112.538  96.511  1.00  0.00    -0.298 OA
ENDBRANCH   6  39
BRANCH   8  41
ATOM     41  O   UNL     1     117.077 114.390 101.424  1.00  0.00    -0.504 OA
ATOM     42  H   UNL     1     117.726 115.136 101.217  1.00  0.00     0.293 HD
ENDBRANCH   8  41
BRANCH   7  43
ATOM     43  O   UNL     1     118.517 114.086  98.992  1.00  0.00    -0.504 OA
ATOM     44  H   UNL     1     119.005 114.744  99.583  1.00  0.00     0.293 HD
ENDBRANCH   7  43
TORSDOF 11
ENDMDL
MODEL 2
REMARK VINA RESULT:    -4.611      2.494      3.663
REMARK INTER + INTRA:          -8.055
REMARK INTER:                  -6.901
REMARK INTRA:                  -1.154
REMARK UNBOUND:                -1.287
REMARK SMILES Cc1cc2c(C(C)C)c(O)c(O)c(C=O)c2c(O)c1-c1c(C)cc2c(C(C)C)c(O)c(O)c(C=O)c2c1O
REMARK SMILES IDX 1 1 2 2 3 3 4 4 16 5 13 6 11 7 9 8 5 9 17 10 19 11 20 12
REMARK SMILES IDX 37 13 21 14 36 15 23 16 22 17 24 18 33 19 25 20 31 21 29 22
REMARK SMILES IDX 38 23 34 25 35 26 26 27 27 28 28 29 32 30 30 32 18 34 6 36
REMARK SMILES IDX 7 37 8 38 14 39 15 40 10 41 12 43
REMARK H PARENT 38 24 32 31 30 33 18 35 10 42 12 44
REMARK Flexibility Score: inf
ROOT
ATOM      1  C   UNL     1     116.902 108.724 101.410  1.00  0.00     0.045 C 
ATOM      2  C   UNL     1     116.817 109.145  99.963  1.00  0.00    -0.039 A 
ATOM      3  C   UNL     1     117.336 110.382  99.579  1.00  0.00     0.013 A 
ATOM      4  C   UNL     1     117.274 110.838  98.244  1.00  0.00    -0.006 A 
ATOM      5  C   UNL     1     116.731 109.971  97.248  1.00  0.00     0.039 A 
ATOM      6  C   UNL     1     116.683 110.420  95.895  1.00  0.00     0.072 A 
ATOM      7  C   UNL     1     117.334 111.612  95.529  1.00  0.00     0.169 A 
ATOM      8  C   UNL     1     117.955 112.412  96.505  1.00  0.00     0.162 A 
ATOM      9  C   UNL     1     117.785 112.122  97.876  1.00  0.00     0.008 A 
ATOM     10  C   UNL     1     116.296 108.666  97.628  1.00  0.00     0.132 A 
ATOM     11  C   UNL     1     116.303 108.278  98.985  1.00  0.00     0.031 A 
ENDROOT
BRANCH  11  12
ATOM     12  C   UNL     1     115.807 106.933  99.379  1.00  0.00     0.031 A 
ATOM     13  C   UNL     1     116.676 105.821  99.363  1.00  0.00     0.132 A 
ATOM     14  C   UNL     1     114.466 106.770  99.762  1.00  0.00    -0.039 A 
ATOM     15  C   UNL     1     116.194 104.524  99.710  1.00  0.00     0.039 A 
ATOM     16  C   UNL     1     114.025 105.524 100.210  1.00  0.00     0.013 A 
ATOM     17  C   UNL     1     113.501 107.930  99.723  1.00  0.00     0.045 C 
ATOM     18  C   UNL     1     114.887 104.407 100.266  1.00  0.00    -0.006 A 
ATOM     19  C   UNL     1     116.982 103.348  99.548  1.00  0.00     0.072 A 
ATOM     20  C   UNL     1     114.458 103.169 100.833  1.00  0.00     0.008 A 
ATOM     21  C   UNL     1     116.493 102.103  99.986  1.00  0.00     0.169 A 
ATOM     22  C   UNL     1     115.224 102.007 100.591  1.00  0.00     0.162 A 
BRANCH  13  23
ATOM     23  O   UNL     1     118.025 106.010  99.037  1.00  0.00    -0.507 OA
ATOM     24  H   UNL     1     118.399 106.870  98.658  1.00  0.00     0.293 HD
ENDBRANCH  13  23
BRANCH  19  25
ATOM     25  C   UNL     1     118.265 103.357  98.805  1.00  0.00     0.264 C 
ATOM     26  O   UNL     1     118.489 102.522  97.888  1.00  0.00    -0.298 OA
ENDBRANCH  19  25
BRANCH  20  27
ATOM     27  C   UNL     1     113.177 103.077 101.683  1.00  0.00     0.017 C 
ATOM     28  C   UNL     1     112.102 102.250 100.972  1.00  0.00     0.012 C 
ATOM     29  C   UNL     1     113.423 102.566 103.116  1.00  0.00     0.012 C 
ENDBRANCH  20  27
BRANCH  21  30
ATOM     30  O   UNL     1     117.294 100.970  99.796  1.00  0.00    -0.504 OA
ATOM     31  H   UNL     1     117.814 100.505 100.525  1.00  0.00     0.293 HD
ENDBRANCH  21  30
BRANCH  22  32
ATOM     32  O   UNL     1     114.684 100.762 100.926  1.00  0.00    -0.504 OA
ATOM     33  H   UNL     1     114.355 100.078 100.261  1.00  0.00     0.293 HD
ENDBRANCH  22  32
ENDBRANCH  11  12
BRANCH  10  34
ATOM     34  O   UNL     1     115.907 107.740  96.655  1.00  0.00    -0.507 OA
ATOM     35  H   UNL     1     116.553 107.251  96.049  1.00  0.00     0.293 HD
ENDBRANCH  10  34
BRANCH   9  36
ATOM     36  C   UNL     1     118.201 113.163  98.932  1.00  0.00     0.017 C 
ATOM     37  C   UNL     1     116.973 113.851  99.536  1.00  0.00     0.012 C 
ATOM     38  C   UNL     1     119.125 112.602 100.031  1.00  0.00     0.012 C 
ENDBRANCH   9  36
BRANCH   6  39
ATOM     39  C   UNL     1     115.891 109.715  94.859  1.00  0.00     0.264 C 
ATOM     40  O   UNL     1     116.451 109.023  93.968  1.00  0.00    -0.298 OA
ENDBRANCH   6  39
BRANCH   8  41
ATOM     41  O   UNL     1     118.754 113.495  96.131  1.00  0.00    -0.504 OA
ATOM     42  H   UNL     1     119.436 113.466  95.386  1.00  0.00     0.293 HD
ENDBRANCH   8  41
BRANCH   7  43
ATOM     43  O   UNL     1     117.304 112.012  94.188  1.00  0.00    -0.504 OA
ATOM     44  H   UNL     1     118.117 112.307  93.667  1.00  0.00     0.293 HD
ENDBRANCH   7  43
TORSDOF 11
ENDMDL
MODEL 3
REMARK VINA RESULT:    -4.542      1.798      8.985
REMARK INTER + INTRA:          -7.953
REMARK INTER:                  -6.693
REMARK INTRA:                  -1.260
REMARK UNBOUND:                -1.287
REMARK SMILES Cc1cc2c(C(C)C)c(O)c(O)c(C=O)c2c(O)c1-c1c(C)cc2c(C(C)C)c(O)c(O)c(C=O)c2c1O
REMARK SMILES IDX 1 1 2 2 3 3 4 4 16 5 13 6 11 7 9 8 5 9 17 10 19 11 20 12
REMARK SMILES IDX 37 13 21 14 36 15 23 16 22 17 24 18 33 19 25 20 31 21 29 22
REMARK SMILES IDX 38 23 34 25 35 26 26 27 27 28 28 29 32 30 30 32 18 34 6 36
REMARK SMILES IDX 7 37 8 38 14 39 15 40 10 41 12 43
REMARK H PARENT 38 24 32 31 30 33 18 35 10 42 12 44
REMARK Flexibility Score: inf
ROOT
ATOM      1  C   UNL     1     113.515 107.491 100.123  1.00  0.00     0.045 C 
ATOM      2  C   UNL     1     114.398 106.362  99.650  1.00  0.00    -0.039 A 
ATOM      3  C   UNL     1     113.815 105.235  99.070  1.00  0.00     0.013 A 
ATOM      4  C   UNL     1     114.587 104.140  98.622  1.00  0.00    -0.006 A 
ATOM      5  C   UNL     1     116.009 104.227  98.698  1.00  0.00     0.039 A 
ATOM      6  C   UNL     1     116.793 103.132  98.230  1.00  0.00     0.072 A 
ATOM      7  C   UNL     1     116.177 102.076  97.534  1.00  0.00     0.169 A 
ATOM      8  C   UNL     1     114.780 102.049  97.375  1.00  0.00     0.162 A 
ATOM      9  C   UNL     1     113.968 102.982  98.057  1.00  0.00     0.008 A 
ATOM     10  C   UNL     1     116.604 105.425  99.197  1.00  0.00     0.132 A 
ATOM     11  C   UNL     1     115.798 106.464  99.708  1.00  0.00     0.031 A 
ENDROOT
BRANCH  11  12
ATOM     12  C   UNL     1     116.425 107.691 100.267  1.00  0.00     0.031 A 
ATOM     13  C   UNL     1     116.782 108.758  99.416  1.00  0.00     0.132 A 
ATOM     14  C   UNL     1     116.669 107.781 101.646  1.00  0.00    -0.039 A 
ATOM     15  C   UNL     1     117.414 109.923  99.946  1.00  0.00     0.039 A 
ATOM     16  C   UNL     1     117.182 108.965 102.178  1.00  0.00     0.013 A 
ATOM     17  C   UNL     1     116.358 106.625 102.567  1.00  0.00     0.045 C 
ATOM     18  C   UNL     1     117.490 110.075 101.362  1.00  0.00    -0.006 A 
ATOM     19  C   UNL     1     117.944 110.950  99.113  1.00  0.00     0.072 A 
ATOM     20  C   UNL     1     117.904 111.318 101.927  1.00  0.00     0.008 A 
ATOM     21  C   UNL     1     118.480 112.119  99.687  1.00  0.00     0.169 A 
ATOM     22  C   UNL     1     118.494 112.287 101.086  1.00  0.00     0.162 A 
BRANCH  13  23
ATOM     23  O   UNL     1     116.479 108.679  98.052  1.00  0.00    -0.507 OA
ATOM     24  H   UNL     1     117.117 108.951  97.315  1.00  0.00     0.293 HD
ENDBRANCH  13  23
BRANCH  19  25
ATOM     25  C   UNL     1     118.079 110.783  97.647  1.00  0.00     0.264 C 
ATOM     26  O   UNL     1     117.320 111.398  96.851  1.00  0.00    -0.298 OA
ENDBRANCH  19  25
BRANCH  20  27
ATOM     27  C   UNL     1     117.735 111.612 103.429  1.00  0.00     0.017 C 
ATOM     28  C   UNL     1     116.256 111.768 103.796  1.00  0.00     0.012 C 
ATOM     29  C   UNL     1     118.436 110.588 104.343  1.00  0.00     0.012 C 
ENDBRANCH  20  27
BRANCH  21  30
ATOM     30  O   UNL     1     119.002 113.099  98.832  1.00  0.00    -0.504 OA
ATOM     31  H   UNL     1     119.307 114.014  99.127  1.00  0.00     0.293 HD
ENDBRANCH  21  30
BRANCH  22  32
ATOM     32  O   UNL     1     119.124 113.390 101.667  1.00  0.00    -0.504 OA
ATOM     33  H   UNL     1     119.086 113.627 102.647  1.00  0.00     0.293 HD
ENDBRANCH  22  32
ENDBRANCH  11  12
BRANCH  10  34
ATOM     34  O   UNL     1     117.991 105.602  99.139  1.00  0.00    -0.507 OA
ATOM     35  H   UNL     1     118.623 105.369  99.894  1.00  0.00     0.293 HD
ENDBRANCH  10  34
BRANCH   9  36
ATOM     36  C   UNL     1     112.447 102.758  98.127  1.00  0.00     0.017 C 
ATOM     37  C   UNL     1     111.792 103.011  96.765  1.00  0.00     0.012 C 
ATOM     38  C   UNL     1     112.044 101.382  98.692  1.00  0.00     0.012 C 
ENDBRANCH   9  36
BRANCH   6  39
ATOM     39  C   UNL     1     118.242 103.017  98.526  1.00  0.00     0.264 C 
ATOM     40  O   UNL     1     118.689 102.082  99.243  1.00  0.00    -0.298 OA
ENDBRANCH   6  39
BRANCH   8  41
ATOM     41  O   UNL     1     114.180 101.108  96.535  1.00  0.00    -0.504 OA
ATOM     42  H   UNL     1     114.597 100.222  96.286  1.00  0.00     0.293 HD
ENDBRANCH   8  41
BRANCH   7  43
ATOM     43  O   UNL     1     116.974 101.031  97.051  1.00  0.00    -0.504 OA
ATOM     44  H   UNL     1     116.988 100.101  97.444  1.00  0.00     0.293 HD
ENDBRANCH   7  43
TORSDOF 11
ENDMDL
MODEL 4
REMARK VINA RESULT:    -4.530      2.400      9.019
REMARK INTER + INTRA:          -7.935
REMARK INTER:                  -6.449
REMARK INTRA:                  -1.486
REMARK UNBOUND:                -1.287
REMARK SMILES Cc1cc2c(C(C)C)c(O)c(O)c(C=O)c2c(O)c1-c1c(C)cc2c(C(C)C)c(O)c(O)c(C=O)c2c1O
REMARK SMILES IDX 1 1 2 2 3 3 4 4 16 5 13 6 11 7 9 8 5 9 17 10 19 11 20 12
REMARK SMILES IDX 37 13 21 14 36 15 23 16 22 17 24 18 33 19 25 20 31 21 29 22
REMARK SMILES IDX 38 23 34 25 35 26 26 27 27 28 28 29 32 30 30 32 18 34 6 36
REMARK SMILES IDX 7 37 8 38 14 39 15 40 10 41 12 43
REMARK H PARENT 38 24 32 31 30 33 18 35 10 42 12 44
REMARK Flexibility Score: inf
ROOT
ATOM      1  C   UNL     1     112.561 107.588  99.314  1.00  0.00     0.045 C 
ATOM      2  C   UNL     1     113.274 106.306  98.961  1.00  0.00    -0.039 A 
ATOM      3  C   UNL     1     112.571 105.101  98.998  1.00  0.00     0.013 A 
ATOM      4  C   UNL     1     113.186 103.866  98.694  1.00  0.00    -0.006 A 
ATOM      5  C   UNL     1     114.546 103.866  98.261  1.00  0.00     0.039 A 
ATOM      6  C   UNL     1     115.166 102.625  97.934  1.00  0.00     0.072 A 
ATOM      7  C   UNL     1     114.391 101.453  97.857  1.00  0.00     0.169 A 
ATOM      8  C   UNL     1     113.025 101.482  98.189  1.00  0.00     0.162 A 
ATOM      9  C   UNL     1     112.457 102.639  98.766  1.00  0.00     0.008 A 
ATOM     10  C   UNL     1     115.230 105.112  98.125  1.00  0.00     0.132 A 
ATOM     11  C   UNL     1     114.605 106.316  98.514  1.00  0.00     0.031 A 
ENDROOT
BRANCH  11  12
ATOM     12  C   UNL     1     115.339 107.605  98.411  1.00  0.00     0.031 A 
ATOM     13  C   UNL     1     115.371 108.310  97.189  1.00  0.00     0.132 A 
ATOM     14  C   UNL     1     116.008 108.117  99.534  1.00  0.00    -0.039 A 
ATOM     15  C   UNL     1     116.100 109.532  97.080  1.00  0.00     0.039 A 
ATOM     16  C   UNL     1     116.625 109.367  99.457  1.00  0.00     0.013 A 
ATOM     17  C   UNL     1     116.044 107.348 100.834  1.00  0.00     0.045 C 
ATOM     18  C   UNL     1     116.619 110.126  98.267  1.00  0.00    -0.006 A 
ATOM     19  C   UNL     1     116.303 110.190  95.833  1.00  0.00     0.072 A 
ATOM     20  C   UNL     1     117.153 111.449  98.231  1.00  0.00     0.008 A 
ATOM     21  C   UNL     1     116.956 111.437  95.791  1.00  0.00     0.169 A 
ATOM     22  C   UNL     1     117.411 112.046  96.977  1.00  0.00     0.162 A 
BRANCH  13  23
ATOM     23  O   UNL     1     114.650 107.818  96.095  1.00  0.00    -0.507 OA
ATOM     24  H   UNL     1     113.681 107.530  96.141  1.00  0.00     0.293 HD
ENDBRANCH  13  23
BRANCH  19  25
ATOM     25  C   UNL     1     115.968 109.549  94.540  1.00  0.00     0.264 C 
ATOM     26  O   UNL     1     114.963 109.915  93.875  1.00  0.00    -0.298 OA
ENDBRANCH  19  25
BRANCH  20  27
ATOM     27  C   UNL     1     117.463 112.225  99.525  1.00  0.00     0.017 C 
ATOM     28  C   UNL     1     118.973 112.377  99.727  1.00  0.00     0.012 C 
ATOM     29  C   UNL     1     116.743 113.584  99.618  1.00  0.00     0.012 C 
ENDBRANCH  20  27
BRANCH  21  30
ATOM     30  O   UNL     1     117.146 112.045  94.543  1.00  0.00    -0.504 OA
ATOM     31  H   UNL     1     117.063 111.574  93.655  1.00  0.00     0.293 HD
ENDBRANCH  21  30
BRANCH  22  32
ATOM     32  O   UNL     1     118.158 113.226  96.934  1.00  0.00    -0.504 OA
ATOM     33  H   UNL     1     117.802 114.144  97.156  1.00  0.00     0.293 HD
ENDBRANCH  22  32
ENDBRANCH  11  12
BRANCH  10  34
ATOM     34  O   UNL     1     116.508 105.159  97.557  1.00  0.00    -0.507 OA
ATOM     35  H   UNL     1     117.326 105.514  98.034  1.00  0.00     0.293 HD
ENDBRANCH  10  34
BRANCH   9  36
ATOM     36  C   UNL     1     111.058 102.562  99.405  1.00  0.00     0.017 C 
ATOM     37  C   UNL     1     109.973 102.424  98.332  1.00  0.00     0.012 C 
ATOM     38  C   UNL     1     110.923 101.467 100.480  1.00  0.00     0.012 C 
ENDBRANCH   9  36
BRANCH   6  39
ATOM     39  C   UNL     1     116.633 102.500  97.753  1.00  0.00     0.264 C 
ATOM     40  O   UNL     1     117.135 102.293  96.616  1.00  0.00    -0.298 OA
ENDBRANCH   6  39
BRANCH   8  41
ATOM     41  O   UNL     1     112.211 100.373  97.942  1.00  0.00    -0.504 OA
ATOM     42  H   UNL     1     111.559 100.308  97.173  1.00  0.00     0.293 HD
ENDBRANCH   8  41
BRANCH   7  43
ATOM     43  O   UNL     1     115.016 100.254  97.497  1.00  0.00    -0.504 OA
ATOM     44  H   UNL     1     114.580  99.533  96.939  1.00  0.00     0.293 HD
ENDBRANCH   7  43
TORSDOF 11
ENDMDL
MODEL 5
REMARK VINA RESULT:    -4.508      1.657      3.071
REMARK INTER + INTRA:          -7.903
REMARK INTER:                  -6.661
REMARK INTRA:                  -1.242
REMARK UNBOUND:                -1.287
REMARK SMILES Cc1cc2c(C(C)C)c(O)c(O)c(C=O)c2c(O)c1-c1c(C)cc2c(C(C)C)c(O)c(O)c(C=O)c2c1O
REMARK SMILES IDX 1 1 2 2 3 3 4 4 16 5 13 6 11 7 9 8 5 9 17 10 19 11 20 12
REMARK SMILES IDX 37 13 21 14 36 15 23 16 22 17 24 18 33 19 25 20 31 21 29 22
REMARK SMILES IDX 38 23 34 25 35 26 26 27 27 28 28 29 32 30 30 32 18 34 6 36
REMARK SMILES IDX 7 37 8 38 14 39 15 40 10 41 12 43
REMARK H PARENT 38 24 32 31 30 33 18 35 10 42 12 44
REMARK Flexibility Score: inf
ROOT
ATOM      1  C   UNL     1     113.357 108.189 100.228  1.00  0.00     0.045 C 
ATOM      2  C   UNL     1     114.408 109.188  99.810  1.00  0.00    -0.039 A 
ATOM      3  C   UNL     1     114.202 110.544 100.064  1.00  0.00     0.013 A 
ATOM      4  C   UNL     1     115.142 111.528  99.684  1.00  0.00    -0.006 A 
ATOM      5  C   UNL     1     116.371 111.109  99.092  1.00  0.00     0.039 A 
ATOM      6  C   UNL     1     117.331 112.097  98.724  1.00  0.00     0.072 A 
ATOM      7  C   UNL     1     117.144 113.435  99.114  1.00  0.00     0.169 A 
ATOM      8  C   UNL     1     115.972 113.822  99.789  1.00  0.00     0.162 A 
ATOM      9  C   UNL     1     114.899 112.915  99.927  1.00  0.00     0.008 A 
ATOM     10  C   UNL     1     116.621 109.713  98.929  1.00  0.00     0.132 A 
ATOM     11  C   UNL     1     115.625 108.767  99.249  1.00  0.00     0.031 A 
ENDROOT
BRANCH  11  12
ATOM     12  C   UNL     1     115.876 107.317  99.035  1.00  0.00     0.031 A 
ATOM     13  C   UNL     1     115.487 106.698  97.828  1.00  0.00     0.132 A 
ATOM     14  C   UNL     1     116.496 106.561 100.043  1.00  0.00    -0.039 A 
ATOM     15  C   UNL     1     115.699 105.300  97.633  1.00  0.00     0.039 A 
ATOM     16  C   UNL     1     116.805 105.221  99.807  1.00  0.00     0.013 A 
ATOM     17  C   UNL     1     116.860 107.187 101.368  1.00  0.00     0.045 C 
ATOM     18  C   UNL     1     116.486 104.589  98.585  1.00  0.00    -0.006 A 
ATOM     19  C   UNL     1     115.175 104.598  96.510  1.00  0.00     0.072 A 
ATOM     20  C   UNL     1     116.908 103.253  98.311  1.00  0.00     0.008 A 
ATOM     21  C   UNL     1     115.484 103.237  96.319  1.00  0.00     0.169 A 
ATOM     22  C   UNL     1     116.315 102.559  97.233  1.00  0.00     0.162 A 
BRANCH  13  23
ATOM     23  O   UNL     1     114.925 107.475  96.808  1.00  0.00    -0.507 OA
ATOM     24  H   UNL     1     114.580 107.097  95.935  1.00  0.00     0.293 HD
ENDBRANCH  13  23
BRANCH  19  25
ATOM     25  C   UNL     1     114.194 105.213  95.585  1.00  0.00     0.264 C 
ATOM     26  O   UNL     1     114.533 105.578  94.427  1.00  0.00    -0.298 OA
ENDBRANCH  19  25
BRANCH  20  27
ATOM     27  C   UNL     1     117.978 102.557  99.172  1.00  0.00     0.017 C 
ATOM     28  C   UNL     1     117.343 101.538 100.122  1.00  0.00     0.012 C 
ATOM     29  C   UNL     1     119.118 101.925  98.350  1.00  0.00     0.012 C 
ENDBRANCH  20  27
BRANCH  21  30
ATOM     30  O   UNL     1     114.939 102.581  95.208  1.00  0.00    -0.504 OA
ATOM     31  H   UNL     1     114.881 101.580  95.103  1.00  0.00     0.293 HD
ENDBRANCH  21  30
BRANCH  22  32
ATOM     32  O   UNL     1     116.536 101.184  97.114  1.00  0.00    -0.504 OA
ATOM     33  H   UNL     1     117.387 100.763  96.774  1.00  0.00     0.293 HD
ENDBRANCH  22  32
ENDBRANCH  11  12
BRANCH  10  34
ATOM     34  O   UNL     1     117.875 109.266  98.498  1.00  0.00    -0.507 OA
ATOM     35  H   UNL     1     118.646 109.057  99.120  1.00  0.00     0.293 HD
ENDBRANCH  10  34
BRANCH   9  36
ATOM     36  C   UNL     1     113.521 113.431 100.383  1.00  0.00     0.017 C 
ATOM     37  C   UNL     1     113.542 113.810 101.867  1.00  0.00     0.012 C 
ATOM     38  C   UNL     1     112.970 114.583  99.520  1.00  0.00     0.012 C 
ENDBRANCH   9  36
BRANCH   6  39
ATOM     39  C   UNL     1     118.493 111.782  97.858  1.00  0.00     0.264 C 
ATOM     40  O   UNL     1     118.781 112.503  96.865  1.00  0.00    -0.298 OA
ENDBRANCH   6  39
BRANCH   8  41
ATOM     41  O   UNL     1     115.860 115.101 100.339  1.00  0.00    -0.504 OA
ATOM     42  H   UNL     1     116.431 115.888 100.065  1.00  0.00     0.293 HD
ENDBRANCH   8  41
BRANCH   7  43
ATOM     43  O   UNL     1     118.119 114.380  98.773  1.00  0.00    -0.504 OA
ATOM     44  H   UNL     1     118.998 114.487  99.259  1.00  0.00     0.293 HD
ENDBRANCH   7  43
TORSDOF 11
ENDMDL
MODEL 6
REMARK VINA RESULT:    -4.507      9.843     13.553
REMARK INTER + INTRA:          -7.902
REMARK INTER:                  -6.471
REMARK INTRA:                  -1.431
REMARK UNBOUND:                -1.287
REMARK SMILES Cc1cc2c(C(C)C)c(O)c(O)c(C=O)c2c(O)c1-c1c(C)cc2c(C(C)C)c(O)c(O)c(C=O)c2c1O
REMARK SMILES IDX 1 1 2 2 3 3 4 4 16 5 13 6 11 7 9 8 5 9 17 10 19 11 20 12
REMARK SMILES IDX 37 13 21 14 36 15 23 16 22 17 24 18 33 19 25 20 31 21 29 22
REMARK SMILES IDX 38 23 34 25 35 26 26 27 27 28 28 29 32 30 30 32 18 34 6 36
REMARK SMILES IDX 7 37 8 38 14 39 15 40 10 41 12 43
REMARK H PARENT 38 24 32 31 30 33 18 35 10 42 12 44
REMARK Flexibility Score: inf
ROOT
ATOM      1  C   UNL     1     107.537 112.567  99.458  1.00  0.00     0.045 C 
ATOM      2  C   UNL     1     108.295 113.814  99.073  1.00  0.00    -0.039 A 
ATOM      3  C   UNL     1     109.688 113.819  99.151  1.00  0.00     0.013 A 
ATOM      4  C   UNL     1     110.452 114.959  98.819  1.00  0.00    -0.006 A 
ATOM      5  C   UNL     1     109.779 116.113  98.317  1.00  0.00     0.039 A 
ATOM      6  C   UNL     1     110.547 117.261  97.963  1.00  0.00     0.072 A 
ATOM      7  C   UNL     1     111.951 117.180  97.930  1.00  0.00     0.169 A 
ATOM      8  C   UNL     1     112.606 116.002  98.331  1.00  0.00     0.162 A 
ATOM      9  C   UNL     1     111.877 114.953  98.932  1.00  0.00     0.008 A 
ATOM     10  C   UNL     1     108.363 116.068  98.143  1.00  0.00     0.132 A 
ATOM     11  C   UNL     1     107.627 114.938  98.560  1.00  0.00     0.031 A 
ENDROOT
BRANCH  11  12
ATOM     12  C   UNL     1     106.148 114.915  98.415  1.00  0.00     0.031 A 
ATOM     13  C   UNL     1     105.559 114.554  97.185  1.00  0.00     0.132 A 
ATOM     14  C   UNL     1     105.336 115.262  99.507  1.00  0.00    -0.039 A 
ATOM     15  C   UNL     1     104.139 114.561  97.035  1.00  0.00     0.039 A 
ATOM     16  C   UNL     1     103.949 115.159  99.393  1.00  0.00     0.013 A 
ATOM     17  C   UNL     1     105.944 115.716 100.813  1.00  0.00     0.045 C 
ATOM     18  C   UNL     1     103.331 114.739  98.195  1.00  0.00    -0.006 A 
ATOM     19  C   UNL     1     103.504 114.371  95.774  1.00  0.00     0.072 A 
ATOM     20  C   UNL     1     101.921 114.528  98.125  1.00  0.00     0.008 A 
ATOM     21  C   UNL     1     102.100 114.301  95.693  1.00  0.00     0.169 A 
ATOM     22  C   UNL     1     101.311 114.416  96.855  1.00  0.00     0.162 A 
BRANCH  13  23
ATOM     23  O   UNL     1     106.378 114.153  96.123  1.00  0.00    -0.507 OA
ATOM     24  H   UNL     1     106.304 113.256  95.661  1.00  0.00     0.293 HD
ENDBRANCH  13  23
BRANCH  19  25
ATOM     25  C   UNL     1     104.263 114.373  94.502  1.00  0.00     0.264 C 
ATOM     26  O   UNL     1     104.484 113.302  93.875  1.00  0.00    -0.298 OA
ENDBRANCH  19  25
BRANCH  20  27
ATOM     27  C   UNL     1     101.058 114.436  99.397  1.00  0.00     0.017 C 
ATOM     28  C   UNL     1     101.475 113.241 100.259  1.00  0.00     0.012 C 
ATOM     29  C   UNL     1     101.028 115.739 100.219  1.00  0.00     0.012 C 
ENDBRANCH  20  27
BRANCH  21  30
ATOM     30  O   UNL     1     101.515 114.125  94.433  1.00  0.00    -0.504 OA
ATOM     31  H   UNL     1     102.028 114.000  93.574  1.00  0.00     0.293 HD
ENDBRANCH  21  30
BRANCH  22  32
ATOM     32  O   UNL     1      99.917 114.461  96.771  1.00  0.00    -0.504 OA
ATOM     33  H   UNL     1      99.397 114.801  95.976  1.00  0.00     0.293 HD
ENDBRANCH  22  32
ENDBRANCH  11  12
BRANCH  10  34
ATOM     34  O   UNL     1     107.695 117.122  97.510  1.00  0.00    -0.507 OA
ATOM     35  H   UNL     1     108.156 117.941  97.136  1.00  0.00     0.293 HD
ENDBRANCH  10  34
BRANCH   9  36
ATOM     36  C   UNL     1     112.630 113.813  99.642  1.00  0.00     0.017 C 
ATOM     37  C   UNL     1     113.327 112.901  98.626  1.00  0.00     0.012 C 
ATOM     38  C   UNL     1     113.613 114.295 100.726  1.00  0.00     0.012 C 
ENDBRANCH   9  36
BRANCH   6  39
ATOM     39  C   UNL     1     109.921 118.581  97.708  1.00  0.00     0.264 C 
ATOM     40  O   UNL     1     109.804 119.032  96.538  1.00  0.00    -0.298 OA
ENDBRANCH   6  39
BRANCH   8  41
ATOM     41  O   UNL     1     113.980 115.850  98.129  1.00  0.00    -0.504 OA
ATOM     42  H   UNL     1     114.621 115.505  98.830  1.00  0.00     0.293 HD
ENDBRANCH   8  41
BRANCH   7  43
ATOM     43  O   UNL     1     112.682 118.310  97.543  1.00  0.00    -0.504 OA
ATOM     44  H   UNL     1     112.288 119.235  97.449  1.00  0.00     0.293 HD
ENDBRANCH   7  43
TORSDOF 11
ENDMDL
MODEL 7
REMARK VINA RESULT:    -4.434      1.622      3.031
REMARK INTER + INTRA:          -7.794
REMARK INTER:                  -6.420
REMARK INTRA:                  -1.374
REMARK UNBOUND:                -1.287
REMARK SMILES Cc1cc2c(C(C)C)c(O)c(O)c(C=O)c2c(O)c1-c1c(C)cc2c(C(C)C)c(O)c(O)c(C=O)c2c1O
REMARK SMILES IDX 1 1 2 2 3 3 4 4 16 5 13 6 11 7 9 8 5 9 17 10 19 11 20 12
REMARK SMILES IDX 37 13 21 14 36 15 23 16 22 17 24 18 33 19 25 20 31 21 29 22
REMARK SMILES IDX 38 23 34 25 35 26 26 27 27 28 28 29 32 30 30 32 18 34 6 36
REMARK SMILES IDX 7 37 8 38 14 39 15 40 10 41 12 43
REMARK H PARENT 38 24 32 31 30 33 18 35 10 42 12 44
REMARK Flexibility Score: inf
ROOT
ATOM      1  C   UNL     1     118.317 109.225  97.625  1.00  0.00     0.045 C 
ATOM      2  C   UNL     1     117.345 109.640  98.702  1.00  0.00    -0.039 A 
ATOM      3  C   UNL     1     117.394 110.942  99.202  1.00  0.00     0.013 A 
ATOM      4  C   UNL     1     116.522 111.387 100.220  1.00  0.00    -0.006 A 
ATOM      5  C   UNL     1     115.512 110.496 100.695  1.00  0.00     0.039 A 
ATOM      6  C   UNL     1     114.617 110.946 101.709  1.00  0.00     0.072 A 
ATOM      7  C   UNL     1     114.613 112.300 102.090  1.00  0.00     0.169 A 
ATOM      8  C   UNL     1     115.548 113.196 101.540  1.00  0.00     0.162 A 
ATOM      9  C   UNL     1     116.607 112.716 100.738  1.00  0.00     0.008 A 
ATOM     10  C   UNL     1     115.401 109.199 100.108  1.00  0.00     0.132 A 
ATOM     11  C   UNL     1     116.341 108.766  99.149  1.00  0.00     0.031 A 
ENDROOT
BRANCH  11  12
ATOM     12  C   UNL     1     116.245 107.398  98.574  1.00  0.00     0.031 A 
ATOM     13  C   UNL     1     116.927 106.322  99.181  1.00  0.00     0.132 A 
ATOM     14  C   UNL     1     115.478 107.181  97.418  1.00  0.00    -0.039 A 
ATOM     15  C   UNL     1     116.861 105.014  98.613  1.00  0.00     0.039 A 
ATOM     16  C   UNL     1     115.322 105.883  96.930  1.00  0.00     0.013 A 
ATOM     17  C   UNL     1     114.794 108.328  96.714  1.00  0.00     0.045 C 
ATOM     18  C   UNL     1     115.940 104.776  97.552  1.00  0.00    -0.006 A 
ATOM     19  C   UNL     1     117.662 103.936  99.086  1.00  0.00     0.072 A 
ATOM     20  C   UNL     1     115.682 103.442  97.113  1.00  0.00     0.008 A 
ATOM     21  C   UNL     1     117.498 102.644  98.548  1.00  0.00     0.169 A 
ATOM     22  C   UNL     1     116.540 102.406  97.543  1.00  0.00     0.162 A 
BRANCH  13  23
ATOM     23  O   UNL     1     117.638 106.542 100.366  1.00  0.00    -0.507 OA
ATOM     24  H   UNL     1     117.768 105.841 101.084  1.00  0.00     0.293 HD
ENDBRANCH  13  23
BRANCH  19  25
ATOM     25  C   UNL     1     118.773 104.142 100.045  1.00  0.00     0.264 C 
ATOM     26  O   UNL     1     118.675 103.764 101.243  1.00  0.00    -0.298 OA
ENDBRANCH  19  25
BRANCH  20  27
ATOM     27  C   UNL     1     114.504 103.119  96.175  1.00  0.00     0.017 C 
ATOM     28  C   UNL     1     114.982 102.947  94.730  1.00  0.00     0.012 C 
ATOM     29  C   UNL     1     113.659 101.916  96.636  1.00  0.00     0.012 C 
ENDBRANCH  20  27
BRANCH  21  30
ATOM     30  O   UNL     1     118.314 101.614  99.033  1.00  0.00    -0.504 OA
ATOM     31  H   UNL     1     118.839 100.976  98.454  1.00  0.00     0.293 HD
ENDBRANCH  21  30
BRANCH  22  32
ATOM     32  O   UNL     1     116.448 101.156  96.926  1.00  0.00    -0.504 OA
ATOM     33  H   UNL     1     115.827 100.933  96.162  1.00  0.00     0.293 HD
ENDBRANCH  22  32
ENDBRANCH  11  12
BRANCH  10  34
ATOM     34  O   UNL     1     114.329 108.364 100.439  1.00  0.00    -0.507 OA
ATOM     35  H   UNL     1     113.636 108.585 101.143  1.00  0.00     0.293 HD
ENDBRANCH  10  34
BRANCH   9  36
ATOM     36  C   UNL     1     117.787 113.645 100.401  1.00  0.00     0.017 C 
ATOM     37  C   UNL     1     119.124 112.974 100.731  1.00  0.00     0.012 C 
ATOM     38  C   UNL     1     117.770 114.176  98.955  1.00  0.00     0.012 C 
ENDBRANCH   9  36
BRANCH   6  39
ATOM     39  C   UNL     1     113.736 110.013 102.452  1.00  0.00     0.264 C 
ATOM     40  O   UNL     1     112.492 109.994 102.255  1.00  0.00    -0.298 OA
ENDBRANCH   6  39
BRANCH   8  41
ATOM     41  O   UNL     1     115.436 114.569 101.772  1.00  0.00    -0.504 OA
ATOM     42  H   UNL     1     116.112 115.253 101.464  1.00  0.00     0.293 HD
ENDBRANCH   8  41
BRANCH   7  43
ATOM     43  O   UNL     1     113.699 112.725 103.061  1.00  0.00    -0.504 OA
ATOM     44  H   UNL     1     113.947 113.276 103.870  1.00  0.00     0.293 HD
ENDBRANCH   7  43
TORSDOF 11
ENDMDL
MODEL 8
REMARK VINA RESULT:    -4.357      2.223      3.389
REMARK INTER + INTRA:          -7.682
REMARK INTER:                  -6.197
REMARK INTRA:                  -1.485
REMARK UNBOUND:                -1.287
REMARK SMILES Cc1cc2c(C(C)C)c(O)c(O)c(C=O)c2c(O)c1-c1c(C)cc2c(C(C)C)c(O)c(O)c(C=O)c2c1O
REMARK SMILES IDX 1 1 2 2 3 3 4 4 16 5 13 6 11 7 9 8 5 9 17 10 19 11 20 12
REMARK SMILES IDX 37 13 21 14 36 15 23 16 22 17 24 18 33 19 25 20 31 21 29 22
REMARK SMILES IDX 38 23 34 25 35 26 26 27 27 28 28 29 32 30 30 32 18 34 6 36
REMARK SMILES IDX 7 37 8 38 14 39 15 40 10 41 12 43
REMARK H PARENT 38 24 32 31 30 33 18 35 10 42 12 44
REMARK Flexibility Score: inf
ROOT
ATOM      1  C   UNL     1     114.972 107.689 100.883  1.00  0.00     0.045 C 
ATOM      2  C   UNL     1     115.330 108.402  99.601  1.00  0.00    -0.039 A 
ATOM      3  C   UNL     1     116.009 109.619  99.663  1.00  0.00     0.013 A 
ATOM      4  C   UNL     1     116.359 110.341  98.500  1.00  0.00    -0.006 A 
ATOM      5  C   UNL     1     116.073 109.766  97.225  1.00  0.00     0.039 A 
ATOM      6  C   UNL     1     116.441 110.482  96.049  1.00  0.00     0.072 A 
ATOM      7  C   UNL     1     117.238 111.637  96.151  1.00  0.00     0.169 A 
ATOM      8  C   UNL     1     117.600 112.141  97.413  1.00  0.00     0.162 A 
ATOM      9  C   UNL     1     117.029 111.600  98.586  1.00  0.00     0.008 A 
ATOM     10  C   UNL     1     115.471 108.473  97.168  1.00  0.00     0.132 A 
ATOM     11  C   UNL     1     115.067 107.820  98.351  1.00  0.00     0.031 A 
ENDROOT
BRANCH  11  12
ATOM     12  C   UNL     1     114.400 106.492  98.280  1.00  0.00     0.031 A 
ATOM     13  C   UNL     1     115.170 105.313  98.197  1.00  0.00     0.132 A 
ATOM     14  C   UNL     1     112.998 106.416  98.290  1.00  0.00    -0.039 A 
ATOM     15  C   UNL     1     114.532 104.040  98.097  1.00  0.00     0.039 A 
ATOM     16  C   UNL     1     112.378 105.166  98.308  1.00  0.00     0.013 A 
ATOM     17  C   UNL     1     112.153 107.667  98.312  1.00  0.00     0.045 C 
ATOM     18  C   UNL     1     113.122 103.966  98.289  1.00  0.00    -0.006 A 
ATOM     19  C   UNL     1     115.257 102.841  97.841  1.00  0.00     0.072 A 
ATOM     20  C   UNL     1     112.483 102.697  98.423  1.00  0.00     0.008 A 
ATOM     21  C   UNL     1     114.592 101.600  97.838  1.00  0.00     0.169 A 
ATOM     22  C   UNL     1     113.208 101.531  98.091  1.00  0.00     0.162 A 
BRANCH  13  23
ATOM     23  O   UNL     1     116.567 105.400  98.248  1.00  0.00    -0.507 OA
ATOM     24  H   UNL     1     117.181 104.598  98.288  1.00  0.00     0.293 HD
ENDBRANCH  13  23
BRANCH  19  25
ATOM     25  C   UNL     1     116.684 102.854  97.441  1.00  0.00     0.264 C 
ATOM     26  O   UNL     1     117.585 102.473  98.235  1.00  0.00    -0.298 OA
ENDBRANCH  19  25
BRANCH  20  27
ATOM     27  C   UNL     1     111.025 102.579  98.905  1.00  0.00     0.017 C 
ATOM     28  C   UNL     1     110.105 102.124  97.769  1.00  0.00     0.012 C 
ATOM     29  C   UNL     1     110.857 101.693 100.154  1.00  0.00     0.012 C 
ENDBRANCH  20  27
BRANCH  21  30
ATOM     30  O   UNL     1     115.340 100.446  97.570  1.00  0.00    -0.504 OA
ATOM     31  H   UNL     1     114.982  99.504  97.622  1.00  0.00     0.293 HD
ENDBRANCH  21  30
BRANCH  22  32
ATOM     32  O   UNL     1     112.520 100.320  97.979  1.00  0.00    -0.504 OA
ATOM     33  H   UNL     1     111.539 100.231  97.760  1.00  0.00     0.293 HD
ENDBRANCH  22  32
ENDBRANCH  11  12
BRANCH  10  34
ATOM     34  O   UNL     1     115.322 107.817  95.940  1.00  0.00    -0.507 OA
ATOM     35  H   UNL     1     114.618 107.114  95.756  1.00  0.00     0.293 HD
ENDBRANCH  10  34
BRANCH   9  36
ATOM     36  C   UNL     1     117.186 112.348  99.923  1.00  0.00     0.017 C 
ATOM     37  C   UNL     1     118.616 112.218 100.457  1.00  0.00     0.012 C 
ATOM     38  C   UNL     1     116.742 113.822  99.869  1.00  0.00     0.012 C 
ENDBRANCH   9  36
BRANCH   6  39
ATOM     39  C   UNL     1     115.938 110.103  94.706  1.00  0.00     0.264 C 
ATOM     40  O   UNL     1     116.677 109.512  93.875  1.00  0.00    -0.298 OA
ENDBRANCH   6  39
BRANCH   8  41
ATOM     41  O   UNL     1     118.536 113.172  97.523  1.00  0.00    -0.504 OA
ATOM     42  H   UNL     1     118.887 113.528  98.401  1.00  0.00     0.293 HD
ENDBRANCH   8  41
BRANCH   7  43
ATOM     43  O   UNL     1     117.617 112.300  94.979  1.00  0.00    -0.504 OA
ATOM     44  H   UNL     1     117.207 113.166  94.660  1.00  0.00     0.293 HD
ENDBRANCH   7  43
TORSDOF 11
ENDMDL
MODEL 9
REMARK VINA RESULT:    -4.296     10.114     14.074
REMARK INTER + INTRA:          -7.591
REMARK INTER:                  -6.243
REMARK INTRA:                  -1.348
REMARK UNBOUND:                -1.287
REMARK SMILES Cc1cc2c(C(C)C)c(O)c(O)c(C=O)c2c(O)c1-c1c(C)cc2c(C(C)C)c(O)c(O)c(C=O)c2c1O
REMARK SMILES IDX 1 1 2 2 3 3 4 4 16 5 13 6 11 7 9 8 5 9 17 10 19 11 20 12
REMARK SMILES IDX 37 13 21 14 36 15 23 16 22 17 24 18 33 19 25 20 31 21 29 22
REMARK SMILES IDX 38 23 34 25 35 26 26 27 27 28 28 29 32 30 30 32 18 34 6 36
REMARK SMILES IDX 7 37 8 38 14 39 15 40 10 41 12 43
REMARK H PARENT 38 24 32 31 30 33 18 35 10 42 12 44
REMARK Flexibility Score: inf
ROOT
ATOM      1  C   UNL     1     106.136 114.730 101.019  1.00  0.00     0.045 C 
ATOM      2  C   UNL     1     105.341 114.627  99.740  1.00  0.00    -0.039 A 
ATOM      3  C   UNL     1     103.947 114.630  99.799  1.00  0.00     0.013 A 
ATOM      4  C   UNL     1     103.148 114.522  98.639  1.00  0.00    -0.006 A 
ATOM      5  C   UNL     1     103.791 114.486  97.365  1.00  0.00     0.039 A 
ATOM      6  C   UNL     1     102.989 114.397  96.190  1.00  0.00     0.072 A 
ATOM      7  C   UNL     1     101.592 114.535  96.284  1.00  0.00     0.169 A 
ATOM      8  C   UNL     1     100.973 114.671  97.539  1.00  0.00     0.162 A 
ATOM      9  C   UNL     1     101.722 114.497  98.724  1.00  0.00     0.008 A 
ATOM     10  C   UNL     1     105.214 114.588  97.304  1.00  0.00     0.132 A 
ATOM     11  C   UNL     1     105.979 114.615  98.489  1.00  0.00     0.031 A 
ENDROOT
BRANCH  11  12
ATOM     12  C   UNL     1     107.464 114.677  98.418  1.00  0.00     0.031 A 
ATOM     13  C   UNL     1     108.119 115.921  98.307  1.00  0.00     0.132 A 
ATOM     14  C   UNL     1     108.212 113.490  98.454  1.00  0.00    -0.039 A 
ATOM     15  C   UNL     1     109.542 115.981  98.206  1.00  0.00     0.039 A 
ATOM     16  C   UNL     1     109.606 113.556  98.471  1.00  0.00     0.013 A 
ATOM     17  C   UNL     1     107.530 112.143  98.505  1.00  0.00     0.045 C 
ATOM     18  C   UNL     1     110.292 114.789  98.425  1.00  0.00    -0.006 A 
ATOM     19  C   UNL     1     110.237 117.191  97.924  1.00  0.00     0.072 A 
ATOM     20  C   UNL     1     111.712 114.851  98.558  1.00  0.00     0.008 A 
ATOM     21  C   UNL     1     111.645 117.214  97.920  1.00  0.00     0.169 A 
ATOM     22  C   UNL     1     112.379 116.043  98.199  1.00  0.00     0.162 A 
BRANCH  13  23
ATOM     23  O   UNL     1     107.364 117.100  98.332  1.00  0.00    -0.507 OA
ATOM     24  H   UNL     1     107.557 117.880  98.946  1.00  0.00     0.293 HD
ENDBRANCH  13  23
BRANCH  19  25
ATOM     25  C   UNL     1     109.532 118.423  97.496  1.00  0.00     0.264 C 
ATOM     26  O   UNL     1     109.746 118.934  96.365  1.00  0.00    -0.298 OA
ENDBRANCH  19  25
BRANCH  20  27
ATOM     27  C   UNL     1     112.524 113.645  99.067  1.00  0.00     0.017 C 
ATOM     28  C   UNL     1     113.406 113.067  97.956  1.00  0.00     0.012 C 
ATOM     29  C   UNL     1     113.343 113.943 100.337  1.00  0.00     0.012 C 
ENDBRANCH  20  27
BRANCH  21  30
ATOM     30  O   UNL     1     112.290 118.422  97.626  1.00  0.00    -0.504 OA
ATOM     31  H   UNL     1     112.043 119.034  96.863  1.00  0.00     0.293 HD
ENDBRANCH  21  30
BRANCH  22  32
ATOM     32  O   UNL     1     113.771 116.029  98.088  1.00  0.00    -0.504 OA
ATOM     33  H   UNL     1     114.354 115.216  98.224  1.00  0.00     0.293 HD
ENDBRANCH  22  32
ENDBRANCH  11  12
BRANCH  10  34
ATOM     34  O   UNL     1     105.861 114.713  96.070  1.00  0.00    -0.507 OA
ATOM     35  H   UNL     1     106.781 114.341  95.873  1.00  0.00     0.293 HD
ENDBRANCH  10  34
BRANCH   9  36
ATOM     36  C   UNL     1     100.990 114.341 100.070  1.00  0.00     0.017 C 
ATOM     37  C   UNL     1     100.361 115.667 100.508  1.00  0.00     0.012 C 
ATOM     38  C   UNL     1      99.956 113.199 100.089  1.00  0.00     0.012 C 
ENDBRANCH   9  36
BRANCH   6  39
ATOM     39  C   UNL     1     103.567 114.072  94.864  1.00  0.00     0.264 C 
ATOM     40  O   UNL     1     103.675 114.950  93.967  1.00  0.00    -0.298 OA
ENDBRANCH   6  39
BRANCH   8  41
ATOM     41  O   UNL     1      99.616 114.990  97.630  1.00  0.00    -0.504 OA
ATOM     42  H   UNL     1      99.262 115.862  97.999  1.00  0.00     0.293 HD
ENDBRANCH   8  41
BRANCH   7  43
ATOM     43  O   UNL     1     100.829 114.481  95.111  1.00  0.00    -0.504 OA
ATOM     44  H   UNL     1     101.177 114.732  94.197  1.00  0.00     0.293 HD
ENDBRANCH   7  43
TORSDOF 11
ENDMDL
