MODEL 1
REMARK VINA RESULT:    -0.176      0.000      0.000
REMARK INTER + INTRA:          -0.459
REMARK INTER:                  -0.217
REMARK INTRA:                  -0.242
REMARK UNBOUND:                -0.242
REMARK SMILES CCCCC=CC(C)=O
REMARK SMILES IDX 4 1 3 2 2 3 1 4 5 5 6 6 7 7 9 8 8 9
REMARK H PARENT
REMARK Flexibility Score: inf
ROOT
ATOM      1  C   UNL     1     135.323 136.834 141.398  1.00  0.00     0.027 C 
ENDROOT
BRANCH   1   2
ATOM      2  C   UNL     1     135.697 135.391 141.026  1.00  0.00     0.004 C 
BRANCH   2   3
ATOM      3  C   UNL     1     135.286 135.026 139.591  1.00  0.00    -0.003 C 
ATOM      4  C   UNL     1     134.018 135.752 139.140  1.00  0.00     0.004 C 
ENDBRANCH   2   3
ENDBRANCH   1   2
BRANCH   1   5
ATOM      5  C   UNL     1     136.551 137.668 141.630  1.00  0.00    -0.023 C 
ATOM      6  C   UNL     1     137.763 137.111 141.729  1.00  0.00     0.042 C 
BRANCH   6   7
ATOM      7  C   UNL     1     138.997 137.889 141.970  1.00  0.00     0.152 C 
ATOM      8  O   UNL     1     140.082 137.267 142.125  1.00  0.00    -0.295 OA
ATOM      9  C   UNL     1     139.003 139.387 142.034  1.00  0.00     0.093 C 
ENDBRANCH   6   7
ENDBRANCH   1   5
TORSDOF 4
ENDMDL
MODEL 2
REMARK VINA RESULT:    -0.136      2.057      2.263
REMARK INTER + INTRA:          -0.410
REMARK INTER:                  -0.155
REMARK INTRA:                  -0.255
REMARK UNBOUND:                -0.242
REMARK SMILES CCCCC=CC(C)=O
REMARK SMILES IDX 4 1 3 2 2 3 1 4 5 5 6 6 7 7 9 8 8 9
REMARK H PARENT
REMARK Flexibility Score: inf
ROOT
ATOM      1  C   UNL     1     135.568 137.834 140.420  1.00  0.00     0.027 C 
ENDROOT
BRANCH   1   2
ATOM      2  C   UNL     1     135.312 136.711 139.403  1.00  0.00     0.004 C 
BRANCH   2   3
ATOM      3  C   UNL     1     135.580 137.154 137.957  1.00  0.00    -0.003 C 
ATOM      4  C   UNL     1     136.780 136.439 137.334  1.00  0.00     0.004 C 
ENDBRANCH   2   3
ENDBRANCH   1   2
BRANCH   1   5
ATOM      5  C   UNL     1     137.027 137.933 140.762  1.00  0.00    -0.023 C 
ATOM      6  C   UNL     1     137.731 139.040 140.499  1.00  0.00     0.042 C 
BRANCH   6   7
ATOM      7  C   UNL     1     139.170 139.179 140.806  1.00  0.00     0.152 C 
ATOM      8  O   UNL     1     139.931 139.662 139.925  1.00  0.00    -0.295 OA
ATOM      9  C   UNL     1     139.755 138.769 142.124  1.00  0.00     0.093 C 
ENDBRANCH   6   7
ENDBRANCH   1   5
TORSDOF 4
ENDMDL
MODEL 3
REMARK VINA RESULT:    -0.134      2.857      3.332
REMARK INTER + INTRA:          -0.407
REMARK INTER:                  -0.151
REMARK INTRA:                  -0.256
REMARK UNBOUND:                -0.242
REMARK SMILES CCCCC=CC(C)=O
REMARK SMILES IDX 4 1 3 2 2 3 1 4 5 5 6 6 7 7 9 8 8 9
REMARK H PARENT
REMARK Flexibility Score: inf
ROOT
ATOM      1  C   UNL     1     137.023 135.913 138.492  1.00  0.00     0.027 C 
ENDROOT
BRANCH   1   2
ATOM      2  C   UNL     1     136.890 137.330 137.910  1.00  0.00     0.004 C 
BRANCH   2   3
ATOM      3  C   UNL     1     137.694 137.512 136.614  1.00  0.00    -0.003 C 
ATOM      4  C   UNL     1     137.874 136.204 135.843  1.00  0.00     0.004 C 
ENDBRANCH   2   3
ENDBRANCH   1   2
BRANCH   1   5
ATOM      5  C   UNL     1     137.894 135.911 139.716  1.00  0.00    -0.023 C 
ATOM      6  C   UNL     1     138.259 137.051 140.314  1.00  0.00     0.042 C 
BRANCH   6   7
ATOM      7  C   UNL     1     139.123 137.098 141.511  1.00  0.00     0.152 C 
ATOM      8  O   UNL     1     139.315 138.209 142.073  1.00  0.00    -0.295 OA
ATOM      9  C   UNL     1     139.777 135.875 142.081  1.00  0.00     0.093 C 
ENDBRANCH   6   7
ENDBRANCH   1   5
TORSDOF 4
ENDMDL
MODEL 4
REMARK VINA RESULT:    -0.130      2.923      5.088
REMARK INTER + INTRA:          -0.402
REMARK INTER:                  -0.154
REMARK INTRA:                  -0.248
REMARK UNBOUND:                -0.242
REMARK SMILES CCCCC=CC(C)=O
REMARK SMILES IDX 4 1 3 2 2 3 1 4 5 5 6 6 7 7 9 8 8 9
REMARK H PARENT
REMARK Flexibility Score: inf
ROOT
ATOM      1  C   UNL     1     137.256 137.779 141.226  1.00  0.00     0.027 C 
ENDROOT
BRANCH   1   2
ATOM      2  C   UNL     1     137.587 139.280 141.260  1.00  0.00     0.004 C 
BRANCH   2   3
ATOM      3  C   UNL     1     138.819 139.592 142.123  1.00  0.00    -0.003 C 
ATOM      4  C   UNL     1     139.843 138.457 142.120  1.00  0.00     0.004 C 
ENDBRANCH   2   3
ENDBRANCH   1   2
BRANCH   1   5
ATOM      5  C   UNL     1     137.132 137.284 139.813  1.00  0.00    -0.023 C 
ATOM      6  C   UNL     1     137.006 138.132 138.786  1.00  0.00     0.042 C 
BRANCH   6   7
ATOM      7  C   UNL     1     136.869 137.692 137.382  1.00  0.00     0.152 C 
ATOM      8  O   UNL     1     137.806 137.940 136.577  1.00  0.00    -0.295 OA
ATOM      9  C   UNL     1     135.658 136.963 136.882  1.00  0.00     0.093 C 
ENDBRANCH   6   7
ENDBRANCH   1   5
TORSDOF 4
ENDMDL
MODEL 5
REMARK VINA RESULT:    -0.118     22.381     23.208
REMARK INTER + INTRA:          -0.387
REMARK INTER:                  -0.075
REMARK INTRA:                  -0.313
REMARK UNBOUND:                -0.242
REMARK SMILES CCCCC=CC(C)=O
REMARK SMILES IDX 4 1 3 2 2 3 1 4 5 5 6 6 7 7 9 8 8 9
REMARK H PARENT
REMARK Flexibility Score: inf
ROOT
ATOM      1  C   UNL     1     136.089 122.965 123.666  1.00  0.00     0.027 C 
ENDROOT
BRANCH   1   2
ATOM      2  C   UNL     1     135.019 121.910 123.990  1.00  0.00     0.004 C 
BRANCH   2   3
ATOM      3  C   UNL     1     134.864 121.673 125.500  1.00  0.00    -0.003 C 
ATOM      4  C   UNL     1     135.173 120.231 125.904  1.00  0.00     0.004 C 
ENDBRANCH   2   3
ENDBRANCH   1   2
BRANCH   1   5
ATOM      5  C   UNL     1     137.468 122.440 123.947  1.00  0.00    -0.023 C 
ATOM      6  C   UNL     1     137.922 121.324 123.364  1.00  0.00     0.042 C 
BRANCH   6   7
ATOM      7  C   UNL     1     139.265 120.764 123.618  1.00  0.00     0.152 C 
ATOM      8  O   UNL     1     140.119 120.797 122.692  1.00  0.00    -0.295 OA
ATOM      9  C   UNL     1     139.648 120.159 124.936  1.00  0.00     0.093 C 
ENDBRANCH   6   7
ENDBRANCH   1   5
TORSDOF 4
ENDMDL
MODEL 6
REMARK VINA RESULT:    -0.111     21.899     22.957
REMARK INTER + INTRA:          -0.379
REMARK INTER:                  -0.071
REMARK INTRA:                  -0.308
REMARK UNBOUND:                -0.242
REMARK SMILES CCCCC=CC(C)=O
REMARK SMILES IDX 4 1 3 2 2 3 1 4 5 5 6 6 7 7 9 8 8 9
REMARK H PARENT
REMARK Flexibility Score: inf
ROOT
ATOM      1  C   UNL     1     135.529 122.078 125.520  1.00  0.00     0.027 C 
ENDROOT
BRANCH   1   2
ATOM      2  C   UNL     1     134.711 121.620 124.302  1.00  0.00     0.004 C 
BRANCH   2   3
ATOM      3  C   UNL     1     134.675 122.675 123.186  1.00  0.00    -0.003 C 
ATOM      4  C   UNL     1     135.275 122.167 121.875  1.00  0.00     0.004 C 
ENDBRANCH   2   3
ENDBRANCH   1   2
BRANCH   1   5
ATOM      5  C   UNL     1     136.999 122.077 125.216  1.00  0.00    -0.023 C 
ATOM      6  C   UNL     1     137.617 120.978 124.768  1.00  0.00     0.042 C 
BRANCH   6   7
ATOM      7  C   UNL     1     139.063 120.925 124.467  1.00  0.00     0.152 C 
ATOM      8  O   UNL     1     139.817 120.273 125.238  1.00  0.00    -0.295 OA
ATOM      9  C   UNL     1     139.664 121.616 123.280  1.00  0.00     0.093 C 
ENDBRANCH   6   7
ENDBRANCH   1   5
TORSDOF 4
ENDMDL
MODEL 7
REMARK VINA RESULT:    -0.108     20.293     21.939
REMARK INTER + INTRA:          -0.375
REMARK INTER:                  -0.063
REMARK INTRA:                  -0.312
REMARK UNBOUND:                -0.242
REMARK SMILES CCCCC=CC(C)=O
REMARK SMILES IDX 4 1 3 2 2 3 1 4 5 5 6 6 7 7 9 8 8 9
REMARK H PARENT
REMARK Flexibility Score: inf
ROOT
ATOM      1  C   UNL     1     122.129 136.548 128.240  1.00  0.00     0.027 C 
ENDROOT
BRANCH   1   2
ATOM      2  C   UNL     1     121.201 135.327 128.338  1.00  0.00     0.004 C 
BRANCH   2   3
ATOM      3  C   UNL     1     121.405 134.337 127.181  1.00  0.00    -0.003 C 
ATOM      4  C   UNL     1     120.142 134.143 126.342  1.00  0.00     0.004 C 
ENDBRANCH   2   3
ENDBRANCH   1   2
BRANCH   1   5
ATOM      5  C   UNL     1     121.738 137.434 127.092  1.00  0.00    -0.023 C 
ATOM      6  C   UNL     1     120.520 137.983 127.018  1.00  0.00     0.042 C 
BRANCH   6   7
ATOM      7  C   UNL     1     120.086 138.850 125.903  1.00  0.00     0.152 C 
ATOM      8  O   UNL     1     119.877 140.070 126.133  1.00  0.00    -0.295 OA
ATOM      9  C   UNL     1     119.887 138.330 124.511  1.00  0.00     0.093 C 
ENDBRANCH   6   7
ENDBRANCH   1   5
TORSDOF 4
ENDMDL
MODEL 8
REMARK VINA RESULT:    -0.021     10.358     12.363
REMARK INTER + INTRA:          -0.268
REMARK INTER:                   0.000
REMARK INTRA:                  -0.268
REMARK UNBOUND:                -0.242
REMARK SMILES CCCCC=CC(C)=O
REMARK SMILES IDX 4 1 3 2 2 3 1 4 5 5 6 6 7 7 9 8 8 9
REMARK H PARENT
REMARK Flexibility Score: inf
ROOT
ATOM      1  C   UNL     1     134.123 135.408 127.819  1.00  0.00     0.027 C 
ENDROOT
BRANCH   1   2
ATOM      2  C   UNL     1     133.421 134.043 127.892  1.00  0.00     0.004 C 
BRANCH   2   3
ATOM      3  C   UNL     1     133.351 133.492 129.325  1.00  0.00    -0.003 C 
ATOM      4  C   UNL     1     131.923 133.153 129.756  1.00  0.00     0.004 C 
ENDBRANCH   2   3
ENDBRANCH   1   2
BRANCH   1   5
ATOM      5  C   UNL     1     134.179 136.060 129.171  1.00  0.00    -0.023 C 
ATOM      6  C   UNL     1     133.582 137.235 129.404  1.00  0.00     0.042 C 
BRANCH   6   7
ATOM      7  C   UNL     1     133.621 137.920 130.713  1.00  0.00     0.152 C 
ATOM      8  O   UNL     1     133.144 139.083 130.800  1.00  0.00    -0.295 OA
ATOM      9  C   UNL     1     134.204 137.282 131.937  1.00  0.00     0.093 C 
ENDBRANCH   6   7
ENDBRANCH   1   5
TORSDOF 4
ENDMDL
