MODEL 1
REMARK VINA RESULT:    -4.606      0.000      0.000
REMARK INTER + INTRA:          -5.144
REMARK INTER:                  -5.144
REMARK INTRA:                   0.000
REMARK UNBOUND:                 0.000
REMARK SMILES Oc1cc(O)c2c(ccc3ccc(O)c(O)c32)c1
REMARK SMILES IDX 9 1 8 2 7 3 18 4 2 5 3 6 4 7 6 8 17 9 10 10 11 11 12 12
REMARK SMILES IDX 13 13 15 14 16 15 1 17 5 19 14 21
REMARK H PARENT 16 16 1 18 5 20 14 22
REMARK Flexibility Score: inf
ROOT
ATOM      1  C   UNL     1     150.197 156.242 162.469  1.00  0.00     0.009 A 
ATOM      2  C   UNL     1     149.644 154.972 162.367  1.00  0.00     0.009 A 
ATOM      3  C   UNL     1     148.994 154.393 163.462  1.00  0.00    -0.010 A 
ATOM      4  C   UNL     1     148.510 153.080 163.355  1.00  0.00     0.055 A 
ATOM      5  C   UNL     1     147.977 152.431 164.467  1.00  0.00     0.119 A 
ATOM      6  C   UNL     1     147.980 153.070 165.707  1.00  0.00     0.093 A 
ATOM      7  C   UNL     1     148.478 154.374 165.840  1.00  0.00     0.127 A 
ATOM      8  C   UNL     1     148.869 155.111 164.685  1.00  0.00     0.035 A 
ATOM      9  C   UNL     1     149.238 156.495 164.708  1.00  0.00     0.039 A 
ATOM     10  C   UNL     1     149.997 157.011 163.620  1.00  0.00    -0.014 A 
ATOM     11  C   UNL     1     150.513 158.313 163.670  1.00  0.00     0.013 A 
ATOM     12  C   UNL     1     150.241 159.133 164.759  1.00  0.00     0.051 A 
ATOM     13  C   UNL     1     149.378 158.706 165.767  1.00  0.00     0.158 A 
ATOM     14  C   UNL     1     148.798 157.418 165.699  1.00  0.00     0.166 A 
ENDROOT
BRANCH  14  15
ATOM     15  O   UNL     1     147.713 157.095 166.518  1.00  0.00    -0.504 OA
ATOM     16  H   UNL     1     147.334 157.714 167.221  1.00  0.00     0.293 HD
ENDBRANCH  14  15
BRANCH   5  17
ATOM     17  O   UNL     1     147.481 151.136 164.335  1.00  0.00    -0.508 OA
ATOM     18  H   UNL     1     146.556 150.958 163.961  1.00  0.00     0.293 HD
ENDBRANCH   5  17
BRANCH   7  19
ATOM     19  O   UNL     1     148.672 154.881 167.125  1.00  0.00    -0.507 OA
ATOM     20  H   UNL     1     148.349 154.389 167.950  1.00  0.00     0.293 HD
ENDBRANCH   7  19
BRANCH  13  21
ATOM     21  O   UNL     1     149.113 159.590 166.816  1.00  0.00    -0.504 OA
ATOM     22  H   UNL     1     149.076 160.593 166.705  1.00  0.00     0.293 HD
ENDBRANCH  13  21
TORSDOF 4
ENDMDL
MODEL 2
REMARK VINA RESULT:    -4.550     14.610     15.644
REMARK INTER + INTRA:          -5.082
REMARK INTER:                  -5.082
REMARK INTRA:                   0.000
REMARK UNBOUND:                 0.000
REMARK SMILES Oc1cc(O)c2c(ccc3ccc(O)c(O)c32)c1
REMARK SMILES IDX 9 1 8 2 7 3 18 4 2 5 3 6 4 7 6 8 17 9 10 10 11 11 12 12
REMARK SMILES IDX 13 13 15 14 16 15 1 17 5 19 14 21
REMARK H PARENT 16 16 1 18 5 20 14 22
REMARK Flexibility Score: inf
ROOT
ATOM      1  C   UNL     1     163.343 147.977 166.689  1.00  0.00     0.009 A 
ATOM      2  C   UNL     1     162.026 147.909 167.125  1.00  0.00     0.009 A 
ATOM      3  C   UNL     1     160.973 147.939 166.205  1.00  0.00    -0.010 A 
ATOM      4  C   UNL     1     159.651 147.945 166.677  1.00  0.00     0.055 A 
ATOM      5  C   UNL     1     158.586 148.108 165.793  1.00  0.00     0.119 A 
ATOM      6  C   UNL     1     158.840 148.326 164.439  1.00  0.00     0.093 A 
ATOM      7  C   UNL     1     160.154 148.346 163.950  1.00  0.00     0.127 A 
ATOM      8  C   UNL     1     161.240 148.013 164.808  1.00  0.00     0.035 A 
ATOM      9  C   UNL     1     162.592 147.853 164.360  1.00  0.00     0.039 A 
ATOM     10  C   UNL     1     163.638 147.942 165.322  1.00  0.00    -0.014 A 
ATOM     11  C   UNL     1     164.978 147.948 164.912  1.00  0.00     0.013 A 
ATOM     12  C   UNL     1     165.301 147.810 163.567  1.00  0.00     0.051 A 
ATOM     13  C   UNL     1     164.304 147.573 162.622  1.00  0.00     0.158 A 
ATOM     14  C   UNL     1     162.951 147.501 163.029  1.00  0.00     0.166 A 
ENDROOT
BRANCH  14  15
ATOM     15  O   UNL     1     161.988 146.966 162.167  1.00  0.00    -0.504 OA
ATOM     16  H   UNL     1     162.141 146.809 161.181  1.00  0.00     0.293 HD
ENDBRANCH  14  15
BRANCH   5  17
ATOM     17  O   UNL     1     157.281 148.088 166.279  1.00  0.00    -0.508 OA
ATOM     18  H   UNL     1     156.558 147.533 165.835  1.00  0.00     0.293 HD
ENDBRANCH   5  17
BRANCH   7  19
ATOM     19  O   UNL     1     160.368 148.792 162.646  1.00  0.00    -0.507 OA
ATOM     20  H   UNL     1     160.143 148.221 161.839  1.00  0.00     0.293 HD
ENDBRANCH   7  19
BRANCH  13  21
ATOM     21  O   UNL     1     164.693 147.405 161.291  1.00  0.00    -0.504 OA
ATOM     22  H   UNL     1     164.796 148.170 160.639  1.00  0.00     0.293 HD
ENDBRANCH  13  21
TORSDOF 4
ENDMDL
MODEL 3
REMARK VINA RESULT:    -4.530      2.089      6.321
REMARK INTER + INTRA:          -5.059
REMARK INTER:                  -5.059
REMARK INTRA:                   0.000
REMARK UNBOUND:                 0.000
REMARK SMILES Oc1cc(O)c2c(ccc3ccc(O)c(O)c32)c1
REMARK SMILES IDX 9 1 8 2 7 3 18 4 2 5 3 6 4 7 6 8 17 9 10 10 11 11 12 12
REMARK SMILES IDX 13 13 15 14 16 15 1 17 5 19 14 21
REMARK H PARENT 16 16 1 18 5 20 14 22
REMARK Flexibility Score: inf
ROOT
ATOM      1  C   UNL     1     147.994 151.477 166.682  1.00  0.00     0.009 A 
ATOM      2  C   UNL     1     147.934 152.792 167.125  1.00  0.00     0.009 A 
ATOM      3  C   UNL     1     147.959 153.850 166.209  1.00  0.00    -0.010 A 
ATOM      4  C   UNL     1     147.973 155.169 166.687  1.00  0.00     0.055 A 
ATOM      5  C   UNL     1     148.130 156.237 165.807  1.00  0.00     0.119 A 
ATOM      6  C   UNL     1     148.335 155.989 164.450  1.00  0.00     0.093 A 
ATOM      7  C   UNL     1     148.346 154.677 163.954  1.00  0.00     0.127 A 
ATOM      8  C   UNL     1     148.019 153.588 164.811  1.00  0.00     0.035 A 
ATOM      9  C   UNL     1     147.851 152.239 164.358  1.00  0.00     0.039 A 
ATOM     10  C   UNL     1     147.946 151.188 165.314  1.00  0.00    -0.014 A 
ATOM     11  C   UNL     1     147.944 149.850 164.898  1.00  0.00     0.013 A 
ATOM     12  C   UNL     1     147.793 149.534 163.553  1.00  0.00     0.051 A 
ATOM     13  C   UNL     1     147.549 150.536 162.615  1.00  0.00     0.158 A 
ATOM     14  C   UNL     1     147.485 151.887 163.029  1.00  0.00     0.166 A 
ENDROOT
BRANCH  14  15
ATOM     15  O   UNL     1     146.945 152.855 162.177  1.00  0.00    -0.504 OA
ATOM     16  H   UNL     1     147.352 153.768 162.031  1.00  0.00     0.293 HD
ENDBRANCH  14  15
BRANCH   5  17
ATOM     17  O   UNL     1     148.118 157.541 166.299  1.00  0.00    -0.508 OA
ATOM     18  H   UNL     1     148.443 158.321 165.740  1.00  0.00     0.293 HD
ENDBRANCH   5  17
BRANCH   7  19
ATOM     19  O   UNL     1     148.780 154.468 162.645  1.00  0.00    -0.507 OA
ATOM     20  H   UNL     1     149.746 154.604 162.372  1.00  0.00     0.293 HD
ENDBRANCH   7  19
BRANCH  13  21
ATOM     21  O   UNL     1     147.368 150.153 161.284  1.00  0.00    -0.504 OA
ATOM     22  H   UNL     1     146.682 150.572 160.672  1.00  0.00     0.293 HD
ENDBRANCH  13  21
TORSDOF 4
ENDMDL
MODEL 4
REMARK VINA RESULT:    -4.454     12.005     12.950
REMARK INTER + INTRA:          -4.975
REMARK INTER:                  -4.975
REMARK INTRA:                   0.000
REMARK UNBOUND:                 0.000
REMARK SMILES Oc1cc(O)c2c(ccc3ccc(O)c(O)c32)c1
REMARK SMILES IDX 9 1 8 2 7 3 18 4 2 5 3 6 4 7 6 8 17 9 10 10 11 11 12 12
REMARK SMILES IDX 13 13 15 14 16 15 1 17 5 19 14 21
REMARK H PARENT 16 16 1 18 5 20 14 22
REMARK Flexibility Score: inf
ROOT
ATOM      1  C   UNL     1     158.973 150.043 162.399  1.00  0.00     0.009 A 
ATOM      2  C   UNL     1     160.239 149.475 162.350  1.00  0.00     0.009 A 
ATOM      3  C   UNL     1     160.773 148.838 163.475  1.00  0.00    -0.010 A 
ATOM      4  C   UNL     1     162.083 148.338 163.422  1.00  0.00     0.055 A 
ATOM      5  C   UNL     1     162.687 147.818 164.565  1.00  0.00     0.119 A 
ATOM      6  C   UNL     1     162.006 147.851 165.782  1.00  0.00     0.093 A 
ATOM      7  C   UNL     1     160.705 148.366 165.862  1.00  0.00     0.127 A 
ATOM      8  C   UNL     1     160.012 148.743 164.676  1.00  0.00     0.035 A 
ATOM      9  C   UNL     1     158.632 149.128 164.645  1.00  0.00     0.039 A 
ATOM     10  C   UNL     1     158.163 149.872 163.526  1.00  0.00    -0.014 A 
ATOM     11  C   UNL     1     156.866 150.403 163.523  1.00  0.00     0.013 A 
ATOM     12  C   UNL     1     156.006 150.160 164.587  1.00  0.00     0.051 A 
ATOM     13  C   UNL     1     156.388 149.312 165.625  1.00  0.00     0.158 A 
ATOM     14  C   UNL     1     157.672 148.717 165.611  1.00  0.00     0.166 A 
ENDROOT
BRANCH  14  15
ATOM     15  O   UNL     1     157.954 147.642 166.460  1.00  0.00    -0.504 OA
ATOM     16  H   UNL     1     158.311 146.753 166.142  1.00  0.00     0.293 HD
ENDBRANCH  14  15
BRANCH   5  17
ATOM     17  O   UNL     1     163.980 147.306 164.486  1.00  0.00    -0.508 OA
ATOM     18  H   UNL     1     164.201 146.370 164.808  1.00  0.00     0.293 HD
ENDBRANCH   5  17
BRANCH   7  19
ATOM     19  O   UNL     1     160.157 148.588 167.125  1.00  0.00    -0.507 OA
ATOM     20  H   UNL     1     160.715 148.533 167.969  1.00  0.00     0.293 HD
ENDBRANCH   7  19
BRANCH  13  21
ATOM     21  O   UNL     1     155.467 149.075 166.648  1.00  0.00    -0.504 OA
ATOM     22  H   UNL     1     155.647 149.283 167.620  1.00  0.00     0.293 HD
ENDBRANCH  13  21
TORSDOF 4
ENDMDL
MODEL 5
REMARK VINA RESULT:    -4.431      3.603      6.272
REMARK INTER + INTRA:          -4.950
REMARK INTER:                  -4.950
REMARK INTRA:                   0.000
REMARK UNBOUND:                 0.000
REMARK SMILES Oc1cc(O)c2c(ccc3ccc(O)c(O)c32)c1
REMARK SMILES IDX 9 1 8 2 7 3 18 4 2 5 3 6 4 7 6 8 17 9 10 10 11 11 12 12
REMARK SMILES IDX 13 13 15 14 16 15 1 17 5 19 14 21
REMARK H PARENT 16 16 1 18 5 20 14 22
REMARK Flexibility Score: inf
ROOT
ATOM      1  C   UNL     1     151.125 160.259 162.302  1.00  0.00     0.009 A 
ATOM      2  C   UNL     1     152.506 160.376 162.399  1.00  0.00     0.009 A 
ATOM      3  C   UNL     1     153.166 160.006 163.576  1.00  0.00    -0.010 A 
ATOM      4  C   UNL     1     154.552 160.205 163.674  1.00  0.00     0.055 A 
ATOM      5  C   UNL     1     155.215 159.970 164.877  1.00  0.00     0.119 A 
ATOM      6  C   UNL     1     154.486 159.593 166.005  1.00  0.00     0.093 A 
ATOM      7  C   UNL     1     153.098 159.410 165.934  1.00  0.00     0.127 A 
ATOM      8  C   UNL     1     152.432 159.481 164.677  1.00  0.00     0.035 A 
ATOM      9  C   UNL     1     151.050 159.153 164.486  1.00  0.00     0.039 A 
ATOM     10  C   UNL     1     150.392 159.648 163.324  1.00  0.00    -0.014 A 
ATOM     11  C   UNL     1     149.009 159.486 163.171  1.00  0.00     0.013 A 
ATOM     12  C   UNL     1     148.274 158.792 164.125  1.00  0.00     0.051 A 
ATOM     13  C   UNL     1     148.915 158.170 165.195  1.00  0.00     0.158 A 
ATOM     14  C   UNL     1     150.320 158.269 165.329  1.00  0.00     0.166 A 
ENDROOT
BRANCH  14  15
ATOM     15  O   UNL     1     151.002 157.413 166.198  1.00  0.00    -0.504 OA
ATOM     16  H   UNL     1     151.932 157.058 166.024  1.00  0.00     0.293 HD
ENDBRANCH  14  15
BRANCH   5  17
ATOM     17  O   UNL     1     156.594 160.151 164.948  1.00  0.00    -0.508 OA
ATOM     18  H   UNL     1     157.226 159.367 165.065  1.00  0.00     0.293 HD
ENDBRANCH   5  17
BRANCH   7  19
ATOM     19  O   UNL     1     152.388 159.260 167.125  1.00  0.00    -0.507 OA
ATOM     20  H   UNL     1     151.588 158.642 167.199  1.00  0.00     0.293 HD
ENDBRANCH   7  19
BRANCH  13  21
ATOM     21  O   UNL     1     148.128 157.454 166.100  1.00  0.00    -0.504 OA
ATOM     22  H   UNL     1     148.225 156.461 166.261  1.00  0.00     0.293 HD
ENDBRANCH  13  21
TORSDOF 4
ENDMDL
MODEL 6
REMARK VINA RESULT:    -4.418     13.385     14.264
REMARK INTER + INTRA:          -4.935
REMARK INTER:                  -4.935
REMARK INTRA:                   0.000
REMARK UNBOUND:                 0.000
REMARK SMILES Oc1cc(O)c2c(ccc3ccc(O)c(O)c32)c1
REMARK SMILES IDX 9 1 8 2 7 3 18 4 2 5 3 6 4 7 6 8 17 9 10 10 11 11 12 12
REMARK SMILES IDX 13 13 15 14 16 15 1 17 5 19 14 21
REMARK H PARENT 16 16 1 18 5 20 14 22
REMARK Flexibility Score: inf
ROOT
ATOM      1  C   UNL     1     163.640 154.505 162.312  1.00  0.00     0.009 A 
ATOM      2  C   UNL     1     162.258 154.418 162.422  1.00  0.00     0.009 A 
ATOM      3  C   UNL     1     161.615 154.824 163.596  1.00  0.00    -0.010 A 
ATOM      4  C   UNL     1     160.226 154.657 163.709  1.00  0.00     0.055 A 
ATOM      5  C   UNL     1     159.578 154.928 164.912  1.00  0.00     0.119 A 
ATOM      6  C   UNL     1     160.323 155.310 166.028  1.00  0.00     0.093 A 
ATOM      7  C   UNL     1     161.715 155.463 165.942  1.00  0.00     0.127 A 
ATOM      8  C   UNL     1     162.368 155.355 164.682  1.00  0.00     0.035 A 
ATOM      9  C   UNL     1     163.755 155.650 164.474  1.00  0.00     0.039 A 
ATOM     10  C   UNL     1     164.394 155.119 163.317  1.00  0.00    -0.014 A 
ATOM     11  C   UNL     1     165.779 155.249 163.150  1.00  0.00     0.013 A 
ATOM     12  C   UNL     1     166.535 155.946 164.085  1.00  0.00     0.051 A 
ATOM     13  C   UNL     1     165.916 156.601 165.148  1.00  0.00     0.158 A 
ATOM     14  C   UNL     1     164.511 156.533 165.295  1.00  0.00     0.166 A 
ENDROOT
BRANCH  14  15
ATOM     15  O   UNL     1     163.853 157.420 166.153  1.00  0.00    -0.504 OA
ATOM     16  H   UNL     1     163.746 158.407 165.968  1.00  0.00     0.293 HD
ENDBRANCH  14  15
BRANCH   5  17
ATOM     17  O   UNL     1     158.196 154.777 164.997  1.00  0.00    -0.508 OA
ATOM     18  H   UNL     1     157.707 154.853 165.882  1.00  0.00     0.293 HD
ENDBRANCH   5  17
BRANCH   7  19
ATOM     19  O   UNL     1     162.437 155.620 167.125  1.00  0.00    -0.507 OA
ATOM     20  H   UNL     1     163.376 155.253 167.233  1.00  0.00     0.293 HD
ENDBRANCH   7  19
BRANCH  13  21
ATOM     21  O   UNL     1     166.725 157.318 166.034  1.00  0.00    -0.504 OA
ATOM     22  H   UNL     1     167.732 157.238 166.058  1.00  0.00     0.293 HD
ENDBRANCH  13  21
TORSDOF 4
ENDMDL
MODEL 7
REMARK VINA RESULT:    -4.415      7.459      9.114
REMARK INTER + INTRA:          -4.931
REMARK INTER:                  -4.931
REMARK INTRA:                   0.000
REMARK UNBOUND:                 0.000
REMARK SMILES Oc1cc(O)c2c(ccc3ccc(O)c(O)c32)c1
REMARK SMILES IDX 9 1 8 2 7 3 18 4 2 5 3 6 4 7 6 8 17 9 10 10 11 11 12 12
REMARK SMILES IDX 13 13 15 14 16 15 1 17 5 19 14 21
REMARK H PARENT 16 16 1 18 5 20 14 22
REMARK Flexibility Score: inf
ROOT
ATOM      1  C   UNL     1     154.525 151.157 162.331  1.00  0.00     0.009 A 
ATOM      2  C   UNL     1     154.433 152.539 162.427  1.00  0.00     0.009 A 
ATOM      3  C   UNL     1     154.842 153.197 163.592  1.00  0.00    -0.010 A 
ATOM      4  C   UNL     1     154.669 154.586 163.691  1.00  0.00     0.055 A 
ATOM      5  C   UNL     1     154.943 155.248 164.886  1.00  0.00     0.119 A 
ATOM      6  C   UNL     1     155.335 154.516 166.007  1.00  0.00     0.093 A 
ATOM      7  C   UNL     1     155.493 153.125 165.936  1.00  0.00     0.127 A 
ATOM      8  C   UNL     1     155.382 152.457 164.683  1.00  0.00     0.035 A 
ATOM      9  C   UNL     1     155.682 151.069 164.488  1.00  0.00     0.039 A 
ATOM     10  C   UNL     1     155.149 150.417 163.341  1.00  0.00    -0.014 A 
ATOM     11  C   UNL     1     155.284 149.031 163.188  1.00  0.00     0.013 A 
ATOM     12  C   UNL     1     155.989 148.287 164.127  1.00  0.00     0.051 A 
ATOM     13  C   UNL     1     156.647 148.920 165.180  1.00  0.00     0.158 A 
ATOM     14  C   UNL     1     156.573 150.327 165.313  1.00  0.00     0.166 A 
ENDROOT
BRANCH  14  15
ATOM     15  O   UNL     1     157.461 150.998 166.159  1.00  0.00    -0.504 OA
ATOM     16  H   UNL     1     157.811 150.614 167.025  1.00  0.00     0.293 HD
ENDBRANCH  14  15
BRANCH   5  17
ATOM     17  O   UNL     1     154.786 156.630 164.957  1.00  0.00    -0.508 OA
ATOM     18  H   UNL     1     154.821 157.211 164.127  1.00  0.00     0.293 HD
ENDBRANCH   5  17
BRANCH   7  19
ATOM     19  O   UNL     1     155.660 152.415 167.125  1.00  0.00    -0.507 OA
ATOM     20  H   UNL     1     155.224 151.513 167.276  1.00  0.00     0.293 HD
ENDBRANCH   7  19
BRANCH  13  21
ATOM     21  O   UNL     1     157.371 148.124 166.070  1.00  0.00    -0.504 OA
ATOM     22  H   UNL     1     156.943 147.570 166.798  1.00  0.00     0.293 HD
ENDBRANCH  13  21
TORSDOF 4
ENDMDL
MODEL 8
REMARK VINA RESULT:    -4.410     11.788     12.680
REMARK INTER + INTRA:          -4.925
REMARK INTER:                  -4.925
REMARK INTRA:                   0.000
REMARK UNBOUND:                 0.000
REMARK SMILES Oc1cc(O)c2c(ccc3ccc(O)c(O)c32)c1
REMARK SMILES IDX 9 1 8 2 7 3 18 4 2 5 3 6 4 7 6 8 17 9 10 10 11 11 12 12
REMARK SMILES IDX 13 13 15 14 16 15 1 17 5 19 14 21
REMARK H PARENT 16 16 1 18 5 20 14 22
REMARK Flexibility Score: inf
ROOT
ATOM      1  C   UNL     1     160.245 163.714 162.286  1.00  0.00     0.009 A 
ATOM      2  C   UNL     1     160.370 162.336 162.402  1.00  0.00     0.009 A 
ATOM      3  C   UNL     1     160.003 161.689 163.587  1.00  0.00    -0.010 A 
ATOM      4  C   UNL     1     160.209 160.306 163.704  1.00  0.00     0.055 A 
ATOM      5  C   UNL     1     159.977 159.657 164.915  1.00  0.00     0.119 A 
ATOM      6  C   UNL     1     159.596 160.399 166.033  1.00  0.00     0.093 A 
ATOM      7  C   UNL     1     159.406 161.785 165.943  1.00  0.00     0.127 A 
ATOM      8  C   UNL     1     159.473 162.435 164.678  1.00  0.00     0.035 A 
ATOM      9  C   UNL     1     159.138 163.812 164.468  1.00  0.00     0.039 A 
ATOM     10  C   UNL     1     159.630 164.457 163.298  1.00  0.00    -0.014 A 
ATOM     11  C   UNL     1     159.460 165.837 163.127  1.00  0.00     0.013 A 
ATOM     12  C   UNL     1     158.762 166.581 164.071  1.00  0.00     0.051 A 
ATOM     13  C   UNL     1     158.142 165.951 165.149  1.00  0.00     0.158 A 
ATOM     14  C   UNL     1     158.250 164.549 165.302  1.00  0.00     0.166 A 
ENDROOT
BRANCH  14  15
ATOM     15  O   UNL     1     157.397 163.873 166.180  1.00  0.00    -0.504 OA
ATOM     16  H   UNL     1     156.758 164.335 166.810  1.00  0.00     0.293 HD
ENDBRANCH  14  15
BRANCH   5  17
ATOM     17  O   UNL     1     160.166 158.280 165.004  1.00  0.00    -0.508 OA
ATOM     18  H   UNL     1     161.056 157.851 164.777  1.00  0.00     0.293 HD
ENDBRANCH   5  17
BRANCH   7  19
ATOM     19  O   UNL     1     159.252 162.510 167.125  1.00  0.00    -0.507 OA
ATOM     20  H   UNL     1     158.401 163.021 167.334  1.00  0.00     0.293 HD
ENDBRANCH   7  19
BRANCH  13  21
ATOM     21  O   UNL     1     157.422 166.746 166.043  1.00  0.00    -0.504 OA
ATOM     22  H   UNL     1     156.700 166.387 166.651  1.00  0.00     0.293 HD
ENDBRANCH  13  21
TORSDOF 4
ENDMDL
MODEL 9
REMARK VINA RESULT:    -4.324     13.679     14.791
REMARK INTER + INTRA:          -4.830
REMARK INTER:                  -4.830
REMARK INTRA:                   0.000
REMARK UNBOUND:                 0.000
REMARK SMILES Oc1cc(O)c2c(ccc3ccc(O)c(O)c32)c1
REMARK SMILES IDX 9 1 8 2 7 3 18 4 2 5 3 6 4 7 6 8 17 9 10 10 11 11 12 12
REMARK SMILES IDX 13 13 15 14 16 15 1 17 5 19 14 21
REMARK H PARENT 16 16 1 18 5 20 14 22
REMARK Flexibility Score: inf
ROOT
ATOM      1  C   UNL     1     159.677 147.821 166.866  1.00  0.00     0.009 A 
ATOM      2  C   UNL     1     161.042 147.832 167.125  1.00  0.00     0.009 A 
ATOM      3  C   UNL     1     161.959 148.000 166.082  1.00  0.00    -0.010 A 
ATOM      4  C   UNL     1     163.333 147.932 166.360  1.00  0.00     0.055 A 
ATOM      5  C   UNL     1     164.265 147.963 165.326  1.00  0.00     0.119 A 
ATOM      6  C   UNL     1     163.827 148.000 164.002  1.00  0.00     0.093 A 
ATOM      7  C   UNL     1     162.458 148.046 163.701  1.00  0.00     0.127 A 
ATOM      8  C   UNL     1     161.502 148.186 164.746  1.00  0.00     0.035 A 
ATOM      9  C   UNL     1     160.102 148.400 164.525  1.00  0.00     0.039 A 
ATOM     10  C   UNL     1     159.197 148.109 165.584  1.00  0.00    -0.014 A 
ATOM     11  C   UNL     1     157.814 148.153 165.367  1.00  0.00     0.013 A 
ATOM     12  C   UNL     1     157.310 148.536 164.129  1.00  0.00     0.051 A 
ATOM     13  C   UNL     1     158.170 148.970 163.120  1.00  0.00     0.158 A 
ATOM     14  C   UNL     1     159.566 148.992 163.346  1.00  0.00     0.166 A 
ENDROOT
BRANCH  14  15
ATOM     15  O   UNL     1     160.404 149.700 162.480  1.00  0.00    -0.504 OA
ATOM     16  H   UNL     1     160.202 149.854 161.502  1.00  0.00     0.293 HD
ENDBRANCH  14  15
BRANCH   5  17
ATOM     17  O   UNL     1     165.625 147.917 165.625  1.00  0.00    -0.508 OA
ATOM     18  H   UNL     1     166.002 147.239 166.276  1.00  0.00     0.293 HD
ENDBRANCH   5  17
BRANCH   7  19
ATOM     19  O   UNL     1     162.065 147.851 162.377  1.00  0.00    -0.507 OA
ATOM     20  H   UNL     1     161.227 148.278 161.998  1.00  0.00     0.293 HD
ENDBRANCH   7  19
BRANCH  13  21
ATOM     21  O   UNL     1     157.602 149.379 161.911  1.00  0.00    -0.504 OA
ATOM     22  H   UNL     1     158.120 149.851 161.184  1.00  0.00     0.293 HD
ENDBRANCH  13  21
TORSDOF 4
ENDMDL
