MODEL 1
REMARK VINA RESULT:    -3.169      0.000      0.000
REMARK INTER + INTRA:          -5.133
REMARK INTER:                  -4.836
REMARK INTRA:                  -0.298
REMARK UNBOUND:                -0.298
REMARK SMILES CC1=CCC[C@@H](C)C(=O)C[C@@H](C(C)C)C(=O)C1
REMARK SMILES IDX 8 1 9 2 6 3 7 4 5 5 4 6 3 7 2 8 1 9 10 11 11 12 15 13 16 14
REMARK SMILES IDX 17 15 12 17 13 18 14 19
REMARK H PARENT
REMARK Flexibility Score: 70.00
ROOT
ATOM      1  C   UNL     1      34.386  69.383 103.623  1.00  0.00     0.136 C 
ATOM      2  O   UNL     1      34.934  69.420 102.530  1.00  0.00    -0.299 OA
ENDROOT
BRANCH   1   3
ATOM      3  C   UNL     1      33.740  68.095 104.106  1.00  0.00     0.053 C 
ATOM      4  C   UNL     1      34.764  66.972 104.336  1.00  0.00     0.016 C 
BRANCH   3   5
ATOM      5  C   UNL     1      32.560  67.640 103.213  1.00  0.00     0.015 C 
BRANCH   5   6
ATOM      6  C   UNL     1      31.142  68.134 103.575  1.00  0.00     0.028 C 
BRANCH   6   7
ATOM      7  C   UNL     1      30.779  68.187 105.042  1.00  0.00    -0.028 C 
ATOM      8  C   UNL     1      30.896  69.256 105.866  1.00  0.00    -0.070 CG0
ATOM      9  C   UNL     1      30.646  69.039 107.338  1.00  0.00     0.039 C 
ATOM     10  G   UNL     1      31.184  70.665 105.387  1.00  0.00     0.000 G0
ENDBRANCH   6   7
ENDBRANCH   5   6
ENDBRANCH   3   5
ENDBRANCH   1   3
BRANCH   1  11
ATOM     11  C   UNL     1      34.379  70.636 104.477  1.00  0.00     0.087 C 
BRANCH  11  12
ATOM     12  C   UNL     1      33.776  70.432 105.894  1.00  0.00     0.066 C 
BRANCH  12  13
ATOM     13  C   UNL     1      32.466  71.191 106.021  1.00  0.00     0.140 C 
ATOM     14  O   UNL     1      32.447  72.254 106.626  1.00  0.00    -0.299 OA
BRANCH  13  15
ATOM     15  C   UNL     1      31.192  70.677 105.392  1.00  0.00     0.106 CG0
ATOM     16  G   UNL     1      30.917  69.263 105.865  1.00  0.00     0.000 G0
ENDBRANCH  13  15
ENDBRANCH  12  13
BRANCH  12  17
ATOM     17  C   UNL     1      34.772  70.846 107.023  1.00  0.00    -0.006 C 
ATOM     18  C   UNL     1      36.015  71.562 106.465  1.00  0.00     0.008 C 
ATOM     19  C   UNL     1      35.225  69.623 107.842  1.00  0.00     0.008 C 
ENDBRANCH  12  17
ENDBRANCH  11  12
ENDBRANCH   1  11
TORSDOF 1
ENDMDL
MODEL 2
REMARK VINA RESULT:    -3.081      2.176      5.222
REMARK INTER + INTRA:          -5.000
REMARK INTER:                  -4.758
REMARK INTRA:                  -0.242
REMARK UNBOUND:                -0.298
REMARK SMILES CC1=CCC[C@@H](C)C(=O)C[C@@H](C(C)C)C(=O)C1
REMARK SMILES IDX 8 1 9 2 6 3 7 4 5 5 4 6 3 7 2 8 1 9 10 11 11 12 15 13 16 14
REMARK SMILES IDX 17 15 12 17 13 18 14 19
REMARK H PARENT
REMARK Flexibility Score: 70.00
ROOT
ATOM      1  C   UNL     1      30.616  69.195 106.696  1.00  0.00     0.136 C 
ATOM      2  O   UNL     1      29.966  68.550 107.508  1.00  0.00    -0.299 OA
ENDROOT
BRANCH   1   3
ATOM      3  C   UNL     1      31.241  70.519 107.103  1.00  0.00     0.053 C 
ATOM      4  C   UNL     1      30.536  71.725 106.462  1.00  0.00     0.016 C 
BRANCH   3   5
ATOM      5  C   UNL     1      32.774  70.553 106.889  1.00  0.00     0.015 C 
BRANCH   5   6
ATOM      6  C   UNL     1      33.317  71.267 105.632  1.00  0.00     0.028 C 
BRANCH   6   7
ATOM      7  C   UNL     1      34.456  70.601 104.892  1.00  0.00    -0.028 C 
ATOM      8  C   UNL     1      34.354  69.594 103.991  1.00  0.00    -0.070 CG0
ATOM      9  C   UNL     1      35.632  68.954 103.508  1.00  0.00     0.039 C 
ATOM     10  G   UNL     1      33.045  69.129 103.385  1.00  0.00     0.000 G0
ENDBRANCH   6   7
ENDBRANCH   5   6
ENDBRANCH   3   5
ENDBRANCH   1   3
BRANCH   1  11
ATOM     11  C   UNL     1      30.791  68.638 105.297  1.00  0.00     0.087 C 
BRANCH  11  12
ATOM     12  C   UNL     1      31.905  67.560 105.181  1.00  0.00     0.066 C 
BRANCH  12  13
ATOM     13  C   UNL     1      32.687  67.751 103.892  1.00  0.00     0.140 C 
ATOM     14  O   UNL     1      33.007  66.770 103.236  1.00  0.00    -0.299 OA
BRANCH  13  15
ATOM     15  C   UNL     1      33.052  69.128 103.387  1.00  0.00     0.106 CG0
ATOM     16  G   UNL     1      34.368  69.569 103.996  1.00  0.00     0.000 G0
ENDBRANCH  13  15
ENDBRANCH  12  13
BRANCH  12  17
ATOM     17  C   UNL     1      31.334  66.110 105.276  1.00  0.00    -0.006 C 
ATOM     18  C   UNL     1      29.821  66.064 104.996  1.00  0.00     0.008 C 
ATOM     19  C   UNL     1      31.603  65.496 106.662  1.00  0.00     0.008 C 
ENDBRANCH  12  17
ENDBRANCH  11  12
ENDBRANCH   1  11
TORSDOF 1
ENDMDL
MODEL 3
REMARK VINA RESULT:    -3.059      2.425      3.921
REMARK INTER + INTRA:          -4.966
REMARK INTER:                  -4.609
REMARK INTRA:                  -0.357
REMARK UNBOUND:                -0.298
REMARK SMILES CC1=CCC[C@@H](C)C(=O)C[C@@H](C(C)C)C(=O)C1
REMARK SMILES IDX 8 1 9 2 6 3 7 4 5 5 4 6 3 7 2 8 1 9 10 11 11 12 15 13 16 14
REMARK SMILES IDX 17 15 12 17 13 18 14 19
REMARK H PARENT
REMARK Flexibility Score: 70.00
ROOT
ATOM      1  C   UNL     1      31.350  68.610 103.987  1.00  0.00     0.136 C 
ATOM      2  O   UNL     1      31.145  69.671 103.414  1.00  0.00    -0.299 OA
ENDROOT
BRANCH   1   3
ATOM      3  C   UNL     1      31.704  67.369 103.184  1.00  0.00     0.053 C 
ATOM      4  C   UNL     1      31.265  66.071 103.880  1.00  0.00     0.016 C 
BRANCH   3   5
ATOM      5  C   UNL     1      33.192  67.332 102.757  1.00  0.00     0.015 C 
BRANCH   5   6
ATOM      6  C   UNL     1      34.179  66.527 103.630  1.00  0.00     0.028 C 
BRANCH   6   7
ATOM      7  C   UNL     1      35.192  67.310 104.435  1.00  0.00    -0.028 C 
ATOM      8  C   UNL     1      35.036  67.773 105.698  1.00  0.00    -0.070 CG0
ATOM      9  C   UNL     1      36.104  68.688 106.247  1.00  0.00     0.039 C 
ATOM     10  G   UNL     1      33.900  67.366 106.615  1.00  0.00     0.000 G0
ENDBRANCH   6   7
ENDBRANCH   5   6
ENDBRANCH   3   5
ENDBRANCH   1   3
BRANCH   1  11
ATOM     11  C   UNL     1      31.257  68.570 105.499  1.00  0.00     0.087 C 
BRANCH  11  12
ATOM     12  C   UNL     1      32.319  69.444 106.222  1.00  0.00     0.066 C 
BRANCH  12  13
ATOM     13  C   UNL     1      33.168  68.584 107.143  1.00  0.00     0.140 C 
ATOM     14  O   UNL     1      33.235  68.867 108.332  1.00  0.00    -0.299 OA
BRANCH  13  15
ATOM     15  C   UNL     1      33.907  67.370 106.630  1.00  0.00     0.106 CG0
ATOM     16  G   UNL     1      35.032  67.800 105.710  1.00  0.00     0.000 G0
ENDBRANCH  13  15
ENDBRANCH  12  13
BRANCH  12  17
ATOM     17  C   UNL     1      31.673  70.630 107.004  1.00  0.00    -0.006 C 
ATOM     18  C   UNL     1      30.147  70.473 107.137  1.00  0.00     0.008 C 
ATOM     19  C   UNL     1      31.979  71.978 106.326  1.00  0.00     0.008 C 
ENDBRANCH  12  17
ENDBRANCH  11  12
ENDBRANCH   1  11
TORSDOF 1
ENDMDL
MODEL 4
REMARK VINA RESULT:    -3.021      2.180      4.430
REMARK INTER + INTRA:          -4.908
REMARK INTER:                  -4.693
REMARK INTRA:                  -0.215
REMARK UNBOUND:                -0.298
REMARK SMILES CC1=CCC[C@@H](C)C(=O)C[C@@H](C(C)C)C(=O)C1
REMARK SMILES IDX 8 1 9 2 6 3 7 4 5 5 4 6 3 7 2 8 1 9 10 11 11 12 15 13 16 14
REMARK SMILES IDX 17 15 12 17 13 18 14 19
REMARK H PARENT
REMARK Flexibility Score: 70.00
ROOT
ATOM      1  C   UNL     1      31.776  69.463 104.507  1.00  0.00     0.136 C 
ATOM      2  O   UNL     1      30.755  69.532 103.837  1.00  0.00    -0.299 OA
ENDROOT
BRANCH   1   3
ATOM      3  C   UNL     1      31.687  69.354 106.019  1.00  0.00     0.053 C 
ATOM      4  C   UNL     1      30.677  68.289 106.475  1.00  0.00     0.016 C 
BRANCH   3   5
ATOM      5  C   UNL     1      31.452  70.720 106.709  1.00  0.00     0.015 C 
BRANCH   5   6
ATOM      6  C   UNL     1      32.343  71.909 106.288  1.00  0.00     0.028 C 
BRANCH   6   7
ATOM      7  C   UNL     1      33.699  72.030 106.948  1.00  0.00    -0.028 C 
ATOM      8  C   UNL     1      34.885  71.625 106.436  1.00  0.00    -0.070 CG0
ATOM      9  C   UNL     1      36.093  71.675 107.339  1.00  0.00     0.039 C 
ATOM     10  G   UNL     1      35.085  71.203 104.994  1.00  0.00     0.000 G0
ENDBRANCH   6   7
ENDBRANCH   5   6
ENDBRANCH   3   5
ENDBRANCH   1   3
BRANCH   1  11
ATOM     11  C   UNL     1      33.115  69.474 103.795  1.00  0.00     0.087 C 
BRANCH  11  12
ATOM     12  C   UNL     1      34.246  68.739 104.565  1.00  0.00     0.066 C 
BRANCH  12  13
ATOM     13  C   UNL     1      35.355  69.713 104.925  1.00  0.00     0.140 C 
ATOM     14  O   UNL     1      36.483  69.287 105.130  1.00  0.00    -0.299 OA
BRANCH  13  15
ATOM     15  C   UNL     1      35.102  71.201 105.007  1.00  0.00     0.106 CG0
ATOM     16  G   UNL     1      34.890  71.610 106.451  1.00  0.00     0.000 G0
ENDBRANCH  13  15
ENDBRANCH  12  13
BRANCH  12  17
ATOM     17  C   UNL     1      34.811  67.524 103.764  1.00  0.00    -0.006 C 
ATOM     18  C   UNL     1      33.884  67.114 102.605  1.00  0.00     0.008 C 
ATOM     19  C   UNL     1      35.032  66.307 104.681  1.00  0.00     0.008 C 
ENDBRANCH  12  17
ENDBRANCH  11  12
ENDBRANCH   1  11
TORSDOF 1
ENDMDL
MODEL 5
REMARK VINA RESULT:    -2.955      9.281     10.841
REMARK INTER + INTRA:          -4.808
REMARK INTER:                  -4.681
REMARK INTRA:                  -0.126
REMARK UNBOUND:                -0.298
REMARK SMILES CC1=CCC[C@@H](C)C(=O)C[C@@H](C(C)C)C(=O)C1
REMARK SMILES IDX 8 1 9 2 6 3 7 4 5 5 4 6 3 7 2 8 1 9 10 11 11 12 15 13 16 14
REMARK SMILES IDX 17 15 12 17 13 18 14 19
REMARK H PARENT
REMARK Flexibility Score: 70.00
ROOT
ATOM      1  C   UNL     1      22.337  73.225 104.743  1.00  0.00     0.136 C 
ATOM      2  O   UNL     1      22.934  73.095 103.682  1.00  0.00    -0.299 OA
ENDROOT
BRANCH   1   3
ATOM      3  C   UNL     1      21.379  72.143 105.213  1.00  0.00     0.053 C 
ATOM      4  C   UNL     1      20.226  72.704 106.060  1.00  0.00     0.016 C 
BRANCH   3   5
ATOM      5  C   UNL     1      22.099  70.962 105.909  1.00  0.00     0.015 C 
BRANCH   5   6
ATOM      6  C   UNL     1      22.105  70.923 107.453  1.00  0.00     0.028 C 
BRANCH   6   7
ATOM      7  C   UNL     1      23.437  71.101 108.147  1.00  0.00    -0.028 C 
ATOM      8  C   UNL     1      24.065  72.274 108.401  1.00  0.00    -0.070 CG0
ATOM      9  C   UNL     1      25.472  72.212 108.942  1.00  0.00     0.039 C 
ATOM     10  G   UNL     1      23.413  73.633 108.249  1.00  0.00     0.000 G0
ENDBRANCH   6   7
ENDBRANCH   5   6
ENDBRANCH   3   5
ENDBRANCH   1   3
BRANCH   1  11
ATOM     11  C   UNL     1      22.586  74.471 105.569  1.00  0.00     0.087 C 
BRANCH  11  12
ATOM     12  C   UNL     1      24.079  74.700 105.932  1.00  0.00     0.066 C 
BRANCH  12  13
ATOM     13  C   UNL     1      24.283  74.552 107.431  1.00  0.00     0.140 C 
ATOM     14  O   UNL     1      25.157  75.207 107.983  1.00  0.00    -0.299 OA
BRANCH  13  15
ATOM     15  C   UNL     1      23.411  73.637 108.260  1.00  0.00     0.106 CG0
ATOM     16  G   UNL     1      24.075  72.282 108.404  1.00  0.00     0.000 G0
ENDBRANCH  13  15
ENDBRANCH  12  13
BRANCH  12  17
ATOM     17  C   UNL     1      24.602  76.083 105.432  1.00  0.00    -0.006 C 
ATOM     18  C   UNL     1      23.503  76.894 104.721  1.00  0.00     0.008 C 
ATOM     19  C   UNL     1      25.796  75.914 104.475  1.00  0.00     0.008 C 
ENDBRANCH  12  17
ENDBRANCH  11  12
ENDBRANCH   1  11
TORSDOF 1
ENDMDL
MODEL 6
REMARK VINA RESULT:    -2.948      2.223      4.038
REMARK INTER + INTRA:          -4.796
REMARK INTER:                  -4.623
REMARK INTRA:                  -0.174
REMARK UNBOUND:                -0.298
REMARK SMILES CC1=CCC[C@@H](C)C(=O)C[C@@H](C(C)C)C(=O)C1
REMARK SMILES IDX 8 1 9 2 6 3 7 4 5 5 4 6 3 7 2 8 1 9 10 11 11 12 15 13 16 14
REMARK SMILES IDX 17 15 12 17 13 18 14 19
REMARK H PARENT
REMARK Flexibility Score: 70.00
ROOT
ATOM      1  C   UNL     1      32.218  69.404 107.112  1.00  0.00     0.136 C 
ATOM      2  O   UNL     1      31.546  68.512 107.612  1.00  0.00    -0.299 OA
ENDROOT
BRANCH   1   3
ATOM      3  C   UNL     1      31.594  70.349 106.099  1.00  0.00     0.053 C 
ATOM      4  C   UNL     1      30.463  71.196 106.702  1.00  0.00     0.016 C 
BRANCH   3   5
ATOM      5  C   UNL     1      31.162  69.634 104.795  1.00  0.00     0.015 C 
BRANCH   5   6
ATOM      6  C   UNL     1      32.144  69.639 103.604  1.00  0.00     0.028 C 
BRANCH   6   7
ATOM      7  C   UNL     1      33.050  68.439 103.445  1.00  0.00    -0.028 C 
ATOM      8  C   UNL     1      34.399  68.423 103.567  1.00  0.00    -0.070 CG0
ATOM      9  C   UNL     1      35.122  67.154 103.189  1.00  0.00     0.039 C 
ATOM     10  G   UNL     1      35.211  69.570 104.134  1.00  0.00     0.000 G0
ENDBRANCH   6   7
ENDBRANCH   5   6
ENDBRANCH   3   5
ENDBRANCH   1   3
BRANCH   1  11
ATOM     11  C   UNL     1      33.666  69.548 107.536  1.00  0.00     0.087 C 
BRANCH  11  12
ATOM     12  C   UNL     1      34.533  70.381 106.551  1.00  0.00     0.066 C 
BRANCH  12  13
ATOM     13  C   UNL     1      35.319  69.458 105.635  1.00  0.00     0.140 C 
ATOM     14  O   UNL     1      36.026  68.588 106.125  1.00  0.00    -0.299 OA
BRANCH  13  15
ATOM     15  C   UNL     1      35.226  69.572 104.131  1.00  0.00     0.106 CG0
ATOM     16  G   UNL     1      34.398  68.430 103.577  1.00  0.00     0.000 G0
ENDBRANCH  13  15
ENDBRANCH  12  13
BRANCH  12  17
ATOM     17  C   UNL     1      35.484  71.371 107.294  1.00  0.00    -0.006 C 
ATOM     18  C   UNL     1      34.724  72.577 107.876  1.00  0.00     0.008 C 
ATOM     19  C   UNL     1      36.595  71.884 106.360  1.00  0.00     0.008 C 
ENDBRANCH  12  17
ENDBRANCH  11  12
ENDBRANCH   1  11
TORSDOF 1
ENDMDL
MODEL 7
REMARK VINA RESULT:    -2.945      9.203     10.841
REMARK INTER + INTRA:          -4.792
REMARK INTER:                  -4.658
REMARK INTRA:                  -0.134
REMARK UNBOUND:                -0.298
REMARK SMILES CC1=CCC[C@@H](C)C(=O)C[C@@H](C(C)C)C(=O)C1
REMARK SMILES IDX 8 1 9 2 6 3 7 4 5 5 4 6 3 7 2 8 1 9 10 11 11 12 15 13 16 14
REMARK SMILES IDX 17 15 12 17 13 18 14 19
REMARK H PARENT
REMARK Flexibility Score: 70.00
ROOT
ATOM      1  C   UNL     1      25.532  72.394 108.584  1.00  0.00     0.136 C 
ATOM      2  O   UNL     1      26.637  71.876 108.506  1.00  0.00    -0.299 OA
ENDROOT
BRANCH   1   3
ATOM      3  C   UNL     1      24.476  71.800 109.501  1.00  0.00     0.053 C 
ATOM      4  C   UNL     1      25.063  71.307 110.834  1.00  0.00     0.016 C 
BRANCH   3   5
ATOM      5  C   UNL     1      23.612  70.720 108.805  1.00  0.00     0.015 C 
BRANCH   5   6
ATOM      6  C   UNL     1      22.112  71.017 108.591  1.00  0.00     0.028 C 
BRANCH   6   7
ATOM      7  C   UNL     1      21.626  71.144 107.164  1.00  0.00    -0.028 C 
ATOM      8  C   UNL     1      21.243  72.283 106.540  1.00  0.00    -0.070 CG0
ATOM      9  C   UNL     1      20.619  72.157 105.171  1.00  0.00     0.039 C 
ATOM     10  G   UNL     1      21.475  73.673 107.097  1.00  0.00     0.000 G0
ENDBRANCH   6   7
ENDBRANCH   5   6
ENDBRANCH   3   5
ENDBRANCH   1   3
BRANCH   1  11
ATOM     11  C   UNL     1      25.252  73.637 107.763  1.00  0.00     0.087 C 
BRANCH  11  12
ATOM     12  C   UNL     1      23.870  74.288 108.052  1.00  0.00     0.066 C 
BRANCH  12  13
ATOM     13  C   UNL     1      22.931  74.068 106.878  1.00  0.00     0.140 C 
ATOM     14  O   UNL     1      23.360  74.183 105.738  1.00  0.00    -0.299 OA
BRANCH  13  15
ATOM     15  C   UNL     1      21.485  73.681 107.087  1.00  0.00     0.106 CG0
ATOM     16  G   UNL     1      21.239  72.288 106.543  1.00  0.00     0.000 G0
ENDBRANCH  13  15
ENDBRANCH  12  13
BRANCH  12  17
ATOM     17  C   UNL     1      23.994  75.807 108.390  1.00  0.00    -0.006 C 
ATOM     18  C   UNL     1      25.102  76.494 107.571  1.00  0.00     0.008 C 
ATOM     19  C   UNL     1      24.273  76.024 109.888  1.00  0.00     0.008 C 
ENDBRANCH  12  17
ENDBRANCH  11  12
ENDBRANCH   1  11
TORSDOF 1
ENDMDL
MODEL 8
REMARK VINA RESULT:    -2.801      9.428     11.110
REMARK INTER + INTRA:          -4.572
REMARK INTER:                  -4.057
REMARK INTRA:                  -0.515
REMARK UNBOUND:                -0.298
REMARK SMILES CC1=CCC[C@@H](C)C(=O)C[C@@H](C(C)C)C(=O)C1
REMARK SMILES IDX 8 1 9 2 6 3 7 4 5 5 4 6 3 7 2 8 1 9 10 11 11 12 15 13 16 14
REMARK SMILES IDX 17 15 12 17 13 18 14 19
REMARK H PARENT
REMARK Flexibility Score: 70.00
ROOT
ATOM      1  C   UNL     1      27.077  60.889 104.072  1.00  0.00     0.136 C 
ATOM      2  O   UNL     1      27.694  60.574 103.064  1.00  0.00    -0.299 OA
ENDROOT
BRANCH   1   3
ATOM      3  C   UNL     1      26.691  59.827 105.088  1.00  0.00     0.053 C 
ATOM      4  C   UNL     1      27.913  59.118 105.693  1.00  0.00     0.016 C 
BRANCH   3   5
ATOM      5  C   UNL     1      25.640  58.828 104.547  1.00  0.00     0.015 C 
BRANCH   5   6
ATOM      6  C   UNL     1      24.371  59.399 103.876  1.00  0.00     0.028 C 
BRANCH   6   7
ATOM      7  C   UNL     1      23.273  59.906 104.784  1.00  0.00    -0.028 C 
ATOM      8  C   UNL     1      23.039  61.195 105.128  1.00  0.00    -0.070 CG0
ATOM      9  C   UNL     1      22.003  61.460 106.192  1.00  0.00     0.039 C 
ATOM     10  G   UNL     1      23.696  62.383 104.454  1.00  0.00     0.000 G0
ENDBRANCH   6   7
ENDBRANCH   5   6
ENDBRANCH   3   5
ENDBRANCH   1   3
BRANCH   1  11
ATOM     11  C   UNL     1      26.724  62.347 104.283  1.00  0.00     0.087 C 
BRANCH  11  12
ATOM     12  C   UNL     1      26.031  62.639 105.644  1.00  0.00     0.066 C 
BRANCH  12  13
ATOM     13  C   UNL     1      24.603  63.105 105.416  1.00  0.00     0.140 C 
ATOM     14  O   UNL     1      24.194  64.093 106.010  1.00  0.00    -0.299 OA
BRANCH  13  15
ATOM     15  C   UNL     1      23.685  62.392 104.450  1.00  0.00     0.106 CG0
ATOM     16  G   UNL     1      23.040  61.203 105.133  1.00  0.00     0.000 G0
ENDBRANCH  13  15
ENDBRANCH  12  13
BRANCH  12  17
ATOM     17  C   UNL     1      26.825  63.676 106.499  1.00  0.00    -0.006 C 
ATOM     18  C   UNL     1      27.726  64.574 105.631  1.00  0.00     0.008 C 
ATOM     19  C   UNL     1      27.694  62.974 107.559  1.00  0.00     0.008 C 
ENDBRANCH  12  17
ENDBRANCH  11  12
ENDBRANCH   1  11
TORSDOF 1
ENDMDL
MODEL 9
REMARK VINA RESULT:    -2.794      9.830     11.676
REMARK INTER + INTRA:          -4.561
REMARK INTER:                  -4.580
REMARK INTRA:                   0.019
REMARK UNBOUND:                -0.298
REMARK SMILES CC1=CCC[C@@H](C)C(=O)C[C@@H](C(C)C)C(=O)C1
REMARK SMILES IDX 8 1 9 2 6 3 7 4 5 5 4 6 3 7 2 8 1 9 10 11 11 12 15 13 16 14
REMARK SMILES IDX 17 15 12 17 13 18 14 19
REMARK H PARENT
REMARK Flexibility Score: 70.00
ROOT
ATOM      1  C   UNL     1      29.488  59.637  98.843  1.00  0.00     0.136 C 
ATOM      2  O   UNL     1      30.178  58.932  98.119  1.00  0.00    -0.299 OA
ENDROOT
BRANCH   1   3
ATOM      3  C   UNL     1      29.194  61.075  98.447  1.00  0.00     0.053 C 
ATOM      4  C   UNL     1      29.039  61.248  96.928  1.00  0.00     0.016 C 
BRANCH   3   5
ATOM      5  C   UNL     1      30.198  62.085  99.054  1.00  0.00     0.015 C 
BRANCH   5   6
ATOM      6  C   UNL     1      31.678  61.659  99.169  1.00  0.00     0.028 C 
BRANCH   6   7
ATOM      7  C   UNL     1      32.322  61.744 100.534  1.00  0.00    -0.028 C 
ATOM      8  C   UNL     1      32.457  60.735 101.428  1.00  0.00    -0.070 CG0
ATOM      9  C   UNL     1      32.968  61.082 102.805  1.00  0.00     0.039 C 
ATOM     10  G   UNL     1      32.203  59.277 101.103  1.00  0.00     0.000 G0
ENDBRANCH   6   7
ENDBRANCH   5   6
ENDBRANCH   3   5
ENDBRANCH   1   3
BRANCH   1  11
ATOM     11  C   UNL     1      28.931  59.042 100.121  1.00  0.00     0.087 C 
BRANCH  11  12
ATOM     12  C   UNL     1      29.602  59.584 101.414  1.00  0.00     0.066 C 
BRANCH  12  13
ATOM     13  C   UNL     1      30.888  58.825 101.695  1.00  0.00     0.140 C 
ATOM     14  O   UNL     1      30.850  57.822 102.395  1.00  0.00    -0.299 OA
BRANCH  13  15
ATOM     15  C   UNL     1      32.209  59.265 101.106  1.00  0.00     0.106 CG0
ATOM     16  G   UNL     1      32.450  60.728 101.416  1.00  0.00     0.000 G0
ENDBRANCH  13  15
ENDBRANCH  12  13
BRANCH  12  17
ATOM     17  C   UNL     1      28.642  59.527 102.644  1.00  0.00    -0.006 C 
ATOM     18  C   UNL     1      27.212  59.118 102.244  1.00  0.00     0.008 C 
ATOM     19  C   UNL     1      28.588  60.883 103.371  1.00  0.00     0.008 C 
ENDBRANCH  12  17
ENDBRANCH  11  12
ENDBRANCH   1  11
TORSDOF 1
ENDMDL
