MODEL 1
REMARK VINA RESULT:     3.855      0.000      0.000
REMARK INTER + INTRA:           4.193
REMARK INTER:                   4.193
REMARK INTRA:                   0.000
REMARK UNBOUND:                 0.000
REMARK SMILES Cc1cc(O)c2c(c1)C(=O)c1cc(O)cc(O)c1C2=O
REMARK SMILES IDX 1 1 2 2 8 3 7 4 6 5 4 6 3 7 19 8 20 9 18 10 11 11 9 12 10 13
REMARK SMILES IDX 12 14 13 15 15 16 16 17 5 18 17 20 14 22
REMARK H PARENT 5 19 17 21 14 23
REMARK Flexibility Score: inf
ROOT
ATOM      1  C   UNL     1     -11.869  47.706  28.350  1.00  0.00     0.044 C 
ATOM      2  C   UNL     1     -12.821  48.443  27.454  1.00  0.00    -0.047 A 
ATOM      3  C   UNL     1     -13.320  47.829  26.300  1.00  0.00     0.016 A 
ATOM      4  C   UNL     1     -14.244  48.495  25.478  1.00  0.00     0.038 A 
ATOM      5  C   UNL     1     -14.699  49.785  25.830  1.00  0.00     0.076 A 
ATOM      6  C   UNL     1     -14.156  50.420  26.977  1.00  0.00     0.127 A 
ATOM      7  C   UNL     1     -13.251  49.731  27.790  1.00  0.00     0.050 A 
ATOM      8  C   UNL     1     -15.786  50.393  25.019  1.00  0.00     0.201 C 
ATOM      9  O   UNL     1     -16.596  51.194  25.556  1.00  0.00    -0.288 OA
ATOM     10  C   UNL     1     -16.028  49.914  23.634  1.00  0.00     0.076 A 
ATOM     11  C   UNL     1     -15.571  48.623  23.284  1.00  0.00     0.041 A 
ATOM     12  C   UNL     1     -14.743  47.849  24.240  1.00  0.00     0.194 C 
ATOM     13  O   UNL     1     -14.443  46.650  23.987  1.00  0.00    -0.289 OA
ATOM     14  C   UNL     1     -15.901  48.080  22.031  1.00  0.00     0.059 A 
ATOM     15  C   UNL     1     -16.664  48.814  21.119  1.00  0.00     0.120 A 
ATOM     16  C   UNL     1     -17.081  50.104  21.444  1.00  0.00     0.093 A 
ATOM     17  C   UNL     1     -16.749  50.675  22.677  1.00  0.00     0.131 A 
ENDROOT
BRANCH   6  18
ATOM     18  O   UNL     1     -14.459  51.739  27.325  1.00  0.00    -0.507 OA
ATOM     19  H   UNL     1     -15.381  52.143  27.235  1.00  0.00     0.293 HD
ENDBRANCH   6  18
BRANCH  17  20
ATOM     20  O   UNL     1     -17.125  52.002  22.894  1.00  0.00    -0.507 OA
ATOM     21  H   UNL     1     -16.629  52.794  22.507  1.00  0.00     0.293 HD
ENDBRANCH  17  20
BRANCH  15  22
ATOM     22  O   UNL     1     -17.003  48.274  19.880  1.00  0.00    -0.508 OA
ATOM     23  H   UNL     1     -16.324  48.194  19.133  1.00  0.00     0.293 HD
ENDBRANCH  15  22
TORSDOF 3
ENDMDL
MODEL 2
REMARK VINA RESULT:     5.611      3.531      5.327
REMARK INTER + INTRA:           6.103
REMARK INTER:                   6.103
REMARK INTRA:                   0.000
REMARK UNBOUND:                 0.000
REMARK SMILES Cc1cc(O)c2c(c1)C(=O)c1cc(O)cc(O)c1C2=O
REMARK SMILES IDX 1 1 2 2 8 3 7 4 6 5 4 6 3 7 19 8 20 9 18 10 11 11 9 12 10 13
REMARK SMILES IDX 12 14 13 15 15 16 16 17 5 18 17 20 14 22
REMARK H PARENT 5 19 17 21 14 23
REMARK Flexibility Score: inf
ROOT
ATOM      1  C   UNL     1     -17.125  43.270  30.327  1.00  0.00     0.044 C 
ATOM      2  C   UNL     1     -16.538  44.004  29.157  1.00  0.00    -0.047 A 
ATOM      3  C   UNL     1     -16.753  45.379  29.008  1.00  0.00     0.016 A 
ATOM      4  C   UNL     1     -16.173  46.083  27.939  1.00  0.00     0.038 A 
ATOM      5  C   UNL     1     -15.340  45.406  27.020  1.00  0.00     0.076 A 
ATOM      6  C   UNL     1     -15.163  44.005  27.150  1.00  0.00     0.127 A 
ATOM      7  C   UNL     1     -15.735  43.329  28.231  1.00  0.00     0.050 A 
ATOM      8  C   UNL     1     -14.627  46.212  25.994  1.00  0.00     0.201 C 
ATOM      9  O   UNL     1     -13.509  45.825  25.560  1.00  0.00    -0.288 OA
ATOM     10  C   UNL     1     -15.139  47.557  25.626  1.00  0.00     0.076 A 
ATOM     11  C   UNL     1     -15.971  48.230  26.548  1.00  0.00     0.041 A 
ATOM     12  C   UNL     1     -16.432  47.533  27.772  1.00  0.00     0.194 C 
ATOM     13  O   UNL     1     -17.066  48.168  28.659  1.00  0.00    -0.289 OA
ATOM     14  C   UNL     1     -16.362  49.557  26.298  1.00  0.00     0.059 A 
ATOM     15  C   UNL     1     -15.947  50.211  25.135  1.00  0.00     0.120 A 
ATOM     16  C   UNL     1     -15.160  49.536  24.204  1.00  0.00     0.093 A 
ATOM     17  C   UNL     1     -14.774  48.209  24.419  1.00  0.00     0.131 A 
ENDROOT
BRANCH   6  18
ATOM     18  O   UNL     1     -14.458  43.243  26.215  1.00  0.00    -0.507 OA
ATOM     19  H   UNL     1     -13.791  42.526  26.466  1.00  0.00     0.293 HD
ENDBRANCH   6  18
BRANCH  17  20
ATOM     20  O   UNL     1     -14.063  47.571  23.400  1.00  0.00    -0.507 OA
ATOM     21  H   UNL     1     -13.320  46.906  23.570  1.00  0.00     0.293 HD
ENDBRANCH  17  20
BRANCH  15  22
ATOM     22  O   UNL     1     -16.323  51.530  24.890  1.00  0.00    -0.508 OA
ATOM     23  H   UNL     1     -16.036  52.285  25.501  1.00  0.00     0.293 HD
ENDBRANCH  15  22
TORSDOF 3
ENDMDL
