MODEL 1
REMARK VINA RESULT:    -4.818      0.000      0.000
REMARK INTER + INTRA:          -4.959
REMARK INTER:                  -4.959
REMARK INTRA:                   0.000
REMARK UNBOUND:                 0.000
REMARK SMILES Nc1ncnc2nc[nH]c12
REMARK SMILES IDX 8 1 7 2 6 3 5 4 4 5 3 6 2 7 10 8 9 9 1 11
REMARK H PARENT 9 10 1 12 1 13
REMARK Flexibility Score: inf
ROOT
ATOM      1  C   UNL     1      22.740 -25.738  25.706  1.00  0.00     0.199 A 
ATOM      2  N   UNL     1      23.271 -24.595  26.222  1.00  0.00    -0.217 NA
ATOM      3  C   UNL     1      24.103 -24.200  25.243  1.00  0.00     0.182 A 
ATOM      4  N   UNL     1      24.892 -23.099  25.249  1.00  0.00    -0.215 NA
ATOM      5  C   UNL     1      25.677 -22.863  24.154  1.00  0.00     0.226 A 
ATOM      6  N   UNL     1      25.660 -23.724  23.086  1.00  0.00    -0.217 NA
ATOM      7  C   UNL     1      24.866 -24.836  23.080  1.00  0.00     0.152 A 
ATOM      8  C   UNL     1      24.072 -25.062  24.201  1.00  0.00     0.127 A 
ATOM      9  N   UNL     1      23.210 -26.050  24.472  1.00  0.00    -0.340 N 
ATOM     10  H   UNL     1      22.952 -26.871  23.882  1.00  0.00     0.168 HD
ENDROOT
BRANCH   7  11
ATOM     11  N   UNL     1      24.865 -25.718  21.956  1.00  0.00    -0.382 N 
ATOM     12  H   UNL     1      25.747 -26.141  21.596  1.00  0.00     0.158 HD
ATOM     13  H   UNL     1      23.967 -25.950  21.477  1.00  0.00     0.158 HD
ENDBRANCH   7  11
TORSDOF 1
ENDMDL
MODEL 2
REMARK VINA RESULT:    -4.642      5.182      5.723
REMARK INTER + INTRA:          -4.778
REMARK INTER:                  -4.778
REMARK INTRA:                   0.000
REMARK UNBOUND:                 0.000
REMARK SMILES Nc1ncnc2nc[nH]c12
REMARK SMILES IDX 8 1 7 2 6 3 5 4 4 5 3 6 2 7 10 8 9 9 1 11
REMARK H PARENT 9 10 1 12 1 13
REMARK Flexibility Score: inf
ROOT
ATOM      1  C   UNL     1      27.466 -28.759  29.587  1.00  0.00     0.199 A 
ATOM      2  N   UNL     1      26.199 -28.433  29.210  1.00  0.00    -0.217 NA
ATOM      3  C   UNL     1      26.403 -27.374  28.409  1.00  0.00     0.182 A 
ATOM      4  N   UNL     1      25.454 -26.656  27.762  1.00  0.00    -0.215 NA
ATOM      5  C   UNL     1      25.858 -25.604  26.986  1.00  0.00     0.226 A 
ATOM      6  N   UNL     1      27.190 -25.292  26.874  1.00  0.00    -0.217 NA
ATOM      7  C   UNL     1      28.148 -26.014  27.529  1.00  0.00     0.152 A 
ATOM      8  C   UNL     1      27.720 -27.082  28.313  1.00  0.00     0.127 A 
ATOM      9  N   UNL     1      28.418 -27.951  29.055  1.00  0.00    -0.340 N 
ATOM     10  H   UNL     1      29.451 -28.006  29.198  1.00  0.00     0.168 HD
ENDROOT
BRANCH   7  11
ATOM     11  N   UNL     1      29.528 -25.671  27.397  1.00  0.00    -0.382 N 
ATOM     12  H   UNL     1      30.126 -26.097  26.656  1.00  0.00     0.158 HD
ATOM     13  H   UNL     1      29.959 -24.982  28.052  1.00  0.00     0.158 HD
ENDBRANCH   7  11
TORSDOF 1
ENDMDL
MODEL 3
REMARK VINA RESULT:    -4.458      1.408      3.193
REMARK INTER + INTRA:          -4.589
REMARK INTER:                  -4.589
REMARK INTRA:                   0.000
REMARK UNBOUND:                 0.000
REMARK SMILES Nc1ncnc2nc[nH]c12
REMARK SMILES IDX 8 1 7 2 6 3 5 4 4 5 3 6 2 7 10 8 9 9 1 11
REMARK H PARENT 9 10 1 12 1 13
REMARK Flexibility Score: inf
ROOT
ATOM      1  C   UNL     1      25.068 -24.698  23.017  1.00  0.00     0.199 A 
ATOM      2  N   UNL     1      24.955 -23.368  23.287  1.00  0.00    -0.217 NA
ATOM      3  C   UNL     1      24.004 -23.349  24.236  1.00  0.00     0.182 A 
ATOM      4  N   UNL     1      23.506 -22.254  24.860  1.00  0.00    -0.215 NA
ATOM      5  C   UNL     1      22.535 -22.437  25.805  1.00  0.00     0.226 A 
ATOM      6  N   UNL     1      22.083 -23.697  26.106  1.00  0.00    -0.217 NA
ATOM      7  C   UNL     1      22.583 -24.802  25.476  1.00  0.00     0.152 A 
ATOM      8  C   UNL     1      23.572 -24.600  24.517  1.00  0.00     0.127 A 
ATOM      9  N   UNL     1      24.236 -25.476  23.754  1.00  0.00    -0.340 N 
ATOM     10  H   UNL     1      24.144 -26.516  23.722  1.00  0.00     0.168 HD
ENDROOT
BRANCH   7  11
ATOM     11  N   UNL     1      22.098 -26.105  25.806  1.00  0.00    -0.382 N 
ATOM     12  H   UNL     1      21.308 -26.237  26.474  1.00  0.00     0.158 HD
ATOM     13  H   UNL     1      22.537 -26.949  25.376  1.00  0.00     0.158 HD
ENDBRANCH   7  11
TORSDOF 1
ENDMDL
MODEL 4
REMARK VINA RESULT:    -4.383     13.975     15.526
REMARK INTER + INTRA:          -4.511
REMARK INTER:                  -4.511
REMARK INTRA:                   0.000
REMARK UNBOUND:                 0.000
REMARK SMILES Nc1ncnc2nc[nH]c12
REMARK SMILES IDX 8 1 7 2 6 3 5 4 4 5 3 6 2 7 10 8 9 9 1 11
REMARK H PARENT 9 10 1 12 1 13
REMARK Flexibility Score: inf
ROOT
ATOM      1  C   UNL     1      27.588 -28.496  36.676  1.00  0.00     0.199 A 
ATOM      2  N   UNL     1      27.405 -27.296  37.293  1.00  0.00    -0.217 NA
ATOM      3  C   UNL     1      26.863 -27.658  38.468  1.00  0.00     0.182 A 
ATOM      4  N   UNL     1      26.482 -26.831  39.470  1.00  0.00    -0.215 NA
ATOM      5  C   UNL     1      25.945 -27.390  40.598  1.00  0.00     0.226 A 
ATOM      6  N   UNL     1      25.800 -28.750  40.700  1.00  0.00    -0.217 NA
ATOM      7  C   UNL     1      26.183 -29.585  39.688  1.00  0.00     0.152 A 
ATOM      8  C   UNL     1      26.728 -29.001  38.548  1.00  0.00     0.127 A 
ATOM      9  N   UNL     1      27.183 -29.557  37.418  1.00  0.00    -0.340 N 
ATOM     10  H   UNL     1      27.224 -30.567  37.158  1.00  0.00     0.168 HD
ENDROOT
BRANCH   7  11
ATOM     11  N   UNL     1      26.023 -30.999  39.816  1.00  0.00    -0.382 N 
ATOM     12  H   UNL     1      25.995 -31.621  38.980  1.00  0.00     0.158 HD
ATOM     13  H   UNL     1      25.929 -31.429  40.763  1.00  0.00     0.158 HD
ENDBRANCH   7  11
TORSDOF 1
ENDMDL
MODEL 5
REMARK VINA RESULT:    -4.332      1.472      3.887
REMARK INTER + INTRA:          -4.459
REMARK INTER:                  -4.459
REMARK INTRA:                   0.000
REMARK UNBOUND:                 0.000
REMARK SMILES Nc1ncnc2nc[nH]c12
REMARK SMILES IDX 8 1 7 2 6 3 5 4 4 5 3 6 2 7 10 8 9 9 1 11
REMARK H PARENT 9 10 1 12 1 13
REMARK Flexibility Score: inf
ROOT
ATOM      1  C   UNL     1      25.458 -23.122  23.489  1.00  0.00     0.199 A 
ATOM      2  N   UNL     1      25.259 -24.466  23.587  1.00  0.00    -0.217 NA
ATOM      3  C   UNL     1      24.113 -24.534  24.284  1.00  0.00     0.182 A 
ATOM      4  N   UNL     1      23.464 -25.662  24.662  1.00  0.00    -0.215 NA
ATOM      5  C   UNL     1      22.303 -25.529  25.373  1.00  0.00     0.226 A 
ATOM      6  N   UNL     1      21.818 -24.285  25.690  1.00  0.00    -0.217 NA
ATOM      7  C   UNL     1      22.473 -23.148  25.311  1.00  0.00     0.152 A 
ATOM      8  C   UNL     1      23.653 -23.299  24.587  1.00  0.00     0.127 A 
ATOM      9  N   UNL     1      24.493 -22.383  24.090  1.00  0.00    -0.340 N 
ATOM     10  H   UNL     1      24.431 -21.343  24.146  1.00  0.00     0.168 HD
ENDROOT
BRANCH   7  11
ATOM     11  N   UNL     1      21.950 -21.863  25.652  1.00  0.00    -0.382 N 
ATOM     12  H   UNL     1      21.664 -21.634  26.629  1.00  0.00     0.158 HD
ATOM     13  H   UNL     1      21.845 -21.130  24.916  1.00  0.00     0.158 HD
ENDBRANCH   7  11
TORSDOF 1
ENDMDL
MODEL 6
REMARK VINA RESULT:    -4.321      9.088      9.957
REMARK INTER + INTRA:          -4.448
REMARK INTER:                  -4.448
REMARK INTRA:                   0.000
REMARK UNBOUND:                 0.000
REMARK SMILES Nc1ncnc2nc[nH]c12
REMARK SMILES IDX 8 1 7 2 6 3 5 4 4 5 3 6 2 7 10 8 9 9 1 11
REMARK H PARENT 9 10 1 12 1 13
REMARK Flexibility Score: inf
ROOT
ATOM      1  C   UNL     1      28.343 -29.303  34.853  1.00  0.00     0.199 A 
ATOM      2  N   UNL     1      27.480 -28.250  34.817  1.00  0.00    -0.217 NA
ATOM      3  C   UNL     1      27.311 -28.064  33.497  1.00  0.00     0.182 A 
ATOM      4  N   UNL     1      26.535 -27.124  32.907  1.00  0.00    -0.215 NA
ATOM      5  C   UNL     1      26.491 -27.090  31.540  1.00  0.00     0.226 A 
ATOM      6  N   UNL     1      27.216 -27.987  30.797  1.00  0.00    -0.217 NA
ATOM      7  C   UNL     1      28.001 -28.935  31.392  1.00  0.00     0.152 A 
ATOM      8  C   UNL     1      28.034 -28.957  32.783  1.00  0.00     0.127 A 
ATOM      9  N   UNL     1      28.700 -29.757  33.625  1.00  0.00    -0.340 N 
ATOM     10  H   UNL     1      29.344 -30.548  33.402  1.00  0.00     0.168 HD
ENDROOT
BRANCH   7  11
ATOM     11  N   UNL     1      28.747 -29.858  30.598  1.00  0.00    -0.382 N 
ATOM     12  H   UNL     1      28.275 -30.503  29.927  1.00  0.00     0.158 HD
ATOM     13  H   UNL     1      29.787 -29.898  30.683  1.00  0.00     0.158 HD
ENDBRANCH   7  11
TORSDOF 1
ENDMDL
MODEL 7
REMARK VINA RESULT:    -4.270      1.610      2.908
REMARK INTER + INTRA:          -4.395
REMARK INTER:                  -4.395
REMARK INTRA:                   0.000
REMARK UNBOUND:                 0.000
REMARK SMILES Nc1ncnc2nc[nH]c12
REMARK SMILES IDX 8 1 7 2 6 3 5 4 4 5 3 6 2 7 10 8 9 9 1 11
REMARK H PARENT 9 10 1 12 1 13
REMARK Flexibility Score: inf
ROOT
ATOM      1  C   UNL     1      22.286 -25.782  25.364  1.00  0.00     0.199 A 
ATOM      2  N   UNL     1      23.564 -25.767  24.894  1.00  0.00    -0.217 NA
ATOM      3  C   UNL     1      23.859 -24.456  24.914  1.00  0.00     0.182 A 
ATOM      4  N   UNL     1      25.029 -23.886  24.538  1.00  0.00    -0.215 NA
ATOM      5  C   UNL     1      25.142 -22.526  24.630  1.00  0.00     0.226 A 
ATOM      6  N   UNL     1      24.094 -21.769  25.091  1.00  0.00    -0.217 NA
ATOM      7  C   UNL     1      22.913 -22.343  25.469  1.00  0.00     0.152 A 
ATOM      8  C   UNL     1      22.815 -23.729  25.371  1.00  0.00     0.127 A 
ATOM      9  N   UNL     1      21.800 -24.552  25.664  1.00  0.00    -0.340 N 
ATOM     10  H   UNL     1      20.854 -24.315  26.036  1.00  0.00     0.168 HD
ENDROOT
BRANCH   7  11
ATOM     11  N   UNL     1      21.836 -21.536  25.947  1.00  0.00    -0.382 N 
ATOM     12  H   UNL     1      20.842 -21.805  25.785  1.00  0.00     0.158 HD
ATOM     13  H   UNL     1      22.038 -20.654  26.469  1.00  0.00     0.158 HD
ENDBRANCH   7  11
TORSDOF 1
ENDMDL
MODEL 8
REMARK VINA RESULT:    -4.269      9.962     11.321
REMARK INTER + INTRA:          -4.394
REMARK INTER:                  -4.394
REMARK INTRA:                   0.000
REMARK UNBOUND:                 0.000
REMARK SMILES Nc1ncnc2nc[nH]c12
REMARK SMILES IDX 8 1 7 2 6 3 5 4 4 5 3 6 2 7 10 8 9 9 1 11
REMARK H PARENT 9 10 1 12 1 13
REMARK Flexibility Score: inf
ROOT
ATOM      1  C   UNL     1      25.882 -15.401  29.609  1.00  0.00     0.199 A 
ATOM      2  N   UNL     1      26.584 -16.481  29.167  1.00  0.00    -0.217 NA
ATOM      3  C   UNL     1      27.034 -17.017  30.314  1.00  0.00     0.182 A 
ATOM      4  N   UNL     1      27.801 -18.127  30.440  1.00  0.00    -0.215 NA
ATOM      5  C   UNL     1      28.163 -18.521  31.699  1.00  0.00     0.226 A 
ATOM      6  N   UNL     1      27.756 -17.805  32.797  1.00  0.00    -0.217 NA
ATOM      7  C   UNL     1      26.984 -16.684  32.670  1.00  0.00     0.152 A 
ATOM      8  C   UNL     1      26.624 -16.297  31.382  1.00  0.00     0.127 A 
ATOM      9  N   UNL     1      25.887 -15.262  30.959  1.00  0.00    -0.340 N 
ATOM     10  H   UNL     1      25.422 -14.518  31.523  1.00  0.00     0.168 HD
ENDROOT
BRANCH   7  11
ATOM     11  N   UNL     1      26.573 -15.955  33.827  1.00  0.00    -0.382 N 
ATOM     12  H   UNL     1      27.251 -15.696  34.577  1.00  0.00     0.158 HD
ATOM     13  H   UNL     1      25.574 -15.670  33.936  1.00  0.00     0.158 HD
ENDBRANCH   7  11
TORSDOF 1
ENDMDL
MODEL 9
REMARK VINA RESULT:    -4.224      1.742      3.245
REMARK INTER + INTRA:          -4.348
REMARK INTER:                  -4.348
REMARK INTRA:                   0.000
REMARK UNBOUND:                 0.000
REMARK SMILES Nc1ncnc2nc[nH]c12
REMARK SMILES IDX 8 1 7 2 6 3 5 4 4 5 3 6 2 7 10 8 9 9 1 11
REMARK H PARENT 9 10 1 12 1 13
REMARK Flexibility Score: inf
ROOT
ATOM      1  C   UNL     1      24.446 -23.554  23.247  1.00  0.00     0.199 A 
ATOM      2  N   UNL     1      25.676 -23.517  23.832  1.00  0.00    -0.217 NA
ATOM      3  C   UNL     1      25.503 -24.302  24.909  1.00  0.00     0.182 A 
ATOM      4  N   UNL     1      26.434 -24.605  25.845  1.00  0.00    -0.215 NA
ATOM      5  C   UNL     1      26.068 -25.425  26.876  1.00  0.00     0.226 A 
ATOM      6  N   UNL     1      24.791 -25.923  26.952  1.00  0.00    -0.217 NA
ATOM      7  C   UNL     1      23.851 -25.617  26.008  1.00  0.00     0.152 A 
ATOM      8  C   UNL     1      24.239 -24.781  24.965  1.00  0.00     0.127 A 
ATOM      9  N   UNL     1      23.547 -24.319  23.916  1.00  0.00    -0.340 N 
ATOM     10  H   UNL     1      22.550 -24.497  23.662  1.00  0.00     0.168 HD
ENDROOT
BRANCH   7  11
ATOM     11  N   UNL     1      22.528 -26.147  26.107  1.00  0.00    -0.382 N 
ATOM     12  H   UNL     1      21.811 -25.959  25.373  1.00  0.00     0.158 HD
ATOM     13  H   UNL     1      22.262 -26.736  26.927  1.00  0.00     0.158 HD
ENDBRANCH   7  11
TORSDOF 1
ENDMDL
