MODEL 1
REMARK VINA RESULT:    -3.045      0.000      0.000
REMARK INTER + INTRA:          -7.518
REMARK INTER:                  -5.360
REMARK INTRA:                  -2.158
REMARK UNBOUND:                -2.158
REMARK SMILES CCCCCCCCCCCCCCC(=O)[O-]
REMARK SMILES IDX 9 1 10 2 11 3 12 4 13 5 14 6 15 7 16 8 17 9 8 10 7 11 6 12
REMARK SMILES IDX 5 13 4 14 3 15 2 16 1 17
REMARK H PARENT
REMARK Flexibility Score: inf
ROOT
ATOM      1  C   UNL     1       0.623   6.399  39.591  1.00  0.00     0.000 C 
ENDROOT
BRANCH   1   2
ATOM      2  C   UNL     1       0.667   5.207  38.620  1.00  0.00     0.000 C 
BRANCH   2   3
ATOM      3  C   UNL     1      -0.587   4.324  38.715  1.00  0.00     0.000 C 
BRANCH   3   4
ATOM      4  C   UNL     1      -1.889   5.130  38.560  1.00  0.00     0.000 C 
BRANCH   4   5
ATOM      5  C   UNL     1      -2.616   4.852  37.233  1.00  0.00     0.006 C 
BRANCH   5   6
ATOM      6  C   UNL     1      -2.159   5.752  36.070  1.00  0.00     0.053 C 
BRANCH   6   7
ATOM      7  C   UNL     1      -1.483   4.985  34.975  1.00  0.00     0.041 C 
ATOM      8  O   UNL     1      -1.448   3.726  35.007  1.00  0.00    -0.550 OA
ATOM      9  O   UNL     1      -0.916   5.659  33.900  1.00  0.00    -0.550 OA
ENDBRANCH   6   7
ENDBRANCH   5   6
ENDBRANCH   4   5
ENDBRANCH   3   4
ENDBRANCH   2   3
ENDBRANCH   1   2
BRANCH   1  10
ATOM     10  C   UNL     1       1.049   7.718  38.928  1.00  0.00     0.000 C 
BRANCH  10  11
ATOM     11  C   UNL     1       0.028   8.845  39.142  1.00  0.00    -0.000 C 
BRANCH  11  12
ATOM     12  C   UNL     1      -1.139   8.725  38.153  1.00  0.00    -0.000 C 
BRANCH  12  13
ATOM     13  C   UNL     1      -2.485   8.952  38.860  1.00  0.00    -0.000 C 
BRANCH  13  14
ATOM     14  C   UNL     1      -2.541   8.304  40.252  1.00  0.00    -0.000 C 
BRANCH  14  15
ATOM     15  C   UNL     1      -3.862   7.558  40.504  1.00  0.00    -0.000 C 
BRANCH  15  16
ATOM     16  C   UNL     1      -3.716   6.435  41.541  1.00  0.00    -0.003 C 
ATOM     17  C   UNL     1      -2.294   6.315  42.091  1.00  0.00     0.004 C 
ENDBRANCH  15  16
ENDBRANCH  14  15
ENDBRANCH  13  14
ENDBRANCH  12  13
ENDBRANCH  11  12
ENDBRANCH  10  11
ENDBRANCH   1  10
TORSDOF 13
ENDMDL
MODEL 2
REMARK VINA RESULT:    -3.008      1.389      2.661
REMARK INTER + INTRA:          -7.452
REMARK INTER:                  -4.911
REMARK INTRA:                  -2.541
REMARK UNBOUND:                -2.158
REMARK SMILES CCCCCCCCCCCCCCC(=O)[O-]
REMARK SMILES IDX 9 1 10 2 11 3 12 4 13 5 14 6 15 7 16 8 17 9 8 10 7 11 6 12
REMARK SMILES IDX 5 13 4 14 3 15 2 16 1 17
REMARK H PARENT
REMARK Flexibility Score: inf
ROOT
ATOM      1  C   UNL     1      -1.255   4.974  39.760  1.00  0.00     0.000 C 
ENDROOT
BRANCH   1   2
ATOM      2  C   UNL     1      -2.244   5.060  38.585  1.00  0.00     0.000 C 
BRANCH   2   3
ATOM      3  C   UNL     1      -1.546   4.969  37.220  1.00  0.00     0.000 C 
BRANCH   3   4
ATOM      4  C   UNL     1      -1.919   6.134  36.287  1.00  0.00     0.000 C 
BRANCH   4   5
ATOM      5  C   UNL     1      -0.694   6.898  35.756  1.00  0.00     0.006 C 
BRANCH   5   6
ATOM      6  C   UNL     1       0.577   6.037  35.640  1.00  0.00     0.053 C 
BRANCH   6   7
ATOM      7  C   UNL     1       0.978   5.784  34.218  1.00  0.00     0.041 C 
ATOM      8  O   UNL     1       1.779   4.852  33.939  1.00  0.00    -0.550 OA
ATOM      9  O   UNL     1       0.444   6.559  33.196  1.00  0.00    -0.550 OA
ENDBRANCH   6   7
ENDBRANCH   5   6
ENDBRANCH   4   5
ENDBRANCH   3   4
ENDBRANCH   2   3
ENDBRANCH   1   2
BRANCH   1  10
ATOM     10  C   UNL     1       0.209   5.105  39.312  1.00  0.00     0.000 C 
BRANCH  10  11
ATOM     11  C   UNL     1       0.931   6.282  39.984  1.00  0.00    -0.000 C 
BRANCH  11  12
ATOM     12  C   UNL     1       0.984   7.500  39.053  1.00  0.00    -0.000 C 
BRANCH  12  13
ATOM     13  C   UNL     1       0.079   8.628  39.570  1.00  0.00    -0.000 C 
BRANCH  13  14
ATOM     14  C   UNL     1      -0.917   9.124  38.510  1.00  0.00    -0.000 C 
BRANCH  14  15
ATOM     15  C   UNL     1      -2.376   8.794  38.868  1.00  0.00    -0.000 C 
BRANCH  15  16
ATOM     16  C   UNL     1      -2.536   8.338  40.325  1.00  0.00    -0.003 C 
ATOM     17  C   UNL     1      -3.861   7.620  40.582  1.00  0.00     0.004 C 
ENDBRANCH  15  16
ENDBRANCH  14  15
ENDBRANCH  13  14
ENDBRANCH  12  13
ENDBRANCH  11  12
ENDBRANCH  10  11
ENDBRANCH   1  10
TORSDOF 13
ENDMDL
MODEL 3
REMARK VINA RESULT:    -2.989      1.941      4.137
REMARK INTER + INTRA:          -7.419
REMARK INTER:                  -5.340
REMARK INTRA:                  -2.078
REMARK UNBOUND:                -2.158
REMARK SMILES CCCCCCCCCCCCCCC(=O)[O-]
REMARK SMILES IDX 9 1 10 2 11 3 12 4 13 5 14 6 15 7 16 8 17 9 8 10 7 11 6 12
REMARK SMILES IDX 5 13 4 14 3 15 2 16 1 17
REMARK H PARENT
REMARK Flexibility Score: inf
ROOT
ATOM      1  C   UNL     1      -1.073   9.047  38.933  1.00  0.00     0.000 C 
ENDROOT
BRANCH   1   2
ATOM      2  C   UNL     1      -0.147   8.722  40.118  1.00  0.00     0.000 C 
BRANCH   2   3
ATOM      3  C   UNL     1       0.958   7.723  39.744  1.00  0.00     0.000 C 
BRANCH   3   4
ATOM      4  C   UNL     1       1.000   7.428  38.235  1.00  0.00     0.000 C 
BRANCH   4   5
ATOM      5  C   UNL     1       1.734   6.117  37.897  1.00  0.00     0.006 C 
BRANCH   5   6
ATOM      6  C   UNL     1       1.687   5.743  36.404  1.00  0.00     0.053 C 
BRANCH   6   7
ATOM      7  C   UNL     1       2.321   4.415  36.120  1.00  0.00     0.041 C 
ATOM      8  O   UNL     1       3.535   4.218  36.394  1.00  0.00    -0.550 OA
ATOM      9  O   UNL     1       1.564   3.384  35.578  1.00  0.00    -0.550 OA
ENDBRANCH   6   7
ENDBRANCH   5   6
ENDBRANCH   4   5
ENDBRANCH   3   4
ENDBRANCH   2   3
ENDBRANCH   1   2
BRANCH   1  10
ATOM     10  C   UNL     1      -2.554   8.789  39.252  1.00  0.00     0.000 C 
BRANCH  10  11
ATOM     11  C   UNL     1      -2.749   8.002  40.557  1.00  0.00    -0.000 C 
BRANCH  11  12
ATOM     12  C   UNL     1      -3.736   6.845  40.359  1.00  0.00    -0.000 C 
BRANCH  12  13
ATOM     13  C   UNL     1      -3.009   5.491  40.389  1.00  0.00    -0.000 C 
BRANCH  13  14
ATOM     14  C   UNL     1      -2.026   5.319  39.221  1.00  0.00    -0.000 C 
BRANCH  14  15
ATOM     15  C   UNL     1      -2.730   4.951  37.904  1.00  0.00    -0.000 C 
BRANCH  15  16
ATOM     16  C   UNL     1      -1.854   5.221  36.672  1.00  0.00    -0.003 C 
ATOM     17  C   UNL     1      -1.970   6.658  36.163  1.00  0.00     0.004 C 
ENDBRANCH  15  16
ENDBRANCH  14  15
ENDBRANCH  13  14
ENDBRANCH  12  13
ENDBRANCH  11  12
ENDBRANCH  10  11
ENDBRANCH   1  10
TORSDOF 13
ENDMDL
MODEL 4
REMARK VINA RESULT:    -2.894      1.464      3.104
REMARK INTER + INTRA:          -7.252
REMARK INTER:                  -5.032
REMARK INTRA:                  -2.220
REMARK UNBOUND:                -2.158
REMARK SMILES CCCCCCCCCCCCCCC(=O)[O-]
REMARK SMILES IDX 9 1 10 2 11 3 12 4 13 5 14 6 15 7 16 8 17 9 8 10 7 11 6 12
REMARK SMILES IDX 5 13 4 14 3 15 2 16 1 17
REMARK H PARENT
REMARK Flexibility Score: inf
ROOT
ATOM      1  C   UNL     1      -1.043   8.943  39.685  1.00  0.00     0.000 C 
ENDROOT
BRANCH   1   2
ATOM      2  C   UNL     1      -0.730   9.111  38.188  1.00  0.00     0.000 C 
BRANCH   2   3
ATOM      3  C   UNL     1      -1.884   8.643  37.289  1.00  0.00     0.000 C 
BRANCH   3   4
ATOM      4  C   UNL     1      -1.497   7.441  36.410  1.00  0.00     0.000 C 
BRANCH   4   5
ATOM      5  C   UNL     1      -0.020   7.033  36.562  1.00  0.00     0.006 C 
BRANCH   5   6
ATOM      6  C   UNL     1       0.541   6.260  35.355  1.00  0.00     0.053 C 
BRANCH   6   7
ATOM      7  C   UNL     1      -0.407   5.219  34.842  1.00  0.00     0.041 C 
ATOM      8  O   UNL     1      -0.920   5.335  33.697  1.00  0.00    -0.550 OA
ATOM      9  O   UNL     1      -0.702   4.104  35.616  1.00  0.00    -0.550 OA
ENDBRANCH   6   7
ENDBRANCH   5   6
ENDBRANCH   4   5
ENDBRANCH   3   4
ENDBRANCH   2   3
ENDBRANCH   1   2
BRANCH   1  10
ATOM     10  C   UNL     1       0.220   8.734  40.534  1.00  0.00     0.000 C 
BRANCH  10  11
ATOM     11  C   UNL     1       0.172   7.436  41.355  1.00  0.00    -0.000 C 
BRANCH  11  12
ATOM     12  C   UNL     1       0.462   6.215  40.473  1.00  0.00    -0.000 C 
BRANCH  12  13
ATOM     13  C   UNL     1      -0.664   5.176  40.585  1.00  0.00    -0.000 C 
BRANCH  13  14
ATOM     14  C   UNL     1      -1.375   4.924  39.245  1.00  0.00    -0.000 C 
BRANCH  14  15
ATOM     15  C   UNL     1      -2.797   5.508  39.212  1.00  0.00    -0.000 C 
BRANCH  15  16
ATOM     16  C   UNL     1      -3.360   5.768  40.617  1.00  0.00    -0.003 C 
ATOM     17  C   UNL     1      -3.945   7.171  40.774  1.00  0.00     0.004 C 
ENDBRANCH  15  16
ENDBRANCH  14  15
ENDBRANCH  13  14
ENDBRANCH  12  13
ENDBRANCH  11  12
ENDBRANCH  10  11
ENDBRANCH   1  10
TORSDOF 13
ENDMDL
MODEL 5
REMARK VINA RESULT:    -2.885      2.585      4.649
REMARK INTER + INTRA:          -7.235
REMARK INTER:                  -5.076
REMARK INTRA:                  -2.159
REMARK UNBOUND:                -2.158
REMARK SMILES CCCCCCCCCCCCCCC(=O)[O-]
REMARK SMILES IDX 9 1 10 2 11 3 12 4 13 5 14 6 15 7 16 8 17 9 8 10 7 11 6 12
REMARK SMILES IDX 5 13 4 14 3 15 2 16 1 17
REMARK H PARENT
REMARK Flexibility Score: inf
ROOT
ATOM      1  C   UNL     1      -3.825   5.371  40.627  1.00  0.00     0.000 C 
ENDROOT
BRANCH   1   2
ATOM      2  C   UNL     1      -3.349   4.876  42.004  1.00  0.00     0.000 C 
BRANCH   2   3
ATOM      3  C   UNL     1      -1.886   4.410  41.989  1.00  0.00     0.000 C 
BRANCH   3   4
ATOM      4  C   UNL     1      -1.220   4.603  40.615  1.00  0.00     0.000 C 
BRANCH   4   5
ATOM      5  C   UNL     1       0.172   5.253  40.705  1.00  0.00     0.006 C 
BRANCH   5   6
ATOM      6  C   UNL     1       1.075   4.966  39.491  1.00  0.00     0.053 C 
BRANCH   6   7
ATOM      7  C   UNL     1       2.203   5.944  39.363  1.00  0.00     0.041 C 
ATOM      8  O   UNL     1       1.967   7.171  39.208  1.00  0.00    -0.550 OA
ATOM      9  O   UNL     1       3.518   5.504  39.447  1.00  0.00    -0.550 OA
ENDBRANCH   6   7
ENDBRANCH   5   6
ENDBRANCH   4   5
ENDBRANCH   3   4
ENDBRANCH   2   3
ENDBRANCH   1   2
BRANCH   1  10
ATOM     10  C   UNL     1      -4.157   6.871  40.621  1.00  0.00     0.000 C 
BRANCH  10  11
ATOM     11  C   UNL     1      -3.231   7.686  41.536  1.00  0.00    -0.000 C 
BRANCH  11  12
ATOM     12  C   UNL     1      -2.013   8.208  40.763  1.00  0.00    -0.000 C 
BRANCH  12  13
ATOM     13  C   UNL     1      -2.355   8.428  39.282  1.00  0.00    -0.000 C 
BRANCH  13  14
ATOM     14  C   UNL     1      -1.199   8.047  38.343  1.00  0.00    -0.000 C 
BRANCH  14  15
ATOM     15  C   UNL     1      -1.690   7.459  37.009  1.00  0.00    -0.000 C 
BRANCH  15  16
ATOM     16  C   UNL     1      -1.337   5.972  36.855  1.00  0.00    -0.003 C 
ATOM     17  C   UNL     1      -2.495   5.045  37.222  1.00  0.00     0.004 C 
ENDBRANCH  15  16
ENDBRANCH  14  15
ENDBRANCH  13  14
ENDBRANCH  12  13
ENDBRANCH  11  12
ENDBRANCH  10  11
ENDBRANCH   1  10
TORSDOF 13
ENDMDL
MODEL 6
REMARK VINA RESULT:    -2.873      2.066      3.801
REMARK INTER + INTRA:          -7.214
REMARK INTER:                  -4.916
REMARK INTRA:                  -2.297
REMARK UNBOUND:                -2.158
REMARK SMILES CCCCCCCCCCCCCCC(=O)[O-]
REMARK SMILES IDX 9 1 10 2 11 3 12 4 13 5 14 6 15 7 16 8 17 9 8 10 7 11 6 12
REMARK SMILES IDX 5 13 4 14 3 15 2 16 1 17
REMARK H PARENT
REMARK Flexibility Score: inf
ROOT
ATOM      1  C   UNL     1      -1.237   8.557  38.195  1.00  0.00     0.000 C 
ENDROOT
BRANCH   1   2
ATOM      2  C   UNL     1      -1.638   8.137  36.771  1.00  0.00     0.000 C 
BRANCH   2   3
ATOM      3  C   UNL     1      -0.520   7.372  36.046  1.00  0.00     0.000 C 
BRANCH   3   4
ATOM      4  C   UNL     1      -1.023   6.073  35.393  1.00  0.00     0.000 C 
BRANCH   4   5
ATOM      5  C   UNL     1       0.025   4.945  35.409  1.00  0.00     0.006 C 
BRANCH   5   6
ATOM      6  C   UNL     1       1.419   5.395  35.882  1.00  0.00     0.053 C 
BRANCH   6   7
ATOM      7  C   UNL     1       1.955   4.548  36.996  1.00  0.00     0.041 C 
ATOM      8  O   UNL     1       2.914   4.958  37.703  1.00  0.00    -0.550 OA
ATOM      9  O   UNL     1       1.377   3.316  37.274  1.00  0.00    -0.550 OA
ENDBRANCH   6   7
ENDBRANCH   5   6
ENDBRANCH   4   5
ENDBRANCH   3   4
ENDBRANCH   2   3
ENDBRANCH   1   2
BRANCH   1  10
ATOM     10  C   UNL     1      -2.446   8.948  39.060  1.00  0.00     0.000 C 
BRANCH  10  11
ATOM     11  C   UNL     1      -2.507   8.163  40.379  1.00  0.00    -0.000 C 
BRANCH  11  12
ATOM     12  C   UNL     1      -3.732   7.241  40.414  1.00  0.00    -0.000 C 
BRANCH  12  13
ATOM     13  C   UNL     1      -3.312   5.764  40.354  1.00  0.00    -0.000 C 
BRANCH  13  14
ATOM     14  C   UNL     1      -2.959   5.304  38.931  1.00  0.00    -0.000 C 
BRANCH  14  15
ATOM     15  C   UNL     1      -1.495   4.850  38.801  1.00  0.00    -0.000 C 
BRANCH  15  16
ATOM     16  C   UNL     1      -0.734   4.930  40.133  1.00  0.00    -0.003 C 
ATOM     17  C   UNL     1       0.447   5.900  40.085  1.00  0.00     0.004 C 
ENDBRANCH  15  16
ENDBRANCH  14  15
ENDBRANCH  13  14
ENDBRANCH  12  13
ENDBRANCH  11  12
ENDBRANCH  10  11
ENDBRANCH   1  10
TORSDOF 13
ENDMDL
MODEL 7
REMARK VINA RESULT:    -2.836      1.804      4.089
REMARK INTER + INTRA:          -7.149
REMARK INTER:                  -5.168
REMARK INTRA:                  -1.982
REMARK UNBOUND:                -2.158
REMARK SMILES CCCCCCCCCCCCCCC(=O)[O-]
REMARK SMILES IDX 9 1 10 2 11 3 12 4 13 5 14 6 15 7 16 8 17 9 8 10 7 11 6 12
REMARK SMILES IDX 5 13 4 14 3 15 2 16 1 17
REMARK H PARENT
REMARK Flexibility Score: inf
ROOT
ATOM      1  C   UNL     1      -3.356   7.083  40.107  1.00  0.00     0.000 C 
ENDROOT
BRANCH   1   2
ATOM      2  C   UNL     1      -2.807   8.478  39.758  1.00  0.00     0.000 C 
BRANCH   2   3
ATOM      3  C   UNL     1      -2.136   8.516  38.377  1.00  0.00     0.000 C 
BRANCH   3   4
ATOM      4  C   UNL     1      -1.794   7.112  37.848  1.00  0.00     0.000 C 
BRANCH   4   5
ATOM      5  C   UNL     1      -1.576   7.079  36.325  1.00  0.00     0.006 C 
BRANCH   5   6
ATOM      6  C   UNL     1      -0.175   7.541  35.885  1.00  0.00     0.053 C 
BRANCH   6   7
ATOM      7  C   UNL     1       0.629   6.442  35.259  1.00  0.00     0.041 C 
ATOM      8  O   UNL     1       0.482   6.161  34.040  1.00  0.00    -0.550 OA
ATOM      9  O   UNL     1       1.563   5.746  36.016  1.00  0.00    -0.550 OA
ENDBRANCH   6   7
ENDBRANCH   5   6
ENDBRANCH   4   5
ENDBRANCH   3   4
ENDBRANCH   2   3
ENDBRANCH   1   2
BRANCH   1  10
ATOM     10  C   UNL     1      -3.817   6.978  41.570  1.00  0.00     0.000 C 
BRANCH  10  11
ATOM     11  C   UNL     1      -3.026   7.904  42.507  1.00  0.00    -0.000 C 
BRANCH  11  12
ATOM     12  C   UNL     1      -1.712   7.249  42.948  1.00  0.00    -0.000 C 
BRANCH  12  13
ATOM     13  C   UNL     1      -0.528   8.211  42.765  1.00  0.00    -0.000 C 
BRANCH  13  14
ATOM     14  C   UNL     1       0.264   7.942  41.476  1.00  0.00    -0.000 C 
BRANCH  14  15
ATOM     15  C   UNL     1       0.231   6.462  41.060  1.00  0.00    -0.000 C 
BRANCH  15  16
ATOM     16  C   UNL     1       1.119   6.173  39.841  1.00  0.00    -0.003 C 
ATOM     17  C   UNL     1       1.608   7.444  39.147  1.00  0.00     0.004 C 
ENDBRANCH  15  16
ENDBRANCH  14  15
ENDBRANCH  13  14
ENDBRANCH  12  13
ENDBRANCH  11  12
ENDBRANCH  10  11
ENDBRANCH   1  10
TORSDOF 13
ENDMDL
MODEL 8
REMARK VINA RESULT:    -2.815     10.459     12.557
REMARK INTER + INTRA:          -7.112
REMARK INTER:                  -4.998
REMARK INTRA:                  -2.115
REMARK UNBOUND:                -2.158
REMARK SMILES CCCCCCCCCCCCCCC(=O)[O-]
REMARK SMILES IDX 9 1 10 2 11 3 12 4 13 5 14 6 15 7 16 8 17 9 8 10 7 11 6 12
REMARK SMILES IDX 5 13 4 14 3 15 2 16 1 17
REMARK H PARENT
REMARK Flexibility Score: inf
ROOT
ATOM      1  C   UNL     1       4.023   7.623  26.213  1.00  0.00     0.000 C 
ENDROOT
BRANCH   1   2
ATOM      2  C   UNL     1       5.026   6.542  26.654  1.00  0.00     0.000 C 
BRANCH   2   3
ATOM      3  C   UNL     1       4.419   5.131  26.629  1.00  0.00     0.000 C 
BRANCH   3   4
ATOM      4  C   UNL     1       3.138   5.055  25.780  1.00  0.00     0.000 C 
BRANCH   4   5
ATOM      5  C   UNL     1       1.942   4.462  26.545  1.00  0.00     0.006 C 
BRANCH   5   6
ATOM      6  C   UNL     1       1.760   5.037  27.961  1.00  0.00     0.053 C 
BRANCH   6   7
ATOM      7  C   UNL     1       0.917   4.161  28.839  1.00  0.00     0.041 C 
ATOM      8  O   UNL     1       0.651   4.511  30.019  1.00  0.00    -0.550 OA
ATOM      9  O   UNL     1       0.400   2.970  28.343  1.00  0.00    -0.550 OA
ENDBRANCH   6   7
ENDBRANCH   5   6
ENDBRANCH   4   5
ENDBRANCH   3   4
ENDBRANCH   2   3
ENDBRANCH   1   2
BRANCH   1  10
ATOM     10  C   UNL     1       3.307   8.285  27.400  1.00  0.00     0.000 C 
BRANCH  10  11
ATOM     11  C   UNL     1       1.873   8.719  27.059  1.00  0.00    -0.000 C 
BRANCH  11  12
ATOM     12  C   UNL     1       1.755   9.116  25.582  1.00  0.00    -0.000 C 
BRANCH  12  13
ATOM     13  C   UNL     1       0.612   8.351  24.897  1.00  0.00    -0.000 C 
BRANCH  13  14
ATOM     14  C   UNL     1      -0.201   7.493  25.878  1.00  0.00    -0.000 C 
BRANCH  14  15
ATOM     15  C   UNL     1      -0.858   6.279  25.198  1.00  0.00    -0.000 C 
BRANCH  15  16
ATOM     16  C   UNL     1      -1.584   5.366  26.197  1.00  0.00    -0.003 C 
ATOM     17  C   UNL     1      -1.787   3.947  25.667  1.00  0.00     0.004 C 
ENDBRANCH  15  16
ENDBRANCH  14  15
ENDBRANCH  13  14
ENDBRANCH  12  13
ENDBRANCH  11  12
ENDBRANCH  10  11
ENDBRANCH   1  10
TORSDOF 13
ENDMDL
MODEL 9
REMARK VINA RESULT:    -2.815      1.452      3.179
REMARK INTER + INTRA:          -7.111
REMARK INTER:                  -4.989
REMARK INTRA:                  -2.122
REMARK UNBOUND:                -2.158
REMARK SMILES CCCCCCCCCCCCCCC(=O)[O-]
REMARK SMILES IDX 9 1 10 2 11 3 12 4 13 5 14 6 15 7 16 8 17 9 8 10 7 11 6 12
REMARK SMILES IDX 5 13 4 14 3 15 2 16 1 17
REMARK H PARENT
REMARK Flexibility Score: inf
ROOT
ATOM      1  C   UNL     1      -2.022   7.627  38.716  1.00  0.00     0.000 C 
ENDROOT
BRANCH   1   2
ATOM      2  C   UNL     1      -0.489   7.722  38.813  1.00  0.00     0.000 C 
BRANCH   2   3
ATOM      3  C   UNL     1       0.203   6.384  38.511  1.00  0.00     0.000 C 
BRANCH   3   4
ATOM      4  C   UNL     1      -0.738   5.179  38.691  1.00  0.00     0.000 C 
BRANCH   4   5
ATOM      5  C   UNL     1      -0.892   4.338  37.411  1.00  0.00     0.006 C 
BRANCH   5   6
ATOM      6  C   UNL     1      -0.266   4.983  36.162  1.00  0.00     0.053 C 
BRANCH   6   7
ATOM      7  C   UNL     1      -1.292   5.471  35.184  1.00  0.00     0.041 C 
ATOM      8  O   UNL     1      -1.050   5.458  33.948  1.00  0.00    -0.550 OA
ATOM      9  O   UNL     1      -2.529   5.913  35.637  1.00  0.00    -0.550 OA
ENDBRANCH   6   7
ENDBRANCH   5   6
ENDBRANCH   4   5
ENDBRANCH   3   4
ENDBRANCH   2   3
ENDBRANCH   1   2
BRANCH   1  10
ATOM     10  C   UNL     1      -2.733   8.354  39.868  1.00  0.00     0.000 C 
BRANCH  10  11
ATOM     11  C   UNL     1      -3.854   7.512  40.496  1.00  0.00    -0.000 C 
BRANCH  11  12
ATOM     12  C   UNL     1      -3.826   7.613  42.027  1.00  0.00    -0.000 C 
BRANCH  12  13
ATOM     13  C   UNL     1      -3.605   6.233  42.665  1.00  0.00    -0.000 C 
BRANCH  13  14
ATOM     14  C   UNL     1      -2.374   5.507  42.100  1.00  0.00    -0.000 C 
BRANCH  14  15
ATOM     15  C   UNL     1      -1.112   5.735  42.949  1.00  0.00    -0.000 C 
BRANCH  15  16
ATOM     16  C   UNL     1      -0.054   6.574  42.217  1.00  0.00    -0.003 C 
ATOM     17  C   UNL     1      -0.118   8.058  42.577  1.00  0.00     0.004 C 
ENDBRANCH  15  16
ENDBRANCH  14  15
ENDBRANCH  13  14
ENDBRANCH  12  13
ENDBRANCH  11  12
ENDBRANCH  10  11
ENDBRANCH   1  10
TORSDOF 13
ENDMDL
