MODEL 1
REMARK VINA RESULT:    -3.243      0.000      0.000
REMARK INTER + INTRA:          -5.204
REMARK INTER:                  -4.570
REMARK INTRA:                  -0.634
REMARK UNBOUND:                -0.634
REMARK SMILES CCCCCCCCC(=O)[O-]
REMARK SMILES IDX 6 1 7 2 8 3 9 4 10 5 11 6 5 7 4 8 3 9 2 10 1 11
REMARK H PARENT
REMARK Flexibility Score: inf
ROOT
ATOM      1  C   UNL     1       3.474   0.362   9.199  1.00  0.00     0.000 C 
ENDROOT
BRANCH   1   2
ATOM      2  C   UNL     1       3.640   1.808   8.720  1.00  0.00     0.006 C 
BRANCH   2   3
ATOM      3  C   UNL     1       2.332   2.592   8.876  1.00  0.00     0.053 C 
BRANCH   3   4
ATOM      4  C   UNL     1       2.016   3.339   7.619  1.00  0.00     0.041 C 
ATOM      5  O   UNL     1       0.823   3.619   7.332  1.00  0.00    -0.550 OA
ATOM      6  O   UNL     1       3.043   3.770   6.788  1.00  0.00    -0.550 OA
ENDBRANCH   3   4
ENDBRANCH   2   3
ENDBRANCH   1   2
BRANCH   1   7
ATOM      7  C   UNL     1       1.995   0.031   9.448  1.00  0.00     0.000 C 
BRANCH   7   8
ATOM      8  C   UNL     1       1.587  -1.331   8.865  1.00  0.00    -0.000 C 
BRANCH   8   9
ATOM      9  C   UNL     1       0.226  -1.284   8.147  1.00  0.00    -0.000 C 
BRANCH   9  10
ATOM     10  C   UNL     1      -0.111   0.118   7.617  1.00  0.00    -0.003 C 
ATOM     11  C   UNL     1      -1.452   0.639   8.133  1.00  0.00     0.004 C 
ENDBRANCH   9  10
ENDBRANCH   8   9
ENDBRANCH   7   8
ENDBRANCH   1   7
TORSDOF 7
ENDMDL
MODEL 2
REMARK VINA RESULT:    -3.195     11.313     12.450
REMARK INTER + INTRA:          -5.135
REMARK INTER:                  -4.811
REMARK INTRA:                  -0.324
REMARK UNBOUND:                -0.634
REMARK SMILES CCCCCCCCC(=O)[O-]
REMARK SMILES IDX 6 1 7 2 8 3 9 4 10 5 11 6 5 7 4 8 3 9 2 10 1 11
REMARK H PARENT
REMARK Flexibility Score: inf
ROOT
ATOM      1  C   UNL     1       1.149  -2.277  -2.080  1.00  0.00     0.000 C 
ENDROOT
BRANCH   1   2
ATOM      2  C   UNL     1       0.536  -3.604  -2.540  1.00  0.00     0.006 C 
BRANCH   2   3
ATOM      3  C   UNL     1       0.824  -4.720  -1.531  1.00  0.00     0.053 C 
BRANCH   3   4
ATOM      4  C   UNL     1      -0.389  -5.001  -0.700  1.00  0.00     0.041 C 
ATOM      5  O   UNL     1      -0.326  -4.930   0.555  1.00  0.00    -0.550 OA
ATOM      6  O   UNL     1      -1.600  -5.292  -1.314  1.00  0.00    -0.550 OA
ENDBRANCH   3   4
ENDBRANCH   2   3
ENDBRANCH   1   2
BRANCH   1   7
ATOM      7  C   UNL     1       2.217  -1.791  -3.072  1.00  0.00     0.000 C 
BRANCH   7   8
ATOM      8  C   UNL     1       3.364  -2.799  -3.248  1.00  0.00    -0.000 C 
BRANCH   8   9
ATOM      9  C   UNL     1       4.728  -2.221  -2.830  1.00  0.00    -0.000 C 
BRANCH   9  10
ATOM     10  C   UNL     1       4.836  -0.713  -3.103  1.00  0.00    -0.003 C 
ATOM     11  C   UNL     1       5.601  -0.399  -4.388  1.00  0.00     0.004 C 
ENDBRANCH   9  10
ENDBRANCH   8   9
ENDBRANCH   7   8
ENDBRANCH   1   7
TORSDOF 7
ENDMDL
MODEL 3
REMARK VINA RESULT:    -3.169      3.859      5.799
REMARK INTER + INTRA:          -5.100
REMARK INTER:                  -4.489
REMARK INTRA:                  -0.611
REMARK UNBOUND:                -0.634
REMARK SMILES CCCCCCCCC(=O)[O-]
REMARK SMILES IDX 6 1 7 2 8 3 9 4 10 5 11 6 5 7 4 8 3 9 2 10 1 11
REMARK H PARENT
REMARK Flexibility Score: inf
ROOT
ATOM      1  C   UNL     1      -1.933  -0.051   9.385  1.00  0.00     0.000 C 
ENDROOT
BRANCH   1   2
ATOM      2  C   UNL     1      -3.170  -0.891   9.049  1.00  0.00     0.006 C 
BRANCH   2   3
ATOM      3  C   UNL     1      -4.273  -0.023   8.436  1.00  0.00     0.053 C 
BRANCH   3   4
ATOM      4  C   UNL     1      -4.857   0.889   9.468  1.00  0.00     0.041 C 
ATOM      5  O   UNL     1      -4.926   2.128   9.252  1.00  0.00    -0.550 OA
ATOM      6  O   UNL     1      -5.369   0.367  10.649  1.00  0.00    -0.550 OA
ENDBRANCH   3   4
ENDBRANCH   2   3
ENDBRANCH   1   2
BRANCH   1   7
ATOM      7  C   UNL     1      -1.346   0.594   8.120  1.00  0.00     0.000 C 
BRANCH   7   8
ATOM      8  C   UNL     1      -0.052  -0.090   7.653  1.00  0.00    -0.000 C 
BRANCH   8   9
ATOM      9  C   UNL     1       0.857  -0.501   8.826  1.00  0.00    -0.000 C 
BRANCH   9  10
ATOM     10  C   UNL     1       1.305  -1.968   8.736  1.00  0.00    -0.003 C 
ATOM     11  C   UNL     1       0.219  -2.884   8.172  1.00  0.00     0.004 C 
ENDBRANCH   9  10
ENDBRANCH   8   9
ENDBRANCH   7   8
ENDBRANCH   1   7
TORSDOF 7
ENDMDL
MODEL 4
REMARK VINA RESULT:    -3.143      3.237      5.213
REMARK INTER + INTRA:          -5.063
REMARK INTER:                  -4.560
REMARK INTRA:                  -0.502
REMARK UNBOUND:                -0.634
REMARK SMILES CCCCCCCCC(=O)[O-]
REMARK SMILES IDX 6 1 7 2 8 3 9 4 10 5 11 6 5 7 4 8 3 9 2 10 1 11
REMARK H PARENT
REMARK Flexibility Score: inf
ROOT
ATOM      1  C   UNL     1      -0.181   0.269   7.728  1.00  0.00     0.000 C 
ENDROOT
BRANCH   1   2
ATOM      2  C   UNL     1      -1.615   0.666   8.098  1.00  0.00     0.006 C 
BRANCH   2   3
ATOM      3  C   UNL     1      -2.259  -0.385   9.007  1.00  0.00     0.053 C 
BRANCH   3   4
ATOM      4  C   UNL     1      -3.751  -0.306   8.924  1.00  0.00     0.041 C 
ATOM      5  O   UNL     1      -4.342   0.776   9.178  1.00  0.00    -0.550 OA
ATOM      6  O   UNL     1      -4.485  -1.413   8.518  1.00  0.00    -0.550 OA
ENDBRANCH   3   4
ENDBRANCH   2   3
ENDBRANCH   1   2
BRANCH   1   7
ATOM      7  C   UNL     1       0.079  -1.211   8.046  1.00  0.00     0.000 C 
BRANCH   7   8
ATOM      8  C   UNL     1       1.362  -1.424   8.863  1.00  0.00    -0.000 C 
BRANCH   8   9
ATOM      9  C   UNL     1       1.791  -0.161   9.631  1.00  0.00    -0.000 C 
BRANCH   9  10
ATOM     10  C   UNL     1       3.228   0.268   9.301  1.00  0.00    -0.003 C 
ATOM     11  C   UNL     1       3.305   1.684   8.731  1.00  0.00     0.004 C 
ENDBRANCH   9  10
ENDBRANCH   8   9
ENDBRANCH   7   8
ENDBRANCH   1   7
TORSDOF 7
ENDMDL
MODEL 5
REMARK VINA RESULT:    -3.126      3.977      6.000
REMARK INTER + INTRA:          -5.039
REMARK INTER:                  -4.582
REMARK INTRA:                  -0.457
REMARK UNBOUND:                -0.634
REMARK SMILES CCCCCCCCC(=O)[O-]
REMARK SMILES IDX 6 1 7 2 8 3 9 4 10 5 11 6 5 7 4 8 3 9 2 10 1 11
REMARK H PARENT
REMARK Flexibility Score: inf
ROOT
ATOM      1  C   UNL     1      -2.023   0.948   9.260  1.00  0.00     0.000 C 
ENDROOT
BRANCH   1   2
ATOM      2  C   UNL     1      -3.553   0.883   9.200  1.00  0.00     0.006 C 
BRANCH   2   3
ATOM      3  C   UNL     1      -4.019  -0.298   8.342  1.00  0.00     0.053 C 
BRANCH   3   4
ATOM      4  C   UNL     1      -4.173  -1.527   9.181  1.00  0.00     0.041 C 
ATOM      5  O   UNL     1      -5.300  -1.836   9.651  1.00  0.00    -0.550 OA
ATOM      6  O   UNL     1      -3.082  -2.358   9.405  1.00  0.00    -0.550 OA
ENDBRANCH   3   4
ENDBRANCH   2   3
ENDBRANCH   1   2
BRANCH   1   7
ATOM      7  C   UNL     1      -1.404   0.613   7.894  1.00  0.00     0.000 C 
BRANCH   7   8
ATOM      8  C   UNL     1       0.051   0.131   8.007  1.00  0.00    -0.000 C 
BRANCH   8   9
ATOM      9  C   UNL     1       0.161  -1.401   8.106  1.00  0.00    -0.000 C 
BRANCH   9  10
ATOM     10  C   UNL     1       1.455  -1.853   8.799  1.00  0.00    -0.003 C 
ATOM     11  C   UNL     1       2.361  -0.683   9.181  1.00  0.00     0.004 C 
ENDBRANCH   9  10
ENDBRANCH   8   9
ENDBRANCH   7   8
ENDBRANCH   1   7
TORSDOF 7
ENDMDL
MODEL 6
REMARK VINA RESULT:    -3.121      1.654      2.990
REMARK INTER + INTRA:          -5.032
REMARK INTER:                  -4.567
REMARK INTRA:                  -0.465
REMARK UNBOUND:                -0.634
REMARK SMILES CCCCCCCCC(=O)[O-]
REMARK SMILES IDX 6 1 7 2 8 3 9 4 10 5 11 6 5 7 4 8 3 9 2 10 1 11
REMARK H PARENT
REMARK Flexibility Score: inf
ROOT
ATOM      1  C   UNL     1       1.452  -1.499   8.839  1.00  0.00     0.000 C 
ENDROOT
BRANCH   1   2
ATOM      2  C   UNL     1       1.900  -0.251   9.609  1.00  0.00     0.006 C 
BRANCH   2   3
ATOM      3  C   UNL     1       3.423  -0.089   9.553  1.00  0.00     0.053 C 
BRANCH   3   4
ATOM      4  C   UNL     1       3.786   1.300   9.133  1.00  0.00     0.041 C 
ATOM      5  O   UNL     1       4.913   1.777   9.430  1.00  0.00    -0.550 OA
ATOM      6  O   UNL     1       2.901   2.051   8.371  1.00  0.00    -0.550 OA
ENDBRANCH   3   4
ENDBRANCH   2   3
ENDBRANCH   1   2
BRANCH   1   7
ATOM      7  C   UNL     1       0.097  -1.264   8.153  1.00  0.00     0.000 C 
BRANCH   7   8
ATOM      8  C   UNL     1      -0.123   0.207   7.766  1.00  0.00    -0.000 C 
BRANCH   8   9
ATOM      9  C   UNL     1      -1.554   0.689   8.066  1.00  0.00    -0.000 C 
BRANCH   9  10
ATOM     10  C   UNL     1      -2.359  -0.332   8.884  1.00  0.00    -0.003 C 
ATOM     11  C   UNL     1      -3.854  -0.294   8.568  1.00  0.00     0.004 C 
ENDBRANCH   9  10
ENDBRANCH   8   9
ENDBRANCH   7   8
ENDBRANCH   1   7
TORSDOF 7
ENDMDL
MODEL 7
REMARK VINA RESULT:    -3.119      4.196      5.447
REMARK INTER + INTRA:          -5.029
REMARK INTER:                  -4.621
REMARK INTRA:                  -0.408
REMARK UNBOUND:                -0.634
REMARK SMILES CCCCCCCCC(=O)[O-]
REMARK SMILES IDX 6 1 7 2 8 3 9 4 10 5 11 6 5 7 4 8 3 9 2 10 1 11
REMARK H PARENT
REMARK Flexibility Score: inf
ROOT
ATOM      1  C   UNL     1       0.971  -0.367   8.599  1.00  0.00     0.000 C 
ENDROOT
BRANCH   1   2
ATOM      2  C   UNL     1       1.173  -1.870   8.824  1.00  0.00     0.006 C 
BRANCH   2   3
ATOM      3  C   UNL     1       0.113  -2.684   8.075  1.00  0.00     0.053 C 
BRANCH   3   4
ATOM      4  C   UNL     1       0.430  -4.145   8.144  1.00  0.00     0.041 C 
ATOM      5  O   UNL     1      -0.405  -4.994   7.736  1.00  0.00    -0.550 OA
ATOM      6  O   UNL     1       1.668  -4.567   8.612  1.00  0.00    -0.550 OA
ENDBRANCH   3   4
ENDBRANCH   2   3
ENDBRANCH   1   2
BRANCH   1   7
ATOM      7  C   UNL     1      -0.196  -0.107   7.635  1.00  0.00     0.000 C 
BRANCH   7   8
ATOM      8  C   UNL     1      -1.260   0.828   8.232  1.00  0.00    -0.000 C 
BRANCH   8   9
ATOM      9  C   UNL     1      -2.310   0.072   9.067  1.00  0.00    -0.000 C 
BRANCH   9  10
ATOM     10  C   UNL     1      -3.686   0.032   8.385  1.00  0.00    -0.003 C 
ATOM     11  C   UNL     1      -4.495  -1.209   8.761  1.00  0.00     0.004 C 
ENDBRANCH   9  10
ENDBRANCH   8   9
ENDBRANCH   7   8
ENDBRANCH   1   7
TORSDOF 7
ENDMDL
MODEL 8
REMARK VINA RESULT:    -3.117      2.657      3.589
REMARK INTER + INTRA:          -5.026
REMARK INTER:                  -4.785
REMARK INTRA:                  -0.241
REMARK UNBOUND:                -0.634
REMARK SMILES CCCCCCCCC(=O)[O-]
REMARK SMILES IDX 6 1 7 2 8 3 9 4 10 5 11 6 5 7 4 8 3 9 2 10 1 11
REMARK H PARENT
REMARK Flexibility Score: inf
ROOT
ATOM      1  C   UNL     1       3.993   2.322   8.809  1.00  0.00     0.000 C 
ENDROOT
BRANCH   1   2
ATOM      2  C   UNL     1       4.876   2.292   7.556  1.00  0.00     0.006 C 
BRANCH   2   3
ATOM      3  C   UNL     1       6.281   1.778   7.885  1.00  0.00     0.053 C 
BRANCH   3   4
ATOM      4  C   UNL     1       7.280   2.888   7.790  1.00  0.00     0.041 C 
ATOM      5  O   UNL     1       8.110   2.913   6.844  1.00  0.00    -0.550 OA
ATOM      6  O   UNL     1       7.263   3.922   8.717  1.00  0.00    -0.550 OA
ENDBRANCH   3   4
ENDBRANCH   2   3
ENDBRANCH   1   2
BRANCH   1   7
ATOM      7  C   UNL     1       3.521   0.908   9.183  1.00  0.00     0.000 C 
BRANCH   7   8
ATOM      8  C   UNL     1       2.020   0.700   8.930  1.00  0.00    -0.000 C 
BRANCH   8   9
ATOM      9  C   UNL     1       1.615  -0.785   8.958  1.00  0.00    -0.000 C 
BRANCH   9  10
ATOM     10  C   UNL     1       0.346  -1.064   8.139  1.00  0.00    -0.003 C 
ATOM     11  C   UNL     1      -0.370   0.215   7.705  1.00  0.00     0.004 C 
ENDBRANCH   9  10
ENDBRANCH   8   9
ENDBRANCH   7   8
ENDBRANCH   1   7
TORSDOF 7
ENDMDL
MODEL 9
REMARK VINA RESULT:    -3.051      1.133      2.810
REMARK INTER + INTRA:          -4.932
REMARK INTER:                  -4.306
REMARK INTRA:                  -0.626
REMARK UNBOUND:                -0.634
REMARK SMILES CCCCCCCCC(=O)[O-]
REMARK SMILES IDX 6 1 7 2 8 3 9 4 10 5 11 6 5 7 4 8 3 9 2 10 1 11
REMARK H PARENT
REMARK Flexibility Score: inf
ROOT
ATOM      1  C   UNL     1      -0.485   0.388   7.662  1.00  0.00     0.000 C 
ENDROOT
BRANCH   1   2
ATOM      2  C   UNL     1      -0.178   1.776   8.235  1.00  0.00     0.006 C 
BRANCH   2   3
ATOM      3  C   UNL     1       1.309   2.114   8.088  1.00  0.00     0.053 C 
BRANCH   3   4
ATOM      4  C   UNL     1       1.482   3.410   7.360  1.00  0.00     0.041 C 
ATOM      5  O   UNL     1       0.499   4.179   7.195  1.00  0.00    -0.550 OA
ATOM      6  O   UNL     1       2.738   3.791   6.906  1.00  0.00    -0.550 OA
ENDBRANCH   3   4
ENDBRANCH   2   3
ENDBRANCH   1   2
BRANCH   1   7
ATOM      7  C   UNL     1      -0.562  -0.663   8.779  1.00  0.00     0.000 C 
BRANCH   7   8
ATOM      8  C   UNL     1       0.079  -2.001   8.378  1.00  0.00    -0.000 C 
BRANCH   8   9
ATOM      9  C   UNL     1       1.563  -2.090   8.776  1.00  0.00    -0.000 C 
BRANCH   9  10
ATOM     10  C   UNL     1       1.921  -1.135   9.926  1.00  0.00    -0.003 C 
ATOM     11  C   UNL     1       3.323  -0.543   9.786  1.00  0.00     0.004 C 
ENDBRANCH   9  10
ENDBRANCH   8   9
ENDBRANCH   7   8
ENDBRANCH   1   7
TORSDOF 7
ENDMDL
