MODEL 1
REMARK VINA RESULT:    -6.634      0.000      0.000
REMARK INTER + INTRA:          -8.959
REMARK INTER:                  -8.379
REMARK INTRA:                  -0.580
REMARK UNBOUND:                -0.580
REMARK SMILES O=C(C=Cc1ccc(O)cc1)c1ccc(O)cc1O
REMARK SMILES IDX 4 1 3 2 5 3 6 4 7 5 8 6 11 7 10 8 9 9 2 11 1 12 12 13 18 14
REMARK SMILES IDX 13 15 17 16 14 17 15 18 19 19 16 21
REMARK H PARENT 9 10 19 20 16 22
REMARK Flexibility Score: inf
ROOT
ATOM      1  C   UNL     1      -7.514  -6.981  66.123  1.00  0.00     0.012 C 
ATOM      2  C   UNL     1      -6.979  -8.210  66.075  1.00  0.00     0.053 C 
ENDROOT
BRANCH   1   3
ATOM      3  C   UNL     1      -7.651  -6.193  67.373  1.00  0.00    -0.025 A 
ATOM      4  C   UNL     1      -7.481  -4.795  67.411  1.00  0.00     0.012 A 
ATOM      5  C   UNL     1      -7.607  -4.098  68.617  1.00  0.00     0.047 A 
ATOM      6  C   UNL     1      -7.894  -4.785  69.800  1.00  0.00     0.115 A 
ATOM      7  C   UNL     1      -7.923  -6.876  68.571  1.00  0.00     0.012 A 
ATOM      8  C   UNL     1      -8.050  -6.176  69.774  1.00  0.00     0.047 A 
BRANCH   6   9
ATOM      9  O   UNL     1      -8.019  -4.077  70.993  1.00  0.00    -0.508 OA
ATOM     10  H   UNL     1      -7.785  -3.092  71.052  1.00  0.00     0.293 HD
ENDBRANCH   6   9
ENDBRANCH   1   3
BRANCH   2  11
ATOM     11  C   UNL     1      -6.843  -8.960  64.807  1.00  0.00     0.189 C 
ATOM     12  O   UNL     1      -6.552 -10.188  64.831  1.00  0.00    -0.289 OA
BRANCH  11  13
ATOM     13  C   UNL     1      -7.091  -8.306  63.501  1.00  0.00     0.064 A 
ATOM     14  C   UNL     1      -8.387  -8.220  62.945  1.00  0.00     0.130 A 
ATOM     15  C   UNL     1      -6.010  -7.733  62.808  1.00  0.00     0.020 A 
ATOM     16  C   UNL     1      -8.572  -7.605  61.697  1.00  0.00     0.093 A 
ATOM     17  C   UNL     1      -6.207  -7.116  61.569  1.00  0.00     0.047 A 
ATOM     18  C   UNL     1      -7.484  -7.054  61.009  1.00  0.00     0.119 A 
BRANCH  14  19
ATOM     19  O   UNL     1      -9.491  -8.719  63.637  1.00  0.00    -0.507 OA
ATOM     20  H   UNL     1      -9.541  -9.687  63.931  1.00  0.00     0.293 HD
ENDBRANCH  14  19
BRANCH  18  21
ATOM     21  O   UNL     1      -7.663  -6.440  59.772  1.00  0.00    -0.508 OA
ATOM     22  H   UNL     1      -8.375  -6.754  59.123  1.00  0.00     0.293 HD
ENDBRANCH  18  21
ENDBRANCH  11  13
ENDBRANCH   2  11
TORSDOF 6
ENDMDL
MODEL 2
REMARK VINA RESULT:    -6.575      1.880      7.066
REMARK INTER + INTRA:          -8.885
REMARK INTER:                  -8.177
REMARK INTRA:                  -0.708
REMARK UNBOUND:                -0.580
REMARK SMILES O=C(C=Cc1ccc(O)cc1)c1ccc(O)cc1O
REMARK SMILES IDX 4 1 3 2 5 3 6 4 7 5 8 6 11 7 10 8 9 9 2 11 1 12 12 13 18 14
REMARK SMILES IDX 13 15 17 16 14 17 15 18 19 19 16 21
REMARK H PARENT 9 10 19 20 16 22
REMARK Flexibility Score: inf
ROOT
ATOM      1  C   UNL     1      -8.007  -7.412  65.359  1.00  0.00     0.012 C 
ATOM      2  C   UNL     1      -8.715  -8.398  65.930  1.00  0.00     0.053 C 
ENDROOT
BRANCH   1   3
ATOM      3  C   UNL     1      -7.973  -7.167  63.896  1.00  0.00    -0.025 A 
ATOM      4  C   UNL     1      -7.572  -8.152  62.971  1.00  0.00     0.012 A 
ATOM      5  C   UNL     1      -7.543  -7.868  61.602  1.00  0.00     0.047 A 
ATOM      6  C   UNL     1      -7.903  -6.599  61.138  1.00  0.00     0.115 A 
ATOM      7  C   UNL     1      -8.316  -5.889  63.420  1.00  0.00     0.012 A 
ATOM      8  C   UNL     1      -8.287  -5.610  62.051  1.00  0.00     0.047 A 
BRANCH   6   9
ATOM      9  O   UNL     1      -7.871  -6.332  59.771  1.00  0.00    -0.508 OA
ATOM     10  H   UNL     1      -8.561  -5.733  59.332  1.00  0.00     0.293 HD
ENDBRANCH   6   9
ENDBRANCH   1   3
BRANCH   2  11
ATOM     11  C   UNL     1      -8.740  -8.603  67.395  1.00  0.00     0.189 C 
ATOM     12  O   UNL     1      -8.822  -9.771  67.865  1.00  0.00    -0.289 OA
BRANCH  11  13
ATOM     13  C   UNL     1      -8.618  -7.459  68.329  1.00  0.00     0.064 A 
ATOM     14  C   UNL     1      -7.410  -7.171  69.002  1.00  0.00     0.130 A 
ATOM     15  C   UNL     1      -9.730  -6.623  68.533  1.00  0.00     0.020 A 
ATOM     16  C   UNL     1      -7.346  -6.087  69.890  1.00  0.00     0.093 A 
ATOM     17  C   UNL     1      -9.654  -5.541  69.414  1.00  0.00     0.047 A 
ATOM     18  C   UNL     1      -8.466  -5.273  70.097  1.00  0.00     0.119 A 
BRANCH  14  19
ATOM     19  O   UNL     1      -6.269  -7.941  68.772  1.00  0.00    -0.507 OA
ATOM     20  H   UNL     1      -5.727  -8.331  69.534  1.00  0.00     0.293 HD
ENDBRANCH  14  19
BRANCH  18  21
ATOM     21  O   UNL     1      -8.407  -4.194  70.975  1.00  0.00    -0.508 OA
ATOM     22  H   UNL     1      -8.132  -4.312  71.944  1.00  0.00     0.293 HD
ENDBRANCH  18  21
ENDBRANCH  11  13
ENDBRANCH   2  11
TORSDOF 6
ENDMDL
MODEL 3
REMARK VINA RESULT:    -6.532      3.402      6.863
REMARK INTER + INTRA:          -8.830
REMARK INTER:                  -8.087
REMARK INTRA:                  -0.743
REMARK UNBOUND:                -0.580
REMARK SMILES O=C(C=Cc1ccc(O)cc1)c1ccc(O)cc1O
REMARK SMILES IDX 4 1 3 2 5 3 6 4 7 5 8 6 11 7 10 8 9 9 2 11 1 12 12 13 18 14
REMARK SMILES IDX 13 15 17 16 14 17 15 18 19 19 16 21
REMARK H PARENT 9 10 19 20 16 22
REMARK Flexibility Score: inf
ROOT
ATOM      1  C   UNL     1      -6.755  -9.078  63.994  1.00  0.00     0.012 C 
ATOM      2  C   UNL     1      -8.006  -8.599  63.921  1.00  0.00     0.053 C 
ENDROOT
BRANCH   1   3
ATOM      3  C   UNL     1      -6.231 -10.145  63.106  1.00  0.00    -0.025 A 
ATOM      4  C   UNL     1      -5.008 -10.802  63.350  1.00  0.00     0.012 A 
ATOM      5  C   UNL     1      -4.550 -11.793  62.476  1.00  0.00     0.047 A 
ATOM      6  C   UNL     1      -5.297 -12.135  61.344  1.00  0.00     0.115 A 
ATOM      7  C   UNL     1      -6.966 -10.485  61.957  1.00  0.00     0.012 A 
ATOM      8  C   UNL     1      -6.505 -11.476  61.087  1.00  0.00     0.047 A 
BRANCH   6   9
ATOM      9  O   UNL     1      -4.828 -13.125  60.484  1.00  0.00    -0.508 OA
ATOM     10  H   UNL     1      -3.839 -13.237  60.294  1.00  0.00     0.293 HD
ENDBRANCH   6   9
ENDBRANCH   1   3
BRANCH   2  11
ATOM     11  C   UNL     1      -8.489  -7.522  64.812  1.00  0.00     0.189 C 
ATOM     12  O   UNL     1      -9.281  -7.795  65.757  1.00  0.00    -0.289 OA
BRANCH  11  13
ATOM     13  C   UNL     1      -8.022  -6.125  64.648  1.00  0.00     0.064 A 
ATOM     14  C   UNL     1      -7.364  -5.432  65.688  1.00  0.00     0.130 A 
ATOM     15  C   UNL     1      -8.216  -5.481  63.413  1.00  0.00     0.020 A 
ATOM     16  C   UNL     1      -6.953  -4.106  65.492  1.00  0.00     0.093 A 
ATOM     17  C   UNL     1      -7.796  -4.162  63.227  1.00  0.00     0.047 A 
ATOM     18  C   UNL     1      -7.169  -3.469  64.264  1.00  0.00     0.119 A 
BRANCH  14  19
ATOM     19  O   UNL     1      -7.095  -6.064  66.903  1.00  0.00    -0.507 OA
ATOM     20  H   UNL     1      -7.823  -6.530  67.433  1.00  0.00     0.293 HD
ENDBRANCH  14  19
BRANCH  18  21
ATOM     21  O   UNL     1      -6.760  -2.154  64.063  1.00  0.00    -0.508 OA
ATOM     22  H   UNL     1      -5.815  -1.930  63.774  1.00  0.00     0.293 HD
ENDBRANCH  18  21
ENDBRANCH  11  13
ENDBRANCH   2  11
TORSDOF 6
ENDMDL
MODEL 4
REMARK VINA RESULT:    -6.475      1.586      2.768
REMARK INTER + INTRA:          -8.759
REMARK INTER:                  -8.194
REMARK INTRA:                  -0.565
REMARK UNBOUND:                -0.580
REMARK SMILES O=C(C=Cc1ccc(O)cc1)c1ccc(O)cc1O
REMARK SMILES IDX 4 1 3 2 5 3 6 4 7 5 8 6 11 7 10 8 9 9 2 11 1 12 12 13 18 14
REMARK SMILES IDX 13 15 17 16 14 17 15 18 19 19 16 21
REMARK H PARENT 9 10 19 20 16 22
REMARK Flexibility Score: inf
ROOT
ATOM      1  C   UNL     1      -7.353  -6.055  65.131  1.00  0.00     0.012 C 
ATOM      2  C   UNL     1      -8.298  -5.863  64.197  1.00  0.00     0.053 C 
ENDROOT
BRANCH   1   3
ATOM      3  C   UNL     1      -7.477  -5.583  66.532  1.00  0.00    -0.025 A 
ATOM      4  C   UNL     1      -7.897  -6.424  67.582  1.00  0.00     0.012 A 
ATOM      5  C   UNL     1      -8.011  -5.929  68.884  1.00  0.00     0.047 A 
ATOM      6  C   UNL     1      -7.717  -4.590  69.157  1.00  0.00     0.115 A 
ATOM      7  C   UNL     1      -7.200  -4.233  66.814  1.00  0.00     0.012 A 
ATOM      8  C   UNL     1      -7.314  -3.743  68.118  1.00  0.00     0.047 A 
BRANCH   6   9
ATOM      9  O   UNL     1      -7.833  -4.112  70.460  1.00  0.00    -0.508 OA
ATOM     10  H   UNL     1      -7.177  -4.381  71.184  1.00  0.00     0.293 HD
ENDBRANCH   6   9
ENDBRANCH   1   3
BRANCH   2  11
ATOM     11  C   UNL     1      -8.148  -6.362  62.813  1.00  0.00     0.189 C 
ATOM     12  O   UNL     1      -8.487  -5.632  61.841  1.00  0.00    -0.289 OA
BRANCH  11  13
ATOM     13  C   UNL     1      -7.558  -7.694  62.539  1.00  0.00     0.064 A 
ATOM     14  C   UNL     1      -8.285  -8.887  62.742  1.00  0.00     0.130 A 
ATOM     15  C   UNL     1      -6.246  -7.769  62.040  1.00  0.00     0.020 A 
ATOM     16  C   UNL     1      -7.680 -10.127  62.484  1.00  0.00     0.093 A 
ATOM     17  C   UNL     1      -5.655  -9.009  61.780  1.00  0.00     0.047 A 
ATOM     18  C   UNL     1      -6.366 -10.188  62.004  1.00  0.00     0.119 A 
BRANCH  14  19
ATOM     19  O   UNL     1      -9.612  -8.845  63.173  1.00  0.00    -0.507 OA
ATOM     20  H   UNL     1     -10.272  -8.175  62.797  1.00  0.00     0.293 HD
ENDBRANCH  14  19
BRANCH  18  21
ATOM     21  O   UNL     1      -5.762 -11.416  61.744  1.00  0.00    -0.508 OA
ATOM     22  H   UNL     1      -6.075 -12.011  60.987  1.00  0.00     0.293 HD
ENDBRANCH  18  21
ENDBRANCH  11  13
ENDBRANCH   2  11
TORSDOF 6
ENDMDL
MODEL 5
REMARK VINA RESULT:    -6.417      2.461      7.299
REMARK INTER + INTRA:          -8.685
REMARK INTER:                  -8.120
REMARK INTRA:                  -0.566
REMARK UNBOUND:                -0.580
REMARK SMILES O=C(C=Cc1ccc(O)cc1)c1ccc(O)cc1O
REMARK SMILES IDX 4 1 3 2 5 3 6 4 7 5 8 6 11 7 10 8 9 9 2 11 1 12 12 13 18 14
REMARK SMILES IDX 13 15 17 16 14 17 15 18 19 19 16 21
REMARK H PARENT 9 10 19 20 16 22
REMARK Flexibility Score: inf
ROOT
ATOM      1  C   UNL     1      -8.503  -5.954  66.003  1.00  0.00     0.012 C 
ATOM      2  C   UNL     1      -7.611  -5.306  66.768  1.00  0.00     0.053 C 
ENDROOT
BRANCH   1   3
ATOM      3  C   UNL     1      -8.396  -6.056  64.526  1.00  0.00    -0.025 A 
ATOM      4  C   UNL     1      -8.030  -7.250  63.873  1.00  0.00     0.012 A 
ATOM      5  C   UNL     1      -7.930  -7.293  62.479  1.00  0.00     0.047 A 
ATOM      6  C   UNL     1      -8.183  -6.148  61.719  1.00  0.00     0.115 A 
ATOM      7  C   UNL     1      -8.632  -4.906  63.754  1.00  0.00     0.012 A 
ATOM      8  C   UNL     1      -8.532  -4.953  62.360  1.00  0.00     0.047 A 
BRANCH   6   9
ATOM      9  O   UNL     1      -8.081  -6.207  60.331  1.00  0.00    -0.508 OA
ATOM     10  H   UNL     1      -8.234  -5.388  59.754  1.00  0.00     0.293 HD
ENDBRANCH   6   9
ENDBRANCH   1   3
BRANCH   2  11
ATOM     11  C   UNL     1      -7.741  -5.238  68.240  1.00  0.00     0.189 C 
ATOM     12  O   UNL     1      -7.319  -4.224  68.863  1.00  0.00    -0.289 OA
BRANCH  11  13
ATOM     13  C   UNL     1      -8.405  -6.323  69.001  1.00  0.00     0.064 A 
ATOM     14  C   UNL     1      -7.774  -7.565  69.231  1.00  0.00     0.130 A 
ATOM     15  C   UNL     1      -9.688  -6.100  69.529  1.00  0.00     0.020 A 
ATOM     16  C   UNL     1      -8.447  -8.569  69.944  1.00  0.00     0.093 A 
ATOM     17  C   UNL     1     -10.347  -7.103  70.243  1.00  0.00     0.047 A 
ATOM     18  C   UNL     1      -9.733  -8.340  70.449  1.00  0.00     0.119 A 
BRANCH  14  19
ATOM     19  O   UNL     1      -6.474  -7.796  68.778  1.00  0.00    -0.507 OA
ATOM     20  H   UNL     1      -6.248  -8.593  68.194  1.00  0.00     0.293 HD
ENDBRANCH  14  19
BRANCH  18  21
ATOM     21  O   UNL     1     -10.404  -9.332  71.159  1.00  0.00    -0.508 OA
ATOM     22  H   UNL     1     -10.809  -9.150  72.070  1.00  0.00     0.293 HD
ENDBRANCH  18  21
ENDBRANCH  11  13
ENDBRANCH   2  11
TORSDOF 6
ENDMDL
MODEL 6
REMARK VINA RESULT:    -6.390      2.674      7.344
REMARK INTER + INTRA:          -8.651
REMARK INTER:                  -7.936
REMARK INTRA:                  -0.715
REMARK UNBOUND:                -0.580
REMARK SMILES O=C(C=Cc1ccc(O)cc1)c1ccc(O)cc1O
REMARK SMILES IDX 4 1 3 2 5 3 6 4 7 5 8 6 11 7 10 8 9 9 2 11 1 12 12 13 18 14
REMARK SMILES IDX 13 15 17 16 14 17 15 18 19 19 16 21
REMARK H PARENT 9 10 19 20 16 22
REMARK Flexibility Score: inf
ROOT
ATOM      1  C   UNL     1      -6.698  -5.768  64.520  1.00  0.00     0.012 C 
ATOM      2  C   UNL     1      -7.505  -4.719  64.302  1.00  0.00     0.053 C 
ENDROOT
BRANCH   1   3
ATOM      3  C   UNL     1      -6.116  -6.597  63.436  1.00  0.00    -0.025 A 
ATOM      4  C   UNL     1      -6.734  -6.742  62.177  1.00  0.00     0.012 A 
ATOM      5  C   UNL     1      -6.153  -7.545  61.191  1.00  0.00     0.047 A 
ATOM      6  C   UNL     1      -4.957  -8.222  61.448  1.00  0.00     0.115 A 
ATOM      7  C   UNL     1      -4.923  -7.295  63.690  1.00  0.00     0.012 A 
ATOM      8  C   UNL     1      -4.345  -8.096  62.701  1.00  0.00     0.047 A 
BRANCH   6   9
ATOM      9  O   UNL     1      -4.389  -9.017  60.456  1.00  0.00    -0.508 OA
ATOM     10  H   UNL     1      -3.603  -9.627  60.650  1.00  0.00     0.293 HD
ENDBRANCH   6   9
ENDBRANCH   1   3
BRANCH   2  11
ATOM     11  C   UNL     1      -8.055  -3.905  65.407  1.00  0.00     0.189 C 
ATOM     12  O   UNL     1      -8.272  -2.674  65.234  1.00  0.00    -0.289 OA
BRANCH  11  13
ATOM     13  C   UNL     1      -8.404  -4.520  66.710  1.00  0.00     0.064 A 
ATOM     14  C   UNL     1      -7.622  -4.308  67.867  1.00  0.00     0.130 A 
ATOM     15  C   UNL     1      -9.559  -5.315  66.802  1.00  0.00     0.020 A 
ATOM     16  C   UNL     1      -7.982  -4.923  69.076  1.00  0.00     0.093 A 
ATOM     17  C   UNL     1      -9.913  -5.918  68.012  1.00  0.00     0.047 A 
ATOM     18  C   UNL     1      -9.126  -5.728  69.149  1.00  0.00     0.119 A 
BRANCH  14  19
ATOM     19  O   UNL     1      -6.507  -3.471  67.827  1.00  0.00    -0.507 OA
ATOM     20  H   UNL     1      -6.087  -3.103  68.673  1.00  0.00     0.293 HD
ENDBRANCH  14  19
BRANCH  18  21
ATOM     21  O   UNL     1      -9.490  -6.339  70.346  1.00  0.00    -0.508 OA
ATOM     22  H   UNL     1     -10.417  -6.723  70.486  1.00  0.00     0.293 HD
ENDBRANCH  18  21
ENDBRANCH  11  13
ENDBRANCH   2  11
TORSDOF 6
ENDMDL
MODEL 7
REMARK VINA RESULT:    -6.323      3.031      3.742
REMARK INTER + INTRA:          -8.567
REMARK INTER:                  -7.837
REMARK INTRA:                  -0.730
REMARK UNBOUND:                -0.580
REMARK SMILES O=C(C=Cc1ccc(O)cc1)c1ccc(O)cc1O
REMARK SMILES IDX 4 1 3 2 5 3 6 4 7 5 8 6 11 7 10 8 9 9 2 11 1 12 12 13 18 14
REMARK SMILES IDX 13 15 17 16 14 17 15 18 19 19 16 21
REMARK H PARENT 9 10 19 20 16 22
REMARK Flexibility Score: inf
ROOT
ATOM      1  C   UNL     1      -9.507  -5.540  66.532  1.00  0.00     0.012 C 
ATOM      2  C   UNL     1      -8.655  -4.506  66.454  1.00  0.00     0.053 C 
ENDROOT
BRANCH   1   3
ATOM      3  C   UNL     1     -10.133  -5.994  67.797  1.00  0.00    -0.025 A 
ATOM      4  C   UNL     1     -11.332  -6.735  67.827  1.00  0.00     0.012 A 
ATOM      5  C   UNL     1     -11.891  -7.128  69.047  1.00  0.00     0.047 A 
ATOM      6  C   UNL     1     -11.271  -6.781  70.251  1.00  0.00     0.115 A 
ATOM      7  C   UNL     1      -9.527  -5.636  69.014  1.00  0.00     0.012 A 
ATOM      8  C   UNL     1     -10.089  -6.032  70.231  1.00  0.00     0.047 A 
BRANCH   6   9
ATOM      9  O   UNL     1     -11.839  -7.182  71.458  1.00  0.00    -0.508 OA
ATOM     10  H   UNL     1     -12.784  -7.548  71.503  1.00  0.00     0.293 HD
ENDBRANCH   6   9
ENDBRANCH   1   3
BRANCH   2  11
ATOM     11  C   UNL     1      -8.062  -4.071  65.171  1.00  0.00     0.189 C 
ATOM     12  O   UNL     1      -7.873  -2.842  64.950  1.00  0.00    -0.289 OA
BRANCH  11  13
ATOM     13  C   UNL     1      -7.635  -5.058  64.151  1.00  0.00     0.064 A 
ATOM     14  C   UNL     1      -8.348  -5.239  62.945  1.00  0.00     0.130 A 
ATOM     15  C   UNL     1      -6.474  -5.817  64.380  1.00  0.00     0.020 A 
ATOM     16  C   UNL     1      -7.915  -6.197  62.016  1.00  0.00     0.093 A 
ATOM     17  C   UNL     1      -6.048  -6.763  63.444  1.00  0.00     0.047 A 
ATOM     18  C   UNL     1      -6.767  -6.959  62.264  1.00  0.00     0.119 A 
BRANCH  14  19
ATOM     19  O   UNL     1      -9.466  -4.455  62.657  1.00  0.00    -0.507 OA
ATOM     20  H   UNL     1      -9.404  -3.446  62.587  1.00  0.00     0.293 HD
ENDBRANCH  14  19
BRANCH  18  21
ATOM     21  O   UNL     1      -6.333  -7.909  61.343  1.00  0.00    -0.508 OA
ATOM     22  H   UNL     1      -6.954  -8.627  60.989  1.00  0.00     0.293 HD
ENDBRANCH  18  21
ENDBRANCH  11  13
ENDBRANCH   2  11
TORSDOF 6
ENDMDL
MODEL 8
REMARK VINA RESULT:    -6.306      3.265      4.854
REMARK INTER + INTRA:          -8.545
REMARK INTER:                  -7.823
REMARK INTRA:                  -0.722
REMARK UNBOUND:                -0.580
REMARK SMILES O=C(C=Cc1ccc(O)cc1)c1ccc(O)cc1O
REMARK SMILES IDX 4 1 3 2 5 3 6 4 7 5 8 6 11 7 10 8 9 9 2 11 1 12 12 13 18 14
REMARK SMILES IDX 13 15 17 16 14 17 15 18 19 19 16 21
REMARK H PARENT 9 10 19 20 16 22
REMARK Flexibility Score: inf
ROOT
ATOM      1  C   UNL     1      -9.608  -5.978  69.018  1.00  0.00     0.012 C 
ATOM      2  C   UNL     1      -8.311  -5.680  68.844  1.00  0.00     0.053 C 
ENDROOT
BRANCH   1   3
ATOM      3  C   UNL     1     -10.099  -6.950  70.025  1.00  0.00    -0.025 A 
ATOM      4  C   UNL     1     -11.338  -6.803  70.680  1.00  0.00     0.012 A 
ATOM      5  C   UNL     1     -11.751  -7.741  71.632  1.00  0.00     0.047 A 
ATOM      6  C   UNL     1     -10.934  -8.829  71.951  1.00  0.00     0.115 A 
ATOM      7  C   UNL     1      -9.277  -8.039  70.365  1.00  0.00     0.012 A 
ATOM      8  C   UNL     1      -9.694  -8.974  71.317  1.00  0.00     0.047 A 
BRANCH   6   9
ATOM      9  O   UNL     1     -11.360  -9.755  72.900  1.00  0.00    -0.508 OA
ATOM     10  H   UNL     1     -11.834  -9.465  73.748  1.00  0.00     0.293 HD
ENDBRANCH   6   9
ENDBRANCH   1   3
BRANCH   2  11
ATOM     11  C   UNL     1      -7.858  -4.692  67.841  1.00  0.00     0.189 C 
ATOM     12  O   UNL     1      -7.218  -3.669  68.210  1.00  0.00    -0.289 OA
BRANCH  11  13
ATOM     13  C   UNL     1      -8.100  -4.904  66.395  1.00  0.00     0.064 A 
ATOM     14  C   UNL     1      -8.558  -3.865  65.555  1.00  0.00     0.130 A 
ATOM     15  C   UNL     1      -7.843  -6.170  65.838  1.00  0.00     0.020 A 
ATOM     16  C   UNL     1      -8.787  -4.117  64.194  1.00  0.00     0.093 A 
ATOM     17  C   UNL     1      -8.068  -6.408  64.480  1.00  0.00     0.047 A 
ATOM     18  C   UNL     1      -8.544  -5.387  63.656  1.00  0.00     0.119 A 
BRANCH  14  19
ATOM     19  O   UNL     1      -8.759  -2.580  66.061  1.00  0.00    -0.507 OA
ATOM     20  H   UNL     1      -9.574  -2.032  65.812  1.00  0.00     0.293 HD
ENDBRANCH  14  19
BRANCH  18  21
ATOM     21  O   UNL     1      -8.768  -5.641  62.306  1.00  0.00    -0.508 OA
ATOM     22  H   UNL     1      -9.701  -5.622  61.910  1.00  0.00     0.293 HD
ENDBRANCH  18  21
ENDBRANCH  11  13
ENDBRANCH   2  11
TORSDOF 6
ENDMDL
MODEL 9
REMARK VINA RESULT:    -6.298      2.810      7.374
REMARK INTER + INTRA:          -8.535
REMARK INTER:                  -7.799
REMARK INTRA:                  -0.737
REMARK UNBOUND:                -0.580
REMARK SMILES O=C(C=Cc1ccc(O)cc1)c1ccc(O)cc1O
REMARK SMILES IDX 4 1 3 2 5 3 6 4 7 5 8 6 11 7 10 8 9 9 2 11 1 12 12 13 18 14
REMARK SMILES IDX 13 15 17 16 14 17 15 18 19 19 16 21
REMARK H PARENT 9 10 19 20 16 22
REMARK Flexibility Score: inf
ROOT
ATOM      1  C   UNL     1      -6.379  -7.296  62.522  1.00  0.00     0.012 C 
ATOM      2  C   UNL     1      -7.661  -6.906  62.474  1.00  0.00     0.053 C 
ENDROOT
BRANCH   1   3
ATOM      3  C   UNL     1      -5.890  -8.580  61.961  1.00  0.00    -0.025 A 
ATOM      4  C   UNL     1      -4.690  -8.680  61.228  1.00  0.00     0.012 A 
ATOM      5  C   UNL     1      -4.279  -9.911  60.709  1.00  0.00     0.047 A 
ATOM      6  C   UNL     1      -5.059 -11.055  60.902  1.00  0.00     0.115 A 
ATOM      7  C   UNL     1      -6.676  -9.733  62.136  1.00  0.00     0.012 A 
ATOM      8  C   UNL     1      -6.260 -10.961  61.615  1.00  0.00     0.047 A 
BRANCH   6   9
ATOM      9  O   UNL     1      -4.635 -12.274  60.380  1.00  0.00    -0.508 OA
ATOM     10  H   UNL     1      -3.657 -12.456  60.187  1.00  0.00     0.293 HD
ENDBRANCH   6   9
ENDBRANCH   1   3
BRANCH   2  11
ATOM     11  C   UNL     1      -8.111  -5.610  63.028  1.00  0.00     0.189 C 
ATOM     12  O   UNL     1      -8.775  -4.814  62.309  1.00  0.00    -0.289 OA
BRANCH  11  13
ATOM     13  C   UNL     1      -7.837  -5.246  64.439  1.00  0.00     0.064 A 
ATOM     14  C   UNL     1      -7.266  -4.003  64.790  1.00  0.00     0.130 A 
ATOM     15  C   UNL     1      -8.178  -6.153  65.457  1.00  0.00     0.020 A 
ATOM     16  C   UNL     1      -7.011  -3.707  66.137  1.00  0.00     0.093 A 
ATOM     17  C   UNL     1      -7.926  -5.846  66.796  1.00  0.00     0.047 A 
ATOM     18  C   UNL     1      -7.339  -4.627  67.140  1.00  0.00     0.119 A 
BRANCH  14  19
ATOM     19  O   UNL     1      -6.977  -3.052  63.809  1.00  0.00    -0.507 OA
ATOM     20  H   UNL     1      -6.251  -3.204  63.118  1.00  0.00     0.293 HD
ENDBRANCH  14  19
BRANCH  18  21
ATOM     21  O   UNL     1      -7.090  -4.338  68.479  1.00  0.00    -0.508 OA
ATOM     22  H   UNL     1      -6.192  -3.980  68.786  1.00  0.00     0.293 HD
ENDBRANCH  18  21
ENDBRANCH  11  13
ENDBRANCH   2  11
TORSDOF 6
ENDMDL
