MODEL 1
REMARK VINA RESULT:    -4.285      0.000      0.000
REMARK INTER + INTRA:         -15.242
REMARK INTER:                 -10.798
REMARK INTRA:                  -4.444
REMARK UNBOUND:                -4.444
REMARK SMILES CCCCCCCCCCCCCCCCCCCCCCCCCCCC(=O)[O-]
REMARK SMILES IDX 15 1 16 2 17 3 18 4 19 5 20 6 21 7 22 8 23 9 24 10 25 11
REMARK SMILES IDX 26 12 27 13 28 14 29 15 30 16 14 17 13 18 12 19 11 20 10 21
REMARK SMILES IDX 9 22 8 23 7 24 6 25 5 26 4 27 3 28 2 29 1 30
REMARK H PARENT
REMARK Flexibility Score: inf
ROOT
ATOM      1  C   UNL     1      14.147   4.691  41.337  1.00  0.00     0.000 C 
ENDROOT
BRANCH   1   2
ATOM      2  C   UNL     1      15.248   5.568  40.716  1.00  0.00     0.000 C 
BRANCH   2   3
ATOM      3  C   UNL     1      16.661   5.126  41.131  1.00  0.00     0.000 C 
BRANCH   3   4
ATOM      4  C   UNL     1      16.646   3.855  41.994  1.00  0.00     0.000 C 
BRANCH   4   5
ATOM      5  C   UNL     1      17.765   2.891  41.573  1.00  0.00     0.000 C 
BRANCH   5   6
ATOM      6  C   UNL     1      17.264   1.763  40.654  1.00  0.00     0.000 C 
BRANCH   6   7
ATOM      7  C   UNL     1      15.764   1.435  40.784  1.00  0.00     0.000 C 
BRANCH   7   8
ATOM      8  C   UNL     1      15.456  -0.076  40.811  1.00  0.00     0.000 C 
BRANCH   8   9
ATOM      9  C   UNL     1      14.008  -0.388  40.391  1.00  0.00     0.000 C 
BRANCH   9  10
ATOM     10  C   UNL     1      13.133  -0.820  41.587  1.00  0.00     0.000 C 
BRANCH  10  11
ATOM     11  C   UNL     1      11.802  -0.055  41.688  1.00  0.00     0.000 C 
BRANCH  11  12
ATOM     12  C   UNL     1      11.952   1.444  41.382  1.00  0.00     0.006 C 
BRANCH  12  13
ATOM     13  C   UNL     1      10.694   2.038  40.734  1.00  0.00     0.053 C 
BRANCH  13  14
ATOM     14  C   UNL     1       9.535   2.062  41.684  1.00  0.00     0.041 C 
ATOM     15  O   UNL     1       9.671   2.545  42.840  1.00  0.00    -0.550 OA
ATOM     16  O   UNL     1       8.311   1.524  41.305  1.00  0.00    -0.550 OA
ENDBRANCH  13  14
ENDBRANCH  12  13
ENDBRANCH  11  12
ENDBRANCH  10  11
ENDBRANCH   9  10
ENDBRANCH   8   9
ENDBRANCH   7   8
ENDBRANCH   6   7
ENDBRANCH   5   6
ENDBRANCH   4   5
ENDBRANCH   3   4
ENDBRANCH   2   3
ENDBRANCH   1   2
BRANCH   1  17
ATOM     17  C   UNL     1      12.736   5.239  41.063  1.00  0.00     0.000 C 
BRANCH  17  18
ATOM     18  C   UNL     1      12.763   6.669  40.501  1.00  0.00     0.000 C 
BRANCH  18  19
ATOM     19  C   UNL     1      11.862   7.603  41.320  1.00  0.00     0.000 C 
BRANCH  19  20
ATOM     20  C   UNL     1      12.663   8.499  42.280  1.00  0.00     0.000 C 
BRANCH  20  21
ATOM     21  C   UNL     1      13.080   9.831  41.631  1.00  0.00     0.000 C 
BRANCH  21  22
ATOM     22  C   UNL     1      14.582  10.133  41.821  1.00  0.00    -0.000 C 
BRANCH  22  23
ATOM     23  C   UNL     1      15.475   8.878  41.796  1.00  0.00    -0.000 C 
BRANCH  23  24
ATOM     24  C   UNL     1      16.939   9.136  41.404  1.00  0.00    -0.000 C 
BRANCH  24  25
ATOM     25  C   UNL     1      17.938   8.478  42.368  1.00  0.00    -0.000 C 
BRANCH  25  26
ATOM     26  C   UNL     1      17.415   8.511  43.810  1.00  0.00    -0.000 C 
BRANCH  26  27
ATOM     27  C   UNL     1      17.709   7.215  44.585  1.00  0.00    -0.000 C 
BRANCH  27  28
ATOM     28  C   UNL     1      16.523   6.234  44.694  1.00  0.00    -0.000 C 
BRANCH  28  29
ATOM     29  C   UNL     1      15.133   6.871  44.526  1.00  0.00    -0.003 C 
ATOM     30  C   UNL     1      13.991   5.875  44.728  1.00  0.00     0.004 C 
ENDBRANCH  28  29
ENDBRANCH  27  28
ENDBRANCH  26  27
ENDBRANCH  25  26
ENDBRANCH  24  25
ENDBRANCH  23  24
ENDBRANCH  22  23
ENDBRANCH  21  22
ENDBRANCH  20  21
ENDBRANCH  19  20
ENDBRANCH  18  19
ENDBRANCH  17  18
ENDBRANCH   1  17
TORSDOF 26
ENDMDL
MODEL 2
REMARK VINA RESULT:    -4.283      3.464      7.694
REMARK INTER + INTRA:         -15.238
REMARK INTER:                 -11.910
REMARK INTRA:                  -3.328
REMARK UNBOUND:                -4.444
REMARK SMILES CCCCCCCCCCCCCCCCCCCCCCCCCCCC(=O)[O-]
REMARK SMILES IDX 15 1 16 2 17 3 18 4 19 5 20 6 21 7 22 8 23 9 24 10 25 11
REMARK SMILES IDX 26 12 27 13 28 14 29 15 30 16 14 17 13 18 12 19 11 20 10 21
REMARK SMILES IDX 9 22 8 23 7 24 6 25 5 26 4 27 3 28 2 29 1 30
REMARK H PARENT
REMARK Flexibility Score: inf
ROOT
ATOM      1  C   UNL     1      15.969   4.866  46.392  1.00  0.00     0.000 C 
ENDROOT
BRANCH   1   2
ATOM      2  C   UNL     1      15.823   5.098  44.877  1.00  0.00     0.000 C 
BRANCH   2   3
ATOM      3  C   UNL     1      16.374   6.464  44.433  1.00  0.00     0.000 C 
BRANCH   3   4
ATOM      4  C   UNL     1      15.279   7.540  44.360  1.00  0.00     0.000 C 
BRANCH   4   5
ATOM      5  C   UNL     1      15.825   8.839  43.750  1.00  0.00     0.000 C 
BRANCH   5   6
ATOM      6  C   UNL     1      15.336   9.074  42.311  1.00  0.00     0.000 C 
BRANCH   6   7
ATOM      7  C   UNL     1      16.123   8.316  41.224  1.00  0.00     0.000 C 
BRANCH   7   8
ATOM      8  C   UNL     1      15.570   6.909  40.919  1.00  0.00     0.000 C 
BRANCH   8   9
ATOM      9  C   UNL     1      16.685   5.895  40.604  1.00  0.00     0.000 C 
BRANCH   9  10
ATOM     10  C   UNL     1      16.361   4.485  41.142  1.00  0.00     0.000 C 
BRANCH  10  11
ATOM     11  C   UNL     1      17.080   3.354  40.386  1.00  0.00     0.000 C 
BRANCH  11  12
ATOM     12  C   UNL     1      18.159   2.662  41.234  1.00  0.00     0.006 C 
BRANCH  12  13
ATOM     13  C   UNL     1      19.524   2.632  40.533  1.00  0.00     0.053 C 
BRANCH  13  14
ATOM     14  C   UNL     1      20.615   3.171  41.409  1.00  0.00     0.041 C 
ATOM     15  O   UNL     1      20.572   4.364  41.815  1.00  0.00    -0.550 OA
ATOM     16  O   UNL     1      21.693   2.366  41.754  1.00  0.00    -0.550 OA
ENDBRANCH  13  14
ENDBRANCH  12  13
ENDBRANCH  11  12
ENDBRANCH  10  11
ENDBRANCH   9  10
ENDBRANCH   8   9
ENDBRANCH   7   8
ENDBRANCH   6   7
ENDBRANCH   5   6
ENDBRANCH   4   5
ENDBRANCH   3   4
ENDBRANCH   2   3
ENDBRANCH   1   2
BRANCH   1  17
ATOM     17  C   UNL     1      14.610   4.683  47.089  1.00  0.00     0.000 C 
BRANCH  17  18
ATOM     18  C   UNL     1      13.995   6.019  47.532  1.00  0.00     0.000 C 
BRANCH  18  19
ATOM     19  C   UNL     1      12.724   6.334  46.731  1.00  0.00     0.000 C 
BRANCH  19  20
ATOM     20  C   UNL     1      12.206   5.116  45.947  1.00  0.00     0.000 C 
BRANCH  20  21
ATOM     21  C   UNL     1      11.532   5.513  44.622  1.00  0.00     0.000 C 
BRANCH  21  22
ATOM     22  C   UNL     1      12.186   4.827  43.401  1.00  0.00    -0.000 C 
BRANCH  22  23
ATOM     23  C   UNL     1      11.440   3.567  42.925  1.00  0.00    -0.000 C 
BRANCH  23  24
ATOM     24  C   UNL     1      12.211   2.707  41.910  1.00  0.00    -0.000 C 
BRANCH  24  25
ATOM     25  C   UNL     1      11.312   2.150  40.796  1.00  0.00    -0.000 C 
BRANCH  25  26
ATOM     26  C   UNL     1      10.846   0.725  41.126  1.00  0.00    -0.000 C 
BRANCH  26  27
ATOM     27  C   UNL     1      11.993  -0.186  41.597  1.00  0.00    -0.000 C 
BRANCH  27  28
ATOM     28  C   UNL     1      12.872  -0.769  40.471  1.00  0.00    -0.000 C 
BRANCH  28  29
ATOM     29  C   UNL     1      14.339  -1.024  40.856  1.00  0.00    -0.003 C 
ATOM     30  C   UNL     1      15.184   0.249  40.865  1.00  0.00     0.004 C 
ENDBRANCH  28  29
ENDBRANCH  27  28
ENDBRANCH  26  27
ENDBRANCH  25  26
ENDBRANCH  24  25
ENDBRANCH  23  24
ENDBRANCH  22  23
ENDBRANCH  21  22
ENDBRANCH  20  21
ENDBRANCH  19  20
ENDBRANCH  18  19
ENDBRANCH  17  18
ENDBRANCH   1  17
TORSDOF 26
ENDMDL
MODEL 3
REMARK VINA RESULT:    -4.263      2.014      4.949
REMARK INTER + INTRA:         -15.187
REMARK INTER:                 -11.350
REMARK INTRA:                  -3.837
REMARK UNBOUND:                -4.444
REMARK SMILES CCCCCCCCCCCCCCCCCCCCCCCCCCCC(=O)[O-]
REMARK SMILES IDX 15 1 16 2 17 3 18 4 19 5 20 6 21 7 22 8 23 9 24 10 25 11
REMARK SMILES IDX 26 12 27 13 28 14 29 15 30 16 14 17 13 18 12 19 11 20 10 21
REMARK SMILES IDX 9 22 8 23 7 24 6 25 5 26 4 27 3 28 2 29 1 30
REMARK H PARENT
REMARK Flexibility Score: inf
ROOT
ATOM      1  C   UNL     1      15.439   1.105  40.669  1.00  0.00     0.000 C 
ENDROOT
BRANCH   1   2
ATOM      2  C   UNL     1      15.152  -0.357  41.053  1.00  0.00     0.000 C 
BRANCH   2   3
ATOM      3  C   UNL     1      14.197  -1.051  40.066  1.00  0.00     0.000 C 
BRANCH   3   4
ATOM      4  C   UNL     1      12.812  -0.387  40.027  1.00  0.00     0.000 C 
BRANCH   4   5
ATOM      5  C   UNL     1      12.164  -0.384  41.419  1.00  0.00     0.000 C 
BRANCH   5   6
ATOM      6  C   UNL     1      11.421   0.927  41.729  1.00  0.00     0.000 C 
BRANCH   6   7
ATOM      7  C   UNL     1       9.947   0.757  42.146  1.00  0.00     0.000 C 
BRANCH   7   8
ATOM      8  C   UNL     1       9.560  -0.696  42.489  1.00  0.00     0.000 C 
BRANCH   8   9
ATOM      9  C   UNL     1       8.482  -1.257  41.543  1.00  0.00     0.000 C 
BRANCH   9  10
ATOM     10  C   UNL     1       9.022  -2.398  40.654  1.00  0.00     0.000 C 
BRANCH  10  11
ATOM     11  C   UNL     1       9.421  -1.943  39.239  1.00  0.00     0.000 C 
BRANCH  11  12
ATOM     12  C   UNL     1       8.751  -0.623  38.827  1.00  0.00     0.006 C 
BRANCH  12  13
ATOM     13  C   UNL     1       9.750   0.379  38.231  1.00  0.00     0.053 C 
BRANCH  13  14
ATOM     14  C   UNL     1       9.451   1.786  38.655  1.00  0.00     0.041 C 
ATOM     15  O   UNL     1      10.377   2.638  38.725  1.00  0.00    -0.550 OA
ATOM     16  O   UNL     1       8.155   2.148  39.003  1.00  0.00    -0.550 OA
ENDBRANCH  13  14
ENDBRANCH  12  13
ENDBRANCH  11  12
ENDBRANCH  10  11
ENDBRANCH   9  10
ENDBRANCH   8   9
ENDBRANCH   7   8
ENDBRANCH   6   7
ENDBRANCH   5   6
ENDBRANCH   4   5
ENDBRANCH   3   4
ENDBRANCH   2   3
ENDBRANCH   1   2
BRANCH   1  17
ATOM     17  C   UNL     1      16.943   1.425  40.663  1.00  0.00     0.000 C 
BRANCH  17  18
ATOM     18  C   UNL     1      17.257   2.775  41.326  1.00  0.00     0.000 C 
BRANCH  18  19
ATOM     19  C   UNL     1      16.740   3.943  40.474  1.00  0.00     0.000 C 
BRANCH  19  20
ATOM     20  C   UNL     1      16.084   5.045  41.324  1.00  0.00     0.000 C 
BRANCH  20  21
ATOM     21  C   UNL     1      16.325   4.845  42.831  1.00  0.00     0.000 C 
BRANCH  21  22
ATOM     22  C   UNL     1      15.552   5.869  43.691  1.00  0.00    -0.000 C 
BRANCH  22  23
ATOM     23  C   UNL     1      14.125   6.151  43.185  1.00  0.00    -0.000 C 
BRANCH  23  24
ATOM     24  C   UNL     1      13.720   7.635  43.191  1.00  0.00    -0.000 C 
BRANCH  24  25
ATOM     25  C   UNL     1      14.930   8.581  43.226  1.00  0.00    -0.000 C 
BRANCH  25  26
ATOM     26  C   UNL     1      15.057   9.360  41.909  1.00  0.00    -0.000 C 
BRANCH  26  27
ATOM     27  C   UNL     1      16.512   9.479  41.422  1.00  0.00    -0.000 C 
BRANCH  27  28
ATOM     28  C   UNL     1      17.578   8.958  42.407  1.00  0.00    -0.000 C 
BRANCH  28  29
ATOM     29  C   UNL     1      18.479   7.838  41.860  1.00  0.00    -0.003 C 
ATOM     30  C   UNL     1      19.250   7.102  42.956  1.00  0.00     0.004 C 
ENDBRANCH  28  29
ENDBRANCH  27  28
ENDBRANCH  26  27
ENDBRANCH  25  26
ENDBRANCH  24  25
ENDBRANCH  23  24
ENDBRANCH  22  23
ENDBRANCH  21  22
ENDBRANCH  20  21
ENDBRANCH  19  20
ENDBRANCH  18  19
ENDBRANCH  17  18
ENDBRANCH   1  17
TORSDOF 26
ENDMDL
MODEL 4
REMARK VINA RESULT:    -4.259      2.154      5.581
REMARK INTER + INTRA:         -15.178
REMARK INTER:                 -10.540
REMARK INTRA:                  -4.638
REMARK UNBOUND:                -4.444
REMARK SMILES CCCCCCCCCCCCCCCCCCCCCCCCCCCC(=O)[O-]
REMARK SMILES IDX 15 1 16 2 17 3 18 4 19 5 20 6 21 7 22 8 23 9 24 10 25 11
REMARK SMILES IDX 26 12 27 13 28 14 29 15 30 16 14 17 13 18 12 19 11 20 10 21
REMARK SMILES IDX 9 22 8 23 7 24 6 25 5 26 4 27 3 28 2 29 1 30
REMARK H PARENT
REMARK Flexibility Score: inf
ROOT
ATOM      1  C   UNL     1      15.122  -0.163  40.648  1.00  0.00     0.000 C 
ENDROOT
BRANCH   1   2
ATOM      2  C   UNL     1      14.049  -0.799  41.550  1.00  0.00     0.000 C 
BRANCH   2   3
ATOM      3  C   UNL     1      12.664  -0.839  40.882  1.00  0.00     0.000 C 
BRANCH   3   4
ATOM      4  C   UNL     1      11.682   0.161  41.512  1.00  0.00     0.000 C 
BRANCH   4   5
ATOM      5  C   UNL     1      11.789   1.536  40.836  1.00  0.00     0.000 C 
BRANCH   5   6
ATOM      6  C   UNL     1      11.599   2.701  41.823  1.00  0.00     0.000 C 
BRANCH   6   7
ATOM      7  C   UNL     1      10.133   3.067  42.123  1.00  0.00     0.000 C 
BRANCH   7   8
ATOM      8  C   UNL     1       9.852   4.584  42.103  1.00  0.00     0.000 C 
BRANCH   8   9
ATOM      9  C   UNL     1      11.105   5.410  41.759  1.00  0.00     0.000 C 
BRANCH   9  10
ATOM     10  C   UNL     1      10.960   6.159  40.417  1.00  0.00     0.000 C 
BRANCH  10  11
ATOM     11  C   UNL     1      11.733   5.505  39.258  1.00  0.00     0.000 C 
BRANCH  11  12
ATOM     12  C   UNL     1      10.830   5.152  38.065  1.00  0.00     0.006 C 
BRANCH  12  13
ATOM     13  C   UNL     1      10.267   3.728  38.158  1.00  0.00     0.053 C 
BRANCH  13  14
ATOM     14  C   UNL     1      10.520   2.943  36.905  1.00  0.00     0.041 C 
ATOM     15  O   UNL     1      10.458   1.685  36.921  1.00  0.00    -0.550 OA
ATOM     16  O   UNL     1      10.852   3.601  35.727  1.00  0.00    -0.550 OA
ENDBRANCH  13  14
ENDBRANCH  12  13
ENDBRANCH  11  12
ENDBRANCH  10  11
ENDBRANCH   9  10
ENDBRANCH   8   9
ENDBRANCH   7   8
ENDBRANCH   6   7
ENDBRANCH   5   6
ENDBRANCH   4   5
ENDBRANCH   3   4
ENDBRANCH   2   3
ENDBRANCH   1   2
BRANCH   1  17
ATOM     17  C   UNL     1      15.553   1.228  41.143  1.00  0.00     0.000 C 
BRANCH  17  18
ATOM     18  C   UNL     1      16.822   1.732  40.438  1.00  0.00     0.000 C 
BRANCH  18  19
ATOM     19  C   UNL     1      17.730   2.494  41.414  1.00  0.00     0.000 C 
BRANCH  19  20
ATOM     20  C   UNL     1      17.070   3.776  41.951  1.00  0.00     0.000 C 
BRANCH  20  21
ATOM     21  C   UNL     1      16.502   4.660  40.826  1.00  0.00     0.000 C 
BRANCH  21  22
ATOM     22  C   UNL     1      15.013   5.005  41.045  1.00  0.00    -0.000 C 
BRANCH  22  23
ATOM     23  C   UNL     1      14.679   5.427  42.488  1.00  0.00    -0.000 C 
BRANCH  23  24
ATOM     24  C   UNL     1      14.259   6.897  42.649  1.00  0.00    -0.000 C 
BRANCH  24  25
ATOM     25  C   UNL     1      14.473   7.721  41.371  1.00  0.00    -0.000 C 
BRANCH  25  26
ATOM     26  C   UNL     1      15.646   8.698  41.535  1.00  0.00    -0.000 C 
BRANCH  26  27
ATOM     27  C   UNL     1      16.933   8.211  40.846  1.00  0.00    -0.000 C 
BRANCH  27  28
ATOM     28  C   UNL     1      18.166   8.100  41.765  1.00  0.00    -0.000 C 
BRANCH  28  29
ATOM     29  C   UNL     1      17.876   8.257  43.267  1.00  0.00    -0.003 C 
ATOM     30  C   UNL     1      17.755   6.918  43.995  1.00  0.00     0.004 C 
ENDBRANCH  28  29
ENDBRANCH  27  28
ENDBRANCH  26  27
ENDBRANCH  25  26
ENDBRANCH  24  25
ENDBRANCH  23  24
ENDBRANCH  22  23
ENDBRANCH  21  22
ENDBRANCH  20  21
ENDBRANCH  19  20
ENDBRANCH  18  19
ENDBRANCH  17  18
ENDBRANCH   1  17
TORSDOF 26
ENDMDL
MODEL 5
REMARK VINA RESULT:    -4.250      2.965      7.715
REMARK INTER + INTRA:         -15.153
REMARK INTER:                 -10.245
REMARK INTRA:                  -4.909
REMARK UNBOUND:                -4.444
REMARK SMILES CCCCCCCCCCCCCCCCCCCCCCCCCCCC(=O)[O-]
REMARK SMILES IDX 15 1 16 2 17 3 18 4 19 5 20 6 21 7 22 8 23 9 24 10 25 11
REMARK SMILES IDX 26 12 27 13 28 14 29 15 30 16 14 17 13 18 12 19 11 20 10 21
REMARK SMILES IDX 9 22 8 23 7 24 6 25 5 26 4 27 3 28 2 29 1 30
REMARK H PARENT
REMARK Flexibility Score: inf
ROOT
ATOM      1  C   UNL     1      15.214   5.031  42.741  1.00  0.00     0.000 C 
ENDROOT
BRANCH   1   2
ATOM      2  C   UNL     1      16.380   5.885  43.268  1.00  0.00     0.000 C 
BRANCH   2   3
ATOM      3  C   UNL     1      16.305   6.115  44.787  1.00  0.00     0.000 C 
BRANCH   3   4
ATOM      4  C   UNL     1      15.823   4.868  45.544  1.00  0.00     0.000 C 
BRANCH   4   5
ATOM      5  C   UNL     1      15.304   5.239  46.941  1.00  0.00     0.000 C 
BRANCH   5   6
ATOM      6  C   UNL     1      13.799   5.558  46.952  1.00  0.00     0.000 C 
BRANCH   6   7
ATOM      7  C   UNL     1      13.035   5.136  45.683  1.00  0.00     0.000 C 
BRANCH   7   8
ATOM      8  C   UNL     1      12.488   6.321  44.860  1.00  0.00     0.000 C 
BRANCH   8   9
ATOM      9  C   UNL     1      12.846   7.683  45.483  1.00  0.00     0.000 C 
BRANCH   9  10
ATOM     10  C   UNL     1      13.683   8.560  44.527  1.00  0.00     0.000 C 
BRANCH  10  11
ATOM     11  C   UNL     1      13.421   8.275  43.038  1.00  0.00     0.000 C 
BRANCH  11  12
ATOM     12  C   UNL     1      14.215   9.204  42.106  1.00  0.00     0.006 C 
BRANCH  12  13
ATOM     13  C   UNL     1      15.470   9.776  42.779  1.00  0.00     0.053 C 
BRANCH  13  14
ATOM     14  C   UNL     1      16.728   9.268  42.140  1.00  0.00     0.041 C 
ATOM     15  O   UNL     1      16.714   8.858  40.948  1.00  0.00    -0.550 OA
ATOM     16  O   UNL     1      17.909   9.218  42.870  1.00  0.00    -0.550 OA
ENDBRANCH  13  14
ENDBRANCH  12  13
ENDBRANCH  11  12
ENDBRANCH  10  11
ENDBRANCH   9  10
ENDBRANCH   8   9
ENDBRANCH   7   8
ENDBRANCH   6   7
ENDBRANCH   5   6
ENDBRANCH   4   5
ENDBRANCH   3   4
ENDBRANCH   2   3
ENDBRANCH   1   2
BRANCH   1  17
ATOM     17  C   UNL     1      14.843   5.378  41.289  1.00  0.00     0.000 C 
BRANCH  17  18
ATOM     18  C   UNL     1      13.343   5.196  41.009  1.00  0.00     0.000 C 
BRANCH  18  19
ATOM     19  C   UNL     1      12.755   4.062  41.860  1.00  0.00     0.000 C 
BRANCH  19  20
ATOM     20  C   UNL     1      12.110   2.958  41.004  1.00  0.00     0.000 C 
BRANCH  20  21
ATOM     21  C   UNL     1      11.109   2.105  41.802  1.00  0.00     0.000 C 
BRANCH  21  22
ATOM     22  C   UNL     1      11.433   0.597  41.729  1.00  0.00    -0.000 C 
BRANCH  22  23
ATOM     23  C   UNL     1      11.948   0.138  40.352  1.00  0.00    -0.000 C 
BRANCH  23  24
ATOM     24  C   UNL     1      13.174  -0.787  40.397  1.00  0.00    -0.000 C 
BRANCH  24  25
ATOM     25  C   UNL     1      14.263  -0.286  41.359  1.00  0.00    -0.000 C 
BRANCH  25  26
ATOM     26  C   UNL     1      15.452   0.301  40.585  1.00  0.00    -0.000 C 
BRANCH  26  27
ATOM     27  C   UNL     1      15.981   1.608  41.202  1.00  0.00    -0.000 C 
BRANCH  27  28
ATOM     28  C   UNL     1      16.966   2.398  40.316  1.00  0.00    -0.000 C 
BRANCH  28  29
ATOM     29  C   UNL     1      17.967   3.281  41.081  1.00  0.00    -0.003 C 
ATOM     30  C   UNL     1      19.409   2.791  40.961  1.00  0.00     0.004 C 
ENDBRANCH  28  29
ENDBRANCH  27  28
ENDBRANCH  26  27
ENDBRANCH  25  26
ENDBRANCH  24  25
ENDBRANCH  23  24
ENDBRANCH  22  23
ENDBRANCH  21  22
ENDBRANCH  20  21
ENDBRANCH  19  20
ENDBRANCH  18  19
ENDBRANCH  17  18
ENDBRANCH   1  17
TORSDOF 26
ENDMDL
MODEL 6
REMARK VINA RESULT:    -4.208      2.937      6.029
REMARK INTER + INTRA:         -15.048
REMARK INTER:                 -10.171
REMARK INTRA:                  -4.878
REMARK UNBOUND:                -4.444
REMARK SMILES CCCCCCCCCCCCCCCCCCCCCCCCCCCC(=O)[O-]
REMARK SMILES IDX 15 1 16 2 17 3 18 4 19 5 20 6 21 7 22 8 23 9 24 10 25 11
REMARK SMILES IDX 26 12 27 13 28 14 29 15 30 16 14 17 13 18 12 19 11 20 10 21
REMARK SMILES IDX 9 22 8 23 7 24 6 25 5 26 4 27 3 28 2 29 1 30
REMARK H PARENT
REMARK Flexibility Score: inf
ROOT
ATOM      1  C   UNL     1      10.533   1.452  37.899  1.00  0.00     0.000 C 
ENDROOT
BRANCH   1   2
ATOM      2  C   UNL     1       9.415   0.398  37.989  1.00  0.00     0.000 C 
BRANCH   2   3
ATOM      3  C   UNL     1       8.502   0.609  39.209  1.00  0.00     0.000 C 
BRANCH   3   4
ATOM      4  C   UNL     1       7.681   1.904  39.109  1.00  0.00     0.000 C 
BRANCH   4   5
ATOM      5  C   UNL     1       7.644   2.637  40.457  1.00  0.00     0.000 C 
BRANCH   5   6
ATOM      6  C   UNL     1       8.657   2.075  41.469  1.00  0.00     0.000 C 
BRANCH   6   7
ATOM      7  C   UNL     1       9.533   3.132  42.169  1.00  0.00     0.000 C 
BRANCH   7   8
ATOM      8  C   UNL     1      10.964   2.649  42.482  1.00  0.00     0.000 C 
BRANCH   8   9
ATOM      9  C   UNL     1      11.786   2.381  41.208  1.00  0.00     0.000 C 
BRANCH   9  10
ATOM     10  C   UNL     1      12.463   0.994  41.230  1.00  0.00     0.000 C 
BRANCH  10  11
ATOM     11  C   UNL     1      11.470  -0.176  41.339  1.00  0.00     0.000 C 
BRANCH  11  12
ATOM     12  C   UNL     1      11.718  -1.268  40.285  1.00  0.00     0.006 C 
BRANCH  12  13
ATOM     13  C   UNL     1      13.159  -1.256  39.757  1.00  0.00     0.053 C 
BRANCH  13  14
ATOM     14  C   UNL     1      13.940  -2.443  40.237  1.00  0.00     0.041 C 
ATOM     15  O   UNL     1      14.654  -2.357  41.272  1.00  0.00    -0.550 OA
ATOM     16  O   UNL     1      13.903  -3.634  39.523  1.00  0.00    -0.550 OA
ENDBRANCH  13  14
ENDBRANCH  12  13
ENDBRANCH  11  12
ENDBRANCH  10  11
ENDBRANCH   9  10
ENDBRANCH   8   9
ENDBRANCH   7   8
ENDBRANCH   6   7
ENDBRANCH   5   6
ENDBRANCH   4   5
ENDBRANCH   3   4
ENDBRANCH   2   3
ENDBRANCH   1   2
BRANCH   1  17
ATOM     17  C   UNL     1      10.496   2.232  36.574  1.00  0.00     0.000 C 
BRANCH  17  18
ATOM     18  C   UNL     1      10.624   3.749  36.784  1.00  0.00     0.000 C 
BRANCH  18  19
ATOM     19  C   UNL     1      10.513   4.112  38.272  1.00  0.00     0.000 C 
BRANCH  19  20
ATOM     20  C   UNL     1      11.410   5.303  38.654  1.00  0.00     0.000 C 
BRANCH  20  21
ATOM     21  C   UNL     1      11.162   5.787  40.093  1.00  0.00     0.000 C 
BRANCH  21  22
ATOM     22  C   UNL     1      12.265   6.748  40.589  1.00  0.00    -0.000 C 
BRANCH  22  23
ATOM     23  C   UNL     1      12.838   6.376  41.969  1.00  0.00    -0.000 C 
BRANCH  23  24
ATOM     24  C   UNL     1      13.715   5.114  41.985  1.00  0.00    -0.000 C 
BRANCH  24  25
ATOM     25  C   UNL     1      14.892   5.194  41.002  1.00  0.00    -0.000 C 
BRANCH  25  26
ATOM     26  C   UNL     1      16.232   5.234  41.751  1.00  0.00    -0.000 C 
BRANCH  26  27
ATOM     27  C   UNL     1      16.654   3.859  42.298  1.00  0.00    -0.000 C 
BRANCH  27  28
ATOM     28  C   UNL     1      17.665   3.088  41.425  1.00  0.00    -0.000 C 
BRANCH  28  29
ATOM     29  C   UNL     1      17.042   2.236  40.306  1.00  0.00    -0.003 C 
ATOM     30  C   UNL     1      16.126   1.132  40.835  1.00  0.00     0.004 C 
ENDBRANCH  28  29
ENDBRANCH  27  28
ENDBRANCH  26  27
ENDBRANCH  25  26
ENDBRANCH  24  25
ENDBRANCH  23  24
ENDBRANCH  22  23
ENDBRANCH  21  22
ENDBRANCH  20  21
ENDBRANCH  19  20
ENDBRANCH  18  19
ENDBRANCH  17  18
ENDBRANCH   1  17
TORSDOF 26
ENDMDL
MODEL 7
REMARK VINA RESULT:    -4.179      2.083      4.961
REMARK INTER + INTRA:         -14.976
REMARK INTER:                 -10.722
REMARK INTRA:                  -4.254
REMARK UNBOUND:                -4.444
REMARK SMILES CCCCCCCCCCCCCCCCCCCCCCCCCCCC(=O)[O-]
REMARK SMILES IDX 15 1 16 2 17 3 18 4 19 5 20 6 21 7 22 8 23 9 24 10 25 11
REMARK SMILES IDX 26 12 27 13 28 14 29 15 30 16 14 17 13 18 12 19 11 20 10 21
REMARK SMILES IDX 9 22 8 23 7 24 6 25 5 26 4 27 3 28 2 29 1 30
REMARK H PARENT
REMARK Flexibility Score: inf
ROOT
ATOM      1  C   UNL     1      16.973   2.491  41.733  1.00  0.00     0.000 C 
ENDROOT
BRANCH   1   2
ATOM      2  C   UNL     1      16.645   1.435  40.663  1.00  0.00     0.000 C 
BRANCH   2   3
ATOM      3  C   UNL     1      15.203   0.910  40.772  1.00  0.00     0.000 C 
BRANCH   3   4
ATOM      4  C   UNL     1      15.149  -0.609  40.999  1.00  0.00     0.000 C 
BRANCH   4   5
ATOM      5  C   UNL     1      13.741  -1.051  41.426  1.00  0.00     0.000 C 
BRANCH   5   6
ATOM      6  C   UNL     1      12.639  -0.113  40.906  1.00  0.00     0.000 C 
BRANCH   6   7
ATOM      7  C   UNL     1      11.314  -0.167  41.691  1.00  0.00     0.000 C 
BRANCH   7   8
ATOM      8  C   UNL     1      10.679   1.217  41.939  1.00  0.00     0.000 C 
BRANCH   8   9
ATOM      9  C   UNL     1      11.265   2.306  41.023  1.00  0.00     0.000 C 
BRANCH   9  10
ATOM     10  C   UNL     1      11.564   3.614  41.787  1.00  0.00     0.000 C 
BRANCH  10  11
ATOM     11  C   UNL     1      12.847   4.323  41.320  1.00  0.00     0.000 C 
BRANCH  11  12
ATOM     12  C   UNL     1      12.582   5.387  40.243  1.00  0.00     0.006 C 
BRANCH  12  13
ATOM     13  C   UNL     1      11.512   6.400  40.672  1.00  0.00     0.053 C 
BRANCH  13  14
ATOM     14  C   UNL     1      11.347   7.499  39.665  1.00  0.00     0.041 C 
ATOM     15  O   UNL     1      11.283   8.700  40.042  1.00  0.00    -0.550 OA
ATOM     16  O   UNL     1      11.234   7.195  38.315  1.00  0.00    -0.550 OA
ENDBRANCH  13  14
ENDBRANCH  12  13
ENDBRANCH  11  12
ENDBRANCH  10  11
ENDBRANCH   9  10
ENDBRANCH   8   9
ENDBRANCH   7   8
ENDBRANCH   6   7
ENDBRANCH   5   6
ENDBRANCH   4   5
ENDBRANCH   3   4
ENDBRANCH   2   3
ENDBRANCH   1   2
BRANCH   1  17
ATOM     17  C   UNL     1      17.505   3.798  41.122  1.00  0.00     0.000 C 
BRANCH  17  18
ATOM     18  C   UNL     1      16.379   4.694  40.584  1.00  0.00     0.000 C 
BRANCH  18  19
ATOM     19  C   UNL     1      16.243   5.974  41.420  1.00  0.00     0.000 C 
BRANCH  19  20
ATOM     20  C   UNL     1      17.254   6.027  42.580  1.00  0.00     0.000 C 
BRANCH  20  21
ATOM     21  C   UNL     1      16.566   6.075  43.956  1.00  0.00     0.000 C 
BRANCH  21  22
ATOM     22  C   UNL     1      15.064   5.724  43.875  1.00  0.00    -0.000 C 
BRANCH  22  23
ATOM     23  C   UNL     1      14.148   6.756  44.560  1.00  0.00    -0.000 C 
BRANCH  23  24
ATOM     24  C   UNL     1      12.896   7.141  43.756  1.00  0.00    -0.000 C 
BRANCH  24  25
ATOM     25  C   UNL     1      12.887   8.619  43.340  1.00  0.00    -0.000 C 
BRANCH  25  26
ATOM     26  C   UNL     1      13.976   8.902  42.295  1.00  0.00    -0.000 C 
BRANCH  26  27
ATOM     27  C   UNL     1      14.407  10.379  42.263  1.00  0.00    -0.000 C 
BRANCH  27  28
ATOM     28  C   UNL     1      15.817  10.637  41.692  1.00  0.00    -0.000 C 
BRANCH  28  29
ATOM     29  C   UNL     1      16.838   9.515  41.944  1.00  0.00    -0.003 C 
ATOM     30  C   UNL     1      17.560   9.655  43.284  1.00  0.00     0.004 C 
ENDBRANCH  28  29
ENDBRANCH  27  28
ENDBRANCH  26  27
ENDBRANCH  25  26
ENDBRANCH  24  25
ENDBRANCH  23  24
ENDBRANCH  22  23
ENDBRANCH  21  22
ENDBRANCH  20  21
ENDBRANCH  19  20
ENDBRANCH  18  19
ENDBRANCH  17  18
ENDBRANCH   1  17
TORSDOF 26
ENDMDL
MODEL 8
REMARK VINA RESULT:    -4.149      2.877      5.558
REMARK INTER + INTRA:         -14.901
REMARK INTER:                 -10.502
REMARK INTRA:                  -4.398
REMARK UNBOUND:                -4.444
REMARK SMILES CCCCCCCCCCCCCCCCCCCCCCCCCCCC(=O)[O-]
REMARK SMILES IDX 15 1 16 2 17 3 18 4 19 5 20 6 21 7 22 8 23 9 24 10 25 11
REMARK SMILES IDX 26 12 27 13 28 14 29 15 30 16 14 17 13 18 12 19 11 20 10 21
REMARK SMILES IDX 9 22 8 23 7 24 6 25 5 26 4 27 3 28 2 29 1 30
REMARK H PARENT
REMARK Flexibility Score: inf
ROOT
ATOM      1  C   UNL     1      10.889   4.782  37.950  1.00  0.00     0.000 C 
ENDROOT
BRANCH   1   2
ATOM      2  C   UNL     1       9.476   4.174  37.938  1.00  0.00     0.000 C 
BRANCH   2   3
ATOM      3  C   UNL     1       9.333   3.029  36.922  1.00  0.00     0.000 C 
BRANCH   3   4
ATOM      4  C   UNL     1      10.597   2.160  36.838  1.00  0.00     0.000 C 
BRANCH   4   5
ATOM      5  C   UNL     1      10.595   1.080  37.930  1.00  0.00     0.000 C 
BRANCH   5   6
ATOM      6  C   UNL     1       9.335   0.198  37.894  1.00  0.00     0.000 C 
BRANCH   6   7
ATOM      7  C   UNL     1       8.515   0.181  39.198  1.00  0.00     0.000 C 
BRANCH   7   8
ATOM      8  C   UNL     1       9.018   1.176  40.265  1.00  0.00     0.000 C 
BRANCH   8   9
ATOM      9  C   UNL     1       9.356   0.486  41.599  1.00  0.00     0.000 C 
BRANCH   9  10
ATOM     10  C   UNL     1      10.868   0.520  41.907  1.00  0.00     0.000 C 
BRANCH  10  11
ATOM     11  C   UNL     1      11.685  -0.512  41.109  1.00  0.00     0.000 C 
BRANCH  11  12
ATOM     12  C   UNL     1      13.036   0.041  40.626  1.00  0.00     0.006 C 
BRANCH  12  13
ATOM     13  C   UNL     1      13.700  -0.866  39.582  1.00  0.00     0.053 C 
BRANCH  13  14
ATOM     14  C   UNL     1      14.038  -2.213  40.146  1.00  0.00     0.041 C 
ATOM     15  O   UNL     1      14.756  -2.308  41.177  1.00  0.00    -0.550 OA
ATOM     16  O   UNL     1      13.585  -3.366  39.516  1.00  0.00    -0.550 OA
ENDBRANCH  13  14
ENDBRANCH  12  13
ENDBRANCH  11  12
ENDBRANCH  10  11
ENDBRANCH   9  10
ENDBRANCH   8   9
ENDBRANCH   7   8
ENDBRANCH   6   7
ENDBRANCH   5   6
ENDBRANCH   4   5
ENDBRANCH   3   4
ENDBRANCH   2   3
ENDBRANCH   1   2
BRANCH   1  17
ATOM     17  C   UNL     1      11.367   5.127  39.371  1.00  0.00     0.000 C 
BRANCH  17  18
ATOM     18  C   UNL     1      11.170   3.963  40.354  1.00  0.00     0.000 C 
BRANCH  18  19
ATOM     19  C   UNL     1      12.395   3.796  41.264  1.00  0.00     0.000 C 
BRANCH  19  20
ATOM     20  C   UNL     1      12.107   4.211  42.718  1.00  0.00     0.000 C 
BRANCH  20  21
ATOM     21  C   UNL     1      11.701   5.690  42.837  1.00  0.00     0.000 C 
BRANCH  21  22
ATOM     22  C   UNL     1      12.924   6.629  42.940  1.00  0.00    -0.000 C 
BRANCH  22  23
ATOM     23  C   UNL     1      13.237   7.385  41.635  1.00  0.00    -0.000 C 
BRANCH  23  24
ATOM     24  C   UNL     1      14.460   6.863  40.864  1.00  0.00    -0.000 C 
BRANCH  24  25
ATOM     25  C   UNL     1      15.649   6.542  41.782  1.00  0.00    -0.000 C 
BRANCH  25  26
ATOM     26  C   UNL     1      16.645   5.604  41.085  1.00  0.00    -0.000 C 
BRANCH  26  27
ATOM     27  C   UNL     1      16.052   4.216  40.787  1.00  0.00    -0.000 C 
BRANCH  27  28
ATOM     28  C   UNL     1      16.747   3.040  41.504  1.00  0.00    -0.000 C 
BRANCH  28  29
ATOM     29  C   UNL     1      17.416   2.013  40.574  1.00  0.00    -0.003 C 
ATOM     30  C   UNL     1      18.848   2.393  40.197  1.00  0.00     0.004 C 
ENDBRANCH  28  29
ENDBRANCH  27  28
ENDBRANCH  26  27
ENDBRANCH  25  26
ENDBRANCH  24  25
ENDBRANCH  23  24
ENDBRANCH  22  23
ENDBRANCH  21  22
ENDBRANCH  20  21
ENDBRANCH  19  20
ENDBRANCH  18  19
ENDBRANCH  17  18
ENDBRANCH   1  17
TORSDOF 26
ENDMDL
MODEL 9
REMARK VINA RESULT:    -4.149      3.022      6.109
REMARK INTER + INTRA:         -14.899
REMARK INTER:                 -10.896
REMARK INTRA:                  -4.003
REMARK UNBOUND:                -4.444
REMARK SMILES CCCCCCCCCCCCCCCCCCCCCCCCCCCC(=O)[O-]
REMARK SMILES IDX 15 1 16 2 17 3 18 4 19 5 20 6 21 7 22 8 23 9 24 10 25 11
REMARK SMILES IDX 26 12 27 13 28 14 29 15 30 16 14 17 13 18 12 19 11 20 10 21
REMARK SMILES IDX 9 22 8 23 7 24 6 25 5 26 4 27 3 28 2 29 1 30
REMARK H PARENT
REMARK Flexibility Score: inf
ROOT
ATOM      1  C   UNL     1      15.253   0.909  40.693  1.00  0.00     0.000 C 
ENDROOT
BRANCH   1   2
ATOM      2  C   UNL     1      15.107  -0.593  40.991  1.00  0.00     0.000 C 
BRANCH   2   3
ATOM      3  C   UNL     1      13.931  -1.234  40.234  1.00  0.00     0.000 C 
BRANCH   3   4
ATOM      4  C   UNL     1      12.699  -0.317  40.183  1.00  0.00     0.000 C 
BRANCH   4   5
ATOM      5  C   UNL     1      11.896  -0.402  41.489  1.00  0.00     0.000 C 
BRANCH   5   6
ATOM      6  C   UNL     1      10.381  -0.517  41.251  1.00  0.00     0.000 C 
BRANCH   6   7
ATOM      7  C   UNL     1       9.974  -0.867  39.807  1.00  0.00     0.000 C 
BRANCH   7   8
ATOM      8  C   UNL     1       8.773  -0.053  39.282  1.00  0.00     0.000 C 
BRANCH   8   9
ATOM      9  C   UNL     1       8.957   0.388  37.819  1.00  0.00     0.000 C 
BRANCH   9  10
ATOM     10  C   UNL     1      10.346   1.012  37.566  1.00  0.00     0.000 C 
BRANCH  10  11
ATOM     11  C   UNL     1      10.586   1.416  36.102  1.00  0.00     0.000 C 
BRANCH  11  12
ATOM     12  C   UNL     1      10.895   2.914  35.940  1.00  0.00     0.006 C 
BRANCH  12  13
ATOM     13  C   UNL     1       9.835   3.805  36.600  1.00  0.00     0.053 C 
BRANCH  13  14
ATOM     14  C   UNL     1       9.045   4.578  35.587  1.00  0.00     0.041 C 
ATOM     15  O   UNL     1       8.654   4.021  34.526  1.00  0.00    -0.550 OA
ATOM     16  O   UNL     1       8.768   5.923  35.799  1.00  0.00    -0.550 OA
ENDBRANCH  13  14
ENDBRANCH  12  13
ENDBRANCH  11  12
ENDBRANCH  10  11
ENDBRANCH   9  10
ENDBRANCH   8   9
ENDBRANCH   7   8
ENDBRANCH   6   7
ENDBRANCH   5   6
ENDBRANCH   4   5
ENDBRANCH   3   4
ENDBRANCH   2   3
ENDBRANCH   1   2
BRANCH   1  17
ATOM     17  C   UNL     1      16.724   1.352  40.622  1.00  0.00     0.000 C 
BRANCH  17  18
ATOM     18  C   UNL     1      17.034   2.508  41.585  1.00  0.00     0.000 C 
BRANCH  18  19
ATOM     19  C   UNL     1      16.861   3.867  40.893  1.00  0.00     0.000 C 
BRANCH  19  20
ATOM     20  C   UNL     1      16.705   5.022  41.898  1.00  0.00     0.000 C 
BRANCH  20  21
ATOM     21  C   UNL     1      17.043   6.390  41.277  1.00  0.00     0.000 C 
BRANCH  21  22
ATOM     22  C   UNL     1      15.807   7.074  40.654  1.00  0.00    -0.000 C 
BRANCH  22  23
ATOM     23  C   UNL     1      14.528   6.937  41.502  1.00  0.00    -0.000 C 
BRANCH  23  24
ATOM     24  C   UNL     1      13.225   6.836  40.692  1.00  0.00    -0.000 C 
BRANCH  24  25
ATOM     25  C   UNL     1      12.273   5.756  41.229  1.00  0.00    -0.000 C 
BRANCH  25  26
ATOM     26  C   UNL     1      13.046   4.492  41.632  1.00  0.00    -0.000 C 
BRANCH  26  27
ATOM     27  C   UNL     1      12.281   3.196  41.315  1.00  0.00    -0.000 C 
BRANCH  27  28
ATOM     28  C   UNL     1      11.061   3.365  40.387  1.00  0.00    -0.000 C 
BRANCH  28  29
ATOM     29  C   UNL     1       9.703   3.024  41.025  1.00  0.00    -0.003 C 
ATOM     30  C   UNL     1       9.754   2.990  42.553  1.00  0.00     0.004 C 
ENDBRANCH  28  29
ENDBRANCH  27  28
ENDBRANCH  26  27
ENDBRANCH  25  26
ENDBRANCH  24  25
ENDBRANCH  23  24
ENDBRANCH  22  23
ENDBRANCH  21  22
ENDBRANCH  20  21
ENDBRANCH  19  20
ENDBRANCH  18  19
ENDBRANCH  17  18
ENDBRANCH   1  17
TORSDOF 26
ENDMDL
