MODEL 1
REMARK VINA RESULT:    -5.495      0.000      0.000
REMARK INTER + INTRA:          -7.067
REMARK INTER:                  -6.780
REMARK INTRA:                  -0.287
REMARK UNBOUND:                -0.287
REMARK SMILES O=C1c2c(O)cc(O)cc2O[C@H](c2cc(O)c(O)c(O)c2)[C@@H]1O
REMARK SMILES IDX 12 1 22 2 2 3 1 4 3 5 4 6 6 7 7 8 9 9 10 10 11 11 13 12
REMARK SMILES IDX 14 13 15 14 21 15 17 16 19 17 16 18 18 20 20 22 23 24 5 26
REMARK SMILES IDX 8 28
REMARK H PARENT 16 19 18 21 20 23 23 25 5 27 8 29
REMARK Flexibility Score: inf
ROOT
ATOM      1  C   UNL     1      -9.435   8.033   6.649  1.00  0.00     0.240 C 
ATOM      2  C   UNL     1      -8.911   6.592   6.498  1.00  0.00     0.231 C 
ATOM      3  C   UNL     1     -10.053   5.644   6.742  1.00  0.00     0.202 C 
ATOM      4  O   UNL     1      -9.883   4.658   7.507  1.00  0.00    -0.291 OA
ATOM      5  C   UNL     1     -11.371   5.935   6.122  1.00  0.00     0.105 A 
ATOM      6  C   UNL     1     -12.394   4.968   5.938  1.00  0.00     0.133 A 
ATOM      7  C   UNL     1     -13.626   5.363   5.401  1.00  0.00     0.093 A 
ATOM      8  C   UNL     1     -13.840   6.680   4.991  1.00  0.00     0.123 A 
ATOM      9  C   UNL     1     -12.818   7.625   5.127  1.00  0.00     0.093 A 
ATOM     10  C   UNL     1     -11.595   7.262   5.697  1.00  0.00     0.138 A 
ATOM     11  O   UNL     1     -10.595   8.234   5.835  1.00  0.00    -0.481 OA
ENDROOT
BRANCH   1  12
ATOM     12  C   UNL     1      -8.367   9.049   6.313  1.00  0.00     0.003 A 
ATOM     13  C   UNL     1      -8.647  10.140   5.473  1.00  0.00     0.058 A 
ATOM     14  C   UNL     1      -7.649  11.062   5.135  1.00  0.00     0.161 A 
ATOM     15  C   UNL     1      -7.062   8.874   6.792  1.00  0.00     0.058 A 
ATOM     16  C   UNL     1      -6.338  10.888   5.639  1.00  0.00     0.200 A 
ATOM     17  C   UNL     1      -6.054   9.790   6.462  1.00  0.00     0.161 A 
BRANCH  14  18
ATOM     18  O   UNL     1      -8.003  12.124   4.300  1.00  0.00    -0.504 OA
ATOM     19  H   UNL     1      -8.540  12.022   3.452  1.00  0.00     0.293 HD
ENDBRANCH  14  18
BRANCH  16  20
ATOM     20  O   UNL     1      -5.298  11.774   5.345  1.00  0.00    -0.502 OA
ATOM     21  H   UNL     1      -5.144  12.647   5.828  1.00  0.00     0.293 HD
ENDBRANCH  16  20
BRANCH  17  22
ATOM     22  O   UNL     1      -4.760   9.613   6.951  1.00  0.00    -0.504 OA
ATOM     23  H   UNL     1      -4.445  10.072   7.799  1.00  0.00     0.293 HD
ENDBRANCH  17  22
ENDBRANCH   1  12
BRANCH   2  24
ATOM     24  O   UNL     1      -8.408   6.390   5.204  1.00  0.00    -0.381 OA
ATOM     25  H   UNL     1      -8.941   5.655   4.801  1.00  0.00     0.211 HD
ENDBRANCH   2  24
BRANCH   6  26
ATOM     26  O   UNL     1     -12.227   3.614   6.236  1.00  0.00    -0.507 OA
ATOM     27  H   UNL     1     -12.979   2.942   6.249  1.00  0.00     0.293 HD
ENDBRANCH   6  26
BRANCH   8  28
ATOM     28  O   UNL     1     -15.069   7.038   4.443  1.00  0.00    -0.508 OA
ATOM     29  H   UNL     1     -15.525   6.464   3.744  1.00  0.00     0.293 HD
ENDBRANCH   8  28
TORSDOF 7
ENDMDL
MODEL 2
REMARK VINA RESULT:    -4.897     17.146     19.228
REMARK INTER + INTRA:          -6.329
REMARK INTER:                  -6.318
REMARK INTRA:                  -0.011
REMARK UNBOUND:                -0.287
REMARK SMILES O=C1c2c(O)cc(O)cc2O[C@H](c2cc(O)c(O)c(O)c2)[C@@H]1O
REMARK SMILES IDX 12 1 22 2 2 3 1 4 3 5 4 6 6 7 7 8 9 9 10 10 11 11 13 12
REMARK SMILES IDX 14 13 15 14 21 15 17 16 19 17 16 18 18 20 20 22 23 24 5 26
REMARK SMILES IDX 8 28
REMARK H PARENT 16 19 18 21 20 23 23 25 5 27 8 29
REMARK Flexibility Score: inf
ROOT
ATOM      1  C   UNL     1     -12.871  -2.034 -10.340  1.00  0.00     0.240 C 
ATOM      2  C   UNL     1     -14.286  -2.609 -10.137  1.00  0.00     0.231 C 
ATOM      3  C   UNL     1     -14.238  -4.091 -10.390  1.00  0.00     0.202 C 
ATOM      4  O   UNL     1     -15.113  -4.619 -11.125  1.00  0.00    -0.291 OA
ATOM      5  C   UNL     1     -13.117  -4.879  -9.818  1.00  0.00     0.105 A 
ATOM      6  C   UNL     1     -13.145  -6.287  -9.639  1.00  0.00     0.133 A 
ATOM      7  C   UNL     1     -12.008  -6.942  -9.149  1.00  0.00     0.093 A 
ATOM      8  C   UNL     1     -10.870  -6.223  -8.780  1.00  0.00     0.123 A 
ATOM      9  C   UNL     1     -10.856  -4.831  -8.909  1.00  0.00     0.093 A 
ATOM     10  C   UNL     1     -11.964  -4.161  -9.434  1.00  0.00     0.138 A 
ATOM     11  O   UNL     1     -11.915  -2.767  -9.567  1.00  0.00    -0.481 OA
ENDROOT
BRANCH   1  12
ATOM     12  C   UNL     1     -12.816  -0.562  -9.999  1.00  0.00     0.003 A 
ATOM     13  C   UNL     1     -11.617   0.038  -9.582  1.00  0.00     0.058 A 
ATOM     14  C   UNL     1     -11.573   1.392  -9.233  1.00  0.00     0.161 A 
ATOM     15  C   UNL     1     -13.986   0.207 -10.037  1.00  0.00     0.058 A 
ATOM     16  C   UNL     1     -12.756   2.167  -9.293  1.00  0.00     0.200 A 
ATOM     17  C   UNL     1     -13.957   1.564  -9.692  1.00  0.00     0.161 A 
BRANCH  14  18
ATOM     18  O   UNL     1     -10.344   1.922  -8.834  1.00  0.00    -0.504 OA
ATOM     19  H   UNL     1     -10.104   2.901  -8.891  1.00  0.00     0.293 HD
ENDBRANCH  14  18
BRANCH  16  20
ATOM     20  O   UNL     1     -12.781   3.525  -8.964  1.00  0.00    -0.502 OA
ATOM     21  H   UNL     1     -13.586   4.001  -8.583  1.00  0.00     0.293 HD
ENDBRANCH  16  20
BRANCH  17  22
ATOM     22  O   UNL     1     -15.125   2.325  -9.742  1.00  0.00    -0.504 OA
ATOM     23  H   UNL     1     -15.966   2.041  -9.251  1.00  0.00     0.293 HD
ENDBRANCH  17  22
ENDBRANCH   1  12
BRANCH   2  24
ATOM     24  O   UNL     1     -14.722  -2.376  -8.823  1.00  0.00    -0.381 OA
ATOM     25  H   UNL     1     -13.984  -2.661  -8.223  1.00  0.00     0.211 HD
ENDBRANCH   2  24
BRANCH   6  26
ATOM     26  O   UNL     1     -14.275  -7.067  -9.897  1.00  0.00    -0.507 OA
ATOM     27  H   UNL     1     -14.948  -7.335  -9.195  1.00  0.00     0.293 HD
ENDBRANCH   6  26
BRANCH   8  28
ATOM     28  O   UNL     1      -9.761  -6.900  -8.278  1.00  0.00    -0.508 OA
ATOM     29  H   UNL     1      -9.254  -7.575  -8.838  1.00  0.00     0.293 HD
ENDBRANCH   8  28
TORSDOF 7
ENDMDL
MODEL 3
REMARK VINA RESULT:    -4.879     17.639     19.704
REMARK INTER + INTRA:          -6.308
REMARK INTER:                  -6.130
REMARK INTRA:                  -0.177
REMARK UNBOUND:                -0.287
REMARK SMILES O=C1c2c(O)cc(O)cc2O[C@H](c2cc(O)c(O)c(O)c2)[C@@H]1O
REMARK SMILES IDX 12 1 22 2 2 3 1 4 3 5 4 6 6 7 7 8 9 9 10 10 11 11 13 12
REMARK SMILES IDX 14 13 15 14 21 15 17 16 19 17 16 18 18 20 20 22 23 24 5 26
REMARK SMILES IDX 8 28
REMARK H PARENT 16 19 18 21 20 23 23 25 5 27 8 29
REMARK Flexibility Score: inf
ROOT
ATOM      1  C   UNL     1     -12.783  -3.143 -10.301  1.00  0.00     0.240 C 
ATOM      2  C   UNL     1     -14.225  -3.645 -10.095  1.00  0.00     0.231 C 
ATOM      3  C   UNL     1     -14.238  -5.138 -10.272  1.00  0.00     0.202 C 
ATOM      4  O   UNL     1     -15.124  -5.666 -10.995  1.00  0.00    -0.291 OA
ATOM      5  C   UNL     1     -13.162  -5.944  -9.641  1.00  0.00     0.105 A 
ATOM      6  C   UNL     1     -13.255  -7.339  -9.393  1.00  0.00     0.133 A 
ATOM      7  C   UNL     1     -12.155  -8.016  -8.850  1.00  0.00     0.093 A 
ATOM      8  C   UNL     1     -10.992  -7.329  -8.498  1.00  0.00     0.123 A 
ATOM      9  C   UNL     1     -10.915  -5.947  -8.696  1.00  0.00     0.093 A 
ATOM     10  C   UNL     1     -11.985  -5.257  -9.274  1.00  0.00     0.138 A 
ATOM     11  O   UNL     1     -11.872  -3.876  -9.476  1.00  0.00    -0.481 OA
ENDROOT
BRANCH   1  12
ATOM     12  C   UNL     1     -12.669  -1.659 -10.034  1.00  0.00     0.003 A 
ATOM     13  C   UNL     1     -13.727  -0.787 -10.338  1.00  0.00     0.058 A 
ATOM     14  C   UNL     1     -13.608   0.591 -10.122  1.00  0.00     0.161 A 
ATOM     15  C   UNL     1     -11.471  -1.130  -9.534  1.00  0.00     0.058 A 
ATOM     16  C   UNL     1     -12.401   1.114  -9.599  1.00  0.00     0.200 A 
ATOM     17  C   UNL     1     -11.338   0.246  -9.313  1.00  0.00     0.161 A 
BRANCH  14  18
ATOM     18  O   UNL     1     -14.704   1.395 -10.442  1.00  0.00    -0.504 OA
ATOM     19  H   UNL     1     -15.255   1.898  -9.762  1.00  0.00     0.293 HD
ENDBRANCH  14  18
BRANCH  16  20
ATOM     20  O   UNL     1     -12.219   2.478  -9.355  1.00  0.00    -0.502 OA
ATOM     21  H   UNL     1     -12.922   3.183  -9.522  1.00  0.00     0.293 HD
ENDBRANCH  16  20
BRANCH  17  22
ATOM     22  O   UNL     1     -10.146   0.763  -8.807  1.00  0.00    -0.504 OA
ATOM     23  H   UNL     1      -9.656   0.314  -8.040  1.00  0.00     0.293 HD
ENDBRANCH  17  22
ENDBRANCH   1  12
BRANCH   2  24
ATOM     24  O   UNL     1     -14.671  -3.326  -8.803  1.00  0.00    -0.381 OA
ATOM     25  H   UNL     1     -15.288  -4.053  -8.526  1.00  0.00     0.211 HD
ENDBRANCH   2  24
BRANCH   6  26
ATOM     26  O   UNL     1     -14.414  -8.081  -9.631  1.00  0.00    -0.507 OA
ATOM     27  H   UNL     1     -14.619  -8.542 -10.504  1.00  0.00     0.293 HD
ENDBRANCH   6  26
BRANCH   8  28
ATOM     28  O   UNL     1      -9.923  -8.026  -7.943  1.00  0.00    -0.508 OA
ATOM     29  H   UNL     1     -10.054  -8.921  -7.486  1.00  0.00     0.293 HD
ENDBRANCH   8  28
TORSDOF 7
ENDMDL
MODEL 4
REMARK VINA RESULT:    -3.986      2.520      6.452
REMARK INTER + INTRA:          -5.205
REMARK INTER:                  -5.005
REMARK INTRA:                  -0.201
REMARK UNBOUND:                -0.287
REMARK SMILES O=C1c2c(O)cc(O)cc2O[C@H](c2cc(O)c(O)c(O)c2)[C@@H]1O
REMARK SMILES IDX 12 1 22 2 2 3 1 4 3 5 4 6 6 7 7 8 9 9 10 10 11 11 13 12
REMARK SMILES IDX 14 13 15 14 21 15 17 16 19 17 16 18 18 20 20 22 23 24 5 26
REMARK SMILES IDX 8 28
REMARK H PARENT 16 19 18 21 20 23 23 25 5 27 8 29
REMARK Flexibility Score: inf
ROOT
ATOM      1  C   UNL     1     -10.384   7.308   5.290  1.00  0.00     0.240 C 
ATOM      2  C   UNL     1      -9.003   7.740   5.818  1.00  0.00     0.231 C 
ATOM      3  C   UNL     1      -8.920   9.241   5.758  1.00  0.00     0.202 C 
ATOM      4  O   UNL     1      -7.893   9.782   5.268  1.00  0.00    -0.291 OA
ATOM      5  C   UNL     1     -10.082  10.042   6.218  1.00  0.00     0.105 A 
ATOM      6  C   UNL     1     -10.009  11.412   6.583  1.00  0.00     0.133 A 
ATOM      7  C   UNL     1     -11.180  12.092   6.942  1.00  0.00     0.093 A 
ATOM      8  C   UNL     1     -12.406  11.427   7.003  1.00  0.00     0.123 A 
ATOM      9  C   UNL     1     -12.473  10.065   6.691  1.00  0.00     0.093 A 
ATOM     10  C   UNL     1     -11.325   9.377   6.291  1.00  0.00     0.138 A 
ATOM     11  O   UNL     1     -11.426   8.017   5.969  1.00  0.00    -0.481 OA
ENDROOT
BRANCH   1  12
ATOM     12  C   UNL     1     -10.585   5.815   5.419  1.00  0.00     0.003 A 
ATOM     13  C   UNL     1     -11.154   5.261   6.577  1.00  0.00     0.058 A 
ATOM     14  C   UNL     1     -11.309   3.876   6.710  1.00  0.00     0.161 A 
ATOM     15  C   UNL     1     -10.142   4.961   4.400  1.00  0.00     0.058 A 
ATOM     16  C   UNL     1     -10.876   3.021   5.668  1.00  0.00     0.200 A 
ATOM     17  C   UNL     1     -10.291   3.573   4.520  1.00  0.00     0.161 A 
BRANCH  14  18
ATOM     18  O   UNL     1     -11.889   3.397   7.887  1.00  0.00    -0.504 OA
ATOM     19  H   UNL     1     -11.370   3.169   8.722  1.00  0.00     0.293 HD
ENDBRANCH  14  18
BRANCH  16  20
ATOM     20  O   UNL     1     -11.006   1.631   5.735  1.00  0.00    -0.502 OA
ATOM     21  H   UNL     1     -11.379   1.061   4.989  1.00  0.00     0.293 HD
ENDBRANCH  16  20
BRANCH  17  22
ATOM     22  O   UNL     1      -9.856   2.731   3.497  1.00  0.00    -0.504 OA
ATOM     23  H   UNL     1     -10.434   1.973   3.151  1.00  0.00     0.293 HD
ENDBRANCH  17  22
ENDBRANCH   1  12
BRANCH   2  24
ATOM     24  O   UNL     1      -8.836   7.319   7.146  1.00  0.00    -0.381 OA
ATOM     25  H   UNL     1      -9.718   7.420   7.591  1.00  0.00     0.211 HD
ENDBRANCH   2  24
BRANCH   6  26
ATOM     26  O   UNL     1      -8.809  12.125   6.637  1.00  0.00    -0.507 OA
ATOM     27  H   UNL     1      -8.368  12.550   5.836  1.00  0.00     0.293 HD
ENDBRANCH   6  26
BRANCH   8  28
ATOM     28  O   UNL     1     -13.549  12.125   7.382  1.00  0.00    -0.508 OA
ATOM     29  H   UNL     1     -13.574  13.138   7.386  1.00  0.00     0.293 HD
ENDBRANCH   8  28
TORSDOF 7
ENDMDL
MODEL 5
REMARK VINA RESULT:    -3.930      2.057      2.640
REMARK INTER + INTRA:          -5.136
REMARK INTER:                  -5.380
REMARK INTRA:                   0.244
REMARK UNBOUND:                -0.287
REMARK SMILES O=C1c2c(O)cc(O)cc2O[C@H](c2cc(O)c(O)c(O)c2)[C@@H]1O
REMARK SMILES IDX 12 1 22 2 2 3 1 4 3 5 4 6 6 7 7 8 9 9 10 10 11 11 13 12
REMARK SMILES IDX 14 13 15 14 21 15 17 16 19 17 16 18 18 20 20 22 23 24 5 26
REMARK SMILES IDX 8 28
REMARK H PARENT 16 19 18 21 20 23 23 25 5 27 8 29
REMARK Flexibility Score: inf
ROOT
ATOM      1  C   UNL     1      -9.521   8.079   6.104  1.00  0.00     0.240 C 
ATOM      2  C   UNL     1      -9.881   7.568   7.512  1.00  0.00     0.231 C 
ATOM      3  C   UNL     1     -10.868   6.443   7.370  1.00  0.00     0.202 C 
ATOM      4  O   UNL     1     -11.900   6.433   8.093  1.00  0.00    -0.291 OA
ATOM      5  C   UNL     1     -10.631   5.406   6.333  1.00  0.00     0.105 A 
ATOM      6  C   UNL     1     -11.232   4.121   6.341  1.00  0.00     0.133 A 
ATOM      7  C   UNL     1     -10.989   3.240   5.279  1.00  0.00     0.093 A 
ATOM      8  C   UNL     1     -10.120   3.589   4.243  1.00  0.00     0.123 A 
ATOM      9  C   UNL     1      -9.488   4.836   4.257  1.00  0.00     0.093 A 
ATOM     10  C   UNL     1      -9.747   5.746   5.286  1.00  0.00     0.138 A 
ATOM     11  O   UNL     1      -9.112   6.995   5.264  1.00  0.00    -0.481 OA
ENDROOT
BRANCH   1  12
ATOM     12  C   UNL     1      -8.449   9.144   6.157  1.00  0.00     0.003 A 
ATOM     13  C   UNL     1      -7.825   9.600   4.985  1.00  0.00     0.058 A 
ATOM     14  C   UNL     1      -6.808  10.560   5.037  1.00  0.00     0.161 A 
ATOM     15  C   UNL     1      -8.022   9.643   7.395  1.00  0.00     0.058 A 
ATOM     16  C   UNL     1      -6.396  11.073   6.291  1.00  0.00     0.200 A 
ATOM     17  C   UNL     1      -7.006  10.605   7.463  1.00  0.00     0.161 A 
BRANCH  14  18
ATOM     18  O   UNL     1      -6.238  10.970   3.830  1.00  0.00    -0.504 OA
ATOM     19  H   UNL     1      -6.688  10.875   2.931  1.00  0.00     0.293 HD
ENDBRANCH  14  18
BRANCH  16  20
ATOM     20  O   UNL     1      -5.392  12.038   6.414  1.00  0.00    -0.502 OA
ATOM     21  H   UNL     1      -5.284  12.825   5.791  1.00  0.00     0.293 HD
ENDBRANCH  16  20
BRANCH  17  22
ATOM     22  O   UNL     1      -6.594  11.103   8.698  1.00  0.00    -0.504 OA
ATOM     23  H   UNL     1      -6.187  12.028   8.789  1.00  0.00     0.293 HD
ENDBRANCH  17  22
ENDBRANCH   1  12
BRANCH   2  24
ATOM     24  O   UNL     1      -8.732   7.099   8.167  1.00  0.00    -0.381 OA
ATOM     25  H   UNL     1      -8.598   7.680   8.961  1.00  0.00     0.211 HD
ENDBRANCH   2  24
BRANCH   6  26
ATOM     26  O   UNL     1     -12.039   3.662   7.385  1.00  0.00    -0.507 OA
ATOM     27  H   UNL     1     -11.869   3.860   8.359  1.00  0.00     0.293 HD
ENDBRANCH   6  26
BRANCH   8  28
ATOM     28  O   UNL     1      -9.884   2.686   3.211  1.00  0.00    -0.508 OA
ATOM     29  H   UNL     1      -9.087   2.784   2.592  1.00  0.00     0.293 HD
ENDBRANCH   8  28
TORSDOF 7
ENDMDL
MODEL 6
REMARK VINA RESULT:    -3.726      1.546      7.369
REMARK INTER + INTRA:          -4.884
REMARK INTER:                  -4.842
REMARK INTRA:                  -0.042
REMARK UNBOUND:                -0.287
REMARK SMILES O=C1c2c(O)cc(O)cc2O[C@H](c2cc(O)c(O)c(O)c2)[C@@H]1O
REMARK SMILES IDX 12 1 22 2 2 3 1 4 3 5 4 6 6 7 7 8 9 9 10 10 11 11 13 12
REMARK SMILES IDX 14 13 15 14 21 15 17 16 19 17 16 18 18 20 20 22 23 24 5 26
REMARK SMILES IDX 8 28
REMARK H PARENT 16 19 18 21 20 23 23 25 5 27 8 29
REMARK Flexibility Score: inf
ROOT
ATOM      1  C   UNL     1      -9.910   8.363   6.984  1.00  0.00     0.240 C 
ATOM      2  C   UNL     1     -10.306   8.942   5.613  1.00  0.00     0.231 C 
ATOM      3  C   UNL     1      -9.517  10.202   5.384  1.00  0.00     0.202 C 
ATOM      4  O   UNL     1     -10.110  11.235   4.975  1.00  0.00    -0.291 OA
ATOM      5  C   UNL     1      -8.068  10.210   5.709  1.00  0.00     0.105 A 
ATOM      6  C   UNL     1      -7.143  11.156   5.196  1.00  0.00     0.133 A 
ATOM      7  C   UNL     1      -5.808  11.113   5.619  1.00  0.00     0.093 A 
ATOM      8  C   UNL     1      -5.364  10.117   6.491  1.00  0.00     0.123 A 
ATOM      9  C   UNL     1      -6.263   9.154   6.961  1.00  0.00     0.093 A 
ATOM     10  C   UNL     1      -7.608   9.203   6.584  1.00  0.00     0.138 A 
ATOM     11  O   UNL     1      -8.488   8.234   7.084  1.00  0.00    -0.481 OA
ENDROOT
BRANCH   1  12
ATOM     12  C   UNL     1     -10.584   7.034   7.241  1.00  0.00     0.003 A 
ATOM     13  C   UNL     1      -9.989   6.071   8.071  1.00  0.00     0.058 A 
ATOM     14  C   UNL     1     -10.596   4.828   8.282  1.00  0.00     0.161 A 
ATOM     15  C   UNL     1     -11.790   6.728   6.597  1.00  0.00     0.058 A 
ATOM     16  C   UNL     1     -11.824   4.533   7.642  1.00  0.00     0.200 A 
ATOM     17  C   UNL     1     -12.410   5.488   6.799  1.00  0.00     0.161 A 
BRANCH  14  18
ATOM     18  O   UNL     1      -9.948   3.922   9.125  1.00  0.00    -0.504 OA
ATOM     19  H   UNL     1      -9.046   3.514   8.931  1.00  0.00     0.293 HD
ENDBRANCH  14  18
BRANCH  16  20
ATOM     20  O   UNL     1     -12.486   3.315   7.813  1.00  0.00    -0.502 OA
ATOM     21  H   UNL     1     -13.302   3.035   7.287  1.00  0.00     0.293 HD
ENDBRANCH  16  20
BRANCH  17  22
ATOM     22  O   UNL     1     -13.614   5.195   6.161  1.00  0.00    -0.504 OA
ATOM     23  H   UNL     1     -14.474   5.676   6.401  1.00  0.00     0.293 HD
ENDBRANCH  17  22
ENDBRANCH   1  12
BRANCH   2  24
ATOM     24  O   UNL     1     -10.017   8.021   4.594  1.00  0.00    -0.381 OA
ATOM     25  H   UNL     1      -9.898   7.138   5.033  1.00  0.00     0.211 HD
ENDBRANCH   2  24
BRANCH   6  26
ATOM     26  O   UNL     1      -7.487  12.125   4.251  1.00  0.00    -0.507 OA
ATOM     27  H   UNL     1      -6.973  12.981   4.108  1.00  0.00     0.293 HD
ENDBRANCH   6  26
BRANCH   8  28
ATOM     28  O   UNL     1      -4.027  10.088   6.878  1.00  0.00    -0.508 OA
ATOM     29  H   UNL     1      -3.611   9.259   7.287  1.00  0.00     0.293 HD
ENDBRANCH   8  28
TORSDOF 7
ENDMDL
MODEL 7
REMARK VINA RESULT:    -3.583      1.541      7.174
REMARK INTER + INTRA:          -4.708
REMARK INTER:                  -4.610
REMARK INTRA:                  -0.098
REMARK UNBOUND:                -0.287
REMARK SMILES O=C1c2c(O)cc(O)cc2O[C@H](c2cc(O)c(O)c(O)c2)[C@@H]1O
REMARK SMILES IDX 12 1 22 2 2 3 1 4 3 5 4 6 6 7 7 8 9 9 10 10 11 11 13 12
REMARK SMILES IDX 14 13 15 14 21 15 17 16 19 17 16 18 18 20 20 22 23 24 5 26
REMARK SMILES IDX 8 28
REMARK H PARENT 16 19 18 21 20 23 23 25 5 27 8 29
REMARK Flexibility Score: inf
ROOT
ATOM      1  C   UNL     1      -9.923   8.260   6.956  1.00  0.00     0.240 C 
ATOM      2  C   UNL     1     -10.313   8.867   5.595  1.00  0.00     0.231 C 
ATOM      3  C   UNL     1      -9.539  10.143   5.404  1.00  0.00     0.202 C 
ATOM      4  O   UNL     1     -10.142  11.177   5.014  1.00  0.00    -0.291 OA
ATOM      5  C   UNL     1      -8.094  10.161   5.743  1.00  0.00     0.105 A 
ATOM      6  C   UNL     1      -7.176  11.131   5.262  1.00  0.00     0.133 A 
ATOM      7  C   UNL     1      -5.845  11.095   5.697  1.00  0.00     0.093 A 
ATOM      8  C   UNL     1      -5.396  10.084   6.549  1.00  0.00     0.123 A 
ATOM      9  C   UNL     1      -6.286   9.099   6.987  1.00  0.00     0.093 A 
ATOM     10  C   UNL     1      -7.628   9.139   6.599  1.00  0.00     0.138 A 
ATOM     11  O   UNL     1      -8.500   8.147   7.066  1.00  0.00    -0.481 OA
ENDROOT
BRANCH   1  12
ATOM     12  C   UNL     1     -10.582   6.917   7.174  1.00  0.00     0.003 A 
ATOM     13  C   UNL     1     -11.815   6.613   6.574  1.00  0.00     0.058 A 
ATOM     14  C   UNL     1     -12.442   5.383   6.804  1.00  0.00     0.161 A 
ATOM     15  C   UNL     1      -9.992   5.982   8.035  1.00  0.00     0.058 A 
ATOM     16  C   UNL     1     -11.830   4.436   7.660  1.00  0.00     0.200 A 
ATOM     17  C   UNL     1     -10.609   4.747   8.274  1.00  0.00     0.161 A 
BRANCH  14  18
ATOM     18  O   UNL     1     -13.663   5.147   6.168  1.00  0.00    -0.504 OA
ATOM     19  H   UNL     1     -14.366   5.855   6.012  1.00  0.00     0.293 HD
ENDBRANCH  14  18
BRANCH  16  20
ATOM     20  O   UNL     1     -12.399   3.188   7.928  1.00  0.00    -0.502 OA
ATOM     21  H   UNL     1     -12.295   2.379   7.332  1.00  0.00     0.293 HD
ENDBRANCH  16  20
BRANCH  17  22
ATOM     22  O   UNL     1     -10.011   3.819   9.125  1.00  0.00    -0.504 OA
ATOM     23  H   UNL     1     -10.563   3.179   9.686  1.00  0.00     0.293 HD
ENDBRANCH  17  22
ENDBRANCH   1  12
BRANCH   2  24
ATOM     24  O   UNL     1     -10.003   7.975   4.557  1.00  0.00    -0.381 OA
ATOM     25  H   UNL     1     -10.835   7.472   4.354  1.00  0.00     0.211 HD
ENDBRANCH   2  24
BRANCH   6  26
ATOM     26  O   UNL     1      -7.523  12.118   4.337  1.00  0.00    -0.507 OA
ATOM     27  H   UNL     1      -6.888  12.500   3.653  1.00  0.00     0.293 HD
ENDBRANCH   6  26
BRANCH   8  28
ATOM     28  O   UNL     1      -4.063  10.063   6.949  1.00  0.00    -0.508 OA
ATOM     29  H   UNL     1      -3.800  10.123   7.926  1.00  0.00     0.293 HD
ENDBRANCH   8  28
TORSDOF 7
ENDMDL
