MODEL 1
REMARK VINA RESULT:    -2.754      0.000      0.000
REMARK INTER + INTRA:          -3.536
REMARK INTER:                  -3.317
REMARK INTRA:                  -0.219
REMARK UNBOUND:                -0.219
REMARK SMILES OCC(O)CO
REMARK SMILES IDX 3 1 5 2 6 3 2 5 1 6 4 8
REMARK H PARENT 6 4 1 7 4 9
REMARK Flexibility Score: inf
ROOT
ATOM      1  C   UNL     1       0.680   8.723  -4.004  1.00  0.00     0.165 C 
ENDROOT
BRANCH   1   2
ATOM      2  C   UNL     1       0.683   9.649  -2.776  1.00  0.00     0.190 C 
BRANCH   2   3
ATOM      3  O   UNL     1      -0.627  10.011  -2.430  1.00  0.00    -0.394 OA
ATOM      4  H   UNL     1      -0.937  10.652  -3.122  1.00  0.00     0.210 HD
ENDBRANCH   2   3
ENDBRANCH   1   2
BRANCH   1   5
ATOM      5  C   UNL     1       0.200   7.314  -3.635  1.00  0.00     0.190 C 
BRANCH   5   6
ATOM      6  O   UNL     1      -1.155   7.336  -3.281  1.00  0.00    -0.394 OA
ATOM      7  H   UNL     1      -1.623   6.769  -3.948  1.00  0.00     0.210 HD
ENDBRANCH   5   6
ENDBRANCH   1   5
BRANCH   1   8
ATOM      8  O   UNL     1      -0.154   9.248  -5.005  1.00  0.00    -0.388 OA
ATOM      9  H   UNL     1      -0.782   8.525  -5.265  1.00  0.00     0.211 HD
ENDBRANCH   1   8
TORSDOF 5
ENDMDL
MODEL 2
REMARK VINA RESULT:    -2.753      0.640      2.362
REMARK INTER + INTRA:          -3.536
REMARK INTER:                  -3.324
REMARK INTRA:                  -0.212
REMARK UNBOUND:                -0.219
REMARK SMILES OCC(O)CO
REMARK SMILES IDX 3 1 5 2 6 3 2 5 1 6 4 8
REMARK H PARENT 6 4 1 7 4 9
REMARK Flexibility Score: inf
ROOT
ATOM      1  C   UNL     1       0.308   8.057  -3.238  1.00  0.00     0.165 C 
ENDROOT
BRANCH   1   2
ATOM      2  C   UNL     1       0.815   8.814  -4.477  1.00  0.00     0.190 C 
BRANCH   2   3
ATOM      3  O   UNL     1      -0.260   9.220  -5.280  1.00  0.00    -0.394 OA
ATOM      4  H   UNL     1       0.101   9.887  -5.922  1.00  0.00     0.210 HD
ENDBRANCH   2   3
ENDBRANCH   1   2
BRANCH   1   5
ATOM      5  C   UNL     1       0.123   9.006  -2.047  1.00  0.00     0.190 C 
BRANCH   5   6
ATOM      6  O   UNL     1      -0.751  10.048  -2.383  1.00  0.00    -0.394 OA
ATOM      7  H   UNL     1      -1.666   9.663  -2.346  1.00  0.00     0.210 HD
ENDBRANCH   5   6
ENDBRANCH   1   5
BRANCH   1   8
ATOM      8  O   UNL     1      -0.915   7.428  -3.522  1.00  0.00    -0.388 OA
ATOM      9  H   UNL     1      -1.059   6.745  -2.816  1.00  0.00     0.211 HD
ENDBRANCH   1   8
TORSDOF 5
ENDMDL
MODEL 3
REMARK VINA RESULT:    -2.708      0.634      2.379
REMARK INTER + INTRA:          -3.482
REMARK INTER:                  -3.285
REMARK INTRA:                  -0.196
REMARK UNBOUND:                -0.219
REMARK SMILES OCC(O)CO
REMARK SMILES IDX 3 1 5 2 6 3 2 5 1 6 4 8
REMARK H PARENT 6 4 1 7 4 9
REMARK Flexibility Score: inf
ROOT
ATOM      1  C   UNL     1       0.403   9.124  -2.699  1.00  0.00     0.165 C 
ENDROOT
BRANCH   1   2
ATOM      2  C   UNL     1      -0.082   7.689  -2.431  1.00  0.00     0.190 C 
BRANCH   2   3
ATOM      3  O   UNL     1      -1.164   7.372  -3.264  1.00  0.00    -0.394 OA
ATOM      4  H   UNL     1      -1.576   8.234  -3.536  1.00  0.00     0.210 HD
ENDBRANCH   2   3
ENDBRANCH   1   2
BRANCH   1   5
ATOM      5  C   UNL     1       0.895   9.281  -4.143  1.00  0.00     0.190 C 
BRANCH   5   6
ATOM      6  O   UNL     1      -0.184   9.227  -5.036  1.00  0.00    -0.394 OA
ATOM      7  H   UNL     1      -0.990   9.466  -4.508  1.00  0.00     0.210 HD
ENDBRANCH   5   6
ENDBRANCH   1   5
BRANCH   1   8
ATOM      8  O   UNL     1      -0.635  10.039  -2.463  1.00  0.00    -0.388 OA
ATOM      9  H   UNL     1      -0.272  10.943  -2.653  1.00  0.00     0.211 HD
ENDBRANCH   1   8
TORSDOF 5
ENDMDL
MODEL 4
REMARK VINA RESULT:    -2.607      8.685      9.678
REMARK INTER + INTRA:          -3.360
REMARK INTER:                  -3.138
REMARK INTRA:                  -0.222
REMARK UNBOUND:                -0.219
REMARK SMILES OCC(O)CO
REMARK SMILES IDX 3 1 5 2 6 3 2 5 1 6 4 8
REMARK H PARENT 6 4 1 7 4 9
REMARK Flexibility Score: inf
ROOT
ATOM      1  C   UNL     1      -8.146   5.117  -3.459  1.00  0.00     0.165 C 
ENDROOT
BRANCH   1   2
ATOM      2  C   UNL     1      -9.030   3.928  -3.042  1.00  0.00     0.190 C 
BRANCH   2   3
ATOM      3  O   UNL     1     -10.316   4.368  -2.698  1.00  0.00    -0.394 OA
ATOM      4  H   UNL     1     -10.198   5.112  -2.050  1.00  0.00     0.210 HD
ENDBRANCH   2   3
ENDBRANCH   1   2
BRANCH   1   5
ATOM      5  C   UNL     1      -8.962   6.413  -3.537  1.00  0.00     0.190 C 
BRANCH   5   6
ATOM      6  O   UNL     1      -9.033   7.022  -2.277  1.00  0.00    -0.394 OA
ATOM      7  H   UNL     1      -8.095   7.131  -1.971  1.00  0.00     0.210 HD
ENDBRANCH   5   6
ENDBRANCH   1   5
BRANCH   1   8
ATOM      8  O   UNL     1      -7.096   5.285  -2.542  1.00  0.00    -0.388 OA
ATOM      9  H   UNL     1      -6.870   6.251  -2.538  1.00  0.00     0.211 HD
ENDBRANCH   1   8
TORSDOF 5
ENDMDL
MODEL 5
REMARK VINA RESULT:    -2.485      1.841      3.177
REMARK INTER + INTRA:          -3.212
REMARK INTER:                  -2.989
REMARK INTRA:                  -0.224
REMARK UNBOUND:                -0.219
REMARK SMILES OCC(O)CO
REMARK SMILES IDX 3 1 5 2 6 3 2 5 1 6 4 8
REMARK H PARENT 6 4 1 7 4 9
REMARK Flexibility Score: inf
ROOT
ATOM      1  C   UNL     1       0.555   8.161  -1.804  1.00  0.00     0.165 C 
ENDROOT
BRANCH   1   2
ATOM      2  C   UNL     1       0.166   7.062  -2.808  1.00  0.00     0.190 C 
BRANCH   2   3
ATOM      3  O   UNL     1      -0.902   7.485  -3.611  1.00  0.00    -0.394 OA
ATOM      4  H   UNL     1      -1.125   8.410  -3.325  1.00  0.00     0.210 HD
ENDBRANCH   2   3
ENDBRANCH   1   2
BRANCH   1   5
ATOM      5  C   UNL     1      -0.663   9.005  -1.409  1.00  0.00     0.190 C 
BRANCH   5   6
ATOM      6  O   UNL     1      -0.810  10.090  -2.283  1.00  0.00    -0.394 OA
ATOM      7  H   UNL     1      -1.688   9.967  -2.729  1.00  0.00     0.210 HD
ENDBRANCH   5   6
ENDBRANCH   1   5
BRANCH   1   8
ATOM      8  O   UNL     1       1.113   7.588  -0.650  1.00  0.00    -0.388 OA
ATOM      9  H   UNL     1       0.358   7.260  -0.096  1.00  0.00     0.211 HD
ENDBRANCH   1   8
TORSDOF 5
ENDMDL
MODEL 6
REMARK VINA RESULT:    -2.468      1.498      1.850
REMARK INTER + INTRA:          -3.193
REMARK INTER:                  -2.977
REMARK INTRA:                  -0.215
REMARK UNBOUND:                -0.219
REMARK SMILES OCC(O)CO
REMARK SMILES IDX 3 1 5 2 6 3 2 5 1 6 4 8
REMARK H PARENT 6 4 1 7 4 9
REMARK Flexibility Score: inf
ROOT
ATOM      1  C   UNL     1      -0.106   7.816  -2.559  1.00  0.00     0.165 C 
ENDROOT
BRANCH   1   2
ATOM      2  C   UNL     1       0.309   9.295  -2.626  1.00  0.00     0.190 C 
BRANCH   2   3
ATOM      3  O   UNL     1      -0.774  10.125  -2.304  1.00  0.00    -0.394 OA
ATOM      4  H   UNL     1      -0.918  10.039  -1.325  1.00  0.00     0.210 HD
ENDBRANCH   2   3
ENDBRANCH   1   2
BRANCH   1   5
ATOM      5  C   UNL     1      -0.954   7.534  -1.313  1.00  0.00     0.190 C 
BRANCH   5   6
ATOM      6  O   UNL     1      -2.296   7.859  -1.552  1.00  0.00    -0.394 OA
ATOM      7  H   UNL     1      -2.673   7.105  -2.075  1.00  0.00     0.210 HD
ENDBRANCH   5   6
ENDBRANCH   1   5
BRANCH   1   8
ATOM      8  O   UNL     1      -0.838   7.466  -3.706  1.00  0.00    -0.388 OA
ATOM      9  H   UNL     1      -0.339   7.823  -4.486  1.00  0.00     0.211 HD
ENDBRANCH   1   8
TORSDOF 5
ENDMDL
MODEL 7
REMARK VINA RESULT:    -2.439      8.728      9.474
REMARK INTER + INTRA:          -3.158
REMARK INTER:                  -2.935
REMARK INTRA:                  -0.223
REMARK UNBOUND:                -0.219
REMARK SMILES OCC(O)CO
REMARK SMILES IDX 3 1 5 2 6 3 2 5 1 6 4 8
REMARK H PARENT 6 4 1 7 4 9
REMARK Flexibility Score: inf
ROOT
ATOM      1  C   UNL     1       6.756   2.984   0.495  1.00  0.00     0.165 C 
ENDROOT
BRANCH   1   2
ATOM      2  C   UNL     1       5.743   2.725  -0.633  1.00  0.00     0.190 C 
BRANCH   2   3
ATOM      3  O   UNL     1       4.549   2.206  -0.113  1.00  0.00    -0.394 OA
ATOM      4  H   UNL     1       4.003   1.913  -0.890  1.00  0.00     0.210 HD
ENDBRANCH   2   3
ENDBRANCH   1   2
BRANCH   1   5
ATOM      5  C   UNL     1       6.460   4.307   1.211  1.00  0.00     0.190 C 
BRANCH   5   6
ATOM      6  O   UNL     1       5.385   4.965   0.599  1.00  0.00    -0.394 OA
ATOM      7  H   UNL     1       5.775   5.741   0.119  1.00  0.00     0.210 HD
ENDBRANCH   5   6
ENDBRANCH   1   5
BRANCH   1   8
ATOM      8  O   UNL     1       6.720   1.935   1.428  1.00  0.00    -0.388 OA
ATOM      9  H   UNL     1       5.927   1.380   1.208  1.00  0.00     0.211 HD
ENDBRANCH   1   8
TORSDOF 5
ENDMDL
MODEL 8
REMARK VINA RESULT:    -2.420      1.882      2.396
REMARK INTER + INTRA:          -3.135
REMARK INTER:                  -2.913
REMARK INTRA:                  -0.222
REMARK UNBOUND:                -0.219
REMARK SMILES OCC(O)CO
REMARK SMILES IDX 3 1 5 2 6 3 2 5 1 6 4 8
REMARK H PARENT 6 4 1 7 4 9
REMARK Flexibility Score: inf
ROOT
ATOM      1  C   UNL     1       0.036   7.880  -1.518  1.00  0.00     0.165 C 
ENDROOT
BRANCH   1   2
ATOM      2  C   UNL     1      -0.418   9.317  -1.211  1.00  0.00     0.190 C 
BRANCH   2   3
ATOM      3  O   UNL     1      -0.693  10.011  -2.398  1.00  0.00    -0.394 OA
ATOM      4  H   UNL     1      -0.484   9.390  -3.145  1.00  0.00     0.210 HD
ENDBRANCH   2   3
ENDBRANCH   1   2
BRANCH   1   5
ATOM      5  C   UNL     1       0.333   7.700  -3.012  1.00  0.00     0.190 C 
BRANCH   5   6
ATOM      6  O   UNL     1      -0.850   7.451  -3.720  1.00  0.00    -0.394 OA
ATOM      7  H   UNL     1      -0.917   6.465  -3.805  1.00  0.00     0.210 HD
ENDBRANCH   5   6
ENDBRANCH   1   5
BRANCH   1   8
ATOM      8  O   UNL     1       1.187   7.566  -0.777  1.00  0.00    -0.388 OA
ATOM      9  H   UNL     1       1.744   6.975  -1.347  1.00  0.00     0.211 HD
ENDBRANCH   1   8
TORSDOF 5
ENDMDL
MODEL 9
REMARK VINA RESULT:    -2.390      1.836      2.354
REMARK INTER + INTRA:          -3.098
REMARK INTER:                  -2.880
REMARK INTRA:                  -0.218
REMARK UNBOUND:                -0.219
REMARK SMILES OCC(O)CO
REMARK SMILES IDX 3 1 5 2 6 3 2 5 1 6 4 8
REMARK H PARENT 6 4 1 7 4 9
REMARK Flexibility Score: inf
ROOT
ATOM      1  C   UNL     1      -0.312   8.759  -1.715  1.00  0.00     0.165 C 
ENDROOT
BRANCH   1   2
ATOM      2  C   UNL     1      -1.489   8.372  -0.804  1.00  0.00     0.190 C 
BRANCH   2   3
ATOM      3  O   UNL     1      -2.630   8.088  -1.568  1.00  0.00    -0.394 OA
ATOM      4  H   UNL     1      -2.553   7.139  -1.854  1.00  0.00     0.210 HD
ENDBRANCH   2   3
ENDBRANCH   1   2
BRANCH   1   5
ATOM      5  C   UNL     1       0.076   7.600  -2.641  1.00  0.00     0.190 C 
BRANCH   5   6
ATOM      6  O   UNL     1      -0.839   7.491  -3.697  1.00  0.00    -0.394 OA
ATOM      7  H   UNL     1      -0.596   8.201  -4.347  1.00  0.00     0.210 HD
ENDBRANCH   5   6
ENDBRANCH   1   5
BRANCH   1   8
ATOM      8  O   UNL     1      -0.648   9.880  -2.492  1.00  0.00    -0.388 OA
ATOM      9  H   UNL     1      -0.887   9.543  -3.394  1.00  0.00     0.211 HD
ENDBRANCH   1   8
TORSDOF 5
ENDMDL
