MODEL 1
REMARK VINA RESULT:    -3.623      0.000      0.000
REMARK INTER + INTRA:          -4.359
REMARK INTER:                  -4.258
REMARK INTRA:                  -0.101
REMARK UNBOUND:                -0.101
REMARK SMILES O=C([O-])CCC(=O)[O-]
REMARK SMILES IDX 4 1 2 2 1 3 3 4 5 5 6 6 7 7 8 8
REMARK H PARENT
REMARK Flexibility Score: inf
ROOT
ATOM      1  C   UNL     1      -8.129 -32.112  43.026  1.00  0.00     0.059 C 
ENDROOT
BRANCH   1   2
ATOM      2  C   UNL     1      -7.898 -30.633  43.086  1.00  0.00     0.042 C 
ATOM      3  O   UNL     1      -8.333 -29.886  42.170  1.00  0.00    -0.550 OA
ATOM      4  O   UNL     1      -7.240 -30.074  44.174  1.00  0.00    -0.550 OA
ENDBRANCH   1   2
BRANCH   1   5
ATOM      5  C   UNL     1      -8.974 -32.504  41.809  1.00  0.00     0.059 C 
BRANCH   5   6
ATOM      6  C   UNL     1      -8.154 -33.205  40.769  1.00  0.00     0.042 C 
ATOM      7  O   UNL     1      -6.897 -33.199  40.842  1.00  0.00    -0.550 OA
ATOM      8  O   UNL     1      -8.779 -33.832  39.698  1.00  0.00    -0.550 OA
ENDBRANCH   5   6
ENDBRANCH   1   5
TORSDOF 3
ENDMDL
MODEL 2
REMARK VINA RESULT:    -3.501      1.260      1.718
REMARK INTER + INTRA:          -4.217
REMARK INTER:                  -4.107
REMARK INTRA:                  -0.110
REMARK UNBOUND:                -0.101
REMARK SMILES O=C([O-])CCC(=O)[O-]
REMARK SMILES IDX 4 1 2 2 1 3 3 4 5 5 6 6 7 7 8 8
REMARK H PARENT
REMARK Flexibility Score: inf
ROOT
ATOM      1  C   UNL     1      -9.133 -32.095  42.534  1.00  0.00     0.059 C 
ENDROOT
BRANCH   1   2
ATOM      2  C   UNL     1      -8.188 -30.966  42.809  1.00  0.00     0.042 C 
ATOM      3  O   UNL     1      -8.307 -29.875  42.190  1.00  0.00    -0.550 OA
ATOM      4  O   UNL     1      -7.202 -31.103  43.778  1.00  0.00    -0.550 OA
ENDBRANCH   1   2
BRANCH   1   5
ATOM      5  C   UNL     1      -8.728 -32.880  41.282  1.00  0.00     0.059 C 
BRANCH   5   6
ATOM      6  C   UNL     1      -8.182 -34.231  41.629  1.00  0.00     0.042 C 
ATOM      7  O   UNL     1      -8.841 -35.270  41.361  1.00  0.00    -0.550 OA
ATOM      8  O   UNL     1      -6.963 -34.340  42.288  1.00  0.00    -0.550 OA
ENDBRANCH   5   6
ENDBRANCH   1   5
TORSDOF 3
ENDMDL
MODEL 3
REMARK VINA RESULT:    -3.478      1.601      4.094
REMARK INTER + INTRA:          -4.189
REMARK INTER:                  -4.139
REMARK INTRA:                  -0.050
REMARK UNBOUND:                -0.101
REMARK SMILES O=C([O-])CCC(=O)[O-]
REMARK SMILES IDX 4 1 2 2 1 3 3 4 5 5 6 6 7 7 8 8
REMARK H PARENT
REMARK Flexibility Score: inf
ROOT
ATOM      1  C   UNL     1      -8.470 -33.266  41.052  1.00  0.00     0.059 C 
ENDROOT
BRANCH   1   2
ATOM      2  C   UNL     1      -8.821 -34.697  41.321  1.00  0.00     0.042 C 
ATOM      3  O   UNL     1     -10.000 -35.012  41.633  1.00  0.00    -0.550 OA
ATOM      4  O   UNL     1      -7.857 -35.688  41.185  1.00  0.00    -0.550 OA
ENDBRANCH   1   2
BRANCH   1   5
ATOM      5  C   UNL     1      -9.143 -32.321  42.053  1.00  0.00     0.059 C 
BRANCH   5   6
ATOM      6  C   UNL     1      -8.161 -31.361  42.652  1.00  0.00     0.042 C 
ATOM      7  O   UNL     1      -7.303 -31.765  43.481  1.00  0.00    -0.550 OA
ATOM      8  O   UNL     1      -8.221 -30.011  42.327  1.00  0.00    -0.550 OA
ENDBRANCH   5   6
ENDBRANCH   1   5
TORSDOF 3
ENDMDL
MODEL 4
REMARK VINA RESULT:    -3.447      0.961      4.137
REMARK INTER + INTRA:          -4.153
REMARK INTER:                  -4.108
REMARK INTRA:                  -0.045
REMARK UNBOUND:                -0.101
REMARK SMILES O=C([O-])CCC(=O)[O-]
REMARK SMILES IDX 4 1 2 2 1 3 3 4 5 5 6 6 7 7 8 8
REMARK H PARENT
REMARK Flexibility Score: inf
ROOT
ATOM      1  C   UNL     1      -9.097 -32.492  41.896  1.00  0.00     0.059 C 
ENDROOT
BRANCH   1   2
ATOM      2  C   UNL     1      -8.816 -33.790  41.203  1.00  0.00     0.042 C 
ATOM      3  O   UNL     1      -7.916 -33.857  40.323  1.00  0.00    -0.550 OA
ATOM      4  O   UNL     1      -9.517 -34.936  41.558  1.00  0.00    -0.550 OA
ENDBRANCH   1   2
BRANCH   1   5
ATOM      5  C   UNL     1      -7.999 -32.141  42.905  1.00  0.00     0.059 C 
BRANCH   5   6
ATOM      6  C   UNL     1      -7.857 -30.659  43.074  1.00  0.00     0.042 C 
ATOM      7  O   UNL     1      -8.295 -29.875  42.192  1.00  0.00    -0.550 OA
ATOM      8  O   UNL     1      -7.204 -30.146  44.188  1.00  0.00    -0.550 OA
ENDBRANCH   5   6
ENDBRANCH   1   5
TORSDOF 3
ENDMDL
MODEL 5
REMARK VINA RESULT:    -3.444      1.362      2.200
REMARK INTER + INTRA:          -4.150
REMARK INTER:                  -4.032
REMARK INTRA:                  -0.117
REMARK UNBOUND:                -0.101
REMARK SMILES O=C([O-])CCC(=O)[O-]
REMARK SMILES IDX 4 1 2 2 1 3 3 4 5 5 6 6 7 7 8 8
REMARK H PARENT
REMARK Flexibility Score: inf
ROOT
ATOM      1  C   UNL     1      -8.479 -32.188  41.755  1.00  0.00     0.059 C 
ENDROOT
BRANCH   1   2
ATOM      2  C   UNL     1      -7.612 -32.358  42.965  1.00  0.00     0.042 C 
ATOM      3  O   UNL     1      -7.277 -31.355  43.650  1.00  0.00    -0.550 OA
ATOM      4  O   UNL     1      -7.209 -33.627  43.361  1.00  0.00    -0.550 OA
ENDBRANCH   1   2
BRANCH   1   5
ATOM      5  C   UNL     1      -9.061 -33.526  41.286  1.00  0.00     0.059 C 
BRANCH   5   6
ATOM      6  C   UNL     1      -8.393 -34.011  40.036  1.00  0.00     0.042 C 
ATOM      7  O   UNL     1      -9.074 -34.249  39.004  1.00  0.00    -0.550 OA
ATOM      8  O   UNL     1      -7.022 -34.241  40.025  1.00  0.00    -0.550 OA
ENDBRANCH   5   6
ENDBRANCH   1   5
TORSDOF 3
ENDMDL
MODEL 6
REMARK VINA RESULT:    -3.435      1.397      2.262
REMARK INTER + INTRA:          -4.139
REMARK INTER:                  -4.022
REMARK INTRA:                  -0.117
REMARK UNBOUND:                -0.101
REMARK SMILES O=C([O-])CCC(=O)[O-]
REMARK SMILES IDX 4 1 2 2 1 3 3 4 5 5 6 6 7 7 8 8
REMARK H PARENT
REMARK Flexibility Score: inf
ROOT
ATOM      1  C   UNL     1      -8.749 -32.514  41.851  1.00  0.00     0.059 C 
ENDROOT
BRANCH   1   2
ATOM      2  C   UNL     1      -7.715 -32.537  42.935  1.00  0.00     0.042 C 
ATOM      3  O   UNL     1      -7.226 -33.632  43.321  1.00  0.00    -0.550 OA
ATOM      4  O   UNL     1      -7.260 -31.347  43.489  1.00  0.00    -0.550 OA
ENDBRANCH   1   2
BRANCH   1   5
ATOM      5  C   UNL     1      -9.037 -33.920  41.315  1.00  0.00     0.059 C 
BRANCH   5   6
ATOM      6  C   UNL     1      -8.358 -34.160  40.001  1.00  0.00     0.042 C 
ATOM      7  O   UNL     1      -9.038 -34.269  38.946  1.00  0.00    -0.550 OA
ATOM      8  O   UNL     1      -6.977 -34.304  39.948  1.00  0.00    -0.550 OA
ENDBRANCH   5   6
ENDBRANCH   1   5
TORSDOF 3
ENDMDL
MODEL 7
REMARK VINA RESULT:    -3.427      1.631      4.246
REMARK INTER + INTRA:          -4.129
REMARK INTER:                  -4.086
REMARK INTRA:                  -0.043
REMARK UNBOUND:                -0.101
REMARK SMILES O=C([O-])CCC(=O)[O-]
REMARK SMILES IDX 4 1 2 2 1 3 3 4 5 5 6 6 7 7 8 8
REMARK H PARENT
REMARK Flexibility Score: inf
ROOT
ATOM      1  C   UNL     1      -8.260 -33.467  41.150  1.00  0.00     0.059 C 
ENDROOT
BRANCH   1   2
ATOM      2  C   UNL     1      -8.849 -34.840  41.264  1.00  0.00     0.042 C 
ATOM      3  O   UNL     1      -8.128 -35.856  41.079  1.00  0.00    -0.550 OA
ATOM      4  O   UNL     1     -10.183 -34.998  41.617  1.00  0.00    -0.550 OA
ENDBRANCH   1   2
BRANCH   1   5
ATOM      5  C   UNL     1      -9.108 -32.425  41.887  1.00  0.00     0.059 C 
BRANCH   5   6
ATOM      6  C   UNL     1      -8.255 -31.398  42.566  1.00  0.00     0.042 C 
ATOM      7  O   UNL     1      -8.343 -30.185  42.241  1.00  0.00    -0.550 OA
ATOM      8  O   UNL     1      -7.333 -31.787  43.530  1.00  0.00    -0.550 OA
ENDBRANCH   5   6
ENDBRANCH   1   5
TORSDOF 3
ENDMDL
MODEL 8
REMARK VINA RESULT:    -3.422      1.416      4.155
REMARK INTER + INTRA:          -4.124
REMARK INTER:                  -4.016
REMARK INTRA:                  -0.108
REMARK UNBOUND:                -0.101
REMARK SMILES O=C([O-])CCC(=O)[O-]
REMARK SMILES IDX 4 1 2 2 1 3 3 4 5 5 6 6 7 7 8 8
REMARK H PARENT
REMARK Flexibility Score: inf
ROOT
ATOM      1  C   UNL     1      -8.943 -34.191  41.407  1.00  0.00     0.059 C 
ENDROOT
BRANCH   1   2
ATOM      2  C   UNL     1      -8.256 -34.232  40.077  1.00  0.00     0.042 C 
ATOM      3  O   UNL     1      -7.001 -34.318  40.014  1.00  0.00    -0.550 OA
ATOM      4  O   UNL     1      -9.003 -34.219  38.906  1.00  0.00    -0.550 OA
ENDBRANCH   1   2
BRANCH   1   5
ATOM      5  C   UNL     1      -8.894 -32.790  42.025  1.00  0.00     0.059 C 
BRANCH   5   6
ATOM      6  C   UNL     1      -7.749 -32.646  42.981  1.00  0.00     0.042 C 
ATOM      7  O   UNL     1      -7.145 -33.666  43.404  1.00  0.00    -0.550 OA
ATOM      8  O   UNL     1      -7.377 -31.387  43.435  1.00  0.00    -0.550 OA
ENDBRANCH   5   6
ENDBRANCH   1   5
TORSDOF 3
ENDMDL
MODEL 9
REMARK VINA RESULT:    -3.240      1.846      2.543
REMARK INTER + INTRA:          -3.910
REMARK INTER:                  -3.875
REMARK INTRA:                  -0.035
REMARK UNBOUND:                -0.101
REMARK SMILES O=C([O-])CCC(=O)[O-]
REMARK SMILES IDX 4 1 2 2 1 3 3 4 5 5 6 6 7 7 8 8
REMARK H PARENT
REMARK Flexibility Score: inf
ROOT
ATOM      1  C   UNL     1      -8.744 -33.029  40.999  1.00  0.00     0.059 C 
ENDROOT
BRANCH   1   2
ATOM      2  C   UNL     1      -8.489 -32.664  42.429  1.00  0.00     0.042 C 
ATOM      3  O   UNL     1      -9.170 -31.763  42.985  1.00  0.00    -0.550 OA
ATOM      4  O   UNL     1      -7.526 -33.349  43.161  1.00  0.00    -0.550 OA
ENDBRANCH   1   2
BRANCH   1   5
ATOM      5  C   UNL     1      -7.849 -34.185  40.542  1.00  0.00     0.059 C 
BRANCH   5   6
ATOM      6  C   UNL     1      -8.353 -34.808  39.276  1.00  0.00     0.042 C 
ATOM      7  O   UNL     1      -7.978 -35.963  38.945  1.00  0.00    -0.550 OA
ATOM      8  O   UNL     1      -9.206 -34.095  38.443  1.00  0.00    -0.550 OA
ENDBRANCH   5   6
ENDBRANCH   1   5
TORSDOF 3
ENDMDL
