MODEL 1
REMARK VINA RESULT:    -6.630      0.000      0.000
REMARK INTER + INTRA:         -14.622
REMARK INTER:                 -12.444
REMARK INTRA:                  -2.178
REMARK UNBOUND:                -2.178
REMARK SMILES CCCCCCCCC=CCCCCCCCC(=O)[O-]
REMARK SMILES IDX 10 1 9 2 11 3 12 4 13 5 14 6 15 7 16 8 17 9 18 10 19 11
REMARK SMILES IDX 20 12 8 13 7 14 6 15 5 16 4 17 3 18 2 19 1 20
REMARK H PARENT
REMARK Flexibility Score: inf
ROOT
ATOM      1  C   UNL     1     105.065 104.670 110.581  1.00  0.00    -0.031 C 
ATOM      2  C   UNL     1     103.779 104.324 110.776  1.00  0.00    -0.031 C 
ENDROOT
BRANCH   1   3
ATOM      3  C   UNL     1     105.795 104.553 109.266  1.00  0.00     0.027 C 
BRANCH   3   4
ATOM      4  C   UNL     1     107.288 104.244 109.465  1.00  0.00     0.004 C 
BRANCH   4   5
ATOM      5  C   UNL     1     108.173 104.999 108.462  1.00  0.00     0.000 C 
BRANCH   5   6
ATOM      6  C   UNL     1     107.370 105.403 107.216  1.00  0.00     0.000 C 
BRANCH   6   7
ATOM      7  C   UNL     1     107.880 104.720 105.937  1.00  0.00     0.000 C 
BRANCH   7   8
ATOM      8  C   UNL     1     108.184 105.723 104.811  1.00  0.00     0.006 C 
BRANCH   8   9
ATOM      9  C   UNL     1     107.058 105.783 103.770  1.00  0.00     0.053 C 
BRANCH   9  10
ATOM     10  C   UNL     1     106.341 107.097 103.801  1.00  0.00     0.041 C 
ATOM     11  O   UNL     1     105.109 107.153 103.548  1.00  0.00    -0.550 OA
ATOM     12  O   UNL     1     107.040 108.266 104.074  1.00  0.00    -0.550 OA
ENDBRANCH   9  10
ENDBRANCH   8   9
ENDBRANCH   7   8
ENDBRANCH   6   7
ENDBRANCH   5   6
ENDBRANCH   4   5
ENDBRANCH   3   4
ENDBRANCH   1   3
BRANCH   2  13
ATOM     13  C   UNL     1     102.899 103.681 109.735  1.00  0.00     0.027 C 
BRANCH  13  14
ATOM     14  C   UNL     1     101.760 104.628 109.328  1.00  0.00     0.004 C 
BRANCH  14  15
ATOM     15  C   UNL     1     100.797 103.995 108.312  1.00  0.00     0.000 C 
BRANCH  15  16
ATOM     16  C   UNL     1     101.512 103.530 107.031  1.00  0.00     0.000 C 
BRANCH  16  17
ATOM     17  C   UNL     1     101.177 104.411 105.817  1.00  0.00    -0.000 C 
BRANCH  17  18
ATOM     18  C   UNL     1     102.429 105.015 105.157  1.00  0.00    -0.000 C 
BRANCH  18  19
ATOM     19  C   UNL     1     103.634 105.057 106.109  1.00  0.00    -0.003 C 
ATOM     20  C   UNL     1     103.828 106.428 106.757  1.00  0.00     0.004 C 
ENDBRANCH  18  19
ENDBRANCH  17  18
ENDBRANCH  16  17
ENDBRANCH  15  16
ENDBRANCH  14  15
ENDBRANCH  13  14
ENDBRANCH   2  13
TORSDOF 15
ENDMDL
MODEL 2
REMARK VINA RESULT:    -6.572      2.120      5.445
REMARK INTER + INTRA:         -14.513
REMARK INTER:                 -12.339
REMARK INTRA:                  -2.175
REMARK UNBOUND:                -2.178
REMARK SMILES CCCCCCCCC=CCCCCCCCC(=O)[O-]
REMARK SMILES IDX 10 1 9 2 11 3 12 4 13 5 14 6 15 7 16 8 17 9 18 10 19 11
REMARK SMILES IDX 20 12 8 13 7 14 6 15 5 16 4 17 3 18 2 19 1 20
REMARK H PARENT
REMARK Flexibility Score: inf
ROOT
ATOM      1  C   UNL     1     104.806 104.645 110.697  1.00  0.00    -0.031 C 
ATOM      2  C   UNL     1     106.149 104.712 110.747  1.00  0.00    -0.031 C 
ENDROOT
BRANCH   1   3
ATOM      3  C   UNL     1     104.020 103.973 109.598  1.00  0.00     0.027 C 
BRANCH   3   4
ATOM      4  C   UNL     1     103.071 104.953 108.891  1.00  0.00     0.004 C 
BRANCH   4   5
ATOM      5  C   UNL     1     101.613 104.773 109.340  1.00  0.00     0.000 C 
BRANCH   5   6
ATOM      6  C   UNL     1     100.854 103.847 108.378  1.00  0.00     0.000 C 
BRANCH   6   7
ATOM      7  C   UNL     1     101.091 104.206 106.903  1.00  0.00     0.000 C 
BRANCH   7   8
ATOM      8  C   UNL     1     101.563 103.002 106.069  1.00  0.00     0.006 C 
BRANCH   8   9
ATOM      9  C   UNL     1     101.121 103.104 104.603  1.00  0.00     0.053 C 
BRANCH   9  10
ATOM     10  C   UNL     1     102.287 103.291 103.683  1.00  0.00     0.041 C 
ATOM     11  O   UNL     1     102.863 104.409 103.609  1.00  0.00    -0.550 OA
ATOM     12  O   UNL     1     102.718 102.242 102.881  1.00  0.00    -0.550 OA
ENDBRANCH   9  10
ENDBRANCH   8   9
ENDBRANCH   7   8
ENDBRANCH   6   7
ENDBRANCH   5   6
ENDBRANCH   4   5
ENDBRANCH   3   4
ENDBRANCH   1   3
BRANCH   2  13
ATOM     13  C   UNL     1     107.072 104.207 109.667  1.00  0.00     0.027 C 
BRANCH  13  14
ATOM     14  C   UNL     1     107.671 105.378 108.874  1.00  0.00     0.004 C 
BRANCH  14  15
ATOM     15  C   UNL     1     108.289 104.936 107.538  1.00  0.00     0.000 C 
BRANCH  15  16
ATOM     16  C   UNL     1     107.530 105.494 106.322  1.00  0.00     0.000 C 
BRANCH  16  17
ATOM     17  C   UNL     1     106.802 104.398 105.528  1.00  0.00    -0.000 C 
BRANCH  17  18
ATOM     18  C   UNL     1     105.428 104.043 106.125  1.00  0.00    -0.000 C 
BRANCH  18  19
ATOM     19  C   UNL     1     105.299 102.548 106.456  1.00  0.00    -0.003 C 
ATOM     20  C   UNL     1     105.646 101.649 105.270  1.00  0.00     0.004 C 
ENDBRANCH  18  19
ENDBRANCH  17  18
ENDBRANCH  16  17
ENDBRANCH  15  16
ENDBRANCH  14  15
ENDBRANCH  13  14
ENDBRANCH   2  13
TORSDOF 15
ENDMDL
MODEL 3
REMARK VINA RESULT:    -6.502      2.555      5.604
REMARK INTER + INTRA:         -14.381
REMARK INTER:                 -12.380
REMARK INTRA:                  -2.001
REMARK UNBOUND:                -2.178
REMARK SMILES CCCCCCCCC=CCCCCCCCC(=O)[O-]
REMARK SMILES IDX 10 1 9 2 11 3 12 4 13 5 14 6 15 7 16 8 17 9 18 10 19 11
REMARK SMILES IDX 20 12 8 13 7 14 6 15 5 16 4 17 3 18 2 19 1 20
REMARK H PARENT
REMARK Flexibility Score: inf
ROOT
ATOM      1  C   UNL     1     102.565 104.168 110.364  1.00  0.00    -0.031 C 
ATOM      2  C   UNL     1     103.858 104.174 110.736  1.00  0.00    -0.031 C 
ENDROOT
BRANCH   1   3
ATOM      3  C   UNL     1     102.000 104.956 109.207  1.00  0.00     0.027 C 
BRANCH   3   4
ATOM      4  C   UNL     1     100.889 104.185 108.478  1.00  0.00     0.004 C 
BRANCH   4   5
ATOM      5  C   UNL     1     101.424 103.408 107.266  1.00  0.00     0.000 C 
BRANCH   5   6
ATOM      6  C   UNL     1     101.226 104.208 105.970  1.00  0.00     0.000 C 
BRANCH   6   7
ATOM      7  C   UNL     1     100.844 103.317 104.778  1.00  0.00     0.000 C 
BRANCH   7   8
ATOM      8  C   UNL     1     101.790 102.116 104.608  1.00  0.00     0.006 C 
BRANCH   8   9
ATOM      9  C   UNL     1     102.682 102.252 103.366  1.00  0.00     0.053 C 
BRANCH   9  10
ATOM     10  C   UNL     1     103.994 101.552 103.544  1.00  0.00     0.041 C 
ATOM     11  O   UNL     1     104.979 101.862 102.824  1.00  0.00    -0.550 OA
ATOM     12  O   UNL     1     104.120 100.535 104.480  1.00  0.00    -0.550 OA
ENDBRANCH   9  10
ENDBRANCH   8   9
ENDBRANCH   7   8
ENDBRANCH   6   7
ENDBRANCH   5   6
ENDBRANCH   4   5
ENDBRANCH   3   4
ENDBRANCH   1   3
BRANCH   2  13
ATOM     13  C   UNL     1     104.924 105.039 110.112  1.00  0.00     0.027 C 
BRANCH  13  14
ATOM     14  C   UNL     1     106.298 104.735 110.727  1.00  0.00     0.004 C 
BRANCH  14  15
ATOM     15  C   UNL     1     107.290 104.157 109.706  1.00  0.00     0.000 C 
BRANCH  15  16
ATOM     16  C   UNL     1     107.853 105.230 108.757  1.00  0.00     0.000 C 
BRANCH  16  17
ATOM     17  C   UNL     1     107.739 104.826 107.278  1.00  0.00    -0.000 C 
BRANCH  17  18
ATOM     18  C   UNL     1     106.317 105.013 106.718  1.00  0.00    -0.000 C 
BRANCH  18  19
ATOM     19  C   UNL     1     105.754 103.723 106.100  1.00  0.00    -0.003 C 
ATOM     20  C   UNL     1     105.113 102.802 107.137  1.00  0.00     0.004 C 
ENDBRANCH  18  19
ENDBRANCH  17  18
ENDBRANCH  16  17
ENDBRANCH  15  16
ENDBRANCH  14  15
ENDBRANCH  13  14
ENDBRANCH   2  13
TORSDOF 15
ENDMDL
MODEL 4
REMARK VINA RESULT:    -6.495      2.665      5.412
REMARK INTER + INTRA:         -14.368
REMARK INTER:                 -12.366
REMARK INTRA:                  -2.002
REMARK UNBOUND:                -2.178
REMARK SMILES CCCCCCCCC=CCCCCCCCC(=O)[O-]
REMARK SMILES IDX 10 1 9 2 11 3 12 4 13 5 14 6 15 7 16 8 17 9 18 10 19 11
REMARK SMILES IDX 20 12 8 13 7 14 6 15 5 16 4 17 3 18 2 19 1 20
REMARK H PARENT
REMARK Flexibility Score: inf
ROOT
ATOM      1  C   UNL     1     102.633 104.137 110.672  1.00  0.00    -0.031 C 
ATOM      2  C   UNL     1     103.975 104.244 110.669  1.00  0.00    -0.031 C 
ENDROOT
BRANCH   1   3
ATOM      3  C   UNL     1     101.728 104.659 109.583  1.00  0.00     0.027 C 
BRANCH   3   4
ATOM      4  C   UNL     1     101.323 103.553 108.596  1.00  0.00     0.004 C 
BRANCH   4   5
ATOM      5  C   UNL     1     101.296 104.056 107.144  1.00  0.00     0.000 C 
BRANCH   5   6
ATOM      6  C   UNL     1     102.675 104.584 106.721  1.00  0.00     0.000 C 
BRANCH   6   7
ATOM      7  C   UNL     1     103.444 103.588 105.838  1.00  0.00     0.000 C 
BRANCH   7   8
ATOM      8  C   UNL     1     104.587 102.888 106.592  1.00  0.00     0.006 C 
BRANCH   8   9
ATOM      9  C   UNL     1     105.663 102.347 105.640  1.00  0.00     0.053 C 
BRANCH   9  10
ATOM     10  C   UNL     1     105.303 100.996 105.104  1.00  0.00     0.041 C 
ATOM     11  O   UNL     1     105.726  99.956 105.674  1.00  0.00    -0.550 OA
ATOM     12  O   UNL     1     104.529 100.885 103.957  1.00  0.00    -0.550 OA
ENDBRANCH   9  10
ENDBRANCH   8   9
ENDBRANCH   7   8
ENDBRANCH   6   7
ENDBRANCH   5   6
ENDBRANCH   4   5
ENDBRANCH   3   4
ENDBRANCH   1   3
BRANCH   2  13
ATOM     13  C   UNL     1     104.771 104.983 109.623  1.00  0.00     0.027 C 
BRANCH  13  14
ATOM     14  C   UNL     1     106.209 105.224 110.108  1.00  0.00     0.004 C 
BRANCH  14  15
ATOM     15  C   UNL     1     107.207 104.208 109.529  1.00  0.00     0.000 C 
BRANCH  15  16
ATOM     16  C   UNL     1     108.165 104.840 108.504  1.00  0.00     0.000 C 
BRANCH  16  17
ATOM     17  C   UNL     1     107.436 105.334 107.244  1.00  0.00    -0.000 C 
BRANCH  17  18
ATOM     18  C   UNL     1     108.152 104.925 105.944  1.00  0.00    -0.000 C 
BRANCH  18  19
ATOM     19  C   UNL     1     107.908 105.922 104.800  1.00  0.00    -0.003 C 
ATOM     20  C   UNL     1     106.982 105.364 103.719  1.00  0.00     0.004 C 
ENDBRANCH  18  19
ENDBRANCH  17  18
ENDBRANCH  16  17
ENDBRANCH  15  16
ENDBRANCH  14  15
ENDBRANCH  13  14
ENDBRANCH   2  13
TORSDOF 15
ENDMDL
MODEL 5
REMARK VINA RESULT:    -6.449      1.410      2.006
REMARK INTER + INTRA:         -14.283
REMARK INTER:                 -11.576
REMARK INTRA:                  -2.707
REMARK UNBOUND:                -2.178
REMARK SMILES CCCCCCCCC=CCCCCCCCC(=O)[O-]
REMARK SMILES IDX 10 1 9 2 11 3 12 4 13 5 14 6 15 7 16 8 17 9 18 10 19 11
REMARK SMILES IDX 20 12 8 13 7 14 6 15 5 16 4 17 3 18 2 19 1 20
REMARK H PARENT
REMARK Flexibility Score: inf
ROOT
ATOM      1  C   UNL     1     104.069 104.235 110.425  1.00  0.00    -0.031 C 
ATOM      2  C   UNL     1     102.736 104.059 110.364  1.00  0.00    -0.031 C 
ENDROOT
BRANCH   1   3
ATOM      3  C   UNL     1     104.825 105.322 109.702  1.00  0.00     0.027 C 
BRANCH   3   4
ATOM      4  C   UNL     1     106.316 105.327 110.074  1.00  0.00     0.004 C 
BRANCH   4   5
ATOM      5  C   UNL     1     107.114 104.284 109.276  1.00  0.00     0.000 C 
BRANCH   5   6
ATOM      6  C   UNL     1     108.035 104.964 108.253  1.00  0.00     0.000 C 
BRANCH   6   7
ATOM      7  C   UNL     1     107.269 105.498 107.032  1.00  0.00     0.000 C 
BRANCH   7   8
ATOM      8  C   UNL     1     108.019 105.259 105.711  1.00  0.00     0.006 C 
BRANCH   8   9
ATOM      9  C   UNL     1     107.094 105.370 104.491  1.00  0.00     0.053 C 
BRANCH   9  10
ATOM     10  C   UNL     1     106.515 106.745 104.356  1.00  0.00     0.041 C 
ATOM     11  O   UNL     1     105.272 106.898 104.227  1.00  0.00    -0.550 OA
ATOM     12  O   UNL     1     107.349 107.854 104.338  1.00  0.00    -0.550 OA
ENDBRANCH   9  10
ENDBRANCH   8   9
ENDBRANCH   7   8
ENDBRANCH   6   7
ENDBRANCH   5   6
ENDBRANCH   4   5
ENDBRANCH   3   4
ENDBRANCH   1   3
BRANCH   2  13
ATOM     13  C   UNL     1     101.806 104.864 109.492  1.00  0.00     0.027 C 
BRANCH  13  14
ATOM     14  C   UNL     1     100.936 103.938 108.628  1.00  0.00     0.004 C 
BRANCH  14  15
ATOM     15  C   UNL     1     101.662 103.453 107.363  1.00  0.00     0.000 C 
BRANCH  15  16
ATOM     16  C   UNL     1     102.300 104.606 106.570  1.00  0.00     0.000 C 
BRANCH  16  17
ATOM     17  C   UNL     1     103.794 104.373 106.290  1.00  0.00    -0.000 C 
BRANCH  17  18
ATOM     18  C   UNL     1     104.323 103.077 106.931  1.00  0.00    -0.000 C 
BRANCH  18  19
ATOM     19  C   UNL     1     105.501 102.473 106.149  1.00  0.00    -0.003 C 
ATOM     20  C   UNL     1     105.048 101.522 105.042  1.00  0.00     0.004 C 
ENDBRANCH  18  19
ENDBRANCH  17  18
ENDBRANCH  16  17
ENDBRANCH  15  16
ENDBRANCH  14  15
ENDBRANCH  13  14
ENDBRANCH   2  13
TORSDOF 15
ENDMDL
MODEL 6
REMARK VINA RESULT:    -6.447      1.845      5.054
REMARK INTER + INTRA:         -14.279
REMARK INTER:                 -12.232
REMARK INTRA:                  -2.047
REMARK UNBOUND:                -2.178
REMARK SMILES CCCCCCCCC=CCCCCCCCC(=O)[O-]
REMARK SMILES IDX 10 1 9 2 11 3 12 4 13 5 14 6 15 7 16 8 17 9 18 10 19 11
REMARK SMILES IDX 20 12 8 13 7 14 6 15 5 16 4 17 3 18 2 19 1 20
REMARK H PARENT
REMARK Flexibility Score: inf
ROOT
ATOM      1  C   UNL     1     105.173 104.926 110.655  1.00  0.00    -0.031 C 
ATOM      2  C   UNL     1     106.501 104.869 110.444  1.00  0.00    -0.031 C 
ENDROOT
BRANCH   1   3
ATOM      3  C   UNL     1     104.140 104.213 109.817  1.00  0.00     0.027 C 
BRANCH   3   4
ATOM      4  C   UNL     1     102.771 104.166 110.514  1.00  0.00     0.004 C 
BRANCH   4   5
ATOM      5  C   UNL     1     101.641 104.670 109.604  1.00  0.00     0.000 C 
BRANCH   5   6
ATOM      6  C   UNL     1     101.248 103.601 108.573  1.00  0.00     0.000 C 
BRANCH   6   7
ATOM      7  C   UNL     1     101.196 104.154 107.140  1.00  0.00     0.000 C 
BRANCH   7   8
ATOM      8  C   UNL     1     102.586 104.239 106.487  1.00  0.00     0.006 C 
BRANCH   8   9
ATOM      9  C   UNL     1     103.091 105.685 106.388  1.00  0.00     0.053 C 
BRANCH   9  10
ATOM     10  C   UNL     1     102.926 106.239 105.006  1.00  0.00     0.041 C 
ATOM     11  O   UNL     1     102.746 107.473 104.836  1.00  0.00    -0.550 OA
ATOM     12  O   UNL     1     102.936 105.388 103.909  1.00  0.00    -0.550 OA
ENDBRANCH   9  10
ENDBRANCH   8   9
ENDBRANCH   7   8
ENDBRANCH   6   7
ENDBRANCH   5   6
ENDBRANCH   4   5
ENDBRANCH   3   4
ENDBRANCH   1   3
BRANCH   2  13
ATOM     13  C   UNL     1     107.154 104.161 109.283  1.00  0.00     0.027 C 
BRANCH  13  14
ATOM     14  C   UNL     1     108.127 105.100 108.554  1.00  0.00     0.004 C 
BRANCH  14  15
ATOM     15  C   UNL     1     108.042 104.970 107.025  1.00  0.00     0.000 C 
BRANCH  15  16
ATOM     16  C   UNL     1     106.607 104.713 106.533  1.00  0.00     0.000 C 
BRANCH  16  17
ATOM     17  C   UNL     1     106.520 104.597 105.002  1.00  0.00    -0.000 C 
BRANCH  17  18
ATOM     18  C   UNL     1     105.724 103.363 104.543  1.00  0.00    -0.000 C 
BRANCH  18  19
ATOM     19  C   UNL     1     105.887 102.169 105.497  1.00  0.00    -0.003 C 
ATOM     20  C   UNL     1     106.125 100.852 104.758  1.00  0.00     0.004 C 
ENDBRANCH  18  19
ENDBRANCH  17  18
ENDBRANCH  16  17
ENDBRANCH  15  16
ENDBRANCH  14  15
ENDBRANCH  13  14
ENDBRANCH   2  13
TORSDOF 15
ENDMDL
MODEL 7
REMARK VINA RESULT:    -6.446      2.503      3.247
REMARK INTER + INTRA:         -14.277
REMARK INTER:                 -12.196
REMARK INTRA:                  -2.080
REMARK UNBOUND:                -2.178
REMARK SMILES CCCCCCCCC=CCCCCCCCC(=O)[O-]
REMARK SMILES IDX 10 1 9 2 11 3 12 4 13 5 14 6 15 7 16 8 17 9 18 10 19 11
REMARK SMILES IDX 20 12 8 13 7 14 6 15 5 16 4 17 3 18 2 19 1 20
REMARK H PARENT
REMARK Flexibility Score: inf
ROOT
ATOM      1  C   UNL     1     105.106 104.639 110.764  1.00  0.00    -0.031 C 
ATOM      2  C   UNL     1     103.832 104.299 110.489  1.00  0.00    -0.031 C 
ENDROOT
BRANCH   1   3
ATOM      3  C   UNL     1     106.004 105.421 109.837  1.00  0.00     0.027 C 
BRANCH   3   4
ATOM      4  C   UNL     1     107.226 104.601 109.396  1.00  0.00     0.004 C 
BRANCH   4   5
ATOM      5  C   UNL     1     107.984 105.268 108.238  1.00  0.00     0.000 C 
BRANCH   5   6
ATOM      6  C   UNL     1     107.579 104.652 106.891  1.00  0.00     0.000 C 
BRANCH   6   7
ATOM      7  C   UNL     1     106.353 105.339 106.271  1.00  0.00     0.000 C 
BRANCH   7   8
ATOM      8  C   UNL     1     105.193 104.362 106.013  1.00  0.00     0.006 C 
BRANCH   8   9
ATOM      9  C   UNL     1     105.520 102.939 106.485  1.00  0.00     0.053 C 
BRANCH   9  10
ATOM     10  C   UNL     1     105.649 101.987 105.336  1.00  0.00     0.041 C 
ATOM     11  O   UNL     1     105.703 102.424 104.156  1.00  0.00    -0.550 OA
ATOM     12  O   UNL     1     105.674 100.618 105.564  1.00  0.00    -0.550 OA
ENDBRANCH   9  10
ENDBRANCH   8   9
ENDBRANCH   7   8
ENDBRANCH   6   7
ENDBRANCH   5   6
ENDBRANCH   4   5
ENDBRANCH   3   4
ENDBRANCH   1   3
BRANCH   2  13
ATOM     13  C   UNL     1     103.138 104.569 109.178  1.00  0.00     0.027 C 
BRANCH  13  14
ATOM     14  C   UNL     1     101.618 104.656 109.379  1.00  0.00     0.004 C 
BRANCH  14  15
ATOM     15  C   UNL     1     100.830 104.008 108.229  1.00  0.00     0.000 C 
BRANCH  15  16
ATOM     16  C   UNL     1     101.657 103.897 106.936  1.00  0.00     0.000 C 
BRANCH  16  17
ATOM     17  C   UNL     1     100.842 104.254 105.683  1.00  0.00    -0.000 C 
BRANCH  17  18
ATOM     18  C   UNL     1     101.070 103.267 104.524  1.00  0.00    -0.000 C 
BRANCH  18  19
ATOM     19  C   UNL     1     101.534 101.885 105.010  1.00  0.00    -0.003 C 
ATOM     20  C   UNL     1     102.293 101.106 103.937  1.00  0.00     0.004 C 
ENDBRANCH  18  19
ENDBRANCH  17  18
ENDBRANCH  16  17
ENDBRANCH  15  16
ENDBRANCH  14  15
ENDBRANCH  13  14
ENDBRANCH   2  13
TORSDOF 15
ENDMDL
MODEL 8
REMARK VINA RESULT:    -6.427      1.494      5.360
REMARK INTER + INTRA:         -14.241
REMARK INTER:                 -12.590
REMARK INTRA:                  -1.651
REMARK UNBOUND:                -2.178
REMARK SMILES CCCCCCCCC=CCCCCCCCC(=O)[O-]
REMARK SMILES IDX 10 1 9 2 11 3 12 4 13 5 14 6 15 7 16 8 17 9 18 10 19 11
REMARK SMILES IDX 20 12 8 13 7 14 6 15 5 16 4 17 3 18 2 19 1 20
REMARK H PARENT
REMARK Flexibility Score: inf
ROOT
ATOM      1  C   UNL     1     105.215 105.358 109.964  1.00  0.00    -0.031 C 
ATOM      2  C   UNL     1     106.540 105.547 109.819  1.00  0.00    -0.031 C 
ENDROOT
BRANCH   1   3
ATOM      3  C   UNL     1     104.506 104.045 109.738  1.00  0.00     0.027 C 
BRANCH   3   4
ATOM      4  C   UNL     1     103.210 103.945 110.558  1.00  0.00     0.004 C 
BRANCH   4   5
ATOM      5  C   UNL     1     102.018 104.592 109.836  1.00  0.00     0.000 C 
BRANCH   5   6
ATOM      6  C   UNL     1     101.335 103.587 108.896  1.00  0.00     0.000 C 
BRANCH   6   7
ATOM      7  C   UNL     1     100.846 104.237 107.592  1.00  0.00     0.000 C 
BRANCH   7   8
ATOM      8  C   UNL     1     101.583 103.704 106.352  1.00  0.00     0.006 C 
BRANCH   8   9
ATOM      9  C   UNL     1     103.048 104.160 106.308  1.00  0.00     0.053 C 
BRANCH   9  10
ATOM     10  C   UNL     1     103.164 105.639 106.111  1.00  0.00     0.041 C 
ATOM     11  O   UNL     1     103.683 106.359 107.005  1.00  0.00    -0.550 OA
ATOM     12  O   UNL     1     102.669 106.230 104.955  1.00  0.00    -0.550 OA
ENDBRANCH   9  10
ENDBRANCH   8   9
ENDBRANCH   7   8
ENDBRANCH   6   7
ENDBRANCH   5   6
ENDBRANCH   4   5
ENDBRANCH   3   4
ENDBRANCH   1   3
BRANCH   2  13
ATOM     13  C   UNL     1     107.504 104.501 109.321  1.00  0.00     0.027 C 
BRANCH  13  14
ATOM     14  C   UNL     1     108.233 104.992 108.061  1.00  0.00     0.004 C 
BRANCH  14  15
ATOM     15  C   UNL     1     107.269 105.335 106.914  1.00  0.00     0.000 C 
BRANCH  15  16
ATOM     16  C   UNL     1     107.695 104.704 105.577  1.00  0.00     0.000 C 
BRANCH  16  17
ATOM     17  C   UNL     1     108.103 105.756 104.533  1.00  0.00    -0.000 C 
BRANCH  17  18
ATOM     18  C   UNL     1     107.441 107.124 104.777  1.00  0.00    -0.000 C 
BRANCH  18  19
ATOM     19  C   UNL     1     106.255 107.380 103.834  1.00  0.00    -0.003 C 
ATOM     20  C   UNL     1     106.418 108.660 103.014  1.00  0.00     0.004 C 
ENDBRANCH  18  19
ENDBRANCH  17  18
ENDBRANCH  16  17
ENDBRANCH  15  16
ENDBRANCH  14  15
ENDBRANCH  13  14
ENDBRANCH   2  13
TORSDOF 15
ENDMDL
MODEL 9
REMARK VINA RESULT:    -6.407      1.347      4.555
REMARK INTER + INTRA:         -14.204
REMARK INTER:                 -11.749
REMARK INTRA:                  -2.455
REMARK UNBOUND:                -2.178
REMARK SMILES CCCCCCCCC=CCCCCCCCC(=O)[O-]
REMARK SMILES IDX 10 1 9 2 11 3 12 4 13 5 14 6 15 7 16 8 17 9 18 10 19 11
REMARK SMILES IDX 20 12 8 13 7 14 6 15 5 16 4 17 3 18 2 19 1 20
REMARK H PARENT
REMARK Flexibility Score: inf
ROOT
ATOM      1  C   UNL     1     102.484 104.174 110.301  1.00  0.00    -0.031 C 
ATOM      2  C   UNL     1     103.762 104.241 110.718  1.00  0.00    -0.031 C 
ENDROOT
BRANCH   1   3
ATOM      3  C   UNL     1     101.963 104.799 109.030  1.00  0.00     0.027 C 
BRANCH   3   4
ATOM      4  C   UNL     1     100.956 103.885 108.313  1.00  0.00     0.004 C 
BRANCH   4   5
ATOM      5  C   UNL     1     101.244 103.777 106.808  1.00  0.00     0.000 C 
BRANCH   5   6
ATOM      6  C   UNL     1     102.186 104.898 106.347  1.00  0.00     0.000 C 
BRANCH   6   7
ATOM      7  C   UNL     1     102.569 104.776 104.864  1.00  0.00     0.000 C 
BRANCH   7   8
ATOM      8  C   UNL     1     103.473 105.927 104.389  1.00  0.00     0.006 C 
BRANCH   8   9
ATOM      9  C   UNL     1     104.419 105.492 103.261  1.00  0.00     0.053 C 
BRANCH   9  10
ATOM     10  C   UNL     1     105.673 106.310 103.242  1.00  0.00     0.041 C 
ATOM     11  O   UNL     1     106.798 105.744 103.255  1.00  0.00    -0.550 OA
ATOM     12  O   UNL     1     105.602 107.696 103.244  1.00  0.00    -0.550 OA
ENDBRANCH   9  10
ENDBRANCH   8   9
ENDBRANCH   7   8
ENDBRANCH   6   7
ENDBRANCH   5   6
ENDBRANCH   4   5
ENDBRANCH   3   4
ENDBRANCH   1   3
BRANCH   2  13
ATOM     13  C   UNL     1     104.848 105.027 110.027  1.00  0.00     0.027 C 
BRANCH  13  14
ATOM     14  C   UNL     1     106.212 104.752 110.676  1.00  0.00     0.004 C 
BRANCH  14  15
ATOM     15  C   UNL     1     107.260 104.257 109.667  1.00  0.00     0.000 C 
BRANCH  15  16
ATOM     16  C   UNL     1     107.771 105.380 108.747  1.00  0.00     0.000 C 
BRANCH  16  17
ATOM     17  C   UNL     1     107.770 104.973 107.265  1.00  0.00    -0.000 C 
BRANCH  17  18
ATOM     18  C   UNL     1     106.356 104.932 106.660  1.00  0.00    -0.000 C 
BRANCH  18  19
ATOM     19  C   UNL     1     105.980 103.536 106.136  1.00  0.00    -0.003 C 
ATOM     20  C   UNL     1     105.077 102.767 107.100  1.00  0.00     0.004 C 
ENDBRANCH  18  19
ENDBRANCH  17  18
ENDBRANCH  16  17
ENDBRANCH  15  16
ENDBRANCH  14  15
ENDBRANCH  13  14
ENDBRANCH   2  13
TORSDOF 15
ENDMDL
