MODEL 1
REMARK VINA RESULT:    -4.225      0.000      0.000
REMARK INTER + INTRA:          -4.896
REMARK INTER:                  -4.842
REMARK INTRA:                  -0.054
REMARK UNBOUND:                -0.054
REMARK SMILES CC(C)[C@H]([NH3+])C(=O)[O-]
REMARK SMILES IDX 4 1 5 2 6 6 7 7 8 8 2 9 1 10 3 11
REMARK H PARENT 5 3 5 4 5 5
REMARK Flexibility Score: inf
ROOT
ATOM      1  C   UNL     1      28.885  15.742  20.745  1.00  0.00     0.230 C 
ENDROOT
BRANCH   1   2
ATOM      2  N   UNL     1      27.788  16.382  20.005  1.00  0.00    -0.350 N 
ATOM      3  H   UNL     1      28.122  16.791  19.102  1.00  0.00     0.345 HD
ATOM      4  H   UNL     1      27.034  15.685  19.808  1.00  0.00     0.345 HD
ATOM      5  H   UNL     1      27.376  17.149  20.585  1.00  0.00     0.345 HD
ENDBRANCH   1   2
BRANCH   1   6
ATOM      6  C   UNL     1      30.192  15.886  20.002  1.00  0.00     0.099 C 
ATOM      7  O   UNL     1      30.414  16.892  19.276  1.00  0.00    -0.544 OA
ATOM      8  O   UNL     1      31.152  14.886  20.094  1.00  0.00    -0.544 OA
ENDBRANCH   1   6
BRANCH   1   9
ATOM      9  C   UNL     1      28.555  14.261  21.102  1.00  0.00     0.047 C 
ATOM     10  C   UNL     1      27.389  13.728  20.256  1.00  0.00     0.014 C 
ATOM     11  C   UNL     1      28.267  14.035  22.597  1.00  0.00     0.014 C 
ENDBRANCH   1   9
TORSDOF 3
ENDMDL
MODEL 2
REMARK VINA RESULT:    -4.222      1.766      2.398
REMARK INTER + INTRA:          -4.893
REMARK INTER:                  -4.850
REMARK INTRA:                  -0.043
REMARK UNBOUND:                -0.054
REMARK SMILES CC(C)[C@H]([NH3+])C(=O)[O-]
REMARK SMILES IDX 4 1 5 2 6 6 7 7 8 8 2 9 1 10 3 11
REMARK H PARENT 5 3 5 4 5 5
REMARK Flexibility Score: inf
ROOT
ATOM      1  C   UNL     1      29.910  17.023  20.826  1.00  0.00     0.230 C 
ENDROOT
BRANCH   1   2
ATOM      2  N   UNL     1      30.069  18.348  20.208  1.00  0.00    -0.350 N 
ATOM      3  H   UNL     1      29.877  19.115  20.892  1.00  0.00     0.345 HD
ATOM      4  H   UNL     1      31.039  18.455  19.835  1.00  0.00     0.345 HD
ATOM      5  H   UNL     1      29.402  18.441  19.408  1.00  0.00     0.345 HD
ENDBRANCH   1   2
BRANCH   1   6
ATOM      6  C   UNL     1      30.244  15.927  19.843  1.00  0.00     0.099 C 
ATOM      7  O   UNL     1      29.690  15.883  18.712  1.00  0.00    -0.544 OA
ATOM      8  O   UNL     1      31.152  14.936  20.195  1.00  0.00    -0.544 OA
ENDBRANCH   1   6
BRANCH   1   9
ATOM      9  C   UNL     1      28.499  16.849  21.467  1.00  0.00     0.047 C 
ATOM     10  C   UNL     1      28.330  17.751  22.699  1.00  0.00     0.014 C 
ATOM     11  C   UNL     1      28.162  15.392  21.830  1.00  0.00     0.014 C 
ENDBRANCH   1   9
TORSDOF 3
ENDMDL
MODEL 3
REMARK VINA RESULT:    -4.212      0.788      1.806
REMARK INTER + INTRA:          -4.882
REMARK INTER:                  -4.888
REMARK INTRA:                   0.006
REMARK UNBOUND:                -0.054
REMARK SMILES CC(C)[C@H]([NH3+])C(=O)[O-]
REMARK SMILES IDX 4 1 5 2 6 6 7 7 8 8 2 9 1 10 3 11
REMARK H PARENT 5 3 5 4 5 5
REMARK Flexibility Score: inf
ROOT
ATOM      1  C   UNL     1      28.583  15.669  21.041  1.00  0.00     0.230 C 
ENDROOT
BRANCH   1   2
ATOM      2  N   UNL     1      27.765  16.752  20.474  1.00  0.00    -0.350 N 
ATOM      3  H   UNL     1      27.639  16.637  19.443  1.00  0.00     0.345 HD
ATOM      4  H   UNL     1      26.827  16.770  20.935  1.00  0.00     0.345 HD
ATOM      5  H   UNL     1      28.232  17.671  20.652  1.00  0.00     0.345 HD
ENDBRANCH   1   2
BRANCH   1   6
ATOM      6  C   UNL     1      29.707  15.298  20.104  1.00  0.00     0.099 C 
ATOM      7  O   UNL     1      30.714  14.666  20.522  1.00  0.00    -0.544 OA
ATOM      8  O   UNL     1      29.649  15.679  18.769  1.00  0.00    -0.544 OA
ENDBRANCH   1   6
BRANCH   1   9
ATOM      9  C   UNL     1      27.713  14.443  21.455  1.00  0.00     0.047 C 
ATOM     10  C   UNL     1      28.390  13.629  22.569  1.00  0.00     0.014 C 
ATOM     11  C   UNL     1      27.345  13.522  20.279  1.00  0.00     0.014 C 
ENDBRANCH   1   9
TORSDOF 3
ENDMDL
MODEL 4
REMARK VINA RESULT:    -4.202      3.508      3.873
REMARK INTER + INTRA:          -4.870
REMARK INTER:                  -4.839
REMARK INTRA:                  -0.031
REMARK UNBOUND:                -0.054
REMARK SMILES CC(C)[C@H]([NH3+])C(=O)[O-]
REMARK SMILES IDX 4 1 5 2 6 6 7 7 8 8 2 9 1 10 3 11
REMARK H PARENT 5 3 5 4 5 5
REMARK Flexibility Score: inf
ROOT
ATOM      1  C   UNL     1      29.253  18.445  21.412  1.00  0.00     0.230 C 
ENDROOT
BRANCH   1   2
ATOM      2  N   UNL     1      30.297  19.461  21.608  1.00  0.00    -0.350 N 
ATOM      3  H   UNL     1      30.893  19.243  22.438  1.00  0.00     0.345 HD
ATOM      4  H   UNL     1      30.902  19.522  20.757  1.00  0.00     0.345 HD
ATOM      5  H   UNL     1      29.851  20.396  21.755  1.00  0.00     0.345 HD
ENDBRANCH   1   2
BRANCH   1   6
ATOM      6  C   UNL     1      28.834  17.842  22.731  1.00  0.00     0.099 C 
ATOM      7  O   UNL     1      27.715  17.276  22.856  1.00  0.00    -0.544 OA
ATOM      8  O   UNL     1      29.678  17.934  23.831  1.00  0.00    -0.544 OA
ENDBRANCH   1   6
BRANCH   1   9
ATOM      9  C   UNL     1      29.680  17.371  20.366  1.00  0.00     0.047 C 
ATOM     10  C   UNL     1      28.469  16.846  19.578  1.00  0.00     0.014 C 
ATOM     11  C   UNL     1      30.463  16.194  20.974  1.00  0.00     0.014 C 
ENDBRANCH   1   9
TORSDOF 3
ENDMDL
MODEL 5
REMARK VINA RESULT:    -4.191      1.789      1.965
REMARK INTER + INTRA:          -4.857
REMARK INTER:                  -4.800
REMARK INTRA:                  -0.057
REMARK UNBOUND:                -0.054
REMARK SMILES CC(C)[C@H]([NH3+])C(=O)[O-]
REMARK SMILES IDX 4 1 5 2 6 6 7 7 8 8 2 9 1 10 3 11
REMARK H PARENT 5 3 5 4 5 5
REMARK Flexibility Score: inf
ROOT
ATOM      1  C   UNL     1      27.767  14.171  20.887  1.00  0.00     0.230 C 
ENDROOT
BRANCH   1   2
ATOM      2  N   UNL     1      26.872  13.533  19.910  1.00  0.00    -0.350 N 
ATOM      3  H   UNL     1      26.768  12.509  20.097  1.00  0.00     0.345 HD
ATOM      4  H   UNL     1      25.930  13.985  19.939  1.00  0.00     0.345 HD
ATOM      5  H   UNL     1      27.262  13.657  18.947  1.00  0.00     0.345 HD
ENDBRANCH   1   2
BRANCH   1   6
ATOM      6  C   UNL     1      28.682  15.163  20.211  1.00  0.00     0.099 C 
ATOM      7  O   UNL     1      28.213  16.134  19.559  1.00  0.00    -0.544 OA
ATOM      8  O   UNL     1      30.059  14.992  20.281  1.00  0.00    -0.544 OA
ENDBRANCH   1   6
BRANCH   1   9
ATOM      9  C   UNL     1      28.542  13.117  21.736  1.00  0.00     0.047 C 
ATOM     10  C   UNL     1      28.041  11.693  21.452  1.00  0.00     0.014 C 
ATOM     11  C   UNL     1      28.508  13.396  23.248  1.00  0.00     0.014 C 
ENDBRANCH   1   9
TORSDOF 3
ENDMDL
MODEL 6
REMARK VINA RESULT:    -4.154      2.713      3.319
REMARK INTER + INTRA:          -4.815
REMARK INTER:                  -4.806
REMARK INTRA:                  -0.009
REMARK UNBOUND:                -0.054
REMARK SMILES CC(C)[C@H]([NH3+])C(=O)[O-]
REMARK SMILES IDX 4 1 5 2 6 6 7 7 8 8 2 9 1 10 3 11
REMARK H PARENT 5 3 5 4 5 5
REMARK Flexibility Score: inf
ROOT
ATOM      1  C   UNL     1      29.850  17.853  21.679  1.00  0.00     0.230 C 
ENDROOT
BRANCH   1   2
ATOM      2  N   UNL     1      30.058  19.293  21.468  1.00  0.00    -0.350 N 
ATOM      3  H   UNL     1      29.152  19.797  21.337  1.00  0.00     0.345 HD
ATOM      4  H   UNL     1      30.564  19.705  22.285  1.00  0.00     0.345 HD
ATOM      5  H   UNL     1      30.646  19.439  20.616  1.00  0.00     0.345 HD
ENDBRANCH   1   2
BRANCH   1   6
ATOM      6  C   UNL     1      29.520  17.161  20.377  1.00  0.00     0.099 C 
ATOM      7  O   UNL     1      28.385  17.291  19.847  1.00  0.00    -0.544 OA
ATOM      8  O   UNL     1      30.468  16.348  19.768  1.00  0.00    -0.544 OA
ENDBRANCH   1   6
BRANCH   1   9
ATOM      9  C   UNL     1      28.794  17.578  22.792  1.00  0.00     0.047 C 
ATOM     10  C   UNL     1      29.230  18.178  24.137  1.00  0.00     0.014 C 
ATOM     11  C   UNL     1      28.453  16.087  22.966  1.00  0.00     0.014 C 
ENDBRANCH   1   9
TORSDOF 3
ENDMDL
MODEL 7
REMARK VINA RESULT:    -4.153      1.312      2.074
REMARK INTER + INTRA:          -4.814
REMARK INTER:                  -4.771
REMARK INTRA:                  -0.043
REMARK UNBOUND:                -0.054
REMARK SMILES CC(C)[C@H]([NH3+])C(=O)[O-]
REMARK SMILES IDX 4 1 5 2 6 6 7 7 8 8 2 9 1 10 3 11
REMARK H PARENT 5 3 5 4 5 5
REMARK Flexibility Score: inf
ROOT
ATOM      1  C   UNL     1      28.449  16.249  20.178  1.00  0.00     0.230 C 
ENDROOT
BRANCH   1   2
ATOM      2  N   UNL     1      27.798  15.117  19.502  1.00  0.00    -0.350 N 
ATOM      3  H   UNL     1      27.831  15.221  18.462  1.00  0.00     0.345 HD
ATOM      4  H   UNL     1      28.264  14.222  19.773  1.00  0.00     0.345 HD
ATOM      5  H   UNL     1      26.796  15.064  19.799  1.00  0.00     0.345 HD
ENDBRANCH   1   2
BRANCH   1   6
ATOM      6  C   UNL     1      29.792  16.547  19.554  1.00  0.00     0.099 C 
ATOM      7  O   UNL     1      30.771  15.773  19.729  1.00  0.00    -0.544 OA
ATOM      8  O   UNL     1      29.963  17.702  18.802  1.00  0.00    -0.544 OA
ENDBRANCH   1   6
BRANCH   1   9
ATOM      9  C   UNL     1      28.535  16.031  21.719  1.00  0.00     0.047 C 
ATOM     10  C   UNL     1      27.853  14.720  22.137  1.00  0.00     0.014 C 
ATOM     11  C   UNL     1      27.972  17.203  22.541  1.00  0.00     0.014 C 
ENDBRANCH   1   9
TORSDOF 3
ENDMDL
MODEL 8
REMARK VINA RESULT:    -4.112      2.641      2.931
REMARK INTER + INTRA:          -4.767
REMARK INTER:                  -4.895
REMARK INTRA:                   0.128
REMARK UNBOUND:                -0.054
REMARK SMILES CC(C)[C@H]([NH3+])C(=O)[O-]
REMARK SMILES IDX 4 1 5 2 6 6 7 7 8 8 2 9 1 10 3 11
REMARK H PARENT 5 3 5 4 5 5
REMARK Flexibility Score: inf
ROOT
ATOM      1  C   UNL     1      29.352  17.364  19.411  1.00  0.00     0.230 C 
ENDROOT
BRANCH   1   2
ATOM      2  N   UNL     1      30.387  18.137  18.710  1.00  0.00    -0.350 N 
ATOM      3  H   UNL     1      29.984  18.981  18.242  1.00  0.00     0.345 HD
ATOM      4  H   UNL     1      31.127  18.439  19.383  1.00  0.00     0.345 HD
ATOM      5  H   UNL     1      30.837  17.537  17.981  1.00  0.00     0.345 HD
ENDBRANCH   1   2
BRANCH   1   6
ATOM      6  C   UNL     1      29.225  17.814  20.847  1.00  0.00     0.099 C 
ATOM      7  O   UNL     1      30.028  18.655  21.334  1.00  0.00    -0.544 OA
ATOM      8  O   UNL     1      28.230  17.277  21.654  1.00  0.00    -0.544 OA
ENDBRANCH   1   6
BRANCH   1   9
ATOM      9  C   UNL     1      29.589  15.828  19.280  1.00  0.00     0.047 C 
ATOM     10  C   UNL     1      28.285  15.043  19.491  1.00  0.00     0.014 C 
ATOM     11  C   UNL     1      30.685  15.290  20.215  1.00  0.00     0.014 C 
ENDBRANCH   1   9
TORSDOF 3
ENDMDL
MODEL 9
REMARK VINA RESULT:    -4.085      3.222      4.163
REMARK INTER + INTRA:          -4.736
REMARK INTER:                  -4.709
REMARK INTRA:                  -0.026
REMARK UNBOUND:                -0.054
REMARK SMILES CC(C)[C@H]([NH3+])C(=O)[O-]
REMARK SMILES IDX 4 1 5 2 6 6 7 7 8 8 2 9 1 10 3 11
REMARK H PARENT 5 3 5 4 5 5
REMARK Flexibility Score: inf
ROOT
ATOM      1  C   UNL     1      28.093  17.162  22.483  1.00  0.00     0.230 C 
ENDROOT
BRANCH   1   2
ATOM      2  N   UNL     1      28.375  18.345  23.310  1.00  0.00    -0.350 N 
ATOM      3  H   UNL     1      28.658  19.163  22.723  1.00  0.00     0.345 HD
ATOM      4  H   UNL     1      27.530  18.600  23.869  1.00  0.00     0.345 HD
ATOM      5  H   UNL     1      29.152  18.128  23.976  1.00  0.00     0.345 HD
ENDBRANCH   1   2
BRANCH   1   6
ATOM      6  C   UNL     1      28.204  15.896  23.300  1.00  0.00     0.099 C 
ATOM      7  O   UNL     1      28.093  14.765  22.756  1.00  0.00    -0.544 OA
ATOM      8  O   UNL     1      28.402  15.976  24.673  1.00  0.00    -0.544 OA
ENDBRANCH   1   6
BRANCH   1   9
ATOM      9  C   UNL     1      28.977  17.129  21.199  1.00  0.00     0.047 C 
ATOM     10  C   UNL     1      29.714  18.461  20.994  1.00  0.00     0.014 C 
ATOM     11  C   UNL     1      28.202  16.754  19.925  1.00  0.00     0.014 C 
ENDBRANCH   1   9
TORSDOF 3
ENDMDL
