MODEL 1
REMARK VINA RESULT:    -4.530      0.000      0.000
REMARK INTER + INTRA:          -5.174
REMARK INTER:                  -4.927
REMARK INTRA:                  -0.247
REMARK UNBOUND:                -0.247
REMARK SMILES O=C([O-])c1ccccc1O
REMARK SMILES IDX 4 1 9 2 5 3 8 4 6 5 7 6 2 7 1 8 3 9 10 10
REMARK H PARENT 10 11
REMARK Flexibility Score: inf
ROOT
ATOM      1  C   UNL     1      -4.151   8.643   5.772  1.00  0.00     0.039 A 
ATOM      2  C   UNL     1      -3.777   7.293   5.542  1.00  0.00     0.124 A 
ATOM      3  C   UNL     1      -3.213   9.519   6.348  1.00  0.00     0.014 A 
ATOM      4  C   UNL     1      -2.513   6.846   5.946  1.00  0.00     0.047 A 
ATOM      5  C   UNL     1      -1.949   9.060   6.727  1.00  0.00     0.001 A 
ATOM      6  C   UNL     1      -1.603   7.724   6.536  1.00  0.00     0.004 A 
ENDROOT
BRANCH   1   7
ATOM      7  C   UNL     1      -5.500   9.165   5.463  1.00  0.00     0.075 C 
ATOM      8  O   UNL     1      -6.125   8.781   4.440  1.00  0.00    -0.545 OA
ATOM      9  O   UNL     1      -6.125  10.041   6.344  1.00  0.00    -0.545 OA
ENDBRANCH   1   7
BRANCH   2  10
ATOM     10  O   UNL     1      -4.610   6.381   4.889  1.00  0.00    -0.507 OA
ATOM     11  H   UNL     1      -4.356   5.904   4.035  1.00  0.00     0.293 HD
ENDBRANCH   2  10
TORSDOF 2
ENDMDL
MODEL 2
REMARK VINA RESULT:    -4.296     10.289     11.299
REMARK INTER + INTRA:          -4.919
REMARK INTER:                  -4.670
REMARK INTRA:                  -0.249
REMARK UNBOUND:                -0.247
REMARK SMILES O=C([O-])c1ccccc1O
REMARK SMILES IDX 4 1 9 2 5 3 8 4 6 5 7 6 2 7 1 8 3 9 10 10
REMARK H PARENT 10 11
REMARK Flexibility Score: inf
ROOT
ATOM      1  C   UNL     1       3.346   8.609  14.030  1.00  0.00     0.039 A 
ATOM      2  C   UNL     1       3.177   7.391  14.739  1.00  0.00     0.124 A 
ATOM      3  C   UNL     1       4.425   9.447  14.365  1.00  0.00     0.014 A 
ATOM      4  C   UNL     1       4.045   7.077  15.793  1.00  0.00     0.047 A 
ATOM      5  C   UNL     1       5.294   9.108  15.405  1.00  0.00     0.001 A 
ATOM      6  C   UNL     1       5.098   7.931  16.125  1.00  0.00     0.004 A 
ENDROOT
BRANCH   1   7
ATOM      7  C   UNL     1       2.413   9.056  12.971  1.00  0.00     0.075 C 
ATOM      8  O   UNL     1       2.829   9.693  11.969  1.00  0.00    -0.545 OA
ATOM      9  O   UNL     1       1.067   8.713  13.041  1.00  0.00    -0.545 OA
ENDBRANCH   1   7
BRANCH   2  10
ATOM     10  O   UNL     1       2.192   6.456  14.410  1.00  0.00    -0.507 OA
ATOM     11  H   UNL     1       1.279   6.432  14.842  1.00  0.00     0.293 HD
ENDBRANCH   2  10
TORSDOF 2
ENDMDL
MODEL 3
REMARK VINA RESULT:    -4.047      1.510      2.200
REMARK INTER + INTRA:          -4.648
REMARK INTER:                  -4.416
REMARK INTRA:                  -0.232
REMARK UNBOUND:                -0.247
REMARK SMILES O=C([O-])c1ccccc1O
REMARK SMILES IDX 4 1 9 2 5 3 8 4 6 5 7 6 2 7 1 8 3 9 10 10
REMARK H PARENT 10 11
REMARK Flexibility Score: inf
ROOT
ATOM      1  C   UNL     1      -3.897   7.733   5.872  1.00  0.00     0.039 A 
ATOM      2  C   UNL     1      -2.582   7.322   6.212  1.00  0.00     0.124 A 
ATOM      3  C   UNL     1      -4.221   9.101   5.940  1.00  0.00     0.014 A 
ATOM      4  C   UNL     1      -1.656   8.270   6.666  1.00  0.00     0.047 A 
ATOM      5  C   UNL     1      -3.278  10.036   6.375  1.00  0.00     0.001 A 
ATOM      6  C   UNL     1      -2.001   9.619   6.747  1.00  0.00     0.004 A 
ENDROOT
BRANCH   1   7
ATOM      7  C   UNL     1      -4.959   6.781   5.479  1.00  0.00     0.075 C 
ATOM      8  O   UNL     1      -4.800   6.000   4.504  1.00  0.00    -0.545 OA
ATOM      9  O   UNL     1      -6.125   6.690   6.232  1.00  0.00    -0.545 OA
ENDBRANCH   1   7
BRANCH   2  10
ATOM     10  O   UNL     1      -2.148   6.000   6.082  1.00  0.00    -0.507 OA
ATOM     11  H   UNL     1      -2.019   5.375   6.865  1.00  0.00     0.293 HD
ENDBRANCH   2  10
TORSDOF 2
ENDMDL
MODEL 4
REMARK VINA RESULT:    -3.918     10.798     12.003
REMARK INTER + INTRA:          -4.509
REMARK INTER:                  -4.277
REMARK INTRA:                  -0.232
REMARK UNBOUND:                -0.247
REMARK SMILES O=C([O-])c1ccccc1O
REMARK SMILES IDX 4 1 9 2 5 3 8 4 6 5 7 6 2 7 1 8 3 9 10 10
REMARK H PARENT 10 11
REMARK Flexibility Score: inf
ROOT
ATOM      1  C   UNL     1       4.117   8.343  14.467  1.00  0.00     0.039 A 
ATOM      2  C   UNL     1       2.969   7.622  14.048  1.00  0.00     0.124 A 
ATOM      3  C   UNL     1       4.372   9.605  13.899  1.00  0.00     0.014 A 
ATOM      4  C   UNL     1       2.150   8.148  13.040  1.00  0.00     0.047 A 
ATOM      5  C   UNL     1       3.534  10.123  12.909  1.00  0.00     0.001 A 
ATOM      6  C   UNL     1       2.431   9.392  12.472  1.00  0.00     0.004 A 
ENDROOT
BRANCH   1   7
ATOM      7  C   UNL     1       5.082   7.811  15.454  1.00  0.00     0.075 C 
ATOM      8  O   UNL     1       5.815   8.584  16.125  1.00  0.00    -0.545 OA
ATOM      9  O   UNL     1       5.140   6.444  15.701  1.00  0.00    -0.545 OA
ENDBRANCH   1   7
BRANCH   2  10
ATOM     10  O   UNL     1       2.588   6.408  14.625  1.00  0.00    -0.507 OA
ATOM     11  H   UNL     1       1.974   6.338  15.425  1.00  0.00     0.293 HD
ENDBRANCH   2  10
TORSDOF 2
ENDMDL
MODEL 5
REMARK VINA RESULT:    -3.892      1.002      2.410
REMARK INTER + INTRA:          -4.480
REMARK INTER:                  -4.231
REMARK INTRA:                  -0.249
REMARK UNBOUND:                -0.247
REMARK SMILES O=C([O-])c1ccccc1O
REMARK SMILES IDX 4 1 9 2 5 3 8 4 6 5 7 6 2 7 1 8 3 9 10 10
REMARK H PARENT 10 11
REMARK Flexibility Score: inf
ROOT
ATOM      1  C   UNL     1      -4.098   7.855   5.766  1.00  0.00     0.039 A 
ATOM      2  C   UNL     1      -3.728   9.109   6.319  1.00  0.00     0.124 A 
ATOM      3  C   UNL     1      -3.118   6.854   5.635  1.00  0.00     0.014 A 
ATOM      4  C   UNL     1      -2.392   9.347   6.663  1.00  0.00     0.047 A 
ATOM      5  C   UNL     1      -1.793   7.102   6.002  1.00  0.00     0.001 A 
ATOM      6  C   UNL     1      -1.428   8.349   6.506  1.00  0.00     0.004 A 
ENDROOT
BRANCH   1   7
ATOM      7  C   UNL     1      -5.468   7.562   5.289  1.00  0.00     0.075 C 
ATOM      8  O   UNL     1      -6.125   8.419   4.642  1.00  0.00    -0.545 OA
ATOM      9  O   UNL     1      -6.020   6.301   5.492  1.00  0.00    -0.545 OA
ENDBRANCH   1   7
BRANCH   2  10
ATOM     10  O   UNL     1      -4.654  10.124   6.573  1.00  0.00    -0.507 OA
ATOM     11  H   UNL     1      -4.455  11.106   6.447  1.00  0.00     0.293 HD
ENDBRANCH   2  10
TORSDOF 2
ENDMDL
MODEL 6
REMARK VINA RESULT:    -3.831     10.932     12.224
REMARK INTER + INTRA:          -4.414
REMARK INTER:                  -4.173
REMARK INTRA:                  -0.241
REMARK UNBOUND:                -0.247
REMARK SMILES O=C([O-])c1ccccc1O
REMARK SMILES IDX 4 1 9 2 5 3 8 4 6 5 7 6 2 7 1 8 3 9 10 10
REMARK H PARENT 10 11
REMARK Flexibility Score: inf
ROOT
ATOM      1  C   UNL     1       4.004   7.984  14.502  1.00  0.00     0.039 A 
ATOM      2  C   UNL     1       4.024   9.214  13.795  1.00  0.00     0.124 A 
ATOM      3  C   UNL     1       2.949   7.084  14.269  1.00  0.00     0.014 A 
ATOM      4  C   UNL     1       2.969   9.534  12.931  1.00  0.00     0.047 A 
ATOM      5  C   UNL     1       1.914   7.410  13.389  1.00  0.00     0.001 A 
ATOM      6  C   UNL     1       1.919   8.637  12.728  1.00  0.00     0.004 A 
ENDROOT
BRANCH   1   7
ATOM      7  C   UNL     1       5.030   7.618  15.503  1.00  0.00     0.075 C 
ATOM      8  O   UNL     1       5.673   8.504  16.125  1.00  0.00    -0.545 OA
ATOM      9  O   UNL     1       5.246   6.281  15.820  1.00  0.00    -0.545 OA
ENDBRANCH   1   7
BRANCH   2  10
ATOM     10  O   UNL     1       5.081  10.124  13.892  1.00  0.00    -0.507 OA
ATOM     11  H   UNL     1       5.345  10.583  14.753  1.00  0.00     0.293 HD
ENDBRANCH   2  10
TORSDOF 2
ENDMDL
MODEL 7
REMARK VINA RESULT:    -3.730      2.156      3.396
REMARK INTER + INTRA:          -4.304
REMARK INTER:                  -4.086
REMARK INTRA:                  -0.219
REMARK UNBOUND:                -0.247
REMARK SMILES O=C([O-])c1ccccc1O
REMARK SMILES IDX 4 1 9 2 5 3 8 4 6 5 7 6 2 7 1 8 3 9 10 10
REMARK H PARENT 10 11
REMARK Flexibility Score: inf
ROOT
ATOM      1  C   UNL     1      -3.651   8.254   6.089  1.00  0.00     0.039 A 
ATOM      2  C   UNL     1      -3.730   6.930   5.584  1.00  0.00     0.124 A 
ATOM      3  C   UNL     1      -4.827   9.022   6.169  1.00  0.00     0.014 A 
ATOM      4  C   UNL     1      -4.956   6.438   5.121  1.00  0.00     0.047 A 
ATOM      5  C   UNL     1      -6.046   8.508   5.721  1.00  0.00     0.001 A 
ATOM      6  C   UNL     1      -6.109   7.222   5.188  1.00  0.00     0.004 A 
ENDROOT
BRANCH   1   7
ATOM      7  C   UNL     1      -2.376   8.879   6.506  1.00  0.00     0.075 C 
ATOM      8  O   UNL     1      -2.291  10.122   6.683  1.00  0.00    -0.545 OA
ATOM      9  O   UNL     1      -1.267   8.083   6.774  1.00  0.00    -0.545 OA
ENDBRANCH   1   7
BRANCH   2  10
ATOM     10  O   UNL     1      -2.632   6.066   5.558  1.00  0.00    -0.507 OA
ATOM     11  H   UNL     1      -2.563   5.269   4.941  1.00  0.00     0.293 HD
ENDBRANCH   2  10
TORSDOF 2
ENDMDL
MODEL 8
REMARK VINA RESULT:    -3.620      1.914      3.407
REMARK INTER + INTRA:          -4.184
REMARK INTER:                  -3.972
REMARK INTRA:                  -0.212
REMARK UNBOUND:                -0.247
REMARK SMILES O=C([O-])c1ccccc1O
REMARK SMILES IDX 4 1 9 2 5 3 8 4 6 5 7 6 2 7 1 8 3 9 10 10
REMARK H PARENT 10 11
REMARK Flexibility Score: inf
ROOT
ATOM      1  C   UNL     1      -3.606   8.030   5.931  1.00  0.00     0.039 A 
ATOM      2  C   UNL     1      -4.684   7.395   5.261  1.00  0.00     0.124 A 
ATOM      3  C   UNL     1      -3.716   9.395   6.255  1.00  0.00     0.014 A 
ATOM      4  C   UNL     1      -5.804   8.147   4.883  1.00  0.00     0.047 A 
ATOM      5  C   UNL     1      -4.850  10.125   5.889  1.00  0.00     0.001 A 
ATOM      6  C   UNL     1      -5.887   9.504   5.195  1.00  0.00     0.004 A 
ENDROOT
BRANCH   1   7
ATOM      7  C   UNL     1      -2.350   7.328   6.275  1.00  0.00     0.075 C 
ATOM      8  O   UNL     1      -2.219   6.094   6.063  1.00  0.00    -0.545 OA
ATOM      9  O   UNL     1      -1.268   8.044   6.777  1.00  0.00    -0.545 OA
ENDBRANCH   1   7
BRANCH   2  10
ATOM     10  O   UNL     1      -4.699   6.025   4.986  1.00  0.00    -0.507 OA
ATOM     11  H   UNL     1      -5.226   5.614   4.228  1.00  0.00     0.293 HD
ENDBRANCH   2  10
TORSDOF 2
ENDMDL
MODEL 9
REMARK VINA RESULT:    -2.092     10.451     11.666
REMARK INTER + INTRA:          -2.523
REMARK INTER:                  -2.276
REMARK INTRA:                  -0.246
REMARK UNBOUND:                -0.247
REMARK SMILES O=C([O-])c1ccccc1O
REMARK SMILES IDX 4 1 9 2 5 3 8 4 6 5 7 6 2 7 1 8 3 9 10 10
REMARK H PARENT 10 11
REMARK Flexibility Score: inf
ROOT
ATOM      1  C   UNL     1       3.477   8.136  14.298  1.00  0.00     0.039 A 
ATOM      2  C   UNL     1       3.883   9.435  13.897  1.00  0.00     0.124 A 
ATOM      3  C   UNL     1       4.077   7.555  15.430  1.00  0.00     0.014 A 
ATOM      4  C   UNL     1       4.910  10.085  14.593  1.00  0.00     0.047 A 
ATOM      5  C   UNL     1       5.086   8.226  16.125  1.00  0.00     0.001 A 
ATOM      6  C   UNL     1       5.509   9.485  15.701  1.00  0.00     0.004 A 
ENDROOT
BRANCH   1   7
ATOM      7  C   UNL     1       2.469   7.346  13.556  1.00  0.00     0.075 C 
ATOM      8  O   UNL     1       2.530   6.089  13.520  1.00  0.00    -0.545 OA
ATOM      9  O   UNL     1       1.396   7.987  12.945  1.00  0.00    -0.545 OA
ENDBRANCH   1   7
BRANCH   2  10
ATOM     10  O   UNL     1       3.275  10.125  12.845  1.00  0.00    -0.507 OA
ATOM     11  H   UNL     1       2.668   9.687  12.166  1.00  0.00     0.293 HD
ENDBRANCH   2  10
TORSDOF 2
ENDMDL
