MODEL 1
REMARK VINA RESULT:    -4.146      0.000      0.000
REMARK INTER + INTRA:          -8.031
REMARK INTER:                  -6.570
REMARK INTRA:                  -1.461
REMARK UNBOUND:                -1.461
REMARK SMILES CCCCCCCCCCCC(=O)[O-]
REMARK SMILES IDX 7 1 8 2 9 3 10 4 11 5 12 6 13 7 14 8 6 9 5 10 4 11 3 12 2 13
REMARK SMILES IDX 1 14
REMARK H PARENT
REMARK Flexibility Score: inf
ROOT
ATOM      1  C   UNL     1      13.243 -22.619  21.878  1.00  0.00     0.000 C 
ENDROOT
BRANCH   1   2
ATOM      2  C   UNL     1      14.425 -22.719  20.906  1.00  0.00     0.000 C 
BRANCH   2   3
ATOM      3  C   UNL     1      14.064 -22.114  19.540  1.00  0.00     0.000 C 
BRANCH   3   4
ATOM      4  C   UNL     1      15.111 -21.104  19.045  1.00  0.00     0.006 C 
BRANCH   4   5
ATOM      5  C   UNL     1      15.751 -20.308  20.190  1.00  0.00     0.053 C 
BRANCH   5   6
ATOM      6  C   UNL     1      15.494 -18.844  20.015  1.00  0.00     0.041 C 
ATOM      7  O   UNL     1      14.320 -18.422  19.852  1.00  0.00    -0.550 OA
ATOM      8  O   UNL     1      16.548 -17.941  20.084  1.00  0.00    -0.550 OA
ENDBRANCH   5   6
ENDBRANCH   4   5
ENDBRANCH   3   4
ENDBRANCH   2   3
ENDBRANCH   1   2
BRANCH   1   9
ATOM      9  C   UNL     1      12.323 -21.449  21.509  1.00  0.00     0.000 C 
BRANCH   9  10
ATOM     10  C   UNL     1      12.648 -20.207  22.352  1.00  0.00    -0.000 C 
BRANCH  10  11
ATOM     11  C   UNL     1      13.300 -20.554  23.702  1.00  0.00    -0.000 C 
BRANCH  11  12
ATOM     12  C   UNL     1      14.723 -19.994  23.904  1.00  0.00    -0.000 C 
BRANCH  12  13
ATOM     13  C   UNL     1      15.739 -20.995  24.480  1.00  0.00    -0.003 C 
ATOM     14  C   UNL     1      16.889 -21.295  23.519  1.00  0.00     0.004 C 
ENDBRANCH  12  13
ENDBRANCH  11  12
ENDBRANCH  10  11
ENDBRANCH   9  10
ENDBRANCH   1   9
TORSDOF 10
ENDMDL
MODEL 2
REMARK VINA RESULT:    -3.887      2.336      4.615
REMARK INTER + INTRA:          -7.621
REMARK INTER:                  -6.332
REMARK INTRA:                  -1.288
REMARK UNBOUND:                -1.461
REMARK SMILES CCCCCCCCCCCC(=O)[O-]
REMARK SMILES IDX 7 1 8 2 9 3 10 4 11 5 12 6 13 7 14 8 6 9 5 10 4 11 3 12 2 13
REMARK SMILES IDX 1 14
REMARK H PARENT
REMARK Flexibility Score: inf
ROOT
ATOM      1  C   UNL     1      16.440 -20.947  23.667  1.00  0.00     0.000 C 
ENDROOT
BRANCH   1   2
ATOM      2  C   UNL     1      15.019 -21.419  24.001  1.00  0.00     0.000 C 
BRANCH   2   3
ATOM      3  C   UNL     1      14.037 -20.237  24.007  1.00  0.00     0.000 C 
BRANCH   3   4
ATOM      4  C   UNL     1      12.826 -20.470  23.089  1.00  0.00     0.006 C 
BRANCH   4   5
ATOM      5  C   UNL     1      12.563 -19.286  22.148  1.00  0.00     0.053 C 
BRANCH   5   6
ATOM      6  C   UNL     1      11.098 -18.983  22.088  1.00  0.00     0.041 C 
ATOM      7  O   UNL     1      10.620 -18.034  22.763  1.00  0.00    -0.550 OA
ATOM      8  O   UNL     1      10.271 -19.717  21.247  1.00  0.00    -0.550 OA
ENDBRANCH   5   6
ENDBRANCH   4   5
ENDBRANCH   3   4
ENDBRANCH   2   3
ENDBRANCH   1   2
BRANCH   1   9
ATOM      9  C   UNL     1      16.764 -21.179  22.186  1.00  0.00     0.000 C 
BRANCH   9  10
ATOM     10  C   UNL     1      16.129 -20.093  21.307  1.00  0.00    -0.000 C 
BRANCH  10  11
ATOM     11  C   UNL     1      15.778 -20.594  19.895  1.00  0.00    -0.000 C 
BRANCH  11  12
ATOM     12  C   UNL     1      14.348 -21.149  19.734  1.00  0.00    -0.000 C 
BRANCH  12  13
ATOM     13  C   UNL     1      14.252 -22.682  19.642  1.00  0.00    -0.003 C 
ATOM     14  C   UNL     1      14.060 -23.349  21.003  1.00  0.00     0.004 C 
ENDBRANCH  12  13
ENDBRANCH  11  12
ENDBRANCH  10  11
ENDBRANCH   9  10
ENDBRANCH   1   9
TORSDOF 10
ENDMDL
MODEL 3
REMARK VINA RESULT:    -3.844      2.537      4.284
REMARK INTER + INTRA:          -7.552
REMARK INTER:                  -6.225
REMARK INTRA:                  -1.327
REMARK UNBOUND:                -1.461
REMARK SMILES CCCCCCCCCCCC(=O)[O-]
REMARK SMILES IDX 7 1 8 2 9 3 10 4 11 5 12 6 13 7 14 8 6 9 5 10 4 11 3 12 2 13
REMARK SMILES IDX 1 14
REMARK H PARENT
REMARK Flexibility Score: inf
ROOT
ATOM      1  C   UNL     1      13.945 -22.066  19.447  1.00  0.00     0.000 C 
ENDROOT
BRANCH   1   2
ATOM      2  C   UNL     1      14.443 -23.078  20.486  1.00  0.00     0.000 C 
BRANCH   2   3
ATOM      3  C   UNL     1      13.552 -23.062  21.738  1.00  0.00     0.000 C 
BRANCH   3   4
ATOM      4  C   UNL     1      13.733 -21.786  22.576  1.00  0.00     0.006 C 
BRANCH   4   5
ATOM      5  C   UNL     1      15.203 -21.504  22.912  1.00  0.00     0.053 C 
BRANCH   5   6
ATOM      6  C   UNL     1      15.318 -20.886  24.271  1.00  0.00     0.041 C 
ATOM      7  O   UNL     1      14.803 -19.761  24.501  1.00  0.00    -0.550 OA
ATOM      8  O   UNL     1      15.950 -21.577  25.297  1.00  0.00    -0.550 OA
ENDBRANCH   5   6
ENDBRANCH   4   5
ENDBRANCH   3   4
ENDBRANCH   2   3
ENDBRANCH   1   2
BRANCH   1   9
ATOM      9  C   UNL     1      15.068 -21.110  19.027  1.00  0.00     0.000 C 
BRANCH   9  10
ATOM     10  C   UNL     1      14.827 -19.700  19.584  1.00  0.00    -0.000 C 
BRANCH  10  11
ATOM     11  C   UNL     1      13.333 -19.371  19.754  1.00  0.00    -0.000 C 
BRANCH  11  12
ATOM     12  C   UNL     1      12.988 -18.521  20.994  1.00  0.00    -0.000 C 
BRANCH  12  13
ATOM     13  C   UNL     1      11.494 -18.483  21.359  1.00  0.00    -0.003 C 
ATOM     14  C   UNL     1      10.884 -19.875  21.520  1.00  0.00     0.004 C 
ENDBRANCH  12  13
ENDBRANCH  11  12
ENDBRANCH  10  11
ENDBRANCH   9  10
ENDBRANCH   1   9
TORSDOF 10
ENDMDL
MODEL 4
REMARK VINA RESULT:    -3.733      2.273      3.656
REMARK INTER + INTRA:          -7.376
REMARK INTER:                  -5.895
REMARK INTRA:                  -1.481
REMARK UNBOUND:                -1.461
REMARK SMILES CCCCCCCCCCCC(=O)[O-]
REMARK SMILES IDX 7 1 8 2 9 3 10 4 11 5 12 6 13 7 14 8 6 9 5 10 4 11 3 12 2 13
REMARK SMILES IDX 1 14
REMARK H PARENT
REMARK Flexibility Score: inf
ROOT
ATOM      1  C   UNL     1      15.136 -20.995  19.355  1.00  0.00     0.000 C 
ENDROOT
BRANCH   1   2
ATOM      2  C   UNL     1      14.315 -19.712  19.181  1.00  0.00     0.000 C 
BRANCH   2   3
ATOM      3  C   UNL     1      14.525 -18.761  20.370  1.00  0.00     0.000 C 
BRANCH   3   4
ATOM      4  C   UNL     1      13.201 -18.319  21.014  1.00  0.00     0.006 C 
BRANCH   4   5
ATOM      5  C   UNL     1      12.004 -19.151  20.535  1.00  0.00     0.053 C 
BRANCH   5   6
ATOM      6  C   UNL     1      11.050 -19.390  21.663  1.00  0.00     0.041 C 
ATOM      7  O   UNL     1      10.887 -18.513  22.551  1.00  0.00    -0.550 OA
ATOM      8  O   UNL     1      10.302 -20.560  21.705  1.00  0.00    -0.550 OA
ENDBRANCH   5   6
ENDBRANCH   4   5
ENDBRANCH   3   4
ENDBRANCH   2   3
ENDBRANCH   1   2
BRANCH   1   9
ATOM      9  C   UNL     1      14.239 -22.174  19.751  1.00  0.00     0.000 C 
BRANCH   9  10
ATOM     10  C   UNL     1      14.587 -22.682  21.157  1.00  0.00    -0.000 C 
BRANCH  10  11
ATOM     11  C   UNL     1      13.593 -22.204  22.230  1.00  0.00    -0.000 C 
BRANCH  11  12
ATOM     12  C   UNL     1      14.109 -21.073  23.143  1.00  0.00    -0.000 C 
BRANCH  12  13
ATOM     13  C   UNL     1      15.639 -21.010  23.297  1.00  0.00    -0.003 C 
ATOM     14  C   UNL     1      16.100 -21.193  24.743  1.00  0.00     0.004 C 
ENDBRANCH  12  13
ENDBRANCH  11  12
ENDBRANCH  10  11
ENDBRANCH   9  10
ENDBRANCH   1   9
TORSDOF 10
ENDMDL
MODEL 5
REMARK VINA RESULT:    -3.705      2.633      3.894
REMARK INTER + INTRA:          -7.332
REMARK INTER:                  -6.180
REMARK INTRA:                  -1.152
REMARK UNBOUND:                -1.461
REMARK SMILES CCCCCCCCCCCC(=O)[O-]
REMARK SMILES IDX 7 1 8 2 9 3 10 4 11 5 12 6 13 7 14 8 6 9 5 10 4 11 3 12 2 13
REMARK SMILES IDX 1 14
REMARK H PARENT
REMARK Flexibility Score: inf
ROOT
ATOM      1  C   UNL     1      12.975 -21.461  22.126  1.00  0.00     0.000 C 
ENDROOT
BRANCH   1   2
ATOM      2  C   UNL     1      13.629 -22.647  21.408  1.00  0.00     0.000 C 
BRANCH   2   3
ATOM      3  C   UNL     1      15.160 -22.591  21.537  1.00  0.00     0.000 C 
BRANCH   3   4
ATOM      4  C   UNL     1      15.667 -21.206  21.971  1.00  0.00     0.006 C 
BRANCH   4   5
ATOM      5  C   UNL     1      16.589 -21.273  23.196  1.00  0.00     0.053 C 
BRANCH   5   6
ATOM      6  C   UNL     1      15.824 -20.956  24.443  1.00  0.00     0.041 C 
ATOM      7  O   UNL     1      15.026 -19.983  24.466  1.00  0.00    -0.550 OA
ATOM      8  O   UNL     1      15.955 -21.767  25.563  1.00  0.00    -0.550 OA
ENDBRANCH   5   6
ENDBRANCH   4   5
ENDBRANCH   3   4
ENDBRANCH   2   3
ENDBRANCH   1   2
BRANCH   1   9
ATOM      9  C   UNL     1      11.465 -21.423  21.864  1.00  0.00     0.000 C 
BRANCH   9  10
ATOM     10  C   UNL     1      10.964 -19.978  21.736  1.00  0.00    -0.000 C 
BRANCH  10  11
ATOM     11  C   UNL     1      11.582 -19.234  20.539  1.00  0.00    -0.000 C 
BRANCH  11  12
ATOM     12  C   UNL     1      12.444 -18.009  20.905  1.00  0.00    -0.000 C 
BRANCH  12  13
ATOM     13  C   UNL     1      13.955 -18.186  20.676  1.00  0.00    -0.003 C 
ATOM     14  C   UNL     1      14.277 -18.985  19.414  1.00  0.00     0.004 C 
ENDBRANCH  12  13
ENDBRANCH  11  12
ENDBRANCH  10  11
ENDBRANCH   9  10
ENDBRANCH   1   9
TORSDOF 10
ENDMDL
MODEL 6
REMARK VINA RESULT:    -3.698      1.188      2.614
REMARK INTER + INTRA:          -7.320
REMARK INTER:                  -5.779
REMARK INTRA:                  -1.541
REMARK UNBOUND:                -1.461
REMARK SMILES CCCCCCCCCCCC(=O)[O-]
REMARK SMILES IDX 7 1 8 2 9 3 10 4 11 5 12 6 13 7 14 8 6 9 5 10 4 11 3 12 2 13
REMARK SMILES IDX 1 14
REMARK H PARENT
REMARK Flexibility Score: inf
ROOT
ATOM      1  C   UNL     1      12.358 -21.906  22.092  1.00  0.00     0.000 C 
ENDROOT
BRANCH   1   2
ATOM      2  C   UNL     1      12.233 -20.780  21.058  1.00  0.00     0.000 C 
BRANCH   2   3
ATOM      3  C   UNL     1      12.412 -19.405  21.720  1.00  0.00     0.000 C 
BRANCH   3   4
ATOM      4  C   UNL     1      13.144 -18.402  20.813  1.00  0.00     0.006 C 
BRANCH   4   5
ATOM      5  C   UNL     1      14.622 -18.238  21.188  1.00  0.00     0.053 C 
BRANCH   5   6
ATOM      6  C   UNL     1      15.495 -18.514  20.003  1.00  0.00     0.041 C 
ATOM      7  O   UNL     1      16.683 -18.098  19.981  1.00  0.00    -0.550 OA
ATOM      8  O   UNL     1      15.010 -19.273  18.946  1.00  0.00    -0.550 OA
ENDBRANCH   5   6
ENDBRANCH   4   5
ENDBRANCH   3   4
ENDBRANCH   2   3
ENDBRANCH   1   2
BRANCH   1   9
ATOM      9  C   UNL     1      13.530 -22.836  21.754  1.00  0.00     0.000 C 
BRANCH   9  10
ATOM     10  C   UNL     1      14.672 -22.061  21.084  1.00  0.00    -0.000 C 
BRANCH  10  11
ATOM     11  C   UNL     1      16.021 -22.240  21.803  1.00  0.00    -0.000 C 
BRANCH  11  12
ATOM     12  C   UNL     1      16.430 -21.075  22.726  1.00  0.00    -0.000 C 
BRANCH  12  13
ATOM     13  C   UNL     1      15.854 -21.142  24.152  1.00  0.00    -0.003 C 
ATOM     14  C   UNL     1      14.717 -20.148  24.382  1.00  0.00     0.004 C 
ENDBRANCH  12  13
ENDBRANCH  11  12
ENDBRANCH  10  11
ENDBRANCH   9  10
ENDBRANCH   1   9
TORSDOF 10
ENDMDL
MODEL 7
REMARK VINA RESULT:    -3.683      2.236      4.486
REMARK INTER + INTRA:          -7.297
REMARK INTER:                  -6.129
REMARK INTRA:                  -1.168
REMARK UNBOUND:                -1.461
REMARK SMILES CCCCCCCCCCCC(=O)[O-]
REMARK SMILES IDX 7 1 8 2 9 3 10 4 11 5 12 6 13 7 14 8 6 9 5 10 4 11 3 12 2 13
REMARK SMILES IDX 1 14
REMARK H PARENT
REMARK Flexibility Score: inf
ROOT
ATOM      1  C   UNL     1      14.506 -19.835  24.138  1.00  0.00     0.000 C 
ENDROOT
BRANCH   1   2
ATOM      2  C   UNL     1      13.033 -19.991  23.739  1.00  0.00     0.000 C 
BRANCH   2   3
ATOM      3  C   UNL     1      12.803 -19.519  22.295  1.00  0.00     0.000 C 
BRANCH   3   4
ATOM      4  C   UNL     1      11.832 -20.427  21.523  1.00  0.00     0.006 C 
BRANCH   4   5
ATOM      5  C   UNL     1      10.372 -19.973  21.649  1.00  0.00     0.053 C 
BRANCH   5   6
ATOM      6  C   UNL     1      10.221 -18.564  21.168  1.00  0.00     0.041 C 
ATOM      7  O   UNL     1      10.353 -18.294  19.945  1.00  0.00    -0.550 OA
ATOM      8  O   UNL     1       9.884 -17.557  22.063  1.00  0.00    -0.550 OA
ENDBRANCH   5   6
ENDBRANCH   4   5
ENDBRANCH   3   4
ENDBRANCH   2   3
ENDBRANCH   1   2
BRANCH   1   9
ATOM      9  C   UNL     1      15.182 -21.203  24.294  1.00  0.00     0.000 C 
BRANCH   9  10
ATOM     10  C   UNL     1      16.632 -21.160  23.793  1.00  0.00    -0.000 C 
BRANCH  10  11
ATOM     11  C   UNL     1      16.771 -21.601  22.325  1.00  0.00    -0.000 C 
BRANCH  11  12
ATOM     12  C   UNL     1      15.456 -22.034  21.645  1.00  0.00    -0.000 C 
BRANCH  12  13
ATOM     13  C   UNL     1      15.182 -21.372  20.283  1.00  0.00    -0.003 C 
ATOM     14  C   UNL     1      15.801 -19.981  20.161  1.00  0.00     0.004 C 
ENDBRANCH  12  13
ENDBRANCH  11  12
ENDBRANCH  10  11
ENDBRANCH   9  10
ENDBRANCH   1   9
TORSDOF 10
ENDMDL
MODEL 8
REMARK VINA RESULT:    -3.674      2.220      4.569
REMARK INTER + INTRA:          -7.282
REMARK INTER:                  -5.784
REMARK INTRA:                  -1.499
REMARK UNBOUND:                -1.461
REMARK SMILES CCCCCCCCCCCC(=O)[O-]
REMARK SMILES IDX 7 1 8 2 9 3 10 4 11 5 12 6 13 7 14 8 6 9 5 10 4 11 3 12 2 13
REMARK SMILES IDX 1 14
REMARK H PARENT
REMARK Flexibility Score: inf
ROOT
ATOM      1  C   UNL     1      16.097 -21.049  23.162  1.00  0.00     0.000 C 
ENDROOT
BRANCH   1   2
ATOM      2  C   UNL     1      14.733 -21.218  23.842  1.00  0.00     0.000 C 
BRANCH   2   3
ATOM      3  C   UNL     1      13.850 -19.982  23.614  1.00  0.00     0.000 C 
BRANCH   3   4
ATOM      4  C   UNL     1      12.516 -20.325  22.930  1.00  0.00     0.006 C 
BRANCH   4   5
ATOM      5  C   UNL     1      11.811 -19.088  22.358  1.00  0.00     0.053 C 
BRANCH   5   6
ATOM      6  C   UNL     1      10.713 -19.498  21.427  1.00  0.00     0.041 C 
ATOM      7  O   UNL     1      10.069 -20.559  21.635  1.00  0.00    -0.550 OA
ATOM      8  O   UNL     1      10.367 -18.680  20.358  1.00  0.00    -0.550 OA
ENDBRANCH   5   6
ENDBRANCH   4   5
ENDBRANCH   3   4
ENDBRANCH   2   3
ENDBRANCH   1   2
BRANCH   1   9
ATOM      9  C   UNL     1      16.189 -21.904  21.892  1.00  0.00     0.000 C 
BRANCH   9  10
ATOM     10  C   UNL     1      14.887 -22.684  21.658  1.00  0.00    -0.000 C 
BRANCH  10  11
ATOM     11  C   UNL     1      14.279 -22.431  20.268  1.00  0.00    -0.000 C 
BRANCH  11  12
ATOM     12  C   UNL     1      14.891 -21.248  19.491  1.00  0.00    -0.000 C 
BRANCH  12  13
ATOM     13  C   UNL     1      14.081 -19.942  19.552  1.00  0.00    -0.003 C 
ATOM     14  C   UNL     1      14.844 -18.798  20.217  1.00  0.00     0.004 C 
ENDBRANCH  12  13
ENDBRANCH  11  12
ENDBRANCH  10  11
ENDBRANCH   9  10
ENDBRANCH   1   9
TORSDOF 10
ENDMDL
MODEL 9
REMARK VINA RESULT:    -3.568      2.362      4.964
REMARK INTER + INTRA:          -7.114
REMARK INTER:                  -5.923
REMARK INTRA:                  -1.192
REMARK UNBOUND:                -1.461
REMARK SMILES CCCCCCCCCCCC(=O)[O-]
REMARK SMILES IDX 7 1 8 2 9 3 10 4 11 5 12 6 13 7 14 8 6 9 5 10 4 11 3 12 2 13
REMARK SMILES IDX 1 14
REMARK H PARENT
REMARK Flexibility Score: inf
ROOT
ATOM      1  C   UNL     1      16.967 -21.154  23.020  1.00  0.00     0.000 C 
ENDROOT
BRANCH   1   2
ATOM      2  C   UNL     1      16.011 -21.195  24.218  1.00  0.00     0.000 C 
BRANCH   2   3
ATOM      3  C   UNL     1      14.999 -20.041  24.153  1.00  0.00     0.000 C 
BRANCH   3   4
ATOM      4  C   UNL     1      13.542 -20.529  24.180  1.00  0.00     0.006 C 
BRANCH   4   5
ATOM      5  C   UNL     1      12.797 -20.235  22.871  1.00  0.00     0.053 C 
BRANCH   5   6
ATOM      6  C   UNL     1      12.271 -21.504  22.274  1.00  0.00     0.041 C 
ATOM      7  O   UNL     1      13.009 -22.520  22.197  1.00  0.00    -0.550 OA
ATOM      8  O   UNL     1      10.950 -21.577  21.849  1.00  0.00    -0.550 OA
ENDBRANCH   5   6
ENDBRANCH   4   5
ENDBRANCH   3   4
ENDBRANCH   2   3
ENDBRANCH   1   2
BRANCH   1   9
ATOM      9  C   UNL     1      16.191 -21.140  21.697  1.00  0.00     0.000 C 
BRANCH   9  10
ATOM     10  C   UNL     1      16.592 -19.934  20.836  1.00  0.00    -0.000 C 
BRANCH  10  11
ATOM     11  C   UNL     1      15.854 -19.889  19.487  1.00  0.00    -0.000 C 
BRANCH  11  12
ATOM     12  C   UNL     1      14.454 -20.536  19.486  1.00  0.00    -0.000 C 
BRANCH  12  13
ATOM     13  C   UNL     1      13.284 -19.553  19.303  1.00  0.00    -0.003 C 
ATOM     14  C   UNL     1      13.545 -18.191  19.945  1.00  0.00     0.004 C 
ENDBRANCH  12  13
ENDBRANCH  11  12
ENDBRANCH  10  11
ENDBRANCH   9  10
ENDBRANCH   1   9
TORSDOF 10
ENDMDL
