MODEL 1
REMARK VINA RESULT:    -5.407      0.000      0.000
REMARK INTER + INTRA:          -8.196
REMARK INTER:                  -7.303
REMARK INTRA:                  -0.893
REMARK UNBOUND:                -0.893
REMARK SMILES O=c1c(-c2ccc(O)cc2)coc2c([C@@H]3O[C@@H](CO)[C@@H](O)[C@@H](O)[C@@H]3O)c(O)ccc12
REMARK SMILES IDX 3 1 11 2 12 3 13 4 30 5 2 6 1 7 29 8 28 9 26 10 14 11 4 12
REMARK SMILES IDX 5 13 6 14 7 15 10 16 9 17 8 18 15 20 24 21 16 22 22 23 17 24
REMARK SMILES IDX 20 25 25 26 23 28 18 30 19 31 21 33 27 35
REMARK H PARENT 8 19 25 27 23 29 19 32 21 34 27 36
REMARK Flexibility Score: inf
ROOT
ATOM      1  C   UNL     1      43.361  17.190  -2.935  1.00  0.00     0.065 A 
ATOM      2  C   UNL     1      44.754  17.055  -2.910  1.00  0.00     0.208 A 
ATOM      3  O   UNL     1      45.349  16.023  -3.494  1.00  0.00    -0.463 OA
ATOM      4  C   UNL     1      44.697  15.058  -4.134  1.00  0.00     0.147 A 
ATOM      5  C   UNL     1      43.283  15.128  -4.218  1.00  0.00     0.066 A 
ATOM      6  C   UNL     1      42.616  16.210  -3.612  1.00  0.00     0.200 A 
ATOM      7  O   UNL     1      41.361  16.312  -3.692  1.00  0.00    -0.288 OA
ATOM      8  C   UNL     1      42.574  14.136  -4.910  1.00  0.00     0.020 A 
ATOM      9  C   UNL     1      43.253  13.092  -5.524  1.00  0.00     0.047 A 
ATOM     10  C   UNL     1      44.646  13.006  -5.452  1.00  0.00     0.125 A 
ATOM     11  C   UNL     1      45.399  13.970  -4.735  1.00  0.00     0.069 A 
ENDROOT
BRANCH   1  12
ATOM     12  C   UNL     1      42.717  18.347  -2.264  1.00  0.00    -0.011 A 
ATOM     13  C   UNL     1      42.871  19.644  -2.785  1.00  0.00     0.013 A 
ATOM     14  C   UNL     1      42.272  20.737  -2.152  1.00  0.00     0.047 A 
ATOM     15  C   UNL     1      41.517  20.550  -0.989  1.00  0.00     0.115 A 
ATOM     16  C   UNL     1      41.961  18.167  -1.091  1.00  0.00     0.013 A 
ATOM     17  C   UNL     1      41.364  19.262  -0.460  1.00  0.00     0.047 A 
BRANCH  15  18
ATOM     18  O   UNL     1      40.925  21.648  -0.368  1.00  0.00    -0.508 OA
ATOM     19  H   UNL     1      41.332  22.573  -0.428  1.00  0.00     0.293 HD
ENDBRANCH  15  18
ENDBRANCH   1  12
BRANCH  11  20
ATOM     20  C   UNL     1      46.924  13.769  -4.709  1.00  0.00     0.188 C 
ATOM     21  C   UNL     1      47.777  14.606  -5.691  1.00  0.00     0.179 C 
ATOM     22  O   UNL     1      47.379  13.995  -3.381  1.00  0.00    -0.362 OA
ATOM     23  C   UNL     1      49.250  14.165  -5.596  1.00  0.00     0.177 C 
ATOM     24  C   UNL     1      48.709  13.536  -3.163  1.00  0.00     0.176 C 
ATOM     25  C   UNL     1      49.721  14.207  -4.130  1.00  0.00     0.177 C 
BRANCH  21  26
ATOM     26  O   UNL     1      47.679  15.970  -5.363  1.00  0.00    -0.387 OA
ATOM     27  H   UNL     1      46.712  16.177  -5.282  1.00  0.00     0.211 HD
ENDBRANCH  21  26
BRANCH  23  28
ATOM     28  O   UNL     1      49.414  12.872  -6.124  1.00  0.00    -0.387 OA
ATOM     29  H   UNL     1      50.379  12.768  -6.335  1.00  0.00     0.211 HD
ENDBRANCH  23  28
BRANCH  24  30
ATOM     30  C   UNL     1      48.787  11.991  -3.094  1.00  0.00     0.191 C 
BRANCH  30  31
ATOM     31  O   UNL     1      49.636  11.578  -2.056  1.00  0.00    -0.394 OA
ATOM     32  H   UNL     1      49.976  12.402  -1.620  1.00  0.00     0.210 HD
ENDBRANCH  30  31
ENDBRANCH  24  30
BRANCH  25  33
ATOM     33  O   UNL     1      50.993  13.622  -4.001  1.00  0.00    -0.388 OA
ATOM     34  H   UNL     1      50.882  12.812  -3.438  1.00  0.00     0.211 HD
ENDBRANCH  25  33
ENDBRANCH  11  20
BRANCH  10  35
ATOM     35  O   UNL     1      45.292  11.953  -6.104  1.00  0.00    -0.507 OA
ATOM     36  H   UNL     1      45.062  11.693  -7.056  1.00  0.00     0.293 HD
ENDBRANCH  10  35
TORSDOF 9
ENDMDL
MODEL 2
REMARK VINA RESULT:    -5.326      1.893      8.086
REMARK INTER + INTRA:          -8.088
REMARK INTER:                  -7.263
REMARK INTRA:                  -0.825
REMARK UNBOUND:                -0.893
REMARK SMILES O=c1c(-c2ccc(O)cc2)coc2c([C@@H]3O[C@@H](CO)[C@@H](O)[C@@H](O)[C@@H]3O)c(O)ccc12
REMARK SMILES IDX 3 1 11 2 12 3 13 4 30 5 2 6 1 7 29 8 28 9 26 10 14 11 4 12
REMARK SMILES IDX 5 13 6 14 7 15 10 16 9 17 8 18 15 20 24 21 16 22 22 23 17 24
REMARK SMILES IDX 20 25 25 26 23 28 18 30 19 31 21 33 27 35
REMARK H PARENT 8 19 25 27 23 29 19 32 21 34 27 36
REMARK Flexibility Score: inf
ROOT
ATOM      1  C   UNL     1      45.556  14.357  -3.270  1.00  0.00     0.065 A 
ATOM      2  C   UNL     1      45.220  15.396  -2.394  1.00  0.00     0.208 A 
ATOM      3  O   UNL     1      44.221  16.223  -2.670  1.00  0.00    -0.463 OA
ATOM      4  C   UNL     1      43.474  16.143  -3.767  1.00  0.00     0.147 A 
ATOM      5  C   UNL     1      43.740  15.108  -4.700  1.00  0.00     0.066 A 
ATOM      6  C   UNL     1      44.793  14.209  -4.440  1.00  0.00     0.200 A 
ATOM      7  O   UNL     1      45.036  13.263  -5.240  1.00  0.00    -0.288 OA
ATOM      8  C   UNL     1      42.951  14.986  -5.851  1.00  0.00     0.020 A 
ATOM      9  C   UNL     1      41.901  15.867  -6.075  1.00  0.00     0.047 A 
ATOM     10  C   UNL     1      41.624  16.893  -5.167  1.00  0.00     0.125 A 
ATOM     11  C   UNL     1      42.417  17.072  -4.006  1.00  0.00     0.069 A 
ENDROOT
BRANCH   1  12
ATOM     12  C   UNL     1      46.686  13.450  -2.946  1.00  0.00    -0.011 A 
ATOM     13  C   UNL     1      47.974  13.715  -3.445  1.00  0.00     0.013 A 
ATOM     14  C   UNL     1      49.038  12.859  -3.148  1.00  0.00     0.047 A 
ATOM     15  C   UNL     1      48.830  11.725  -2.357  1.00  0.00     0.115 A 
ATOM     16  C   UNL     1      46.482  12.304  -2.156  1.00  0.00     0.013 A 
ATOM     17  C   UNL     1      47.549  11.449  -1.862  1.00  0.00     0.047 A 
BRANCH  15  18
ATOM     18  O   UNL     1      49.899  10.880  -2.069  1.00  0.00    -0.508 OA
ATOM     19  H   UNL     1      49.896   9.907  -2.351  1.00  0.00     0.293 HD
ENDBRANCH  15  18
ENDBRANCH   1  12
BRANCH  11  20
ATOM     20  C   UNL     1      42.032  18.241  -3.083  1.00  0.00     0.188 C 
ATOM     21  C   UNL     1      41.287  17.907  -1.771  1.00  0.00     0.179 C 
ATOM     22  O   UNL     1      43.211  18.976  -2.782  1.00  0.00    -0.362 OA
ATOM     23  C   UNL     1      40.882  19.214  -1.063  1.00  0.00     0.177 C 
ATOM     24  C   UNL     1      42.940  20.249  -2.203  1.00  0.00     0.176 C 
ATOM     25  C   UNL     1      42.110  20.128  -0.897  1.00  0.00     0.177 C 
BRANCH  21  26
ATOM     26  O   UNL     1      42.128  17.162  -0.924  1.00  0.00    -0.387 OA
ATOM     27  H   UNL     1      43.047  17.243  -1.289  1.00  0.00     0.211 HD
ENDBRANCH  21  26
BRANCH  23  28
ATOM     28  O   UNL     1      39.875  19.876  -1.786  1.00  0.00    -0.387 OA
ATOM     29  H   UNL     1      39.295  20.331  -1.122  1.00  0.00     0.211 HD
ENDBRANCH  23  28
BRANCH  24  30
ATOM     30  C   UNL     1      42.390  21.256  -3.243  1.00  0.00     0.191 C 
BRANCH  30  31
ATOM     31  O   UNL     1      43.092  21.158  -4.454  1.00  0.00    -0.394 OA
ATOM     32  H   UNL     1      42.415  21.179  -5.179  1.00  0.00     0.210 HD
ENDBRANCH  30  31
ENDBRANCH  24  30
BRANCH  25  33
ATOM     33  O   UNL     1      41.724  21.398  -0.435  1.00  0.00    -0.388 OA
ATOM     34  H   UNL     1      41.019  21.254   0.249  1.00  0.00     0.211 HD
ENDBRANCH  25  33
ENDBRANCH  11  20
BRANCH  10  35
ATOM     35  O   UNL     1      40.544  17.742  -5.418  1.00  0.00    -0.507 OA
ATOM     36  H   UNL     1      39.608  17.386  -5.571  1.00  0.00     0.293 HD
ENDBRANCH  10  35
TORSDOF 9
ENDMDL
MODEL 3
REMARK VINA RESULT:    -5.213      2.191      8.000
REMARK INTER + INTRA:          -7.934
REMARK INTER:                  -8.176
REMARK INTRA:                   0.242
REMARK UNBOUND:                -0.893
REMARK SMILES O=c1c(-c2ccc(O)cc2)coc2c([C@@H]3O[C@@H](CO)[C@@H](O)[C@@H](O)[C@@H]3O)c(O)ccc12
REMARK SMILES IDX 3 1 11 2 12 3 13 4 30 5 2 6 1 7 29 8 28 9 26 10 14 11 4 12
REMARK SMILES IDX 5 13 6 14 7 15 10 16 9 17 8 18 15 20 24 21 16 22 22 23 17 24
REMARK SMILES IDX 20 25 25 26 23 28 18 30 19 31 21 33 27 35
REMARK H PARENT 8 19 25 27 23 29 19 32 21 34 27 36
REMARK Flexibility Score: inf
ROOT
ATOM      1  C   UNL     1      48.748  14.880  -4.515  1.00  0.00     0.065 A 
ATOM      2  C   UNL     1      48.081  16.092  -4.299  1.00  0.00     0.208 A 
ATOM      3  O   UNL     1      46.805  16.112  -3.939  1.00  0.00    -0.463 OA
ATOM      4  C   UNL     1      46.070  15.020  -3.758  1.00  0.00     0.147 A 
ATOM      5  C   UNL     1      46.674  13.750  -3.942  1.00  0.00     0.066 A 
ATOM      6  C   UNL     1      48.029  13.689  -4.322  1.00  0.00     0.200 A 
ATOM      7  O   UNL     1      48.601  12.573  -4.469  1.00  0.00    -0.288 OA
ATOM      8  C   UNL     1      45.928  12.583  -3.731  1.00  0.00     0.020 A 
ATOM      9  C   UNL     1      44.601  12.666  -3.331  1.00  0.00     0.047 A 
ATOM     10  C   UNL     1      43.987  13.908  -3.145  1.00  0.00     0.125 A 
ATOM     11  C   UNL     1      44.696  15.113  -3.378  1.00  0.00     0.069 A 
ENDROOT
BRANCH   1  12
ATOM     12  C   UNL     1      50.174  14.882  -4.928  1.00  0.00    -0.011 A 
ATOM     13  C   UNL     1      50.894  16.089  -4.987  1.00  0.00     0.013 A 
ATOM     14  C   UNL     1      52.234  16.095  -5.383  1.00  0.00     0.047 A 
ATOM     15  C   UNL     1      52.871  14.900  -5.731  1.00  0.00     0.115 A 
ATOM     16  C   UNL     1      50.819  13.684  -5.286  1.00  0.00     0.013 A 
ATOM     17  C   UNL     1      52.160  13.694  -5.682  1.00  0.00     0.047 A 
BRANCH  15  18
ATOM     18  O   UNL     1      54.208  14.920  -6.124  1.00  0.00    -0.508 OA
ATOM     19  H   UNL     1      54.953  15.087  -5.459  1.00  0.00     0.293 HD
ENDBRANCH  15  18
ENDBRANCH   1  12
BRANCH  11  20
ATOM     20  C   UNL     1      43.919  16.422  -3.156  1.00  0.00     0.188 C 
ATOM     21  C   UNL     1      44.453  17.701  -3.840  1.00  0.00     0.179 C 
ATOM     22  O   UNL     1      42.569  16.208  -3.545  1.00  0.00    -0.362 OA
ATOM     23  C   UNL     1      43.615  18.913  -3.389  1.00  0.00     0.177 C 
ATOM     24  C   UNL     1      41.691  17.235  -3.095  1.00  0.00     0.176 C 
ATOM     25  C   UNL     1      42.117  18.633  -3.615  1.00  0.00     0.177 C 
BRANCH  21  26
ATOM     26  O   UNL     1      44.360  17.567  -5.238  1.00  0.00    -0.387 OA
ATOM     27  H   UNL     1      45.289  17.539  -5.586  1.00  0.00     0.211 HD
ENDBRANCH  21  26
BRANCH  23  28
ATOM     28  O   UNL     1      43.858  19.206  -2.036  1.00  0.00    -0.387 OA
ATOM     29  H   UNL     1      44.208  18.376  -1.620  1.00  0.00     0.211 HD
ENDBRANCH  23  28
BRANCH  24  30
ATOM     30  C   UNL     1      41.429  17.149  -1.571  1.00  0.00     0.191 C 
BRANCH  30  31
ATOM     31  O   UNL     1      41.097  15.839  -1.193  1.00  0.00    -0.394 OA
ATOM     32  H   UNL     1      41.144  15.284  -2.015  1.00  0.00     0.210 HD
ENDBRANCH  30  31
ENDBRANCH  24  30
BRANCH  25  33
ATOM     33  O   UNL     1      41.332  19.641  -3.029  1.00  0.00    -0.388 OA
ATOM     34  H   UNL     1      40.971  20.193  -3.771  1.00  0.00     0.211 HD
ENDBRANCH  25  33
ENDBRANCH  11  20
BRANCH  10  35
ATOM     35  O   UNL     1      42.658  13.947  -2.718  1.00  0.00    -0.507 OA
ATOM     36  H   UNL     1      42.144  14.817  -2.649  1.00  0.00     0.293 HD
ENDBRANCH  10  35
TORSDOF 9
ENDMDL
MODEL 4
REMARK VINA RESULT:    -5.000      2.083      7.968
REMARK INTER + INTRA:          -7.647
REMARK INTER:                  -7.568
REMARK INTRA:                  -0.079
REMARK UNBOUND:                -0.893
REMARK SMILES O=c1c(-c2ccc(O)cc2)coc2c([C@@H]3O[C@@H](CO)[C@@H](O)[C@@H](O)[C@@H]3O)c(O)ccc12
REMARK SMILES IDX 3 1 11 2 12 3 13 4 30 5 2 6 1 7 29 8 28 9 26 10 14 11 4 12
REMARK SMILES IDX 5 13 6 14 7 15 10 16 9 17 8 18 15 20 24 21 16 22 22 23 17 24
REMARK SMILES IDX 20 25 25 26 23 28 18 30 19 31 21 33 27 35
REMARK H PARENT 8 19 25 27 23 29 19 32 21 34 27 36
REMARK Flexibility Score: inf
ROOT
ATOM      1  C   UNL     1      47.830  15.412  -4.488  1.00  0.00     0.065 A 
ATOM      2  C   UNL     1      47.032  16.562  -4.486  1.00  0.00     0.208 A 
ATOM      3  O   UNL     1      45.742  16.496  -4.183  1.00  0.00    -0.463 OA
ATOM      4  C   UNL     1      45.113  15.369  -3.866  1.00  0.00     0.147 A 
ATOM      5  C   UNL     1      45.854  14.160  -3.830  1.00  0.00     0.066 A 
ATOM      6  C   UNL     1      47.226  14.191  -4.143  1.00  0.00     0.200 A 
ATOM      7  O   UNL     1      47.916  13.135  -4.095  1.00  0.00    -0.288 OA
ATOM      8  C   UNL     1      45.219  12.962  -3.472  1.00  0.00     0.020 A 
ATOM      9  C   UNL     1      43.871  12.958  -3.141  1.00  0.00     0.047 A 
ATOM     10  C   UNL     1      43.125  14.139  -3.171  1.00  0.00     0.125 A 
ATOM     11  C   UNL     1      43.719  15.367  -3.558  1.00  0.00     0.069 A 
ENDROOT
BRANCH   1  12
ATOM     12  C   UNL     1      49.268  15.508  -4.840  1.00  0.00    -0.011 A 
ATOM     13  C   UNL     1      50.190  14.584  -4.317  1.00  0.00     0.013 A 
ATOM     14  C   UNL     1      51.547  14.676  -4.641  1.00  0.00     0.047 A 
ATOM     15  C   UNL     1      52.001  15.694  -5.485  1.00  0.00     0.115 A 
ATOM     16  C   UNL     1      49.734  16.534  -5.684  1.00  0.00     0.013 A 
ATOM     17  C   UNL     1      51.091  16.624  -6.005  1.00  0.00     0.047 A 
BRANCH  15  18
ATOM     18  O   UNL     1      53.356  15.775  -5.800  1.00  0.00    -0.508 OA
ATOM     19  H   UNL     1      53.790  15.125  -6.443  1.00  0.00     0.293 HD
ENDBRANCH  15  18
ENDBRANCH   1  12
BRANCH  11  20
ATOM     20  C   UNL     1      42.801  16.602  -3.568  1.00  0.00     0.188 C 
ATOM     21  C   UNL     1      42.035  16.918  -4.874  1.00  0.00     0.179 C 
ATOM     22  O   UNL     1      41.875  16.475  -2.497  1.00  0.00    -0.362 OA
ATOM     23  C   UNL     1      41.283  18.253  -4.717  1.00  0.00     0.177 C 
ATOM     24  C   UNL     1      41.187  17.689  -2.211  1.00  0.00     0.176 C 
ATOM     25  C   UNL     1      40.414  18.224  -3.446  1.00  0.00     0.177 C 
BRANCH  21  26
ATOM     26  O   UNL     1      41.110  15.893  -5.143  1.00  0.00    -0.387 OA
ATOM     27  H   UNL     1      40.485  16.244  -5.829  1.00  0.00     0.211 HD
ENDBRANCH  21  26
BRANCH  23  28
ATOM     28  O   UNL     1      42.188  19.328  -4.664  1.00  0.00    -0.387 OA
ATOM     29  H   UNL     1      41.766  20.033  -4.107  1.00  0.00     0.211 HD
ENDBRANCH  23  28
BRANCH  24  30
ATOM     30  C   UNL     1      42.100  18.721  -1.506  1.00  0.00     0.191 C 
BRANCH  30  31
ATOM     31  O   UNL     1      41.862  18.738  -0.123  1.00  0.00    -0.394 OA
ATOM     32  H   UNL     1      42.685  18.397   0.313  1.00  0.00     0.210 HD
ENDBRANCH  30  31
ENDBRANCH  24  30
BRANCH  25  33
ATOM     33  O   UNL     1      39.878  19.497  -3.183  1.00  0.00    -0.388 OA
ATOM     34  H   UNL     1      40.611  20.043  -2.796  1.00  0.00     0.211 HD
ENDBRANCH  25  33
ENDBRANCH  11  20
BRANCH  10  35
ATOM     35  O   UNL     1      41.777  14.096  -2.807  1.00  0.00    -0.507 OA
ATOM     36  H   UNL     1      41.213  13.265  -2.943  1.00  0.00     0.293 HD
ENDBRANCH  10  35
TORSDOF 9
ENDMDL
MODEL 5
REMARK VINA RESULT:    -4.911      1.174      2.209
REMARK INTER + INTRA:          -7.526
REMARK INTER:                  -6.569
REMARK INTRA:                  -0.957
REMARK UNBOUND:                -0.893
REMARK SMILES O=c1c(-c2ccc(O)cc2)coc2c([C@@H]3O[C@@H](CO)[C@@H](O)[C@@H](O)[C@@H]3O)c(O)ccc12
REMARK SMILES IDX 3 1 11 2 12 3 13 4 30 5 2 6 1 7 29 8 28 9 26 10 14 11 4 12
REMARK SMILES IDX 5 13 6 14 7 15 10 16 9 17 8 18 15 20 24 21 16 22 22 23 17 24
REMARK SMILES IDX 20 25 25 26 23 28 18 30 19 31 21 33 27 35
REMARK H PARENT 8 19 25 27 23 29 19 32 21 34 27 36
REMARK Flexibility Score: inf
ROOT
ATOM      1  C   UNL     1      43.356  17.275  -2.861  1.00  0.00     0.065 A 
ATOM      2  C   UNL     1      44.502  16.732  -2.269  1.00  0.00     0.208 A 
ATOM      3  O   UNL     1      45.073  15.641  -2.763  1.00  0.00    -0.463 OA
ATOM      4  C   UNL     1      44.621  14.988  -3.829  1.00  0.00     0.147 A 
ATOM      5  C   UNL     1      43.472  15.481  -4.497  1.00  0.00     0.066 A 
ATOM      6  C   UNL     1      42.840  16.639  -4.003  1.00  0.00     0.200 A 
ATOM      7  O   UNL     1      41.831  17.116  -4.591  1.00  0.00    -0.288 OA
ATOM      8  C   UNL     1      42.992  14.826  -5.639  1.00  0.00     0.020 A 
ATOM      9  C   UNL     1      43.645  13.701  -6.125  1.00  0.00     0.047 A 
ATOM     10  C   UNL     1      44.780  13.200  -5.480  1.00  0.00     0.125 A 
ATOM     11  C   UNL     1      45.280  13.813  -4.304  1.00  0.00     0.069 A 
ENDROOT
BRANCH   1  12
ATOM     12  C   UNL     1      42.728  18.490  -2.284  1.00  0.00    -0.011 A 
ATOM     13  C   UNL     1      43.042  19.761  -2.797  1.00  0.00     0.013 A 
ATOM     14  C   UNL     1      42.458  20.908  -2.252  1.00  0.00     0.047 A 
ATOM     15  C   UNL     1      41.561  20.802  -1.184  1.00  0.00     0.115 A 
ATOM     16  C   UNL     1      41.829  18.391  -1.207  1.00  0.00     0.013 A 
ATOM     17  C   UNL     1      41.248  19.540  -0.663  1.00  0.00     0.047 A 
BRANCH  15  18
ATOM     18  O   UNL     1      40.986  21.953  -0.650  1.00  0.00    -0.508 OA
ATOM     19  H   UNL     1      40.413  21.920   0.185  1.00  0.00     0.293 HD
ENDBRANCH  15  18
ENDBRANCH   1  12
BRANCH  11  20
ATOM     20  C   UNL     1      46.525  13.170  -3.669  1.00  0.00     0.188 C 
ATOM     21  C   UNL     1      46.311  11.957  -2.734  1.00  0.00     0.179 C 
ATOM     22  O   UNL     1      47.418  12.807  -4.714  1.00  0.00    -0.362 OA
ATOM     23  C   UNL     1      47.657  11.549  -2.107  1.00  0.00     0.177 C 
ATOM     24  C   UNL     1      48.726  12.495  -4.244  1.00  0.00     0.176 C 
ATOM     25  C   UNL     1      48.712  11.338  -3.209  1.00  0.00     0.177 C 
BRANCH  21  26
ATOM     26  O   UNL     1      45.793  10.875  -3.469  1.00  0.00    -0.387 OA
ATOM     27  H   UNL     1      46.483  10.627  -4.137  1.00  0.00     0.211 HD
ENDBRANCH  21  26
BRANCH  23  28
ATOM     28  O   UNL     1      48.094  12.524  -1.193  1.00  0.00    -0.387 OA
ATOM     29  H   UNL     1      48.214  12.068  -0.320  1.00  0.00     0.211 HD
ENDBRANCH  23  28
BRANCH  24  30
ATOM     30  C   UNL     1      49.503  13.762  -3.807  1.00  0.00     0.191 C 
BRANCH  30  31
ATOM     31  O   UNL     1      50.842  13.694  -4.221  1.00  0.00    -0.394 OA
ATOM     32  H   UNL     1      51.310  13.101  -3.577  1.00  0.00     0.210 HD
ENDBRANCH  30  31
ENDBRANCH  24  30
BRANCH  25  33
ATOM     33  O   UNL     1      49.988  11.160  -2.647  1.00  0.00    -0.388 OA
ATOM     34  H   UNL     1      50.157  11.944  -2.062  1.00  0.00     0.211 HD
ENDBRANCH  25  33
ENDBRANCH  11  20
BRANCH  10  35
ATOM     35  O   UNL     1      45.421  12.081  -6.016  1.00  0.00    -0.507 OA
ATOM     36  H   UNL     1      45.055  11.145  -5.892  1.00  0.00     0.293 HD
ENDBRANCH  10  35
TORSDOF 9
ENDMDL
MODEL 6
REMARK VINA RESULT:    -4.820      1.798      8.108
REMARK INTER + INTRA:          -7.404
REMARK INTER:                  -7.415
REMARK INTRA:                   0.011
REMARK UNBOUND:                -0.893
REMARK SMILES O=c1c(-c2ccc(O)cc2)coc2c([C@@H]3O[C@@H](CO)[C@@H](O)[C@@H](O)[C@@H]3O)c(O)ccc12
REMARK SMILES IDX 3 1 11 2 12 3 13 4 30 5 2 6 1 7 29 8 28 9 26 10 14 11 4 12
REMARK SMILES IDX 5 13 6 14 7 15 10 16 9 17 8 18 15 20 24 21 16 22 22 23 17 24
REMARK SMILES IDX 20 25 25 26 23 28 18 30 19 31 21 33 27 35
REMARK H PARENT 8 19 25 27 23 29 19 32 21 34 27 36
REMARK Flexibility Score: inf
ROOT
ATOM      1  C   UNL     1      46.569  15.729  -4.475  1.00  0.00     0.065 A 
ATOM      2  C   UNL     1      46.195  16.800  -3.654  1.00  0.00     0.208 A 
ATOM      3  O   UNL     1      44.922  17.148  -3.526  1.00  0.00    -0.463 OA
ATOM      4  C   UNL     1      43.920  16.533  -4.147  1.00  0.00     0.147 A 
ATOM      5  C   UNL     1      44.212  15.428  -4.986  1.00  0.00     0.066 A 
ATOM      6  C   UNL     1      45.552  15.027  -5.144  1.00  0.00     0.200 A 
ATOM      7  O   UNL     1      45.840  14.031  -5.865  1.00  0.00    -0.288 OA
ATOM      8  C   UNL     1      43.171  14.746  -5.630  1.00  0.00     0.020 A 
ATOM      9  C   UNL     1      41.853  15.141  -5.439  1.00  0.00     0.047 A 
ATOM     10  C   UNL     1      41.546  16.228  -4.616  1.00  0.00     0.125 A 
ATOM     11  C   UNL     1      42.571  16.966  -3.971  1.00  0.00     0.069 A 
ENDROOT
BRANCH   1  12
ATOM     12  C   UNL     1      48.000  15.364  -4.611  1.00  0.00    -0.011 A 
ATOM     13  C   UNL     1      48.507  14.226  -3.958  1.00  0.00     0.013 A 
ATOM     14  C   UNL     1      49.857  13.883  -4.078  1.00  0.00     0.047 A 
ATOM     15  C   UNL     1      50.719  14.674  -4.845  1.00  0.00     0.115 A 
ATOM     16  C   UNL     1      48.875  16.158  -5.376  1.00  0.00     0.013 A 
ATOM     17  C   UNL     1      50.224  15.813  -5.494  1.00  0.00     0.047 A 
BRANCH  15  18
ATOM     18  O   UNL     1      52.062  14.321  -4.956  1.00  0.00    -0.508 OA
ATOM     19  H   UNL     1      52.420  13.852  -5.779  1.00  0.00     0.293 HD
ENDBRANCH  15  18
ENDBRANCH   1  12
BRANCH  11  20
ATOM     20  C   UNL     1      42.120  18.151  -3.100  1.00  0.00     0.188 C 
ATOM     21  C   UNL     1      41.303  17.839  -1.825  1.00  0.00     0.179 C 
ATOM     22  O   UNL     1      43.273  18.906  -2.747  1.00  0.00    -0.362 OA
ATOM     23  C   UNL     1      40.844  19.157  -1.173  1.00  0.00     0.177 C 
ATOM     24  C   UNL     1      42.956  20.188  -2.215  1.00  0.00     0.176 C 
ATOM     25  C   UNL     1      42.052  20.087  -0.957  1.00  0.00     0.177 C 
BRANCH  21  26
ATOM     26  O   UNL     1      42.099  17.122  -0.914  1.00  0.00    -0.387 OA
ATOM     27  H   UNL     1      41.481  16.703  -0.260  1.00  0.00     0.211 HD
ENDBRANCH  21  26
BRANCH  23  28
ATOM     28  O   UNL     1      39.875  19.792  -1.970  1.00  0.00    -0.387 OA
ATOM     29  H   UNL     1      39.521  20.553  -1.440  1.00  0.00     0.211 HD
ENDBRANCH  23  28
BRANCH  24  30
ATOM     30  C   UNL     1      42.458  21.165  -3.308  1.00  0.00     0.191 C 
BRANCH  30  31
ATOM     31  O   UNL     1      43.248  21.066  -4.464  1.00  0.00    -0.394 OA
ATOM     32  H   UNL     1      42.662  21.298  -5.231  1.00  0.00     0.210 HD
ENDBRANCH  30  31
ENDBRANCH  24  30
BRANCH  25  33
ATOM     33  O   UNL     1      41.627  21.364  -0.548  1.00  0.00    -0.388 OA
ATOM     34  H   UNL     1      40.734  21.514  -0.955  1.00  0.00     0.211 HD
ENDBRANCH  25  33
ENDBRANCH  11  20
BRANCH  10  35
ATOM     35  O   UNL     1      40.207  16.578  -4.431  1.00  0.00    -0.507 OA
ATOM     36  H   UNL     1      39.640  16.941  -5.189  1.00  0.00     0.293 HD
ENDBRANCH  10  35
TORSDOF 9
ENDMDL
MODEL 7
REMARK VINA RESULT:    -4.817      2.077      7.970
REMARK INTER + INTRA:          -7.400
REMARK INTER:                  -7.082
REMARK INTRA:                  -0.317
REMARK UNBOUND:                -0.893
REMARK SMILES O=c1c(-c2ccc(O)cc2)coc2c([C@@H]3O[C@@H](CO)[C@@H](O)[C@@H](O)[C@@H]3O)c(O)ccc12
REMARK SMILES IDX 3 1 11 2 12 3 13 4 30 5 2 6 1 7 29 8 28 9 26 10 14 11 4 12
REMARK SMILES IDX 5 13 6 14 7 15 10 16 9 17 8 18 15 20 24 21 16 22 22 23 17 24
REMARK SMILES IDX 20 25 25 26 23 28 18 30 19 31 21 33 27 35
REMARK H PARENT 8 19 25 27 23 29 19 32 21 34 27 36
REMARK Flexibility Score: inf
ROOT
ATOM      1  C   UNL     1      48.089  15.016  -4.542  1.00  0.00     0.065 A 
ATOM      2  C   UNL     1      47.271  16.144  -4.402  1.00  0.00     0.208 A 
ATOM      3  O   UNL     1      45.996  16.022  -4.059  1.00  0.00    -0.463 OA
ATOM      4  C   UNL     1      45.399  14.857  -3.827  1.00  0.00     0.147 A 
ATOM      5  C   UNL     1      46.162  13.666  -3.933  1.00  0.00     0.066 A 
ATOM      6  C   UNL     1      47.520  13.756  -4.292  1.00  0.00     0.200 A 
ATOM      7  O   UNL     1      48.230  12.714  -4.369  1.00  0.00    -0.288 OA
ATOM      8  C   UNL     1      45.563  12.427  -3.666  1.00  0.00     0.020 A 
ATOM      9  C   UNL     1      44.228  12.364  -3.288  1.00  0.00     0.047 A 
ATOM     10  C   UNL     1      43.461  13.527  -3.178  1.00  0.00     0.125 A 
ATOM     11  C   UNL     1      44.018  14.797  -3.469  1.00  0.00     0.069 A 
ENDROOT
BRANCH   1  12
ATOM     12  C   UNL     1      49.511  15.175  -4.937  1.00  0.00    -0.011 A 
ATOM     13  C   UNL     1      49.936  16.339  -5.601  1.00  0.00     0.013 A 
ATOM     14  C   UNL     1      51.273  16.489  -5.981  1.00  0.00     0.047 A 
ATOM     15  C   UNL     1      52.199  15.477  -5.710  1.00  0.00     0.115 A 
ATOM     16  C   UNL     1      50.447  14.158  -4.673  1.00  0.00     0.013 A 
ATOM     17  C   UNL     1      51.783  14.311  -5.055  1.00  0.00     0.047 A 
BRANCH  15  18
ATOM     18  O   UNL     1      53.529  15.639  -6.094  1.00  0.00    -0.508 OA
ATOM     19  H   UNL     1      53.781  16.179  -6.913  1.00  0.00     0.293 HD
ENDBRANCH  15  18
ENDBRANCH   1  12
BRANCH  11  20
ATOM     20  C   UNL     1      43.080  16.008  -3.330  1.00  0.00     0.188 C 
ATOM     21  C   UNL     1      43.278  16.936  -2.110  1.00  0.00     0.179 C 
ATOM     22  O   UNL     1      43.165  16.775  -4.524  1.00  0.00    -0.362 OA
ATOM     23  C   UNL     1      42.165  18.001  -2.088  1.00  0.00     0.177 C 
ATOM     24  C   UNL     1      42.119  17.735  -4.644  1.00  0.00     0.176 C 
ATOM     25  C   UNL     1      42.097  18.723  -3.447  1.00  0.00     0.177 C 
BRANCH  21  26
ATOM     26  O   UNL     1      44.529  17.574  -2.196  1.00  0.00    -0.387 OA
ATOM     27  H   UNL     1      45.204  16.929  -1.860  1.00  0.00     0.211 HD
ENDBRANCH  21  26
BRANCH  23  28
ATOM     28  O   UNL     1      40.925  17.414  -1.785  1.00  0.00    -0.387 OA
ATOM     29  H   UNL     1      40.346  17.536  -2.582  1.00  0.00     0.211 HD
ENDBRANCH  23  28
BRANCH  24  30
ATOM     30  C   UNL     1      40.760  17.074  -4.980  1.00  0.00     0.191 C 
BRANCH  30  31
ATOM     31  O   UNL     1      39.914  17.978  -5.641  1.00  0.00    -0.394 OA
ATOM     32  H   UNL     1      39.360  17.445  -6.269  1.00  0.00     0.210 HD
ENDBRANCH  30  31
ENDBRANCH  24  30
BRANCH  25  33
ATOM     33  O   UNL     1      40.965  19.554  -3.510  1.00  0.00    -0.388 OA
ATOM     34  H   UNL     1      40.947  20.081  -2.670  1.00  0.00     0.211 HD
ENDBRANCH  25  33
ENDBRANCH  11  20
BRANCH  10  35
ATOM     35  O   UNL     1      42.130  13.421  -2.771  1.00  0.00    -0.507 OA
ATOM     36  H   UNL     1      41.814  13.781  -1.878  1.00  0.00     0.293 HD
ENDBRANCH  10  35
TORSDOF 9
ENDMDL
MODEL 8
REMARK VINA RESULT:    -4.545      2.150      2.610
REMARK INTER + INTRA:          -7.032
REMARK INTER:                  -6.038
REMARK INTRA:                  -0.994
REMARK UNBOUND:                -0.893
REMARK SMILES O=c1c(-c2ccc(O)cc2)coc2c([C@@H]3O[C@@H](CO)[C@@H](O)[C@@H](O)[C@@H]3O)c(O)ccc12
REMARK SMILES IDX 3 1 11 2 12 3 13 4 30 5 2 6 1 7 29 8 28 9 26 10 14 11 4 12
REMARK SMILES IDX 5 13 6 14 7 15 10 16 9 17 8 18 15 20 24 21 16 22 22 23 17 24
REMARK SMILES IDX 20 25 25 26 23 28 18 30 19 31 21 33 27 35
REMARK H PARENT 8 19 25 27 23 29 19 32 21 34 27 36
REMARK Flexibility Score: inf
ROOT
ATOM      1  C   UNL     1      42.831  17.325  -4.204  1.00  0.00     0.065 A 
ATOM      2  C   UNL     1      44.179  16.948  -4.195  1.00  0.00     0.208 A 
ATOM      3  O   UNL     1      44.534  15.696  -3.941  1.00  0.00    -0.463 OA
ATOM      4  C   UNL     1      43.671  14.720  -3.678  1.00  0.00     0.147 A 
ATOM      5  C   UNL     1      42.284  15.015  -3.682  1.00  0.00     0.066 A 
ATOM      6  C   UNL     1      41.868  16.333  -3.951  1.00  0.00     0.200 A 
ATOM      7  O   UNL     1      40.639  16.620  -3.986  1.00  0.00    -0.288 OA
ATOM      8  C   UNL     1      41.352  13.997  -3.434  1.00  0.00     0.020 A 
ATOM      9  C   UNL     1      41.783  12.699  -3.197  1.00  0.00     0.047 A 
ATOM     10  C   UNL     1      43.146  12.388  -3.189  1.00  0.00     0.125 A 
ATOM     11  C   UNL     1      44.123  13.393  -3.403  1.00  0.00     0.069 A 
ENDROOT
BRANCH   1  12
ATOM     12  C   UNL     1      42.457  18.734  -4.481  1.00  0.00    -0.011 A 
ATOM     13  C   UNL     1      42.434  19.679  -3.440  1.00  0.00     0.013 A 
ATOM     14  C   UNL     1      42.075  21.006  -3.696  1.00  0.00     0.047 A 
ATOM     15  C   UNL     1      41.727  21.403  -4.991  1.00  0.00     0.115 A 
ATOM     16  C   UNL     1      42.099  19.140  -5.780  1.00  0.00     0.013 A 
ATOM     17  C   UNL     1      41.739  20.467  -6.032  1.00  0.00     0.047 A 
BRANCH  15  18
ATOM     18  O   UNL     1      41.370  22.729  -5.233  1.00  0.00    -0.508 OA
ATOM     19  H   UNL     1      42.021  23.385  -5.647  1.00  0.00     0.293 HD
ENDBRANCH  15  18
ENDBRANCH   1  12
BRANCH  11  20
ATOM     20  C   UNL     1      45.593  12.943  -3.359  1.00  0.00     0.188 C 
ATOM     21  C   UNL     1      46.393  12.965  -4.682  1.00  0.00     0.179 C 
ATOM     22  O   UNL     1      46.269  13.729  -2.386  1.00  0.00    -0.362 OA
ATOM     23  C   UNL     1      47.791  12.360  -4.447  1.00  0.00     0.177 C 
ATOM     24  C   UNL     1      47.542  13.200  -2.031  1.00  0.00     0.176 C 
ATOM     25  C   UNL     1      48.478  13.062  -3.261  1.00  0.00     0.177 C 
BRANCH  21  26
ATOM     26  O   UNL     1      46.532  14.291  -5.131  1.00  0.00    -0.387 OA
ATOM     27  H   UNL     1      47.326  14.311  -5.726  1.00  0.00     0.211 HD
ENDBRANCH  21  26
BRANCH  23  28
ATOM     28  O   UNL     1      47.697  10.978  -4.208  1.00  0.00    -0.387 OA
ATOM     29  H   UNL     1      48.538  10.706  -3.756  1.00  0.00     0.211 HD
ENDBRANCH  23  28
BRANCH  24  30
ATOM     30  C   UNL     1      47.420  11.933  -1.149  1.00  0.00     0.191 C 
BRANCH  30  31
ATOM     31  O   UNL     1      48.640  11.640  -0.521  1.00  0.00    -0.394 OA
ATOM     32  H   UNL     1      49.323  12.232  -0.932  1.00  0.00     0.210 HD
ENDBRANCH  30  31
ENDBRANCH  24  30
BRANCH  25  33
ATOM     33  O   UNL     1      49.664  12.393  -2.910  1.00  0.00    -0.388 OA
ATOM     34  H   UNL     1      49.421  11.716  -2.226  1.00  0.00     0.211 HD
ENDBRANCH  25  33
ENDBRANCH  11  20
BRANCH  10  35
ATOM     35  O   UNL     1      43.535  11.065  -2.972  1.00  0.00    -0.507 OA
ATOM     36  H   UNL     1      44.384  10.685  -3.374  1.00  0.00     0.293 HD
ENDBRANCH  10  35
TORSDOF 9
ENDMDL
MODEL 9
REMARK VINA RESULT:    -4.440      1.901      8.058
REMARK INTER + INTRA:          -6.890
REMARK INTER:                  -6.177
REMARK INTRA:                  -0.714
REMARK UNBOUND:                -0.893
REMARK SMILES O=c1c(-c2ccc(O)cc2)coc2c([C@@H]3O[C@@H](CO)[C@@H](O)[C@@H](O)[C@@H]3O)c(O)ccc12
REMARK SMILES IDX 3 1 11 2 12 3 13 4 30 5 2 6 1 7 29 8 28 9 26 10 14 11 4 12
REMARK SMILES IDX 5 13 6 14 7 15 10 16 9 17 8 18 15 20 24 21 16 22 22 23 17 24
REMARK SMILES IDX 20 25 25 26 23 28 18 30 19 31 21 33 27 35
REMARK H PARENT 8 19 25 27 23 29 19 32 21 34 27 36
REMARK Flexibility Score: inf
ROOT
ATOM      1  C   UNL     1      47.445  15.385  -5.007  1.00  0.00     0.065 A 
ATOM      2  C   UNL     1      47.111  16.570  -4.341  1.00  0.00     0.208 A 
ATOM      3  O   UNL     1      45.848  16.962  -4.242  1.00  0.00    -0.463 OA
ATOM      4  C   UNL     1      44.821  16.288  -4.748  1.00  0.00     0.147 A 
ATOM      5  C   UNL     1      45.072  15.067  -5.426  1.00  0.00     0.066 A 
ATOM      6  C   UNL     1      46.401  14.617  -5.549  1.00  0.00     0.200 A 
ATOM      7  O   UNL     1      46.653  13.522  -6.124  1.00  0.00    -0.288 OA
ATOM      8  C   UNL     1      44.004  14.324  -5.945  1.00  0.00     0.020 A 
ATOM      9  C   UNL     1      42.699  14.773  -5.789  1.00  0.00     0.047 A 
ATOM     10  C   UNL     1      42.432  15.973  -5.125  1.00  0.00     0.125 A 
ATOM     11  C   UNL     1      43.485  16.772  -4.612  1.00  0.00     0.069 A 
ENDROOT
BRANCH   1  12
ATOM     12  C   UNL     1      48.866  14.971  -5.116  1.00  0.00    -0.011 A 
ATOM     13  C   UNL     1      49.728  15.625  -6.014  1.00  0.00     0.013 A 
ATOM     14  C   UNL     1      51.066  15.232  -6.125  1.00  0.00     0.047 A 
ATOM     15  C   UNL     1      51.557  14.180  -5.347  1.00  0.00     0.115 A 
ATOM     16  C   UNL     1      49.366  13.908  -4.341  1.00  0.00     0.013 A 
ATOM     17  C   UNL     1      50.703  13.518  -4.454  1.00  0.00     0.047 A 
BRANCH  15  18
ATOM     18  O   UNL     1      52.892  13.798  -5.467  1.00  0.00    -0.508 OA
ATOM     19  H   UNL     1      53.473  14.138  -6.223  1.00  0.00     0.293 HD
ENDBRANCH  15  18
ENDBRANCH   1  12
BRANCH  11  20
ATOM     20  C   UNL     1      43.077  18.080  -3.912  1.00  0.00     0.188 C 
ATOM     21  C   UNL     1      42.868  19.333  -4.793  1.00  0.00     0.179 C 
ATOM     22  O   UNL     1      41.896  17.830  -3.160  1.00  0.00    -0.362 OA
ATOM     23  C   UNL     1      42.594  20.553  -3.893  1.00  0.00     0.177 C 
ATOM     24  C   UNL     1      41.603  18.866  -2.227  1.00  0.00     0.176 C 
ATOM     25  C   UNL     1      41.440  20.245  -2.921  1.00  0.00     0.177 C 
BRANCH  21  26
ATOM     26  O   UNL     1      41.771  19.133  -5.651  1.00  0.00    -0.387 OA
ATOM     27  H   UNL     1      41.412  20.032  -5.871  1.00  0.00     0.211 HD
ENDBRANCH  21  26
BRANCH  23  28
ATOM     28  O   UNL     1      43.751  20.911  -3.180  1.00  0.00    -0.387 OA
ATOM     29  H   UNL     1      43.451  21.413  -2.378  1.00  0.00     0.211 HD
ENDBRANCH  23  28
BRANCH  24  30
ATOM     30  C   UNL     1      42.566  18.847  -1.015  1.00  0.00     0.191 C 
BRANCH  30  31
ATOM     31  O   UNL     1      41.886  18.492   0.160  1.00  0.00    -0.394 OA
ATOM     32  H   UNL     1      41.051  19.029   0.180  1.00  0.00     0.210 HD
ENDBRANCH  30  31
ENDBRANCH  24  30
BRANCH  25  33
ATOM     33  O   UNL     1      41.309  21.268  -1.967  1.00  0.00    -0.388 OA
ATOM     34  H   UNL     1      41.387  20.842  -1.074  1.00  0.00     0.211 HD
ENDBRANCH  25  33
ENDBRANCH  11  20
BRANCH  10  35
ATOM     35  O   UNL     1      41.104  16.376  -4.968  1.00  0.00    -0.507 OA
ATOM     36  H   UNL     1      40.832  17.351  -5.013  1.00  0.00     0.293 HD
ENDBRANCH  10  35
TORSDOF 9
ENDMDL
