MODEL 1
REMARK VINA RESULT:    -4.387      0.000      0.000
REMARK INTER + INTRA:          -5.247
REMARK INTER:                  -5.156
REMARK INTRA:                  -0.091
REMARK UNBOUND:                -0.091
REMARK SMILES CCCCC(=O)[O-]
REMARK SMILES IDX 4 1 5 2 6 3 7 4 3 5 2 6 1 7
REMARK H PARENT
REMARK Flexibility Score: inf
ROOT
ATOM      1  C   UNL     1      -0.838   2.384  -2.631  1.00  0.00     0.053 C 
ENDROOT
BRANCH   1   2
ATOM      2  C   UNL     1       0.411   3.129  -2.987  1.00  0.00     0.041 C 
ATOM      3  O   UNL     1       0.785   4.109  -2.292  1.00  0.00    -0.550 OA
ATOM      4  O   UNL     1       1.179   2.720  -4.071  1.00  0.00    -0.550 OA
ENDBRANCH   1   2
BRANCH   1   5
ATOM      5  C   UNL     1      -0.849   1.955  -1.155  1.00  0.00     0.006 C 
BRANCH   5   6
ATOM      6  C   UNL     1      -2.174   2.245  -0.426  1.00  0.00    -0.003 C 
ATOM      7  C   UNL     1      -2.563   3.722  -0.466  1.00  0.00     0.004 C 
ENDBRANCH   5   6
ENDBRANCH   1   5
TORSDOF 3
ENDMDL
MODEL 2
REMARK VINA RESULT:    -4.366      2.600      4.112
REMARK INTER + INTRA:          -5.223
REMARK INTER:                  -5.204
REMARK INTRA:                  -0.019
REMARK UNBOUND:                -0.091
REMARK SMILES CCCCC(=O)[O-]
REMARK SMILES IDX 4 1 5 2 6 3 7 4 3 5 2 6 1 7
REMARK H PARENT
REMARK Flexibility Score: inf
ROOT
ATOM      1  C   UNL     1      -1.156   3.672  -1.482  1.00  0.00     0.053 C 
ENDROOT
BRANCH   1   2
ATOM      2  C   UNL     1      -2.154   2.964  -0.620  1.00  0.00     0.041 C 
ATOM      3  O   UNL     1      -1.852   1.878  -0.060  1.00  0.00    -0.550 OA
ATOM      4  O   UNL     1      -3.410   3.520  -0.410  1.00  0.00    -0.550 OA
ENDBRANCH   1   2
BRANCH   1   5
ATOM      5  C   UNL     1      -0.574   2.749  -2.564  1.00  0.00     0.006 C 
BRANCH   5   6
ATOM      6  C   UNL     1       0.627   3.345  -3.321  1.00  0.00    -0.003 C 
ATOM      7  C   UNL     1       1.006   2.539  -4.563  1.00  0.00     0.004 C 
ENDBRANCH   5   6
ENDBRANCH   1   5
TORSDOF 3
ENDMDL
MODEL 3
REMARK VINA RESULT:    -4.312      2.356      3.795
REMARK INTER + INTRA:          -5.158
REMARK INTER:                  -5.088
REMARK INTRA:                  -0.071
REMARK UNBOUND:                -0.091
REMARK SMILES CCCCC(=O)[O-]
REMARK SMILES IDX 4 1 5 2 6 3 7 4 3 5 2 6 1 7
REMARK H PARENT
REMARK Flexibility Score: inf
ROOT
ATOM      1  C   UNL     1      -0.893   4.229  -1.532  1.00  0.00     0.053 C 
ENDROOT
BRANCH   1   2
ATOM      2  C   UNL     1      -1.577   3.140  -0.765  1.00  0.00     0.041 C 
ATOM      3  O   UNL     1      -2.827   3.005  -0.833  1.00  0.00    -0.550 OA
ATOM      4  O   UNL     1      -0.831   2.255   0.003  1.00  0.00    -0.550 OA
ENDBRANCH   1   2
BRANCH   1   5
ATOM      5  C   UNL     1       0.330   3.706  -2.303  1.00  0.00     0.006 C 
BRANCH   5   6
ATOM      6  C   UNL     1      -0.010   2.679  -3.399  1.00  0.00    -0.003 C 
ATOM      7  C   UNL     1       1.049   2.614  -4.500  1.00  0.00     0.004 C 
ENDBRANCH   5   6
ENDBRANCH   1   5
TORSDOF 3
ENDMDL
MODEL 4
REMARK VINA RESULT:    -3.889     12.026     12.783
REMARK INTER + INTRA:          -4.662
REMARK INTER:                  -4.577
REMARK INTRA:                  -0.086
REMARK UNBOUND:                -0.091
REMARK SMILES CCCCC(=O)[O-]
REMARK SMILES IDX 4 1 5 2 6 3 7 4 3 5 2 6 1 7
REMARK H PARENT
REMARK Flexibility Score: inf
ROOT
ATOM      1  C   UNL     1      -2.108  -8.506   0.102  1.00  0.00     0.053 C 
ENDROOT
BRANCH   1   2
ATOM      2  C   UNL     1      -1.989  -9.580   1.138  1.00  0.00     0.041 C 
ATOM      3  O   UNL     1      -3.020 -10.042   1.694  1.00  0.00    -0.550 OA
ATOM      4  O   UNL     1      -0.740 -10.093   1.467  1.00  0.00    -0.550 OA
ENDBRANCH   1   2
BRANCH   1   5
ATOM      5  C   UNL     1      -1.258  -8.811  -1.142  1.00  0.00     0.006 C 
BRANCH   5   6
ATOM      6  C   UNL     1       0.064  -8.023  -1.209  1.00  0.00    -0.003 C 
ATOM      7  C   UNL     1       1.288  -8.928  -1.342  1.00  0.00     0.004 C 
ENDBRANCH   5   6
ENDBRANCH   1   5
TORSDOF 3
ENDMDL
MODEL 5
REMARK VINA RESULT:    -3.772      1.380      2.116
REMARK INTER + INTRA:          -4.524
REMARK INTER:                  -4.659
REMARK INTRA:                   0.135
REMARK UNBOUND:                -0.091
REMARK SMILES CCCCC(=O)[O-]
REMARK SMILES IDX 4 1 5 2 6 3 7 4 3 5 2 6 1 7
REMARK H PARENT
REMARK Flexibility Score: inf
ROOT
ATOM      1  C   UNL     1       0.346   2.767  -1.195  1.00  0.00     0.053 C 
ENDROOT
BRANCH   1   2
ATOM      2  C   UNL     1       0.181   3.960  -2.086  1.00  0.00     0.041 C 
ATOM      3  O   UNL     1       0.990   4.164  -3.028  1.00  0.00    -0.550 OA
ATOM      4  O   UNL     1      -0.885   4.830  -1.893  1.00  0.00    -0.550 OA
ENDBRANCH   1   2
BRANCH   1   5
ATOM      5  C   UNL     1      -0.883   2.546  -0.299  1.00  0.00     0.006 C 
BRANCH   5   6
ATOM      6  C   UNL     1      -1.942   1.607  -0.906  1.00  0.00    -0.003 C 
ATOM      7  C   UNL     1      -1.681   1.290  -2.378  1.00  0.00     0.004 C 
ENDBRANCH   5   6
ENDBRANCH   1   5
TORSDOF 3
ENDMDL
MODEL 6
REMARK VINA RESULT:    -3.594     11.296     11.874
REMARK INTER + INTRA:          -4.315
REMARK INTER:                  -4.205
REMARK INTRA:                  -0.110
REMARK UNBOUND:                -0.091
REMARK SMILES CCCCC(=O)[O-]
REMARK SMILES IDX 4 1 5 2 6 3 7 4 3 5 2 6 1 7
REMARK H PARENT
REMARK Flexibility Score: inf
ROOT
ATOM      1  C   UNL     1       0.021  -7.834  -1.133  1.00  0.00     0.053 C 
ENDROOT
BRANCH   1   2
ATOM      2  C   UNL     1       1.146  -8.804  -0.947  1.00  0.00     0.041 C 
ATOM      3  O   UNL     1       1.271  -9.430   0.137  1.00  0.00    -0.550 OA
ATOM      4  O   UNL     1       2.040  -9.039  -1.985  1.00  0.00    -0.550 OA
ENDBRANCH   1   2
BRANCH   1   5
ATOM      5  C   UNL     1      -1.343  -8.540  -1.184  1.00  0.00     0.006 C 
BRANCH   5   6
ATOM      6  C   UNL     1      -2.214  -8.318   0.066  1.00  0.00    -0.003 C 
ATOM      7  C   UNL     1      -2.191  -9.508   1.025  1.00  0.00     0.004 C 
ENDBRANCH   5   6
ENDBRANCH   1   5
TORSDOF 3
ENDMDL
MODEL 7
REMARK VINA RESULT:    -3.531     12.519     13.166
REMARK INTER + INTRA:          -4.241
REMARK INTER:                  -4.193
REMARK INTRA:                  -0.048
REMARK UNBOUND:                -0.091
REMARK SMILES CCCCC(=O)[O-]
REMARK SMILES IDX 4 1 5 2 6 3 7 4 3 5 2 6 1 7
REMARK H PARENT
REMARK Flexibility Score: inf
ROOT
ATOM      1  C   UNL     1       0.223 -10.125   0.531  1.00  0.00     0.053 C 
ENDROOT
BRANCH   1   2
ATOM      2  C   UNL     1      -1.222  -9.738   0.598  1.00  0.00     0.041 C 
ATOM      3  O   UNL     1      -1.840  -9.781   1.693  1.00  0.00    -0.550 OA
ATOM      4  O   UNL     1      -1.878  -9.301  -0.547  1.00  0.00    -0.550 OA
ENDBRANCH   1   2
BRANCH   1   5
ATOM      5  C   UNL     1       1.014  -9.228  -0.434  1.00  0.00     0.006 C 
BRANCH   5   6
ATOM      6  C   UNL     1       1.517  -9.952  -1.697  1.00  0.00    -0.003 C 
ATOM      7  C   UNL     1       2.192  -9.009  -2.692  1.00  0.00     0.004 C 
ENDBRANCH   5   6
ENDBRANCH   1   5
TORSDOF 3
ENDMDL
MODEL 8
REMARK VINA RESULT:    -3.288     12.303     12.973
REMARK INTER + INTRA:          -3.955
REMARK INTER:                  -3.906
REMARK INTRA:                  -0.049
REMARK UNBOUND:                -0.091
REMARK SMILES CCCCC(=O)[O-]
REMARK SMILES IDX 4 1 5 2 6 3 7 4 3 5 2 6 1 7
REMARK H PARENT
REMARK Flexibility Score: inf
ROOT
ATOM      1  C   UNL     1       7.502   1.473   8.049  1.00  0.00     0.053 C 
ENDROOT
BRANCH   1   2
ATOM      2  C   UNL     1       7.888   2.246   6.827  1.00  0.00     0.041 C 
ATOM      3  O   UNL     1       8.857   1.868   6.117  1.00  0.00    -0.550 OA
ATOM      4  O   UNL     1       7.158   3.368   6.454  1.00  0.00    -0.550 OA
ENDBRANCH   1   2
BRANCH   1   5
ATOM      5  C   UNL     1       8.290   0.158   8.170  1.00  0.00     0.006 C 
BRANCH   5   6
ATOM      6  C   UNL     1       7.523  -1.082   7.673  1.00  0.00    -0.003 C 
ATOM      7  C   UNL     1       6.950  -1.923   8.813  1.00  0.00     0.004 C 
ENDBRANCH   5   6
ENDBRANCH   1   5
TORSDOF 3
ENDMDL
MODEL 9
REMARK VINA RESULT:    -3.090     12.551     12.968
REMARK INTER + INTRA:          -3.722
REMARK INTER:                  -3.703
REMARK INTRA:                  -0.020
REMARK UNBOUND:                -0.091
REMARK SMILES CCCCC(=O)[O-]
REMARK SMILES IDX 4 1 5 2 6 3 7 4 3 5 2 6 1 7
REMARK H PARENT
REMARK Flexibility Score: inf
ROOT
ATOM      1  C   UNL     1       3.513  -8.259  -5.118  1.00  0.00     0.053 C 
ENDROOT
BRANCH   1   2
ATOM      2  C   UNL     1       4.467  -8.883  -6.089  1.00  0.00     0.041 C 
ATOM      3  O   UNL     1       4.178  -8.940  -7.313  1.00  0.00    -0.550 OA
ATOM      4  O   UNL     1       5.689  -9.375  -5.646  1.00  0.00    -0.550 OA
ENDBRANCH   1   2
BRANCH   1   5
ATOM      5  C   UNL     1       3.486  -9.011  -3.777  1.00  0.00     0.006 C 
BRANCH   5   6
ATOM      6  C   UNL     1       2.074  -9.412  -3.310  1.00  0.00    -0.003 C 
ATOM      7  C   UNL     1       1.806  -9.048  -1.850  1.00  0.00     0.004 C 
ENDBRANCH   5   6
ENDBRANCH   1   5
TORSDOF 3
ENDMDL
