MODEL 1
REMARK VINA RESULT:    -3.103      0.000      0.000
REMARK INTER + INTRA:          -4.526
REMARK INTER:                  -4.192
REMARK INTRA:                  -0.334
REMARK UNBOUND:                -0.334
REMARK SMILES CCCCCCC=CC(=O)[O-]
REMARK SMILES IDX 5 1 6 2 7 3 8 4 9 5 10 6 11 7 4 8 3 9 2 10 1 11
REMARK H PARENT
REMARK Flexibility Score: inf
ROOT
ATOM      1  C   UNL     1      44.312 -40.527  12.528  1.00  0.00     0.004 C 
ENDROOT
BRANCH   1   2
ATOM      2  C   UNL     1      45.670 -40.804  11.863  1.00  0.00     0.027 C 
BRANCH   2   3
ATOM      3  C   UNL     1      46.802 -40.515  12.806  1.00  0.00    -0.025 C 
ATOM      4  C   UNL     1      48.073 -40.507  12.391  1.00  0.00     0.020 C 
BRANCH   4   5
ATOM      5  C   UNL     1      49.192 -40.241  13.307  1.00  0.00     0.064 C 
ATOM      6  O   UNL     1      49.852 -39.175  13.189  1.00  0.00    -0.545 OA
ATOM      7  O   UNL     1      49.535 -41.148  14.304  1.00  0.00    -0.545 OA
ENDBRANCH   4   5
ENDBRANCH   2   3
ENDBRANCH   1   2
BRANCH   1   8
ATOM      8  C   UNL     1      44.447 -39.756  13.852  1.00  0.00     0.000 C 
BRANCH   8   9
ATOM      9  C   UNL     1      43.888 -38.326  13.762  1.00  0.00    -0.000 C 
BRANCH   9  10
ATOM     10  C   UNL     1      42.388 -38.300  13.431  1.00  0.00    -0.003 C 
ATOM     11  C   UNL     1      41.974 -37.051  12.653  1.00  0.00     0.004 C 
ENDBRANCH   9  10
ENDBRANCH   8   9
ENDBRANCH   1   8
TORSDOF 6
ENDMDL
MODEL 2
REMARK VINA RESULT:    -3.086     11.075     12.317
REMARK INTER + INTRA:          -4.503
REMARK INTER:                  -3.948
REMARK INTRA:                  -0.554
REMARK UNBOUND:                -0.334
REMARK SMILES CCCCCCC=CC(=O)[O-]
REMARK SMILES IDX 5 1 6 2 7 3 8 4 9 5 10 6 11 7 4 8 3 9 2 10 1 11
REMARK H PARENT
REMARK Flexibility Score: inf
ROOT
ATOM      1  C   UNL     1      34.721 -39.164  14.604  1.00  0.00     0.004 C 
ENDROOT
BRANCH   1   2
ATOM      2  C   UNL     1      34.835 -37.776  13.954  1.00  0.00     0.027 C 
BRANCH   2   3
ATOM      3  C   UNL     1      34.810 -37.877  12.455  1.00  0.00    -0.025 C 
ATOM      4  C   UNL     1      34.083 -37.039  11.710  1.00  0.00     0.020 C 
BRANCH   4   5
ATOM      5  C   UNL     1      34.037 -37.136  10.244  1.00  0.00     0.064 C 
ATOM      6  O   UNL     1      33.416 -36.265   9.581  1.00  0.00    -0.545 OA
ATOM      7  O   UNL     1      34.672 -38.177   9.575  1.00  0.00    -0.545 OA
ENDBRANCH   4   5
ENDBRANCH   2   3
ENDBRANCH   1   2
BRANCH   1   8
ATOM      8  C   UNL     1      35.965 -40.035  14.362  1.00  0.00     0.000 C 
BRANCH   8   9
ATOM      9  C   UNL     1      35.611 -41.501  14.060  1.00  0.00    -0.000 C 
BRANCH   9  10
ATOM     10  C   UNL     1      34.609 -41.637  12.902  1.00  0.00    -0.003 C 
ATOM     11  C   UNL     1      35.242 -41.371  11.536  1.00  0.00     0.004 C 
ENDBRANCH   9  10
ENDBRANCH   8   9
ENDBRANCH   1   8
TORSDOF 6
ENDMDL
MODEL 3
REMARK VINA RESULT:    -3.063     16.960     18.241
REMARK INTER + INTRA:          -4.472
REMARK INTER:                  -3.772
REMARK INTRA:                  -0.700
REMARK UNBOUND:                -0.334
REMARK SMILES CCCCCCC=CC(=O)[O-]
REMARK SMILES IDX 5 1 6 2 7 3 8 4 9 5 10 6 11 7 4 8 3 9 2 10 1 11
REMARK H PARENT
REMARK Flexibility Score: inf
ROOT
ATOM      1  C   UNL     1      40.929 -36.457  -1.730  1.00  0.00     0.004 C 
ENDROOT
BRANCH   1   2
ATOM      2  C   UNL     1      39.516 -36.003  -2.129  1.00  0.00     0.027 C 
BRANCH   2   3
ATOM      3  C   UNL     1      38.829 -37.045  -2.965  1.00  0.00    -0.025 C 
ATOM      4  C   UNL     1      39.008 -38.350  -2.740  1.00  0.00     0.020 C 
BRANCH   4   5
ATOM      5  C   UNL     1      38.354 -39.381  -3.560  1.00  0.00     0.064 C 
ATOM      6  O   UNL     1      37.125 -39.286  -3.816  1.00  0.00    -0.545 OA
ATOM      7  O   UNL     1      39.073 -40.462  -4.060  1.00  0.00    -0.545 OA
ENDBRANCH   4   5
ENDBRANCH   2   3
ENDBRANCH   1   2
BRANCH   1   8
ATOM      8  C   UNL     1      42.001 -36.017  -2.741  1.00  0.00     0.000 C 
BRANCH   8   9
ATOM      9  C   UNL     1      42.771 -37.206  -3.340  1.00  0.00    -0.000 C 
BRANCH   9  10
ATOM     10  C   UNL     1      42.192 -37.664  -4.688  1.00  0.00    -0.003 C 
ATOM     11  C   UNL     1      42.261 -39.179  -4.879  1.00  0.00     0.004 C 
ENDBRANCH   9  10
ENDBRANCH   8   9
ENDBRANCH   1   8
TORSDOF 6
ENDMDL
MODEL 4
REMARK VINA RESULT:    -3.034     10.819     12.605
REMARK INTER + INTRA:          -4.433
REMARK INTER:                  -4.206
REMARK INTRA:                  -0.227
REMARK UNBOUND:                -0.334
REMARK SMILES CCCCCCC=CC(=O)[O-]
REMARK SMILES IDX 5 1 6 2 7 3 8 4 9 5 10 6 11 7 4 8 3 9 2 10 1 11
REMARK H PARENT
REMARK Flexibility Score: inf
ROOT
ATOM      1  C   UNL     1      35.045 -39.223  13.094  1.00  0.00     0.004 C 
ENDROOT
BRANCH   1   2
ATOM      2  C   UNL     1      34.756 -37.757  13.454  1.00  0.00     0.027 C 
BRANCH   2   3
ATOM      3  C   UNL     1      34.371 -36.967  12.236  1.00  0.00    -0.025 C 
ATOM      4  C   UNL     1      34.004 -37.568  11.100  1.00  0.00     0.020 C 
BRANCH   4   5
ATOM      5  C   UNL     1      33.639 -36.807   9.896  1.00  0.00     0.064 C 
ATOM      6  O   UNL     1      34.377 -36.863   8.877  1.00  0.00    -0.545 OA
ATOM      7  O   UNL     1      32.490 -36.025   9.864  1.00  0.00    -0.545 OA
ENDBRANCH   4   5
ENDBRANCH   2   3
ENDBRANCH   1   2
BRANCH   1   8
ATOM      8  C   UNL     1      35.715 -39.994  14.243  1.00  0.00     0.000 C 
BRANCH   8   9
ATOM      9  C   UNL     1      34.904 -41.225  14.681  1.00  0.00    -0.000 C 
BRANCH   9  10
ATOM     10  C   UNL     1      35.621 -42.547  14.361  1.00  0.00    -0.003 C 
ATOM     11  C   UNL     1      37.128 -42.478  14.606  1.00  0.00     0.004 C 
ENDBRANCH   9  10
ENDBRANCH   8   9
ENDBRANCH   1   8
TORSDOF 6
ENDMDL
MODEL 5
REMARK VINA RESULT:    -3.021      3.630      6.017
REMARK INTER + INTRA:          -4.415
REMARK INTER:                  -4.097
REMARK INTRA:                  -0.318
REMARK UNBOUND:                -0.334
REMARK SMILES CCCCCCC=CC(=O)[O-]
REMARK SMILES IDX 5 1 6 2 7 3 8 4 9 5 10 6 11 7 4 8 3 9 2 10 1 11
REMARK H PARENT
REMARK Flexibility Score: inf
ROOT
ATOM      1  C   UNL     1      46.235 -41.154  13.941  1.00  0.00     0.004 C 
ENDROOT
BRANCH   1   2
ATOM      2  C   UNL     1      45.754 -40.200  12.836  1.00  0.00     0.027 C 
BRANCH   2   3
ATOM      3  C   UNL     1      44.682 -39.279  13.346  1.00  0.00    -0.025 C 
ATOM      4  C   UNL     1      43.402 -39.434  12.994  1.00  0.00     0.020 C 
BRANCH   4   5
ATOM      5  C   UNL     1      42.345 -38.531  13.473  1.00  0.00     0.064 C 
ATOM      6  O   UNL     1      41.560 -38.917  14.378  1.00  0.00    -0.545 OA
ATOM      7  O   UNL     1      42.199 -37.253  12.943  1.00  0.00    -0.545 OA
ENDBRANCH   4   5
ENDBRANCH   2   3
ENDBRANCH   1   2
BRANCH   1   8
ATOM      8  C   UNL     1      47.666 -41.663  13.701  1.00  0.00     0.000 C 
BRANCH   8   9
ATOM      9  C   UNL     1      48.711 -40.910  14.542  1.00  0.00    -0.000 C 
BRANCH   9  10
ATOM     10  C   UNL     1      49.935 -40.483  13.716  1.00  0.00    -0.003 C 
ATOM     11  C   UNL     1      49.646 -39.297  12.797  1.00  0.00     0.004 C 
ENDBRANCH   9  10
ENDBRANCH   8   9
ENDBRANCH   1   8
TORSDOF 6
ENDMDL
MODEL 6
REMARK VINA RESULT:    -2.991     11.319     13.257
REMARK INTER + INTRA:          -4.374
REMARK INTER:                  -4.176
REMARK INTRA:                  -0.199
REMARK UNBOUND:                -0.334
REMARK SMILES CCCCCCC=CC(=O)[O-]
REMARK SMILES IDX 5 1 6 2 7 3 8 4 9 5 10 6 11 7 4 8 3 9 2 10 1 11
REMARK H PARENT
REMARK Flexibility Score: inf
ROOT
ATOM      1  C   UNL     1      34.397 -37.294  11.934  1.00  0.00     0.004 C 
ENDROOT
BRANCH   1   2
ATOM      2  C   UNL     1      32.930 -37.064  11.540  1.00  0.00     0.027 C 
BRANCH   2   3
ATOM      3  C   UNL     1      32.818 -36.604  10.115  1.00  0.00    -0.025 C 
ATOM      4  C   UNL     1      33.869 -36.624   9.290  1.00  0.00     0.020 C 
BRANCH   4   5
ATOM      5  C   UNL     1      33.777 -36.162   7.896  1.00  0.00     0.064 C 
ATOM      6  O   UNL     1      34.831 -35.955   7.239  1.00  0.00    -0.545 OA
ATOM      7  O   UNL     1      32.543 -35.950   7.291  1.00  0.00    -0.545 OA
ENDBRANCH   4   5
ENDBRANCH   2   3
ENDBRANCH   1   2
BRANCH   1   8
ATOM      8  C   UNL     1      34.542 -38.051  13.265  1.00  0.00     0.000 C 
BRANCH   8   9
ATOM      9  C   UNL     1      35.178 -39.440  13.089  1.00  0.00    -0.000 C 
BRANCH   9  10
ATOM     10  C   UNL     1      35.742 -40.000  14.404  1.00  0.00    -0.003 C 
ATOM     11  C   UNL     1      36.143 -41.472  14.299  1.00  0.00     0.004 C 
ENDBRANCH   9  10
ENDBRANCH   8   9
ENDBRANCH   1   8
TORSDOF 6
ENDMDL
MODEL 7
REMARK VINA RESULT:    -2.971     10.915     12.210
REMARK INTER + INTRA:          -4.348
REMARK INTER:                  -3.737
REMARK INTRA:                  -0.611
REMARK UNBOUND:                -0.334
REMARK SMILES CCCCCCC=CC(=O)[O-]
REMARK SMILES IDX 5 1 6 2 7 3 8 4 9 5 10 6 11 7 4 8 3 9 2 10 1 11
REMARK H PARENT
REMARK Flexibility Score: inf
ROOT
ATOM      1  C   UNL     1      32.912 -37.373  11.787  1.00  0.00     0.004 C 
ENDROOT
BRANCH   1   2
ATOM      2  C   UNL     1      34.334 -37.017  12.248  1.00  0.00     0.027 C 
BRANCH   2   3
ATOM      3  C   UNL     1      34.796 -37.940  13.338  1.00  0.00    -0.025 C 
ATOM      4  C   UNL     1      34.844 -39.264  13.160  1.00  0.00     0.020 C 
BRANCH   4   5
ATOM      5  C   UNL     1      35.280 -40.181  14.223  1.00  0.00     0.064 C 
ATOM      6  O   UNL     1      34.432 -40.907  14.805  1.00  0.00    -0.545 OA
ATOM      7  O   UNL     1      36.617 -40.259  14.598  1.00  0.00    -0.545 OA
ENDBRANCH   4   5
ENDBRANCH   2   3
ENDBRANCH   1   2
BRANCH   1   8
ATOM      8  C   UNL     1      32.708 -37.162  10.277  1.00  0.00     0.000 C 
BRANCH   8   9
ATOM      9  C   UNL     1      34.031 -36.923   9.530  1.00  0.00    -0.000 C 
BRANCH   9  10
ATOM     10  C   UNL     1      34.387 -38.079   8.581  1.00  0.00    -0.003 C 
ATOM     11  C   UNL     1      35.282 -39.130   9.237  1.00  0.00     0.004 C 
ENDBRANCH   9  10
ENDBRANCH   8   9
ENDBRANCH   1   8
TORSDOF 6
ENDMDL
MODEL 8
REMARK VINA RESULT:    -2.953     14.787     16.164
REMARK INTER + INTRA:          -4.323
REMARK INTER:                  -3.541
REMARK INTRA:                  -0.782
REMARK UNBOUND:                -0.334
REMARK SMILES CCCCCCC=CC(=O)[O-]
REMARK SMILES IDX 5 1 6 2 7 3 8 4 9 5 10 6 11 7 4 8 3 9 2 10 1 11
REMARK H PARENT
REMARK Flexibility Score: inf
ROOT
ATOM      1  C   UNL     1      41.627 -55.667  12.340  1.00  0.00     0.004 C 
ENDROOT
BRANCH   1   2
ATOM      2  C   UNL     1      40.486 -55.072  11.500  1.00  0.00     0.027 C 
BRANCH   2   3
ATOM      3  C   UNL     1      39.577 -54.225  12.345  1.00  0.00    -0.025 C 
ATOM      4  C   UNL     1      39.222 -54.598  13.578  1.00  0.00     0.020 C 
BRANCH   4   5
ATOM      5  C   UNL     1      38.321 -53.786  14.410  1.00  0.00     0.064 C 
ATOM      6  O   UNL     1      38.652 -52.614  14.725  1.00  0.00    -0.545 OA
ATOM      7  O   UNL     1      37.105 -54.294  14.856  1.00  0.00    -0.545 OA
ENDBRANCH   4   5
ENDBRANCH   2   3
ENDBRANCH   1   2
BRANCH   1   8
ATOM      8  C   UNL     1      42.816 -54.703  12.492  1.00  0.00     0.000 C 
BRANCH   8   9
ATOM      9  C   UNL     1      43.259 -54.536  13.955  1.00  0.00    -0.000 C 
BRANCH   9  10
ATOM     10  C   UNL     1      42.540 -53.374  14.658  1.00  0.00    -0.003 C 
ATOM     11  C   UNL     1      42.364 -52.152  13.757  1.00  0.00     0.004 C 
ENDBRANCH   9  10
ENDBRANCH   8   9
ENDBRANCH   1   8
TORSDOF 6
ENDMDL
MODEL 9
REMARK VINA RESULT:    -2.896     14.552     16.198
REMARK INTER + INTRA:          -4.246
REMARK INTER:                  -4.006
REMARK INTRA:                  -0.240
REMARK UNBOUND:                -0.334
REMARK SMILES CCCCCCC=CC(=O)[O-]
REMARK SMILES IDX 5 1 6 2 7 3 8 4 9 5 10 6 11 7 4 8 3 9 2 10 1 11
REMARK H PARENT
REMARK Flexibility Score: inf
ROOT
ATOM      1  C   UNL     1      37.997 -36.760   0.146  1.00  0.00     0.004 C 
ENDROOT
BRANCH   1   2
ATOM      2  C   UNL     1      37.388 -35.880   1.250  1.00  0.00     0.027 C 
BRANCH   2   3
ATOM      3  C   UNL     1      36.489 -36.683   2.146  1.00  0.00    -0.025 C 
ATOM      4  C   UNL     1      35.874 -36.129   3.196  1.00  0.00     0.020 C 
BRANCH   4   5
ATOM      5  C   UNL     1      35.003 -36.906   4.090  1.00  0.00     0.064 C 
ATOM      6  O   UNL     1      33.773 -36.997   3.836  1.00  0.00    -0.545 OA
ATOM      7  O   UNL     1      35.516 -37.545   5.214  1.00  0.00    -0.545 OA
ENDBRANCH   4   5
ENDBRANCH   2   3
ENDBRANCH   1   2
BRANCH   1   8
ATOM      8  C   UNL     1      39.434 -36.347  -0.215  1.00  0.00     0.000 C 
BRANCH   8   9
ATOM      9  C   UNL     1      39.569 -35.896  -1.679  1.00  0.00    -0.000 C 
BRANCH   9  10
ATOM     10  C   UNL     1      38.429 -36.423  -2.565  1.00  0.00    -0.003 C 
ATOM     11  C   UNL     1      38.898 -37.471  -3.575  1.00  0.00     0.004 C 
ENDBRANCH   9  10
ENDBRANCH   8   9
ENDBRANCH   1   8
TORSDOF 6
ENDMDL
