MODEL 1
REMARK VINA RESULT:    -5.733      0.000      0.000
REMARK INTER + INTRA:          -6.103
REMARK INTER:                  -6.068
REMARK INTRA:                  -0.035
REMARK UNBOUND:                -0.035
REMARK SMILES COc1ccc2ccc(=O)oc2c1
REMARK SMILES IDX 3 1 13 2 12 3 6 4 5 5 4 6 7 7 8 8 9 9 10 10 11 11 2 12 1 13
REMARK H PARENT
REMARK Flexibility Score: inf
ROOT
ATOM      1  C   UNL     1     -50.620 -13.839  13.508  1.00  0.00     0.122 A 
ATOM      2  C   UNL     1     -49.238 -13.931  13.717  1.00  0.00     0.094 A 
ATOM      3  C   UNL     1     -48.341 -13.413  12.778  1.00  0.00     0.142 A 
ATOM      4  C   UNL     1     -48.830 -12.793  11.609  1.00  0.00     0.018 A 
ATOM      5  C   UNL     1     -50.211 -12.699  11.393  1.00  0.00     0.016 A 
ATOM      6  C   UNL     1     -51.103 -13.219  12.338  1.00  0.00     0.047 A 
ATOM      7  C   UNL     1     -47.909 -12.284  10.687  1.00  0.00     0.019 A 
ATOM      8  C   UNL     1     -46.545 -12.403  10.948  1.00  0.00     0.094 A 
ATOM      9  C   UNL     1     -46.132 -13.031  12.128  1.00  0.00     0.336 A 
ATOM     10  O   UNL     1     -44.904 -13.148  12.382  1.00  0.00    -0.246 OA
ATOM     11  O   UNL     1     -47.029 -13.505  12.988  1.00  0.00    -0.423 OA
ENDROOT
BRANCH   1  12
ATOM     12  O   UNL     1     -51.477 -14.375  14.482  1.00  0.00    -0.497 OA
ATOM     13  C   UNL     1     -52.820 -14.777  14.237  1.00  0.00     0.278 C 
ENDBRANCH   1  12
TORSDOF 1
ENDMDL
MODEL 2
REMARK VINA RESULT:    -5.635      1.096      4.924
REMARK INTER + INTRA:          -5.999
REMARK INTER:                  -5.966
REMARK INTRA:                  -0.033
REMARK UNBOUND:                -0.035
REMARK SMILES COc1ccc2ccc(=O)oc2c1
REMARK SMILES IDX 3 1 13 2 12 3 6 4 5 5 4 6 7 7 8 8 9 9 10 10 11 11 2 12 1 13
REMARK H PARENT
REMARK Flexibility Score: inf
ROOT
ATOM      1  C   UNL     1     -45.860 -12.892  11.971  1.00  0.00     0.122 A 
ATOM      2  C   UNL     1     -46.708 -13.253  13.026  1.00  0.00     0.094 A 
ATOM      3  C   UNL     1     -48.097 -13.220  12.865  1.00  0.00     0.142 A 
ATOM      4  C   UNL     1     -48.650 -12.819  11.630  1.00  0.00     0.018 A 
ATOM      5  C   UNL     1     -47.807 -12.456  10.572  1.00  0.00     0.016 A 
ATOM      6  C   UNL     1     -46.419 -12.492  10.740  1.00  0.00     0.047 A 
ATOM      7  C   UNL     1     -50.042 -12.796  11.499  1.00  0.00     0.019 A 
ATOM      8  C   UNL     1     -50.838 -13.166  12.583  1.00  0.00     0.094 A 
ATOM      9  C   UNL     1     -50.220 -13.552  13.777  1.00  0.00     0.336 A 
ATOM     10  O   UNL     1     -50.920 -13.890  14.767  1.00  0.00    -0.246 OA
ATOM     11  O   UNL     1     -48.893 -13.566  13.874  1.00  0.00    -0.423 OA
ENDROOT
BRANCH   1  12
ATOM     12  O   UNL     1     -44.474 -12.942  12.185  1.00  0.00    -0.497 OA
ATOM     13  C   UNL     1     -43.546 -11.997  11.665  1.00  0.00     0.278 C 
ENDBRANCH   1  12
TORSDOF 1
ENDMDL
MODEL 3
REMARK VINA RESULT:    -5.403     17.482     19.528
REMARK INTER + INTRA:          -5.754
REMARK INTER:                  -5.713
REMARK INTRA:                  -0.041
REMARK UNBOUND:                -0.035
REMARK SMILES COc1ccc2ccc(=O)oc2c1
REMARK SMILES IDX 3 1 13 2 12 3 6 4 5 5 4 6 7 7 8 8 9 9 10 10 11 11 2 12 1 13
REMARK H PARENT
REMARK Flexibility Score: inf
ROOT
ATOM      1  C   UNL     1     -36.176  -3.786   4.446  1.00  0.00     0.122 A 
ATOM      2  C   UNL     1     -35.939  -3.249   3.175  1.00  0.00     0.094 A 
ATOM      3  C   UNL     1     -36.222  -1.906   2.907  1.00  0.00     0.142 A 
ATOM      4  C   UNL     1     -36.751  -1.084   3.924  1.00  0.00     0.018 A 
ATOM      5  C   UNL     1     -36.991  -1.615   5.198  1.00  0.00     0.016 A 
ATOM      6  C   UNL     1     -36.705  -2.959   5.459  1.00  0.00     0.047 A 
ATOM      7  C   UNL     1     -37.023   0.255   3.626  1.00  0.00     0.019 A 
ATOM      8  C   UNL     1     -36.767   0.736   2.343  1.00  0.00     0.094 A 
ATOM      9  C   UNL     1     -36.242  -0.137   1.384  1.00  0.00     0.336 A 
ATOM     10  O   UNL     1     -36.004   0.278   0.219  1.00  0.00    -0.246 OA
ATOM     11  O   UNL     1     -35.991  -1.406   1.694  1.00  0.00    -0.423 OA
ENDROOT
BRANCH   1  12
ATOM     12  O   UNL     1     -35.875  -5.139   4.664  1.00  0.00    -0.497 OA
ATOM     13  C   UNL     1     -35.894  -6.140   3.651  1.00  0.00     0.278 C 
ENDBRANCH   1  12
TORSDOF 1
ENDMDL
MODEL 4
REMARK VINA RESULT:    -5.385     17.383     19.936
REMARK INTER + INTRA:          -5.735
REMARK INTER:                  -5.699
REMARK INTRA:                  -0.036
REMARK UNBOUND:                -0.035
REMARK SMILES COc1ccc2ccc(=O)oc2c1
REMARK SMILES IDX 3 1 13 2 12 3 6 4 5 5 4 6 7 7 8 8 9 9 10 10 11 11 2 12 1 13
REMARK H PARENT
REMARK Flexibility Score: inf
ROOT
ATOM      1  C   UNL     1     -36.163  -0.706   1.439  1.00  0.00     0.122 A 
ATOM      2  C   UNL     1     -35.998  -2.007   1.930  1.00  0.00     0.094 A 
ATOM      3  C   UNL     1     -36.250  -2.297   3.275  1.00  0.00     0.142 A 
ATOM      4  C   UNL     1     -36.674  -1.271   4.145  1.00  0.00     0.018 A 
ATOM      5  C   UNL     1     -36.840   0.033   3.660  1.00  0.00     0.016 A 
ATOM      6  C   UNL     1     -36.587   0.315   2.314  1.00  0.00     0.047 A 
ATOM      7  C   UNL     1     -36.918  -1.590   5.485  1.00  0.00     0.019 A 
ATOM      8  C   UNL     1     -36.738  -2.903   5.918  1.00  0.00     0.094 A 
ATOM      9  C   UNL     1     -36.315  -3.869   4.999  1.00  0.00     0.336 A 
ATOM     10  O   UNL     1     -36.145  -5.060   5.371  1.00  0.00    -0.246 OA
ATOM     11  O   UNL     1     -36.090  -3.538   3.730  1.00  0.00    -0.423 OA
ENDROOT
BRANCH   1  12
ATOM     12  O   UNL     1     -35.897  -0.469   0.082  1.00  0.00    -0.497 OA
ATOM     13  C   UNL     1     -35.899   0.819  -0.525  1.00  0.00     0.278 C 
ENDBRANCH   1  12
TORSDOF 1
ENDMDL
MODEL 5
REMARK VINA RESULT:    -5.358      1.909      5.259
REMARK INTER + INTRA:          -5.706
REMARK INTER:                  -5.671
REMARK INTRA:                  -0.036
REMARK UNBOUND:                -0.035
REMARK SMILES COc1ccc2ccc(=O)oc2c1
REMARK SMILES IDX 3 1 13 2 12 3 6 4 5 5 4 6 7 7 8 8 9 9 10 10 11 11 2 12 1 13
REMARK H PARENT
REMARK Flexibility Score: inf
ROOT
ATOM      1  C   UNL     1     -45.270 -11.867  11.704  1.00  0.00     0.122 A 
ATOM      2  C   UNL     1     -46.103 -12.087  12.808  1.00  0.00     0.094 A 
ATOM      3  C   UNL     1     -47.203 -12.946  12.708  1.00  0.00     0.142 A 
ATOM      4  C   UNL     1     -47.476 -13.597  11.487  1.00  0.00     0.018 A 
ATOM      5  C   UNL     1     -46.646 -13.381  10.379  1.00  0.00     0.016 A 
ATOM      6  C   UNL     1     -45.548 -12.521  10.486  1.00  0.00     0.047 A 
ATOM      7  C   UNL     1     -48.582 -14.450  11.418  1.00  0.00     0.019 A 
ATOM      8  C   UNL     1     -49.377 -14.632  12.549  1.00  0.00     0.094 A 
ATOM      9  C   UNL     1     -49.046 -13.953  13.727  1.00  0.00     0.336 A 
ATOM     10  O   UNL     1     -49.752 -14.103  14.758  1.00  0.00    -0.246 OA
ATOM     11  O   UNL     1     -47.988 -13.148  13.765  1.00  0.00    -0.423 OA
ENDROOT
BRANCH   1  12
ATOM     12  O   UNL     1     -44.180 -10.996  11.857  1.00  0.00    -0.497 OA
ATOM     13  C   UNL     1     -43.154 -10.815  10.887  1.00  0.00     0.278 C 
ENDBRANCH   1  12
TORSDOF 1
ENDMDL
MODEL 6
REMARK VINA RESULT:    -5.297      1.867      5.503
REMARK INTER + INTRA:          -5.641
REMARK INTER:                  -5.608
REMARK INTRA:                  -0.033
REMARK UNBOUND:                -0.035
REMARK SMILES COc1ccc2ccc(=O)oc2c1
REMARK SMILES IDX 3 1 13 2 12 3 6 4 5 5 4 6 7 7 8 8 9 9 10 10 11 11 2 12 1 13
REMARK H PARENT
REMARK Flexibility Score: inf
ROOT
ATOM      1  C   UNL     1     -45.562 -12.231  11.222  1.00  0.00     0.122 A 
ATOM      2  C   UNL     1     -46.882 -12.194  10.758  1.00  0.00     0.094 A 
ATOM      3  C   UNL     1     -47.937 -12.597  11.582  1.00  0.00     0.142 A 
ATOM      4  C   UNL     1     -47.671 -13.045  12.893  1.00  0.00     0.018 A 
ATOM      5  C   UNL     1     -46.352 -13.085  13.364  1.00  0.00     0.016 A 
ATOM      6  C   UNL     1     -45.302 -12.679  12.534  1.00  0.00     0.047 A 
ATOM      7  C   UNL     1     -48.747 -13.442  13.695  1.00  0.00     0.019 A 
ATOM      8  C   UNL     1     -50.041 -13.384  13.180  1.00  0.00     0.094 A 
ATOM      9  C   UNL     1     -50.230 -12.930  11.870  1.00  0.00     0.336 A 
ATOM     10  O   UNL     1     -51.391 -12.870  11.387  1.00  0.00    -0.246 OA
ATOM     11  O   UNL     1     -49.189 -12.557  11.130  1.00  0.00    -0.423 OA
ENDROOT
BRANCH   1  12
ATOM     12  O   UNL     1     -44.540 -11.815  10.355  1.00  0.00    -0.497 OA
ATOM     13  C   UNL     1     -43.378 -11.101  10.765  1.00  0.00     0.278 C 
ENDBRANCH   1  12
TORSDOF 1
ENDMDL
MODEL 7
REMARK VINA RESULT:    -5.264      4.555      6.397
REMARK INTER + INTRA:          -5.606
REMARK INTER:                  -5.571
REMARK INTRA:                  -0.036
REMARK UNBOUND:                -0.035
REMARK SMILES COc1ccc2ccc(=O)oc2c1
REMARK SMILES IDX 3 1 13 2 12 3 6 4 5 5 4 6 7 7 8 8 9 9 10 10 11 11 2 12 1 13
REMARK H PARENT
REMARK Flexibility Score: inf
ROOT
ATOM      1  C   UNL     1     -45.477 -11.070  12.597  1.00  0.00     0.122 A 
ATOM      2  C   UNL     1     -44.970  -9.833  13.013  1.00  0.00     0.094 A 
ATOM      3  C   UNL     1     -43.819  -9.301  12.424  1.00  0.00     0.142 A 
ATOM      4  C   UNL     1     -43.161 -10.015  11.400  1.00  0.00     0.018 A 
ATOM      5  C   UNL     1     -43.663 -11.254  10.979  1.00  0.00     0.016 A 
ATOM      6  C   UNL     1     -44.814 -11.779  11.573  1.00  0.00     0.047 A 
ATOM      7  C   UNL     1     -42.013  -9.457  10.829  1.00  0.00     0.019 A 
ATOM      8  C   UNL     1     -41.554  -8.222  11.284  1.00  0.00     0.094 A 
ATOM      9  C   UNL     1     -42.257  -7.570  12.303  1.00  0.00     0.336 A 
ATOM     10  O   UNL     1     -41.859  -6.454  12.727  1.00  0.00    -0.246 OA
ATOM     11  O   UNL     1     -43.348  -8.123  12.828  1.00  0.00    -0.423 OA
ENDROOT
BRANCH   1  12
ATOM     12  O   UNL     1     -46.634 -11.560  13.220  1.00  0.00    -0.497 OA
ATOM     13  C   UNL     1     -47.200 -12.842  12.973  1.00  0.00     0.278 C 
ENDBRANCH   1  12
TORSDOF 1
ENDMDL
MODEL 8
REMARK VINA RESULT:    -5.224      4.184      6.006
REMARK INTER + INTRA:          -5.565
REMARK INTER:                  -5.522
REMARK INTRA:                  -0.043
REMARK UNBOUND:                -0.035
REMARK SMILES COc1ccc2ccc(=O)oc2c1
REMARK SMILES IDX 3 1 13 2 12 3 6 4 5 5 4 6 7 7 8 8 9 9 10 10 11 11 2 12 1 13
REMARK H PARENT
REMARK Flexibility Score: inf
ROOT
ATOM      1  C   UNL     1     -45.794 -10.983  12.955  1.00  0.00     0.122 A 
ATOM      2  C   UNL     1     -44.688 -11.282  12.151  1.00  0.00     0.094 A 
ATOM      3  C   UNL     1     -43.747 -10.295  11.842  1.00  0.00     0.142 A 
ATOM      4  C   UNL     1     -43.911  -8.987  12.344  1.00  0.00     0.018 A 
ATOM      5  C   UNL     1     -45.017  -8.682  13.149  1.00  0.00     0.016 A 
ATOM      6  C   UNL     1     -45.953  -9.674  13.454  1.00  0.00     0.047 A 
ATOM      7  C   UNL     1     -42.954  -8.021  12.018  1.00  0.00     0.019 A 
ATOM      8  C   UNL     1     -41.872  -8.375  11.213  1.00  0.00     0.094 A 
ATOM      9  C   UNL     1     -41.773  -9.691  10.750  1.00  0.00     0.336 A 
ATOM     10  O   UNL     1     -40.804 -10.030  10.022  1.00  0.00    -0.246 OA
ATOM     11  O   UNL     1     -42.698 -10.590  11.076  1.00  0.00    -0.423 OA
ENDROOT
BRANCH   1  12
ATOM     12  O   UNL     1     -46.709 -12.010  13.235  1.00  0.00    -0.497 OA
ATOM     13  C   UNL     1     -46.761 -13.252  12.543  1.00  0.00     0.278 C 
ENDBRANCH   1  12
TORSDOF 1
ENDMDL
MODEL 9
REMARK VINA RESULT:    -5.173      4.164      7.359
REMARK INTER + INTRA:          -5.511
REMARK INTER:                  -5.478
REMARK INTRA:                  -0.033
REMARK UNBOUND:                -0.035
REMARK SMILES COc1ccc2ccc(=O)oc2c1
REMARK SMILES IDX 3 1 13 2 12 3 6 4 5 5 4 6 7 7 8 8 9 9 10 10 11 11 2 12 1 13
REMARK H PARENT
REMARK Flexibility Score: inf
ROOT
ATOM      1  C   UNL     1     -43.018  -8.571  11.851  1.00  0.00     0.122 A 
ATOM      2  C   UNL     1     -44.094  -8.944  12.666  1.00  0.00     0.094 A 
ATOM      3  C   UNL     1     -44.617 -10.240  12.603  1.00  0.00     0.142 A 
ATOM      4  C   UNL     1     -44.058 -11.180  11.712  1.00  0.00     0.018 A 
ATOM      5  C   UNL     1     -42.982 -10.812  10.894  1.00  0.00     0.016 A 
ATOM      6  C   UNL     1     -42.464  -9.515  10.962  1.00  0.00     0.047 A 
ATOM      7  C   UNL     1     -44.603 -12.467  11.672  1.00  0.00     0.019 A 
ATOM      8  C   UNL     1     -45.674 -12.783  12.507  1.00  0.00     0.094 A 
ATOM      9  C   UNL     1     -46.178 -11.800  13.365  1.00  0.00     0.336 A 
ATOM     10  O   UNL     1     -47.144 -12.066  14.126  1.00  0.00    -0.246 OA
ATOM     11  O   UNL     1     -45.640 -10.583  13.384  1.00  0.00    -0.423 OA
ENDROOT
BRANCH   1  12
ATOM     12  O   UNL     1     -42.530  -7.259  11.953  1.00  0.00    -0.497 OA
ATOM     13  C   UNL     1     -41.526  -6.844  12.872  1.00  0.00     0.278 C 
ENDBRANCH   1  12
TORSDOF 1
ENDMDL
