MODEL 1
REMARK VINA RESULT:    -3.929      0.000      0.000
REMARK INTER + INTRA:         -10.758
REMARK INTER:                  -8.983
REMARK INTRA:                  -1.775
REMARK UNBOUND:                -1.775
REMARK SMILES CCCCCCCCCCCCCCCCCCCCCCCC(=O)[O-]
REMARK SMILES IDX 13 1 14 2 15 3 16 4 17 5 18 6 19 7 20 8 21 9 22 10 23 11
REMARK SMILES IDX 24 12 25 13 26 14 12 15 11 16 10 17 9 18 8 19 7 20 6 21 5 22
REMARK SMILES IDX 4 23 3 24 2 25 1 26
REMARK H PARENT
REMARK Flexibility Score: inf
ROOT
ATOM      1  C   UNL     1      -7.536  -9.638   0.093  1.00  0.00     0.000 C 
ENDROOT
BRANCH   1   2
ATOM      2  C   UNL     1      -6.275 -10.218  -0.575  1.00  0.00     0.000 C 
BRANCH   2   3
ATOM      3  C   UNL     1      -5.810 -11.574  -0.013  1.00  0.00     0.000 C 
BRANCH   3   4
ATOM      4  C   UNL     1      -6.334 -11.847   1.405  1.00  0.00     0.000 C 
BRANCH   4   5
ATOM      5  C   UNL     1      -5.211 -12.370   2.314  1.00  0.00     0.000 C 
BRANCH   5   6
ATOM      6  C   UNL     1      -5.064 -13.898   2.253  1.00  0.00     0.000 C 
BRANCH   6   7
ATOM      7  C   UNL     1      -6.403 -14.610   2.010  1.00  0.00     0.000 C 
BRANCH   7   8
ATOM      8  C   UNL     1      -6.286 -15.634   0.872  1.00  0.00     0.000 C 
BRANCH   8   9
ATOM      9  C   UNL     1      -6.082 -17.071   1.398  1.00  0.00     0.000 C 
BRANCH   9  10
ATOM     10  C   UNL     1      -5.717 -18.084   0.295  1.00  0.00     0.006 C 
BRANCH  10  11
ATOM     11  C   UNL     1      -5.744 -19.550   0.756  1.00  0.00     0.053 C 
BRANCH  11  12
ATOM     12  C   UNL     1      -7.085 -20.184   0.530  1.00  0.00     0.041 C 
ATOM     13  O   UNL     1      -7.711 -19.981  -0.543  1.00  0.00    -0.550 OA
ATOM     14  O   UNL     1      -7.649 -20.990   1.513  1.00  0.00    -0.550 OA
ENDBRANCH  11  12
ENDBRANCH  10  11
ENDBRANCH   9  10
ENDBRANCH   8   9
ENDBRANCH   7   8
ENDBRANCH   6   7
ENDBRANCH   5   6
ENDBRANCH   4   5
ENDBRANCH   3   4
ENDBRANCH   2   3
ENDBRANCH   1   2
BRANCH   1  15
ATOM     15  C   UNL     1      -7.234  -8.404   0.961  1.00  0.00     0.000 C 
BRANCH  15  16
ATOM     16  C   UNL     1      -7.455  -7.081   0.210  1.00  0.00     0.000 C 
BRANCH  16  17
ATOM     17  C   UNL     1      -6.146  -6.504  -0.358  1.00  0.00     0.000 C 
BRANCH  17  18
ATOM     18  C   UNL     1      -5.841  -5.088   0.163  1.00  0.00    -0.000 C 
BRANCH  18  19
ATOM     19  C   UNL     1      -5.201  -5.029   1.566  1.00  0.00    -0.000 C 
BRANCH  19  20
ATOM     20  C   UNL     1      -5.143  -3.627   2.206  1.00  0.00    -0.000 C 
BRANCH  20  21
ATOM     21  C   UNL     1      -6.267  -2.671   1.768  1.00  0.00    -0.000 C 
BRANCH  21  22
ATOM     22  C   UNL     1      -7.202  -2.281   2.925  1.00  0.00    -0.000 C 
BRANCH  22  23
ATOM     23  C   UNL     1      -8.623  -2.850   2.757  1.00  0.00    -0.000 C 
BRANCH  23  24
ATOM     24  C   UNL     1      -8.705  -4.390   2.707  1.00  0.00    -0.000 C 
BRANCH  24  25
ATOM     25  C   UNL     1      -9.929  -4.952   1.961  1.00  0.00    -0.003 C 
ATOM     26  C   UNL     1     -11.131  -4.009   1.994  1.00  0.00     0.004 C 
ENDBRANCH  24  25
ENDBRANCH  23  24
ENDBRANCH  22  23
ENDBRANCH  21  22
ENDBRANCH  20  21
ENDBRANCH  19  20
ENDBRANCH  18  19
ENDBRANCH  17  18
ENDBRANCH  16  17
ENDBRANCH  15  16
ENDBRANCH   1  15
TORSDOF 22
ENDMDL
MODEL 2
REMARK VINA RESULT:    -3.827      5.046     11.980
REMARK INTER + INTRA:         -10.525
REMARK INTER:                  -9.165
REMARK INTRA:                  -1.360
REMARK UNBOUND:                -1.775
REMARK SMILES CCCCCCCCCCCCCCCCCCCCCCCC(=O)[O-]
REMARK SMILES IDX 13 1 14 2 15 3 16 4 17 5 18 6 19 7 20 8 21 9 22 10 23 11
REMARK SMILES IDX 24 12 25 13 26 14 12 15 11 16 10 17 9 18 8 19 7 20 6 21 5 22
REMARK SMILES IDX 4 23 3 24 2 25 1 26
REMARK H PARENT
REMARK Flexibility Score: inf
ROOT
ATOM      1  C   UNL     1      -7.851  -8.410  -0.582  1.00  0.00     0.000 C 
ENDROOT
BRANCH   1   2
ATOM      2  C   UNL     1      -7.521  -7.097   0.154  1.00  0.00     0.000 C 
BRANCH   2   3
ATOM      3  C   UNL     1      -6.064  -6.621   0.006  1.00  0.00     0.000 C 
BRANCH   3   4
ATOM      4  C   UNL     1      -5.746  -5.388   0.868  1.00  0.00     0.000 C 
BRANCH   4   5
ATOM      5  C   UNL     1      -5.178  -4.249   0.007  1.00  0.00     0.000 C 
BRANCH   5   6
ATOM      6  C   UNL     1      -5.712  -2.870   0.425  1.00  0.00     0.000 C 
BRANCH   6   7
ATOM      7  C   UNL     1      -5.425  -2.549   1.899  1.00  0.00     0.000 C 
BRANCH   7   8
ATOM      8  C   UNL     1      -6.702  -2.104   2.625  1.00  0.00     0.000 C 
BRANCH   8   9
ATOM      9  C   UNL     1      -7.742  -3.240   2.728  1.00  0.00     0.000 C 
BRANCH   9  10
ATOM     10  C   UNL     1      -9.189  -2.738   2.902  1.00  0.00     0.006 C 
BRANCH  10  11
ATOM     11  C   UNL     1     -10.250  -3.846   2.837  1.00  0.00     0.053 C 
BRANCH  11  12
ATOM     12  C   UNL     1     -11.627  -3.292   2.615  1.00  0.00     0.041 C 
ATOM     13  O   UNL     1     -12.563  -4.047   2.244  1.00  0.00    -0.550 OA
ATOM     14  O   UNL     1     -11.872  -1.937   2.805  1.00  0.00    -0.550 OA
ENDBRANCH  11  12
ENDBRANCH  10  11
ENDBRANCH   9  10
ENDBRANCH   8   9
ENDBRANCH   7   8
ENDBRANCH   6   7
ENDBRANCH   5   6
ENDBRANCH   4   5
ENDBRANCH   3   4
ENDBRANCH   2   3
ENDBRANCH   1   2
BRANCH   1  15
ATOM     15  C   UNL     1      -7.470  -9.659   0.232  1.00  0.00     0.000 C 
BRANCH  15  16
ATOM     16  C   UNL     1      -6.442 -10.547  -0.488  1.00  0.00     0.000 C 
BRANCH  16  17
ATOM     17  C   UNL     1      -5.276 -10.956   0.428  1.00  0.00     0.000 C 
BRANCH  17  18
ATOM     18  C   UNL     1      -5.558 -10.680   1.915  1.00  0.00    -0.000 C 
BRANCH  18  19
ATOM     19  C   UNL     1      -5.813 -11.934   2.779  1.00  0.00    -0.000 C 
BRANCH  19  20
ATOM     20  C   UNL     1      -5.388 -13.272   2.141  1.00  0.00    -0.000 C 
BRANCH  20  21
ATOM     21  C   UNL     1      -6.514 -14.314   2.016  1.00  0.00    -0.000 C 
BRANCH  21  22
ATOM     22  C   UNL     1      -6.021 -15.752   2.251  1.00  0.00    -0.000 C 
BRANCH  22  23
ATOM     23  C   UNL     1      -6.208 -16.653   1.017  1.00  0.00    -0.000 C 
BRANCH  23  24
ATOM     24  C   UNL     1      -6.045 -18.164   1.284  1.00  0.00    -0.000 C 
BRANCH  24  25
ATOM     25  C   UNL     1      -6.480 -19.080   0.126  1.00  0.00    -0.003 C 
ATOM     26  C   UNL     1      -5.366 -19.323  -0.891  1.00  0.00     0.004 C 
ENDBRANCH  24  25
ENDBRANCH  23  24
ENDBRANCH  22  23
ENDBRANCH  21  22
ENDBRANCH  20  21
ENDBRANCH  19  20
ENDBRANCH  18  19
ENDBRANCH  17  18
ENDBRANCH  16  17
ENDBRANCH  15  16
ENDBRANCH   1  15
TORSDOF 22
ENDMDL
MODEL 3
REMARK VINA RESULT:    -3.610      4.484     12.274
REMARK INTER + INTRA:         -10.029
REMARK INTER:                  -8.806
REMARK INTRA:                  -1.222
REMARK UNBOUND:                -1.775
REMARK SMILES CCCCCCCCCCCCCCCCCCCCCCCC(=O)[O-]
REMARK SMILES IDX 13 1 14 2 15 3 16 4 17 5 18 6 19 7 20 8 21 9 22 10 23 11
REMARK SMILES IDX 24 12 25 13 26 14 12 15 11 16 10 17 9 18 8 19 7 20 6 21 5 22
REMARK SMILES IDX 4 23 3 24 2 25 1 26
REMARK H PARENT
REMARK Flexibility Score: inf
ROOT
ATOM      1  C   UNL     1      -7.133  -9.544   1.099  1.00  0.00     0.000 C 
ENDROOT
BRANCH   1   2
ATOM      2  C   UNL     1      -6.133  -9.506   2.270  1.00  0.00     0.000 C 
BRANCH   2   3
ATOM      3  C   UNL     1      -5.386  -8.170   2.441  1.00  0.00     0.000 C 
BRANCH   3   4
ATOM      4  C   UNL     1      -6.317  -6.949   2.371  1.00  0.00     0.000 C 
BRANCH   4   5
ATOM      5  C   UNL     1      -5.897  -6.003   1.236  1.00  0.00     0.000 C 
BRANCH   5   6
ATOM      6  C   UNL     1      -5.500  -4.609   1.745  1.00  0.00     0.000 C 
BRANCH   6   7
ATOM      7  C   UNL     1      -6.552  -3.540   1.416  1.00  0.00     0.000 C 
BRANCH   7   8
ATOM      8  C   UNL     1      -7.072  -2.864   2.693  1.00  0.00     0.000 C 
BRANCH   8   9
ATOM      9  C   UNL     1      -8.454  -3.404   3.118  1.00  0.00     0.000 C 
BRANCH   9  10
ATOM     10  C   UNL     1      -9.595  -2.382   2.945  1.00  0.00     0.006 C 
BRANCH  10  11
ATOM     11  C   UNL     1     -10.974  -3.015   2.709  1.00  0.00     0.053 C 
BRANCH  11  12
ATOM     12  C   UNL     1     -10.867  -4.426   2.213  1.00  0.00     0.041 C 
ATOM     13  O   UNL     1     -10.678  -4.657   0.990  1.00  0.00    -0.550 OA
ATOM     14  O   UNL     1     -10.990  -5.489   3.101  1.00  0.00    -0.550 OA
ENDBRANCH  11  12
ENDBRANCH  10  11
ENDBRANCH   9  10
ENDBRANCH   8   9
ENDBRANCH   7   8
ENDBRANCH   6   7
ENDBRANCH   5   6
ENDBRANCH   4   5
ENDBRANCH   3   4
ENDBRANCH   2   3
ENDBRANCH   1   2
BRANCH   1  15
ATOM     15  C   UNL     1      -6.474  -9.940  -0.233  1.00  0.00     0.000 C 
BRANCH  15  16
ATOM     16  C   UNL     1      -5.468 -11.092  -0.079  1.00  0.00     0.000 C 
BRANCH  16  17
ATOM     17  C   UNL     1      -6.159 -12.442   0.181  1.00  0.00     0.000 C 
BRANCH  17  18
ATOM     18  C   UNL     1      -5.729 -13.089   1.510  1.00  0.00    -0.000 C 
BRANCH  18  19
ATOM     19  C   UNL     1      -6.641 -14.229   2.010  1.00  0.00    -0.000 C 
BRANCH  19  20
ATOM     20  C   UNL     1      -5.975 -15.617   2.098  1.00  0.00    -0.000 C 
BRANCH  20  21
ATOM     21  C   UNL     1      -6.241 -16.538   0.894  1.00  0.00    -0.000 C 
BRANCH  21  22
ATOM     22  C   UNL     1      -6.125 -18.030   1.250  1.00  0.00    -0.000 C 
BRANCH  22  23
ATOM     23  C   UNL     1      -6.111 -18.938   0.008  1.00  0.00    -0.000 C 
BRANCH  23  24
ATOM     24  C   UNL     1      -7.418 -19.721  -0.241  1.00  0.00    -0.000 C 
BRANCH  24  25
ATOM     25  C   UNL     1      -7.325 -20.816  -1.319  1.00  0.00    -0.003 C 
ATOM     26  C   UNL     1      -6.049 -20.721  -2.155  1.00  0.00     0.004 C 
ENDBRANCH  24  25
ENDBRANCH  23  24
ENDBRANCH  22  23
ENDBRANCH  21  22
ENDBRANCH  20  21
ENDBRANCH  19  20
ENDBRANCH  18  19
ENDBRANCH  17  18
ENDBRANCH  16  17
ENDBRANCH  15  16
ENDBRANCH   1  15
TORSDOF 22
ENDMDL
MODEL 4
REMARK VINA RESULT:    -2.476     20.105     23.143
REMARK INTER + INTRA:          -7.436
REMARK INTER:                  -4.216
REMARK INTRA:                  -3.220
REMARK UNBOUND:                -1.775
REMARK SMILES CCCCCCCCCCCCCCCCCCCCCCCC(=O)[O-]
REMARK SMILES IDX 13 1 14 2 15 3 16 4 17 5 18 6 19 7 20 8 21 9 22 10 23 11
REMARK SMILES IDX 24 12 25 13 26 14 12 15 11 16 10 17 9 18 8 19 7 20 6 21 5 22
REMARK SMILES IDX 4 23 3 24 2 25 1 26
REMARK H PARENT
REMARK Flexibility Score: inf
ROOT
ATOM      1  C   UNL     1     -21.327  -1.784 -15.424  1.00  0.00     0.000 C 
ENDROOT
BRANCH   1   2
ATOM      2  C   UNL     1     -21.992  -0.988 -16.563  1.00  0.00     0.000 C 
BRANCH   2   3
ATOM      3  C   UNL     1     -23.424  -1.433 -16.913  1.00  0.00     0.000 C 
BRANCH   3   4
ATOM      4  C   UNL     1     -23.831  -2.744 -16.222  1.00  0.00     0.000 C 
BRANCH   4   5
ATOM      5  C   UNL     1     -23.539  -3.953 -17.125  1.00  0.00     0.000 C 
BRANCH   5   6
ATOM      6  C   UNL     1     -24.502  -5.124 -16.873  1.00  0.00     0.000 C 
BRANCH   6   7
ATOM      7  C   UNL     1     -23.800  -6.488 -16.934  1.00  0.00     0.000 C 
BRANCH   7   8
ATOM      8  C   UNL     1     -22.424  -6.432 -16.255  1.00  0.00     0.000 C 
BRANCH   8   9
ATOM      9  C   UNL     1     -22.211  -7.604 -15.272  1.00  0.00     0.000 C 
BRANCH   9  10
ATOM     10  C   UNL     1     -20.797  -7.645 -14.661  1.00  0.00     0.006 C 
BRANCH  10  11
ATOM     11  C   UNL     1     -20.778  -7.681 -13.125  1.00  0.00     0.053 C 
BRANCH  11  12
ATOM     12  C   UNL     1     -20.224  -8.973 -12.601  1.00  0.00     0.041 C 
ATOM     13  O   UNL     1     -20.323  -9.258 -11.379  1.00  0.00    -0.550 OA
ATOM     14  O   UNL     1     -19.585  -9.858 -13.463  1.00  0.00    -0.550 OA
ENDBRANCH  11  12
ENDBRANCH  10  11
ENDBRANCH   9  10
ENDBRANCH   8   9
ENDBRANCH   7   8
ENDBRANCH   6   7
ENDBRANCH   5   6
ENDBRANCH   4   5
ENDBRANCH   3   4
ENDBRANCH   2   3
ENDBRANCH   1   2
BRANCH   1  15
ATOM     15  C   UNL     1     -19.839  -2.075 -15.692  1.00  0.00     0.000 C 
BRANCH  15  16
ATOM     16  C   UNL     1     -19.499  -3.571 -15.588  1.00  0.00     0.000 C 
BRANCH  16  17
ATOM     17  C   UNL     1     -20.530  -4.351 -14.755  1.00  0.00     0.000 C 
BRANCH  17  18
ATOM     18  C   UNL     1     -20.377  -4.118 -13.241  1.00  0.00    -0.000 C 
BRANCH  18  19
ATOM     19  C   UNL     1     -21.652  -4.361 -12.407  1.00  0.00    -0.000 C 
BRANCH  19  20
ATOM     20  C   UNL     1     -22.963  -4.439 -13.214  1.00  0.00    -0.000 C 
BRANCH  20  21
ATOM     21  C   UNL     1     -24.201  -3.876 -12.492  1.00  0.00    -0.000 C 
BRANCH  21  22
ATOM     22  C   UNL     1     -24.901  -2.764 -13.291  1.00  0.00    -0.000 C 
BRANCH  22  23
ATOM     23  C   UNL     1     -24.343  -1.365 -12.976  1.00  0.00    -0.000 C 
BRANCH  23  24
ATOM     24  C   UNL     1     -23.876  -1.164 -11.519  1.00  0.00    -0.000 C 
BRANCH  24  25
ATOM     25  C   UNL     1     -22.373  -0.876 -11.352  1.00  0.00    -0.003 C 
ATOM     26  C   UNL     1     -21.721  -1.730 -10.265  1.00  0.00     0.004 C 
ENDBRANCH  24  25
ENDBRANCH  23  24
ENDBRANCH  22  23
ENDBRANCH  21  22
ENDBRANCH  20  21
ENDBRANCH  19  20
ENDBRANCH  18  19
ENDBRANCH  17  18
ENDBRANCH  16  17
ENDBRANCH  15  16
ENDBRANCH   1  15
TORSDOF 22
ENDMDL
MODEL 5
REMARK VINA RESULT:    -2.349     21.095     23.729
REMARK INTER + INTRA:          -7.144
REMARK INTER:                  -5.333
REMARK INTRA:                  -1.811
REMARK UNBOUND:                -1.775
REMARK SMILES CCCCCCCCCCCCCCCCCCCCCCCC(=O)[O-]
REMARK SMILES IDX 13 1 14 2 15 3 16 4 17 5 18 6 19 7 20 8 21 9 22 10 23 11
REMARK SMILES IDX 24 12 25 13 26 14 12 15 11 16 10 17 9 18 8 19 7 20 6 21 5 22
REMARK SMILES IDX 4 23 3 24 2 25 1 26
REMARK H PARENT
REMARK Flexibility Score: inf
ROOT
ATOM      1  C   UNL     1     -20.466  -6.765 -13.234  1.00  0.00     0.000 C 
ENDROOT
BRANCH   1   2
ATOM      2  C   UNL     1     -21.319  -6.697 -14.515  1.00  0.00     0.000 C 
BRANCH   2   3
ATOM      3  C   UNL     1     -20.514  -6.640 -15.827  1.00  0.00     0.000 C 
BRANCH   3   4
ATOM      4  C   UNL     1     -20.607  -5.276 -16.529  1.00  0.00     0.000 C 
BRANCH   4   5
ATOM      5  C   UNL     1     -21.722  -4.417 -15.913  1.00  0.00     0.000 C 
BRANCH   5   6
ATOM      6  C   UNL     1     -23.103  -4.719 -16.517  1.00  0.00     0.000 C 
BRANCH   6   7
ATOM      7  C   UNL     1     -23.918  -5.699 -15.661  1.00  0.00     0.000 C 
BRANCH   7   8
ATOM      8  C   UNL     1     -24.697  -6.686 -16.542  1.00  0.00     0.000 C 
BRANCH   8   9
ATOM      9  C   UNL     1     -23.805  -7.834 -17.062  1.00  0.00     0.000 C 
BRANCH   9  10
ATOM     10  C   UNL     1     -24.161  -9.210 -16.465  1.00  0.00     0.006 C 
BRANCH  10  11
ATOM     11  C   UNL     1     -23.123 -10.305 -16.750  1.00  0.00     0.053 C 
BRANCH  11  12
ATOM     12  C   UNL     1     -23.750 -11.666 -16.829  1.00  0.00     0.041 C 
ATOM     13  O   UNL     1     -23.038 -12.682 -17.041  1.00  0.00    -0.550 OA
ATOM     14  O   UNL     1     -25.125 -11.809 -16.683  1.00  0.00    -0.550 OA
ENDBRANCH  11  12
ENDBRANCH  10  11
ENDBRANCH   9  10
ENDBRANCH   8   9
ENDBRANCH   7   8
ENDBRANCH   6   7
ENDBRANCH   5   6
ENDBRANCH   4   5
ENDBRANCH   3   4
ENDBRANCH   2   3
ENDBRANCH   1   2
BRANCH   1  15
ATOM     15  C   UNL     1     -19.949  -5.385 -12.790  1.00  0.00     0.000 C 
BRANCH  15  16
ATOM     16  C   UNL     1     -20.881  -4.238 -13.212  1.00  0.00     0.000 C 
BRANCH  16  17
ATOM     17  C   UNL     1     -21.544  -3.548 -12.008  1.00  0.00     0.000 C 
BRANCH  17  18
ATOM     18  C   UNL     1     -23.042  -3.272 -12.226  1.00  0.00    -0.000 C 
BRANCH  18  19
ATOM     19  C   UNL     1     -23.462  -1.792 -12.102  1.00  0.00    -0.000 C 
BRANCH  19  20
ATOM     20  C   UNL     1     -24.318  -1.250 -13.265  1.00  0.00    -0.000 C 
BRANCH  20  21
ATOM     21  C   UNL     1     -24.029  -1.892 -14.633  1.00  0.00    -0.000 C 
BRANCH  21  22
ATOM     22  C   UNL     1     -24.073  -0.878 -15.788  1.00  0.00    -0.000 C 
BRANCH  22  23
ATOM     23  C   UNL     1     -22.782  -0.876 -16.627  1.00  0.00    -0.000 C 
BRANCH  23  24
ATOM     24  C   UNL     1     -21.509  -1.294 -15.862  1.00  0.00    -0.000 C 
BRANCH  24  25
ATOM     25  C   UNL     1     -20.187  -1.019 -16.601  1.00  0.00    -0.003 C 
ATOM     26  C   UNL     1     -18.965  -1.549 -15.851  1.00  0.00     0.004 C 
ENDBRANCH  24  25
ENDBRANCH  23  24
ENDBRANCH  22  23
ENDBRANCH  21  22
ENDBRANCH  20  21
ENDBRANCH  19  20
ENDBRANCH  18  19
ENDBRANCH  17  18
ENDBRANCH  16  17
ENDBRANCH  15  16
ENDBRANCH   1  15
TORSDOF 22
ENDMDL
MODEL 6
REMARK VINA RESULT:    -2.283     20.805     23.264
REMARK INTER + INTRA:          -6.995
REMARK INTER:                  -3.601
REMARK INTRA:                  -3.394
REMARK UNBOUND:                -1.775
REMARK SMILES CCCCCCCCCCCCCCCCCCCCCCCC(=O)[O-]
REMARK SMILES IDX 13 1 14 2 15 3 16 4 17 5 18 6 19 7 20 8 21 9 22 10 23 11
REMARK SMILES IDX 24 12 25 13 26 14 12 15 11 16 10 17 9 18 8 19 7 20 6 21 5 22
REMARK SMILES IDX 4 23 3 24 2 25 1 26
REMARK H PARENT
REMARK Flexibility Score: inf
ROOT
ATOM      1  C   UNL     1     -21.332  -5.519 -13.143  1.00  0.00     0.000 C 
ENDROOT
BRANCH   1   2
ATOM      2  C   UNL     1     -21.949  -6.108 -14.425  1.00  0.00     0.000 C 
BRANCH   2   3
ATOM      3  C   UNL     1     -23.172  -5.344 -14.965  1.00  0.00     0.000 C 
BRANCH   3   4
ATOM      4  C   UNL     1     -23.202  -5.268 -16.500  1.00  0.00     0.000 C 
BRANCH   4   5
ATOM      5  C   UNL     1     -23.421  -6.659 -17.113  1.00  0.00     0.000 C 
BRANCH   5   6
ATOM      6  C   UNL     1     -24.816  -7.227 -16.808  1.00  0.00     0.000 C 
BRANCH   6   7
ATOM      7  C   UNL     1     -24.825  -8.761 -16.733  1.00  0.00     0.000 C 
BRANCH   7   8
ATOM      8  C   UNL     1     -23.443  -9.338 -17.070  1.00  0.00     0.000 C 
BRANCH   8   9
ATOM      9  C   UNL     1     -22.805 -10.066 -15.867  1.00  0.00     0.000 C 
BRANCH   9  10
ATOM     10  C   UNL     1     -21.763  -9.216 -15.114  1.00  0.00     0.006 C 
BRANCH  10  11
ATOM     11  C   UNL     1     -21.122  -9.928 -13.913  1.00  0.00     0.053 C 
BRANCH  11  12
ATOM     12  C   UNL     1     -20.241  -9.008 -13.121  1.00  0.00     0.041 C 
ATOM     13  O   UNL     1     -19.214  -8.504 -13.644  1.00  0.00    -0.550 OA
ATOM     14  O   UNL     1     -20.549  -8.718 -11.796  1.00  0.00    -0.550 OA
ENDBRANCH  11  12
ENDBRANCH  10  11
ENDBRANCH   9  10
ENDBRANCH   8   9
ENDBRANCH   7   8
ENDBRANCH   6   7
ENDBRANCH   5   6
ENDBRANCH   4   5
ENDBRANCH   3   4
ENDBRANCH   2   3
ENDBRANCH   1   2
BRANCH   1  15
ATOM     15  C   UNL     1     -19.900  -4.998 -13.358  1.00  0.00     0.000 C 
BRANCH  15  16
ATOM     16  C   UNL     1     -19.692  -4.393 -14.756  1.00  0.00     0.000 C 
BRANCH  16  17
ATOM     17  C   UNL     1     -20.284  -2.978 -14.876  1.00  0.00     0.000 C 
BRANCH  17  18
ATOM     18  C   UNL     1     -19.597  -2.132 -15.963  1.00  0.00    -0.000 C 
BRANCH  18  19
ATOM     19  C   UNL     1     -20.535  -1.203 -16.762  1.00  0.00    -0.000 C 
BRANCH  19  20
ATOM     20  C   UNL     1     -21.933  -1.779 -17.065  1.00  0.00    -0.000 C 
BRANCH  20  21
ATOM     21  C   UNL     1     -23.106  -0.959 -16.499  1.00  0.00    -0.000 C 
BRANCH  21  22
ATOM     22  C   UNL     1     -24.139  -1.828 -15.762  1.00  0.00    -0.000 C 
BRANCH  22  23
ATOM     23  C   UNL     1     -24.629  -1.186 -14.452  1.00  0.00    -0.000 C 
BRANCH  23  24
ATOM     24  C   UNL     1     -24.555  -2.100 -13.211  1.00  0.00    -0.000 C 
BRANCH  24  25
ATOM     25  C   UNL     1     -23.139  -2.320 -12.650  1.00  0.00    -0.003 C 
ATOM     26  C   UNL     1     -22.343  -1.022 -12.517  1.00  0.00     0.004 C 
ENDBRANCH  24  25
ENDBRANCH  23  24
ENDBRANCH  22  23
ENDBRANCH  21  22
ENDBRANCH  20  21
ENDBRANCH  19  20
ENDBRANCH  18  19
ENDBRANCH  17  18
ENDBRANCH  16  17
ENDBRANCH  15  16
ENDBRANCH   1  15
TORSDOF 22
ENDMDL
MODEL 7
REMARK VINA RESULT:    -2.156     20.220     24.198
REMARK INTER + INTRA:          -6.704
REMARK INTER:                  -5.477
REMARK INTRA:                  -1.227
REMARK UNBOUND:                -1.775
REMARK SMILES CCCCCCCCCCCCCCCCCCCCCCCC(=O)[O-]
REMARK SMILES IDX 13 1 14 2 15 3 16 4 17 5 18 6 19 7 20 8 21 9 22 10 23 11
REMARK SMILES IDX 24 12 25 13 26 14 12 15 11 16 10 17 9 18 8 19 7 20 6 21 5 22
REMARK SMILES IDX 4 23 3 24 2 25 1 26
REMARK H PARENT
REMARK Flexibility Score: inf
ROOT
ATOM      1  C   UNL     1     -22.560  -3.931 -15.960  1.00  0.00     0.000 C 
ENDROOT
BRANCH   1   2
ATOM      2  C   UNL     1     -21.284  -3.214 -16.438  1.00  0.00     0.000 C 
BRANCH   2   3
ATOM      3  C   UNL     1     -21.070  -1.809 -15.845  1.00  0.00     0.000 C 
BRANCH   3   4
ATOM      4  C   UNL     1     -21.402  -1.734 -14.347  1.00  0.00     0.000 C 
BRANCH   4   5
ATOM      5  C   UNL     1     -22.901  -1.477 -14.129  1.00  0.00     0.000 C 
BRANCH   5   6
ATOM      6  C   UNL     1     -23.479  -2.300 -12.967  1.00  0.00     0.000 C 
BRANCH   6   7
ATOM      7  C   UNL     1     -24.428  -1.481 -12.080  1.00  0.00     0.000 C 
BRANCH   7   8
ATOM      8  C   UNL     1     -23.682  -0.875 -10.883  1.00  0.00     0.000 C 
BRANCH   8   9
ATOM      9  C   UNL     1     -22.273  -1.482 -10.705  1.00  0.00     0.000 C 
BRANCH   9  10
ATOM     10  C   UNL     1     -21.626  -1.149  -9.347  1.00  0.00     0.006 C 
BRANCH  10  11
ATOM     11  C   UNL     1     -20.107  -0.929  -9.413  1.00  0.00     0.053 C 
BRANCH  11  12
ATOM     12  C   UNL     1     -19.433  -1.280  -8.120  1.00  0.00     0.041 C 
ATOM     13  O   UNL     1     -20.115  -1.637  -7.124  1.00  0.00    -0.550 OA
ATOM     14  O   UNL     1     -18.049  -1.199  -8.011  1.00  0.00    -0.550 OA
ENDBRANCH  11  12
ENDBRANCH  10  11
ENDBRANCH   9  10
ENDBRANCH   8   9
ENDBRANCH   7   8
ENDBRANCH   6   7
ENDBRANCH   5   6
ENDBRANCH   4   5
ENDBRANCH   3   4
ENDBRANCH   2   3
ENDBRANCH   1   2
BRANCH   1  15
ATOM     15  C   UNL     1     -23.841  -3.340 -16.575  1.00  0.00     0.000 C 
BRANCH  15  16
ATOM     16  C   UNL     1     -24.933  -4.399 -16.805  1.00  0.00     0.000 C 
BRANCH  16  17
ATOM     17  C   UNL     1     -24.348  -5.800 -17.052  1.00  0.00     0.000 C 
BRANCH  17  18
ATOM     18  C   UNL     1     -25.105  -6.907 -16.297  1.00  0.00    -0.000 C 
BRANCH  18  19
ATOM     19  C   UNL     1     -24.623  -8.345 -16.584  1.00  0.00    -0.000 C 
BRANCH  19  20
ATOM     20  C   UNL     1     -23.139  -8.477 -16.981  1.00  0.00    -0.000 C 
BRANCH  20  21
ATOM     21  C   UNL     1     -22.157  -8.530 -15.797  1.00  0.00    -0.000 C 
BRANCH  21  22
ATOM     22  C   UNL     1     -21.330  -7.242 -15.652  1.00  0.00    -0.000 C 
BRANCH  22  23
ATOM     23  C   UNL     1     -21.576  -6.525 -14.312  1.00  0.00    -0.000 C 
BRANCH  23  24
ATOM     24  C   UNL     1     -20.602  -6.910 -13.180  1.00  0.00    -0.000 C 
BRANCH  24  25
ATOM     25  C   UNL     1     -20.938  -8.223 -12.450  1.00  0.00    -0.003 C 
ATOM     26  C   UNL     1     -20.202  -9.431 -13.028  1.00  0.00     0.004 C 
ENDBRANCH  24  25
ENDBRANCH  23  24
ENDBRANCH  22  23
ENDBRANCH  21  22
ENDBRANCH  20  21
ENDBRANCH  19  20
ENDBRANCH  18  19
ENDBRANCH  17  18
ENDBRANCH  16  17
ENDBRANCH  15  16
ENDBRANCH   1  15
TORSDOF 22
ENDMDL
MODEL 8
REMARK VINA RESULT:    -1.544     21.557     25.180
REMARK INTER + INTRA:          -5.305
REMARK INTER:                  -3.312
REMARK INTRA:                  -1.993
REMARK UNBOUND:                -1.775
REMARK SMILES CCCCCCCCCCCCCCCCCCCCCCCC(=O)[O-]
REMARK SMILES IDX 13 1 14 2 15 3 16 4 17 5 18 6 19 7 20 8 21 9 22 10 23 11
REMARK SMILES IDX 24 12 25 13 26 14 12 15 11 16 10 17 9 18 8 19 7 20 6 21 5 22
REMARK SMILES IDX 4 23 3 24 2 25 1 26
REMARK H PARENT
REMARK Flexibility Score: inf
ROOT
ATOM      1  C   UNL     1     -20.229  -6.106 -12.987  1.00  0.00     0.000 C 
ENDROOT
BRANCH   1   2
ATOM      2  C   UNL     1     -19.495  -4.756 -13.088  1.00  0.00     0.000 C 
BRANCH   2   3
ATOM      3  C   UNL     1     -20.013  -3.819 -14.195  1.00  0.00     0.000 C 
BRANCH   3   4
ATOM      4  C   UNL     1     -19.060  -3.727 -15.398  1.00  0.00     0.000 C 
BRANCH   4   5
ATOM      5  C   UNL     1     -19.493  -2.608 -16.357  1.00  0.00     0.000 C 
BRANCH   5   6
ATOM      6  C   UNL     1     -20.026  -1.370 -15.619  1.00  0.00     0.000 C 
BRANCH   6   7
ATOM      7  C   UNL     1     -21.443  -0.983 -16.065  1.00  0.00     0.000 C 
BRANCH   7   8
ATOM      8  C   UNL     1     -22.375  -2.203 -16.069  1.00  0.00     0.000 C 
BRANCH   8   9
ATOM      9  C   UNL     1     -23.865  -1.800 -16.122  1.00  0.00     0.000 C 
BRANCH   9  10
ATOM     10  C   UNL     1     -24.564  -1.845 -14.749  1.00  0.00     0.006 C 
BRANCH  10  11
ATOM     11  C   UNL     1     -23.619  -1.635 -13.557  1.00  0.00     0.053 C 
BRANCH  11  12
ATOM     12  C   UNL     1     -23.783  -2.704 -12.516  1.00  0.00     0.041 C 
ATOM     13  O   UNL     1     -24.832  -2.761 -11.824  1.00  0.00    -0.550 OA
ATOM     14  O   UNL     1     -22.768  -3.629 -12.301  1.00  0.00    -0.550 OA
ENDBRANCH  11  12
ENDBRANCH  10  11
ENDBRANCH   9  10
ENDBRANCH   8   9
ENDBRANCH   7   8
ENDBRANCH   6   7
ENDBRANCH   5   6
ENDBRANCH   4   5
ENDBRANCH   3   4
ENDBRANCH   2   3
ENDBRANCH   1   2
BRANCH   1  15
ATOM     15  C   UNL     1     -20.293  -6.851 -14.332  1.00  0.00     0.000 C 
BRANCH  15  16
ATOM     16  C   UNL     1     -21.724  -6.954 -14.885  1.00  0.00     0.000 C 
BRANCH  16  17
ATOM     17  C   UNL     1     -22.462  -5.605 -14.858  1.00  0.00     0.000 C 
BRANCH  17  18
ATOM     18  C   UNL     1     -23.993  -5.758 -14.921  1.00  0.00    -0.000 C 
BRANCH  18  19
ATOM     19  C   UNL     1     -24.616  -5.552 -16.318  1.00  0.00    -0.000 C 
BRANCH  19  20
ATOM     20  C   UNL     1     -24.867  -6.842 -17.124  1.00  0.00    -0.000 C 
BRANCH  20  21
ATOM     21  C   UNL     1     -24.696  -8.147 -16.326  1.00  0.00    -0.000 C 
BRANCH  21  22
ATOM     22  C   UNL     1     -25.117  -9.393 -17.124  1.00  0.00    -0.000 C 
BRANCH  22  23
ATOM     23  C   UNL     1     -24.597 -10.700 -16.501  1.00  0.00    -0.000 C 
BRANCH  23  24
ATOM     24  C   UNL     1     -23.060 -10.815 -16.418  1.00  0.00    -0.000 C 
BRANCH  24  25
ATOM     25  C   UNL     1     -22.523 -12.247 -16.238  1.00  0.00    -0.003 C 
ATOM     26  C   UNL     1     -23.330 -13.287 -17.015  1.00  0.00     0.004 C 
ENDBRANCH  24  25
ENDBRANCH  23  24
ENDBRANCH  22  23
ENDBRANCH  21  22
ENDBRANCH  20  21
ENDBRANCH  19  20
ENDBRANCH  18  19
ENDBRANCH  17  18
ENDBRANCH  16  17
ENDBRANCH  15  16
ENDBRANCH   1  15
TORSDOF 22
ENDMDL
