MODEL 1
REMARK VINA RESULT:    -5.885      0.000      0.000
REMARK INTER + INTRA:          -7.176
REMARK INTER:                  -7.089
REMARK INTRA:                  -0.087
REMARK UNBOUND:                -0.087
REMARK SMILES O=c1c(O)c(-c2ccc(O)c(O)c2)oc2cc(O)cc(O)c12
REMARK SMILES IDX 5 1 3 2 2 3 1 4 22 5 20 6 19 7 17 8 16 9 15 10 14 11 6 12
REMARK SMILES IDX 7 13 8 14 9 15 13 16 11 17 10 18 12 20 4 22 21 24 18 26
REMARK H PARENT 10 19 12 21 4 23 21 25 18 27
REMARK Flexibility Score: inf
ROOT
ATOM      1  C   UNL     1     152.639 155.508 139.268  1.00  0.00     0.180 A 
ATOM      2  C   UNL     1     153.563 155.387 140.325  1.00  0.00     0.208 A 
ATOM      3  C   UNL     1     154.469 154.315 140.313  1.00  0.00     0.238 A 
ATOM      4  O   UNL     1     155.308 154.202 141.249  1.00  0.00    -0.285 OA
ATOM      5  C   UNL     1     154.423 153.375 139.264  1.00  0.00     0.111 A 
ATOM      6  C   UNL     1     155.297 152.264 139.180  1.00  0.00     0.134 A 
ATOM      7  C   UNL     1     155.183 151.367 138.107  1.00  0.00     0.093 A 
ATOM      8  C   UNL     1     154.214 151.558 137.120  1.00  0.00     0.123 A 
ATOM      9  C   UNL     1     153.348 152.653 137.196  1.00  0.00     0.094 A 
ATOM     10  C   UNL     1     153.447 153.560 138.256  1.00  0.00     0.146 A 
ATOM     11  O   UNL     1     152.616 154.595 138.303  1.00  0.00    -0.452 OA
ENDROOT
BRANCH   1  12
ATOM     12  C   UNL     1     151.666 156.621 139.200  1.00  0.00     0.025 A 
ATOM     13  C   UNL     1     151.698 157.500 138.105  1.00  0.00     0.016 A 
ATOM     14  C   UNL     1     150.803 158.571 138.029  1.00  0.00     0.051 A 
ATOM     15  C   UNL     1     149.873 158.788 139.054  1.00  0.00     0.157 A 
ATOM     16  C   UNL     1     150.744 156.855 140.236  1.00  0.00     0.062 A 
ATOM     17  C   UNL     1     149.848 157.928 140.164  1.00  0.00     0.158 A 
BRANCH  15  18
ATOM     18  O   UNL     1     148.980 159.856 138.975  1.00  0.00    -0.504 OA
ATOM     19  H   UNL     1     147.992 159.737 139.162  1.00  0.00     0.293 HD
ENDBRANCH  15  18
BRANCH  17  20
ATOM     20  O   UNL     1     148.944 158.126 141.208  1.00  0.00    -0.504 OA
ATOM     21  H   UNL     1     147.994 158.436 141.045  1.00  0.00     0.293 HD
ENDBRANCH  17  20
ENDBRANCH   1  12
BRANCH   2  22
ATOM     22  O   UNL     1     153.555 156.305 141.379  1.00  0.00    -0.502 OA
ATOM     23  H   UNL     1     153.921 157.244 141.283  1.00  0.00     0.293 HD
ENDBRANCH   2  22
BRANCH   6  24
ATOM     24  O   UNL     1     156.275 152.045 140.151  1.00  0.00    -0.507 OA
ATOM     25  H   UNL     1     156.057 151.614 141.041  1.00  0.00     0.293 HD
ENDBRANCH   6  24
BRANCH   8  26
ATOM     26  O   UNL     1     154.121 150.652 136.066  1.00  0.00    -0.508 OA
ATOM     27  H   UNL     1     153.816 150.942 135.144  1.00  0.00     0.293 HD
ENDBRANCH   8  26
TORSDOF 6
ENDMDL
MODEL 2
REMARK VINA RESULT:    -5.644      2.162      2.963
REMARK INTER + INTRA:          -6.886
REMARK INTER:                  -6.556
REMARK INTRA:                  -0.331
REMARK UNBOUND:                -0.087
REMARK SMILES O=c1c(O)c(-c2ccc(O)c(O)c2)oc2cc(O)cc(O)c12
REMARK SMILES IDX 5 1 3 2 2 3 1 4 22 5 20 6 19 7 17 8 16 9 15 10 14 11 6 12
REMARK SMILES IDX 7 13 8 14 9 15 13 16 11 17 10 18 12 20 4 22 21 24 18 26
REMARK H PARENT 10 19 12 21 4 23 21 25 18 27
REMARK Flexibility Score: inf
ROOT
ATOM      1  C   UNL     1     152.746 156.334 138.883  1.00  0.00     0.180 A 
ATOM      2  C   UNL     1     153.712 157.115 138.219  1.00  0.00     0.208 A 
ATOM      3  C   UNL     1     154.519 156.509 137.243  1.00  0.00     0.238 A 
ATOM      4  O   UNL     1     155.381 157.201 136.635  1.00  0.00    -0.285 OA
ATOM      5  C   UNL     1     154.364 155.136 136.965  1.00  0.00     0.111 A 
ATOM      6  C   UNL     1     155.140 154.448 136.000  1.00  0.00     0.134 A 
ATOM      7  C   UNL     1     154.930 153.077 135.786  1.00  0.00     0.093 A 
ATOM      8  C   UNL     1     153.964 152.383 136.516  1.00  0.00     0.123 A 
ATOM      9  C   UNL     1     153.193 153.056 137.469  1.00  0.00     0.094 A 
ATOM     10  C   UNL     1     153.385 154.422 137.696  1.00  0.00     0.146 A 
ATOM     11  O   UNL     1     152.637 155.039 138.604  1.00  0.00    -0.452 OA
ENDROOT
BRANCH   1  12
ATOM     12  C   UNL     1     151.844 156.905 139.909  1.00  0.00     0.025 A 
ATOM     13  C   UNL     1     152.229 156.876 141.259  1.00  0.00     0.016 A 
ATOM     14  C   UNL     1     151.385 157.389 142.247  1.00  0.00     0.051 A 
ATOM     15  C   UNL     1     150.137 157.926 141.902  1.00  0.00     0.157 A 
ATOM     16  C   UNL     1     150.583 157.426 139.569  1.00  0.00     0.062 A 
ATOM     17  C   UNL     1     149.734 157.939 140.557  1.00  0.00     0.158 A 
BRANCH  15  18
ATOM     18  O   UNL     1     149.298 158.440 142.890  1.00  0.00    -0.504 OA
ATOM     19  H   UNL     1     148.451 158.943 142.657  1.00  0.00     0.293 HD
ENDBRANCH  15  18
BRANCH  17  20
ATOM     20  O   UNL     1     148.493 158.453 140.182  1.00  0.00    -0.504 OA
ATOM     21  H   UNL     1     148.292 159.446 140.207  1.00  0.00     0.293 HD
ENDBRANCH  17  20
ENDBRANCH   1  12
BRANCH   2  22
ATOM     22  O   UNL     1     153.880 158.462 138.549  1.00  0.00    -0.502 OA
ATOM     23  H   UNL     1     153.393 158.895 139.324  1.00  0.00     0.293 HD
ENDBRANCH   2  22
BRANCH   6  24
ATOM     24  O   UNL     1     156.114 155.114 135.255  1.00  0.00    -0.507 OA
ATOM     25  H   UNL     1     156.482 154.729 134.393  1.00  0.00     0.293 HD
ENDBRANCH   6  24
BRANCH   8  26
ATOM     26  O   UNL     1     153.776 151.021 136.285  1.00  0.00    -0.508 OA
ATOM     27  H   UNL     1     154.544 150.420 136.012  1.00  0.00     0.293 HD
ENDBRANCH   8  26
TORSDOF 6
ENDMDL
MODEL 3
REMARK VINA RESULT:    -5.579      2.029      3.617
REMARK INTER + INTRA:          -6.808
REMARK INTER:                  -6.936
REMARK INTRA:                   0.128
REMARK UNBOUND:                -0.087
REMARK SMILES O=c1c(O)c(-c2ccc(O)c(O)c2)oc2cc(O)cc(O)c12
REMARK SMILES IDX 5 1 3 2 2 3 1 4 22 5 20 6 19 7 17 8 16 9 15 10 14 11 6 12
REMARK SMILES IDX 7 13 8 14 9 15 13 16 11 17 10 18 12 20 4 22 21 24 18 26
REMARK H PARENT 10 19 12 21 4 23 21 25 18 27
REMARK Flexibility Score: inf
ROOT
ATOM      1  C   UNL     1     153.648 155.101 140.206  1.00  0.00     0.180 A 
ATOM      2  C   UNL     1     153.426 153.820 139.663  1.00  0.00     0.208 A 
ATOM      3  C   UNL     1     154.446 152.860 139.752  1.00  0.00     0.238 A 
ATOM      4  O   UNL     1     154.255 151.707 139.278  1.00  0.00    -0.285 OA
ATOM      5  C   UNL     1     155.672 153.200 140.358  1.00  0.00     0.111 A 
ATOM      6  C   UNL     1     156.753 152.293 140.484  1.00  0.00     0.134 A 
ATOM      7  C   UNL     1     157.945 152.711 141.094  1.00  0.00     0.093 A 
ATOM      8  C   UNL     1     158.079 154.013 141.578  1.00  0.00     0.123 A 
ATOM      9  C   UNL     1     157.015 154.914 141.458  1.00  0.00     0.094 A 
ATOM     10  C   UNL     1     155.818 154.517 140.855  1.00  0.00     0.146 A 
ATOM     11  O   UNL     1     154.822 155.390 140.759  1.00  0.00    -0.452 OA
ENDROOT
BRANCH   1  12
ATOM     12  C   UNL     1     152.614 156.160 140.169  1.00  0.00     0.025 A 
ATOM     13  C   UNL     1     152.376 156.932 141.317  1.00  0.00     0.016 A 
ATOM     14  C   UNL     1     151.390 157.922 141.313  1.00  0.00     0.051 A 
ATOM     15  C   UNL     1     150.618 158.146 140.165  1.00  0.00     0.157 A 
ATOM     16  C   UNL     1     151.822 156.372 139.027  1.00  0.00     0.062 A 
ATOM     17  C   UNL     1     150.832 157.362 139.019  1.00  0.00     0.158 A 
BRANCH  15  18
ATOM     18  O   UNL     1     149.636 159.136 140.163  1.00  0.00    -0.504 OA
ATOM     19  H   UNL     1     148.898 159.153 140.856  1.00  0.00     0.293 HD
ENDBRANCH  15  18
BRANCH  17  20
ATOM     20  O   UNL     1     150.071 157.549 137.866  1.00  0.00    -0.504 OA
ATOM     21  H   UNL     1     149.563 156.790 137.428  1.00  0.00     0.293 HD
ENDBRANCH  17  20
ENDBRANCH   1  12
BRANCH   2  22
ATOM     22  O   UNL     1     152.220 153.523 139.023  1.00  0.00    -0.502 OA
ATOM     23  H   UNL     1     152.132 153.504 138.014  1.00  0.00     0.293 HD
ENDBRANCH   2  22
BRANCH   6  24
ATOM     24  O   UNL     1     156.651 150.985 140.009  1.00  0.00    -0.507 OA
ATOM     25  H   UNL     1     156.604 150.779 139.019  1.00  0.00     0.293 HD
ENDBRANCH   6  24
BRANCH   8  26
ATOM     26  O   UNL     1     159.274 154.403 142.179  1.00  0.00    -0.508 OA
ATOM     27  H   UNL     1     159.337 154.562 143.178  1.00  0.00     0.293 HD
ENDBRANCH   8  26
TORSDOF 6
ENDMDL
MODEL 4
REMARK VINA RESULT:    -5.539      4.290      6.738
REMARK INTER + INTRA:          -6.759
REMARK INTER:                  -6.484
REMARK INTRA:                  -0.276
REMARK UNBOUND:                -0.087
REMARK SMILES O=c1c(O)c(-c2ccc(O)c(O)c2)oc2cc(O)cc(O)c12
REMARK SMILES IDX 5 1 3 2 2 3 1 4 22 5 20 6 19 7 17 8 16 9 15 10 14 11 6 12
REMARK SMILES IDX 7 13 8 14 9 15 13 16 11 17 10 18 12 20 4 22 21 24 18 26
REMARK H PARENT 10 19 12 21 4 23 21 25 18 27
REMARK Flexibility Score: inf
ROOT
ATOM      1  C   UNL     1     152.949 158.030 135.959  1.00  0.00     0.180 A 
ATOM      2  C   UNL     1     151.631 158.400 136.291  1.00  0.00     0.208 A 
ATOM      3  C   UNL     1     151.158 158.129 137.584  1.00  0.00     0.238 A 
ATOM      4  O   UNL     1     149.982 158.465 137.897  1.00  0.00    -0.285 OA
ATOM      5  C   UNL     1     151.996 157.477 138.511  1.00  0.00     0.111 A 
ATOM      6  C   UNL     1     151.594 157.163 139.833  1.00  0.00     0.134 A 
ATOM      7  C   UNL     1     152.485 156.505 140.694  1.00  0.00     0.093 A 
ATOM      8  C   UNL     1     153.765 156.155 140.261  1.00  0.00     0.123 A 
ATOM      9  C   UNL     1     154.169 156.462 138.958  1.00  0.00     0.094 A 
ATOM     10  C   UNL     1     153.297 157.119 138.085  1.00  0.00     0.146 A 
ATOM     11  O   UNL     1     153.707 157.404 136.854  1.00  0.00    -0.452 OA
ENDROOT
BRANCH   1  12
ATOM     12  C   UNL     1     153.527 158.300 134.622  1.00  0.00     0.025 A 
ATOM     13  C   UNL     1     153.741 157.233 133.735  1.00  0.00     0.016 A 
ATOM     14  C   UNL     1     154.305 157.461 132.477  1.00  0.00     0.051 A 
ATOM     15  C   UNL     1     154.677 158.756 132.093  1.00  0.00     0.157 A 
ATOM     16  C   UNL     1     153.921 159.595 134.241  1.00  0.00     0.062 A 
ATOM     17  C   UNL     1     154.488 159.826 132.983  1.00  0.00     0.158 A 
BRANCH  15  18
ATOM     18  O   UNL     1     155.238 158.980 130.837  1.00  0.00    -0.504 OA
ATOM     19  H   UNL     1     155.735 159.836 130.623  1.00  0.00     0.293 HD
ENDBRANCH  15  18
BRANCH  17  20
ATOM     20  O   UNL     1     154.861 161.125 132.637  1.00  0.00    -0.504 OA
ATOM     21  H   UNL     1     154.514 161.935 133.137  1.00  0.00     0.293 HD
ENDBRANCH  17  20
ENDBRANCH   1  12
BRANCH   2  22
ATOM     22  O   UNL     1     150.804 159.000 135.339  1.00  0.00    -0.502 OA
ATOM     23  H   UNL     1     151.095 159.141 134.379  1.00  0.00     0.293 HD
ENDBRANCH   2  22
BRANCH   6  24
ATOM     24  O   UNL     1     150.321 157.499 140.295  1.00  0.00    -0.507 OA
ATOM     25  H   UNL     1     149.504 156.951 140.055  1.00  0.00     0.293 HD
ENDBRANCH   6  24
BRANCH   8  26
ATOM     26  O   UNL     1     154.631 155.501 141.136  1.00  0.00    -0.508 OA
ATOM     27  H   UNL     1     154.420 155.416 142.124  1.00  0.00     0.293 HD
ENDBRANCH   8  26
TORSDOF 6
ENDMDL
MODEL 5
REMARK VINA RESULT:    -5.497      2.275      3.564
REMARK INTER + INTRA:          -6.709
REMARK INTER:                  -6.385
REMARK INTRA:                  -0.324
REMARK UNBOUND:                -0.087
REMARK SMILES O=c1c(O)c(-c2ccc(O)c(O)c2)oc2cc(O)cc(O)c12
REMARK SMILES IDX 5 1 3 2 2 3 1 4 22 5 20 6 19 7 17 8 16 9 15 10 14 11 6 12
REMARK SMILES IDX 7 13 8 14 9 15 13 16 11 17 10 18 12 20 4 22 21 24 18 26
REMARK H PARENT 10 19 12 21 4 23 21 25 18 27
REMARK Flexibility Score: inf
ROOT
ATOM      1  C   UNL     1     153.206 156.097 140.594  1.00  0.00     0.180 A 
ATOM      2  C   UNL     1     152.473 155.249 139.741  1.00  0.00     0.208 A 
ATOM      3  C   UNL     1     153.033 154.018 139.366  1.00  0.00     0.238 A 
ATOM      4  O   UNL     1     152.381 153.245 138.610  1.00  0.00    -0.285 OA
ATOM      5  C   UNL     1     154.316 153.666 139.828  1.00  0.00     0.111 A 
ATOM      6  C   UNL     1     154.953 152.446 139.494  1.00  0.00     0.134 A 
ATOM      7  C   UNL     1     156.238 152.172 139.989  1.00  0.00     0.093 A 
ATOM      8  C   UNL     1     156.896 153.091 140.808  1.00  0.00     0.123 A 
ATOM      9  C   UNL     1     156.272 154.297 141.143  1.00  0.00     0.094 A 
ATOM     10  C   UNL     1     154.992 154.588 140.662  1.00  0.00     0.146 A 
ATOM     11  O   UNL     1     154.420 155.738 141.000  1.00  0.00    -0.452 OA
ENDROOT
BRANCH   1  12
ATOM     12  C   UNL     1     152.676 157.402 141.049  1.00  0.00     0.025 A 
ATOM     13  C   UNL     1     151.862 157.455 142.192  1.00  0.00     0.016 A 
ATOM     14  C   UNL     1     151.332 158.673 142.629  1.00  0.00     0.051 A 
ATOM     15  C   UNL     1     151.596 159.852 141.921  1.00  0.00     0.157 A 
ATOM     16  C   UNL     1     152.920 158.585 140.329  1.00  0.00     0.062 A 
ATOM     17  C   UNL     1     152.389 159.806 140.762  1.00  0.00     0.158 A 
BRANCH  15  18
ATOM     18  O   UNL     1     151.067 161.065 142.359  1.00  0.00    -0.504 OA
ATOM     19  H   UNL     1     151.639 161.898 142.431  1.00  0.00     0.293 HD
ENDBRANCH  15  18
BRANCH  17  20
ATOM     20  O   UNL     1     152.658 160.960 140.026  1.00  0.00    -0.504 OA
ATOM     21  H   UNL     1     152.498 161.010 139.027  1.00  0.00     0.293 HD
ENDBRANCH  17  20
ENDBRANCH   1  12
BRANCH   2  22
ATOM     22  O   UNL     1     151.223 155.643 139.256  1.00  0.00    -0.502 OA
ATOM     23  H   UNL     1     151.117 156.173 138.399  1.00  0.00     0.293 HD
ENDBRANCH   2  22
BRANCH   6  24
ATOM     24  O   UNL     1     154.323 151.507 138.676  1.00  0.00    -0.507 OA
ATOM     25  H   UNL     1     153.398 151.667 138.295  1.00  0.00     0.293 HD
ENDBRANCH   6  24
BRANCH   8  26
ATOM     26  O   UNL     1     158.171 152.795 141.285  1.00  0.00    -0.508 OA
ATOM     27  H   UNL     1     158.326 152.525 142.250  1.00  0.00     0.293 HD
ENDBRANCH   8  26
TORSDOF 6
ENDMDL
MODEL 6
REMARK VINA RESULT:    -5.420      4.729      7.497
REMARK INTER + INTRA:          -6.616
REMARK INTER:                  -6.297
REMARK INTRA:                  -0.318
REMARK UNBOUND:                -0.087
REMARK SMILES O=c1c(O)c(-c2ccc(O)c(O)c2)oc2cc(O)cc(O)c12
REMARK SMILES IDX 5 1 3 2 2 3 1 4 22 5 20 6 19 7 17 8 16 9 15 10 14 11 6 12
REMARK SMILES IDX 7 13 8 14 9 15 13 16 11 17 10 18 12 20 4 22 21 24 18 26
REMARK H PARENT 10 19 12 21 4 23 21 25 18 27
REMARK Flexibility Score: inf
ROOT
ATOM      1  C   UNL     1     153.188 158.618 135.432  1.00  0.00     0.180 A 
ATOM      2  C   UNL     1     153.621 157.431 136.056  1.00  0.00     0.208 A 
ATOM      3  C   UNL     1     152.919 156.960 137.176  1.00  0.00     0.238 A 
ATOM      4  O   UNL     1     153.291 155.892 137.736  1.00  0.00    -0.285 OA
ATOM      5  C   UNL     1     151.817 157.688 137.665  1.00  0.00     0.111 A 
ATOM      6  C   UNL     1     151.058 157.284 138.791  1.00  0.00     0.134 A 
ATOM      7  C   UNL     1     149.978 158.070 139.222  1.00  0.00     0.093 A 
ATOM      8  C   UNL     1     149.643 159.248 138.552  1.00  0.00     0.123 A 
ATOM      9  C   UNL     1     150.387 159.652 137.438  1.00  0.00     0.094 A 
ATOM     10  C   UNL     1     151.466 158.883 136.992  1.00  0.00     0.146 A 
ATOM     11  O   UNL     1     152.153 159.286 135.929  1.00  0.00    -0.452 OA
ENDROOT
BRANCH   1  12
ATOM     12  C   UNL     1     153.864 159.168 134.235  1.00  0.00     0.025 A 
ATOM     13  C   UNL     1     154.757 160.242 134.379  1.00  0.00     0.016 A 
ATOM     14  C   UNL     1     155.390 160.792 133.261  1.00  0.00     0.051 A 
ATOM     15  C   UNL     1     155.129 160.285 131.981  1.00  0.00     0.157 A 
ATOM     16  C   UNL     1     153.589 158.677 132.947  1.00  0.00     0.062 A 
ATOM     17  C   UNL     1     154.219 159.226 131.824  1.00  0.00     0.158 A 
BRANCH  15  18
ATOM     18  O   UNL     1     155.763 160.834 130.867  1.00  0.00    -0.504 OA
ATOM     19  H   UNL     1     155.733 160.381 129.962  1.00  0.00     0.293 HD
ENDBRANCH  15  18
BRANCH  17  20
ATOM     20  O   UNL     1     153.926 158.709 130.562  1.00  0.00    -0.504 OA
ATOM     21  H   UNL     1     154.538 158.051 130.096  1.00  0.00     0.293 HD
ENDBRANCH  17  20
ENDBRANCH   1  12
BRANCH   2  22
ATOM     22  O   UNL     1     154.747 156.754 135.581  1.00  0.00    -0.502 OA
ATOM     23  H   UNL     1     154.679 155.959 134.957  1.00  0.00     0.293 HD
ENDBRANCH   2  22
BRANCH   6  24
ATOM     24  O   UNL     1     151.369 156.113 139.483  1.00  0.00    -0.507 OA
ATOM     25  H   UNL     1     152.235 156.011 139.998  1.00  0.00     0.293 HD
ENDBRANCH   6  24
BRANCH   8  26
ATOM     26  O   UNL     1     148.566 160.010 139.000  1.00  0.00    -0.508 OA
ATOM     27  H   UNL     1     147.611 159.690 138.896  1.00  0.00     0.293 HD
ENDBRANCH   8  26
TORSDOF 6
ENDMDL
MODEL 7
REMARK VINA RESULT:    -5.394      4.911      6.892
REMARK INTER + INTRA:          -6.585
REMARK INTER:                  -6.253
REMARK INTRA:                  -0.332
REMARK UNBOUND:                -0.087
REMARK SMILES O=c1c(O)c(-c2ccc(O)c(O)c2)oc2cc(O)cc(O)c12
REMARK SMILES IDX 5 1 3 2 2 3 1 4 22 5 20 6 19 7 17 8 16 9 15 10 14 11 6 12
REMARK SMILES IDX 7 13 8 14 9 15 13 16 11 17 10 18 12 20 4 22 21 24 18 26
REMARK H PARENT 10 19 12 21 4 23 21 25 18 27
REMARK Flexibility Score: inf
ROOT
ATOM      1  C   UNL     1     152.617 159.082 136.132  1.00  0.00     0.180 A 
ATOM      2  C   UNL     1     152.351 158.813 134.775  1.00  0.00     0.208 A 
ATOM      3  C   UNL     1     153.384 158.971 133.838  1.00  0.00     0.238 A 
ATOM      4  O   UNL     1     153.160 158.723 132.621  1.00  0.00    -0.285 OA
ATOM      5  C   UNL     1     154.652 159.412 134.266  1.00  0.00     0.111 A 
ATOM      6  C   UNL     1     155.745 159.601 133.385  1.00  0.00     0.134 A 
ATOM      7  C   UNL     1     156.975 160.051 133.888  1.00  0.00     0.093 A 
ATOM      8  C   UNL     1     157.133 160.317 135.249  1.00  0.00     0.123 A 
ATOM      9  C   UNL     1     156.058 160.132 136.125  1.00  0.00     0.094 A 
ATOM     10  C   UNL     1     154.825 159.682 135.644  1.00  0.00     0.146 A 
ATOM     11  O   UNL     1     153.822 159.509 136.497  1.00  0.00    -0.452 OA
ENDROOT
BRANCH   1  12
ATOM     12  C   UNL     1     151.586 158.920 137.182  1.00  0.00     0.025 A 
ATOM     13  C   UNL     1     150.820 160.029 137.573  1.00  0.00     0.016 A 
ATOM     14  C   UNL     1     149.856 159.906 138.577  1.00  0.00     0.051 A 
ATOM     15  C   UNL     1     149.653 158.675 139.215  1.00  0.00     0.157 A 
ATOM     16  C   UNL     1     151.394 157.692 137.839  1.00  0.00     0.062 A 
ATOM     17  C   UNL     1     150.431 157.564 138.846  1.00  0.00     0.158 A 
BRANCH  15  18
ATOM     18  O   UNL     1     148.689 158.554 140.214  1.00  0.00    -0.504 OA
ATOM     19  H   UNL     1     148.562 159.270 140.918  1.00  0.00     0.293 HD
ENDBRANCH  15  18
BRANCH  17  20
ATOM     20  O   UNL     1     150.265 156.329 139.471  1.00  0.00    -0.504 OA
ATOM     21  H   UNL     1     149.393 156.063 139.913  1.00  0.00     0.293 HD
ENDBRANCH  17  20
ENDBRANCH   1  12
BRANCH   2  22
ATOM     22  O   UNL     1     151.071 158.425 134.369  1.00  0.00    -0.502 OA
ATOM     23  H   UNL     1     150.915 157.823 133.569  1.00  0.00     0.293 HD
ENDBRANCH   2  22
BRANCH   6  24
ATOM     24  O   UNL     1     155.619 159.345 132.019  1.00  0.00    -0.507 OA
ATOM     25  H   UNL     1     156.241 158.708 131.536  1.00  0.00     0.293 HD
ENDBRANCH   6  24
BRANCH   8  26
ATOM     26  O   UNL     1     158.365 160.764 135.723  1.00  0.00    -0.508 OA
ATOM     27  H   UNL     1     158.816 161.584 135.335  1.00  0.00     0.293 HD
ENDBRANCH   8  26
TORSDOF 6
ENDMDL
MODEL 8
REMARK VINA RESULT:    -5.371      5.596     10.343
REMARK INTER + INTRA:          -6.557
REMARK INTER:                  -6.373
REMARK INTRA:                  -0.185
REMARK UNBOUND:                -0.087
REMARK SMILES O=c1c(O)c(-c2ccc(O)c(O)c2)oc2cc(O)cc(O)c12
REMARK SMILES IDX 5 1 3 2 2 3 1 4 22 5 20 6 19 7 17 8 16 9 15 10 14 11 6 12
REMARK SMILES IDX 7 13 8 14 9 15 13 16 11 17 10 18 12 20 4 22 21 24 18 26
REMARK H PARENT 10 19 12 21 4 23 21 25 18 27
REMARK Flexibility Score: inf
ROOT
ATOM      1  C   UNL     1     155.105 149.403 133.597  1.00  0.00     0.180 A 
ATOM      2  C   UNL     1     154.711 149.520 134.944  1.00  0.00     0.208 A 
ATOM      3  C   UNL     1     154.569 150.802 135.499  1.00  0.00     0.238 A 
ATOM      4  O   UNL     1     154.207 150.920 136.702  1.00  0.00    -0.285 OA
ATOM      5  C   UNL     1     154.841 151.937 134.710  1.00  0.00     0.111 A 
ATOM      6  C   UNL     1     154.726 153.263 135.194  1.00  0.00     0.134 A 
ATOM      7  C   UNL     1     155.024 154.342 134.347  1.00  0.00     0.093 A 
ATOM      8  C   UNL     1     155.433 154.122 133.031  1.00  0.00     0.123 A 
ATOM      9  C   UNL     1     155.548 152.815 132.546  1.00  0.00     0.094 A 
ATOM     10  C   UNL     1     155.255 151.726 133.373  1.00  0.00     0.146 A 
ATOM     11  O   UNL     1     155.366 150.495 132.887  1.00  0.00    -0.452 OA
ENDROOT
BRANCH   1  12
ATOM     12  C   UNL     1     155.257 148.087 132.935  1.00  0.00     0.025 A 
ATOM     13  C   UNL     1     156.300 147.233 133.329  1.00  0.00     0.016 A 
ATOM     14  C   UNL     1     156.477 145.996 132.704  1.00  0.00     0.051 A 
ATOM     15  C   UNL     1     155.623 145.600 131.666  1.00  0.00     0.157 A 
ATOM     16  C   UNL     1     154.416 147.695 131.879  1.00  0.00     0.062 A 
ATOM     17  C   UNL     1     154.591 146.457 131.249  1.00  0.00     0.158 A 
BRANCH  15  18
ATOM     18  O   UNL     1     155.800 144.365 131.045  1.00  0.00    -0.504 OA
ATOM     19  H   UNL     1     156.711 143.926 130.987  1.00  0.00     0.293 HD
ENDBRANCH  15  18
BRANCH  17  20
ATOM     20  O   UNL     1     153.733 146.100 130.209  1.00  0.00    -0.504 OA
ATOM     21  H   UNL     1     153.926 145.315 129.599  1.00  0.00     0.293 HD
ENDBRANCH  17  20
ENDBRANCH   1  12
BRANCH   2  22
ATOM     22  O   UNL     1     154.495 148.378 135.720  1.00  0.00    -0.502 OA
ATOM     23  H   UNL     1     154.568 148.387 136.730  1.00  0.00     0.293 HD
ENDBRANCH   2  22
BRANCH   6  24
ATOM     24  O   UNL     1     154.320 153.517 136.504  1.00  0.00    -0.507 OA
ATOM     25  H   UNL     1     154.960 153.879 137.201  1.00  0.00     0.293 HD
ENDBRANCH   6  24
BRANCH   8  26
ATOM     26  O   UNL     1     155.724 155.210 132.211  1.00  0.00    -0.508 OA
ATOM     27  H   UNL     1     155.862 155.099 131.213  1.00  0.00     0.293 HD
ENDBRANCH   8  26
TORSDOF 6
ENDMDL
MODEL 9
REMARK VINA RESULT:    -5.332      2.592      3.612
REMARK INTER + INTRA:          -6.511
REMARK INTER:                  -6.186
REMARK INTRA:                  -0.325
REMARK UNBOUND:                -0.087
REMARK SMILES O=c1c(O)c(-c2ccc(O)c(O)c2)oc2cc(O)cc(O)c12
REMARK SMILES IDX 5 1 3 2 2 3 1 4 22 5 20 6 19 7 17 8 16 9 15 10 14 11 6 12
REMARK SMILES IDX 7 13 8 14 9 15 13 16 11 17 10 18 12 20 4 22 21 24 18 26
REMARK H PARENT 10 19 12 21 4 23 21 25 18 27
REMARK Flexibility Score: inf
ROOT
ATOM      1  C   UNL     1     152.701 155.921 138.826  1.00  0.00     0.180 A 
ATOM      2  C   UNL     1     152.586 154.530 138.638  1.00  0.00     0.208 A 
ATOM      3  C   UNL     1     153.390 153.909 137.669  1.00  0.00     0.238 A 
ATOM      4  O   UNL     1     153.303 152.662 137.498  1.00  0.00    -0.285 OA
ATOM      5  C   UNL     1     154.273 154.687 136.894  1.00  0.00     0.111 A 
ATOM      6  C   UNL     1     155.114 154.139 135.894  1.00  0.00     0.134 A 
ATOM      7  C   UNL     1     155.962 154.982 135.159  1.00  0.00     0.093 A 
ATOM      8  C   UNL     1     155.984 156.357 135.401  1.00  0.00     0.123 A 
ATOM      9  C   UNL     1     155.157 156.904 136.388  1.00  0.00     0.094 A 
ATOM     10  C   UNL     1     154.307 156.081 137.133  1.00  0.00     0.146 A 
ATOM     11  O   UNL     1     153.535 156.625 138.067  1.00  0.00    -0.452 OA
ENDROOT
BRANCH   1  12
ATOM     12  C   UNL     1     151.902 156.645 139.841  1.00  0.00     0.025 A 
ATOM     13  C   UNL     1     152.397 156.767 141.150  1.00  0.00     0.016 A 
ATOM     14  C   UNL     1     151.651 157.427 142.130  1.00  0.00     0.051 A 
ATOM     15  C   UNL     1     150.393 157.962 141.821  1.00  0.00     0.157 A 
ATOM     16  C   UNL     1     150.630 157.164 139.541  1.00  0.00     0.062 A 
ATOM     17  C   UNL     1     149.880 157.824 140.521  1.00  0.00     0.158 A 
BRANCH  15  18
ATOM     18  O   UNL     1     149.653 158.621 142.801  1.00  0.00    -0.504 OA
ATOM     19  H   UNL     1     150.065 158.893 143.685  1.00  0.00     0.293 HD
ENDBRANCH  15  18
BRANCH  17  20
ATOM     20  O   UNL     1     148.625 158.332 140.185  1.00  0.00    -0.504 OA
ATOM     21  H   UNL     1     148.372 158.550 139.228  1.00  0.00     0.293 HD
ENDBRANCH  17  20
ENDBRANCH   1  12
BRANCH   2  22
ATOM     22  O   UNL     1     151.666 153.789 139.385  1.00  0.00    -0.502 OA
ATOM     23  H   UNL     1     151.718 153.721 140.394  1.00  0.00     0.293 HD
ENDBRANCH   2  22
BRANCH   6  24
ATOM     24  O   UNL     1     155.115 152.770 135.627  1.00  0.00    -0.507 OA
ATOM     25  H   UNL     1     154.442 152.143 136.051  1.00  0.00     0.293 HD
ENDBRANCH   6  24
BRANCH   8  26
ATOM     26  O   UNL     1     156.834 157.172 134.656  1.00  0.00    -0.508 OA
ATOM     27  H   UNL     1     156.887 158.171 134.820  1.00  0.00     0.293 HD
ENDBRANCH   8  26
TORSDOF 6
ENDMDL
