MODEL 1
REMARK VINA RESULT:    -5.427      0.000      0.000
REMARK INTER + INTRA:          -5.427
REMARK INTER:                  -5.427
REMARK INTRA:                   0.000
REMARK UNBOUND:                 0.000
REMARK SMILES C=C1CCC[C@]2(C)CC(=O)C(=C(C)C)C[C@@H]12
REMARK SMILES IDX 13 1 12 2 11 3 15 4 16 5 2 6 1 7 3 8 4 9 5 10 6 11 8 12 9 13
REMARK SMILES IDX 10 14 7 15 14 16
REMARK H PARENT
REMARK Flexibility Score: inf
ROOT
ATOM      1  C   UNL     1       2.418   6.036  63.335  1.00  0.00     0.039 C 
ATOM      2  C   UNL     1       1.091   5.417  62.959  1.00  0.00    -0.070 C 
ATOM      3  C   UNL     1       0.079   5.276  63.865  1.00  0.00    -0.006 C 
ATOM      4  C   UNL     1      -1.273   4.708  63.454  1.00  0.00     0.047 C 
ATOM      5  C   UNL     1      -2.444   5.278  64.294  1.00  0.00     0.025 C 
ATOM      6  C   UNL     1      -3.823   4.712  63.953  1.00  0.00    -0.073 C 
ATOM      7  C   UNL     1      -4.043   3.778  63.008  1.00  0.00     0.008 C 
ATOM      8  C   UNL     1      -4.990   5.295  64.715  1.00  0.00     0.031 C 
ATOM      9  C   UNL     1      -4.735   5.214  66.223  1.00  0.00     0.005 C 
ATOM     10  C   UNL     1      -3.371   5.818  66.601  1.00  0.00     0.008 C 
ATOM     11  C   UNL     1      -2.182   5.171  65.829  1.00  0.00    -0.018 C 
ATOM     12  C   UNL     1      -0.898   5.967  66.168  1.00  0.00     0.088 C 
ATOM     13  C   UNL     1       0.268   5.549  65.319  1.00  0.00     0.159 C 
ATOM     14  O   UNL     1       1.397   5.423  65.867  1.00  0.00    -0.295 OA
ATOM     15  C   UNL     1      -2.006   3.696  66.284  1.00  0.00     0.012 C 
ATOM     16  C   UNL     1       0.917   4.994  61.517  1.00  0.00     0.039 C 
ENDROOT
TORSDOF 0
ENDMDL
MODEL 2
REMARK VINA RESULT:    -5.387      2.274      3.595
REMARK INTER + INTRA:          -5.387
REMARK INTER:                  -5.387
REMARK INTRA:                   0.000
REMARK UNBOUND:                 0.000
REMARK SMILES C=C1CCC[C@]2(C)CC(=O)C(=C(C)C)C[C@@H]12
REMARK SMILES IDX 13 1 12 2 11 3 15 4 16 5 2 6 1 7 3 8 4 9 5 10 6 11 8 12 9 13
REMARK SMILES IDX 10 14 7 15 14 16
REMARK H PARENT
REMARK Flexibility Score: inf
ROOT
ATOM      1  C   UNL     1       2.213   7.004  69.265  1.00  0.00     0.039 C 
ATOM      2  C   UNL     1       2.038   6.653  67.805  1.00  0.00    -0.070 C 
ATOM      3  C   UNL     1       1.015   5.858  67.373  1.00  0.00    -0.006 C 
ATOM      4  C   UNL     1       0.816   5.566  65.891  1.00  0.00     0.047 C 
ATOM      5  C   UNL     1      -0.670   5.333  65.520  1.00  0.00     0.025 C 
ATOM      6  C   UNL     1      -0.926   4.994  64.051  1.00  0.00    -0.073 C 
ATOM      7  C   UNL     1       0.042   4.886  63.121  1.00  0.00     0.008 C 
ATOM      8  C   UNL     1      -2.373   4.822  63.649  1.00  0.00     0.031 C 
ATOM      9  C   UNL     1      -3.062   3.804  64.563  1.00  0.00     0.005 C 
ATOM     10  C   UNL     1      -2.857   4.146  66.048  1.00  0.00     0.008 C 
ATOM     11  C   UNL     1      -1.355   4.278  66.444  1.00  0.00    -0.018 C 
ATOM     12  C   UNL     1      -1.285   4.782  67.906  1.00  0.00     0.088 C 
ATOM     13  C   UNL     1       0.115   5.135  68.317  1.00  0.00     0.159 C 
ATOM     14  O   UNL     1       0.510   4.793  69.465  1.00  0.00    -0.295 OA
ATOM     15  C   UNL     1      -0.666   2.889  66.346  1.00  0.00     0.012 C 
ATOM     16  C   UNL     1       3.027   7.257  66.833  1.00  0.00     0.039 C 
ENDROOT
TORSDOF 0
ENDMDL
MODEL 3
REMARK VINA RESULT:    -5.349     15.025     16.642
REMARK INTER + INTRA:          -5.349
REMARK INTER:                  -5.349
REMARK INTRA:                   0.000
REMARK UNBOUND:                 0.000
REMARK SMILES C=C1CCC[C@]2(C)CC(=O)C(=C(C)C)C[C@@H]12
REMARK SMILES IDX 13 1 12 2 11 3 15 4 16 5 2 6 1 7 3 8 4 9 5 10 6 11 8 12 9 13
REMARK SMILES IDX 10 14 7 15 14 16
REMARK H PARENT
REMARK Flexibility Score: inf
ROOT
ATOM      1  C   UNL     1       6.489  20.716  74.896  1.00  0.00     0.039 C 
ATOM      2  C   UNL     1       6.368  19.364  74.230  1.00  0.00    -0.070 C 
ATOM      3  C   UNL     1       5.227  18.618  74.317  1.00  0.00    -0.006 C 
ATOM      4  C   UNL     1       5.099  17.286  73.589  1.00  0.00     0.047 C 
ATOM      5  C   UNL     1       3.640  16.968  73.173  1.00  0.00     0.025 C 
ATOM      6  C   UNL     1       3.444  15.622  72.474  1.00  0.00    -0.073 C 
ATOM      7  C   UNL     1       4.438  14.747  72.229  1.00  0.00     0.008 C 
ATOM      8  C   UNL     1       2.042  15.314  72.004  1.00  0.00     0.031 C 
ATOM      9  C   UNL     1       1.047  15.468  73.158  1.00  0.00     0.005 C 
ATOM     10  C   UNL     1       1.193  16.833  73.853  1.00  0.00     0.008 C 
ATOM     11  C   UNL     1       2.640  17.108  74.362  1.00  0.00    -0.018 C 
ATOM     12  C   UNL     1       2.696  18.564  74.887  1.00  0.00     0.088 C 
ATOM     13  C   UNL     1       4.097  18.993  75.215  1.00  0.00     0.159 C 
ATOM     14  O   UNL     1       4.292  19.661  76.268  1.00  0.00    -0.295 OA
ATOM     15  C   UNL     1       2.978  16.131  75.522  1.00  0.00     0.012 C 
ATOM     16  C   UNL     1       7.558  18.887  73.427  1.00  0.00     0.039 C 
ENDROOT
TORSDOF 0
ENDMDL
MODEL 4
REMARK VINA RESULT:    -5.264      2.059      4.742
REMARK INTER + INTRA:          -5.264
REMARK INTER:                  -5.264
REMARK INTRA:                   0.000
REMARK UNBOUND:                 0.000
REMARK SMILES C=C1CCC[C@]2(C)CC(=O)C(=C(C)C)C[C@@H]12
REMARK SMILES IDX 13 1 12 2 11 3 15 4 16 5 2 6 1 7 3 8 4 9 5 10 6 11 8 12 9 13
REMARK SMILES IDX 10 14 7 15 14 16
REMARK H PARENT
REMARK Flexibility Score: inf
ROOT
ATOM      1  C   UNL     1       0.144   4.034  69.900  1.00  0.00     0.039 C 
ATOM      2  C   UNL     1      -0.559   3.951  68.564  1.00  0.00    -0.070 C 
ATOM      3  C   UNL     1      -0.180   4.723  67.502  1.00  0.00    -0.006 C 
ATOM      4  C   UNL     1      -0.858   4.582  66.145  1.00  0.00     0.047 C 
ATOM      5  C   UNL     1       0.091   4.910  64.964  1.00  0.00     0.025 C 
ATOM      6  C   UNL     1      -0.548   4.826  63.578  1.00  0.00    -0.073 C 
ATOM      7  C   UNL     1      -1.838   4.506  63.358  1.00  0.00     0.008 C 
ATOM      8  C   UNL     1       0.370   5.081  62.405  1.00  0.00     0.031 C 
ATOM      9  C   UNL     1       1.099   6.417  62.580  1.00  0.00     0.005 C 
ATOM     10  C   UNL     1       1.788   6.511  63.951  1.00  0.00     0.008 C 
ATOM     11  C   UNL     1       0.811   6.283  65.144  1.00  0.00    -0.018 C 
ATOM     12  C   UNL     1       1.645   6.236  66.448  1.00  0.00     0.088 C 
ATOM     13  C   UNL     1       0.821   5.820  67.632  1.00  0.00     0.159 C 
ATOM     14  O   UNL     1       0.987   6.428  68.725  1.00  0.00    -0.295 OA
ATOM     15  C   UNL     1      -0.199   7.461  65.222  1.00  0.00     0.012 C 
ATOM     16  C   UNL     1      -1.680   2.944  68.442  1.00  0.00     0.039 C 
ENDROOT
TORSDOF 0
ENDMDL
MODEL 5
REMARK VINA RESULT:    -5.253     14.767     16.577
REMARK INTER + INTRA:          -5.253
REMARK INTER:                  -5.253
REMARK INTRA:                   0.000
REMARK UNBOUND:                 0.000
REMARK SMILES C=C1CCC[C@]2(C)CC(=O)C(=C(C)C)C[C@@H]12
REMARK SMILES IDX 13 1 12 2 11 3 15 4 16 5 2 6 1 7 3 8 4 9 5 10 6 11 8 12 9 13
REMARK SMILES IDX 10 14 7 15 14 16
REMARK H PARENT
REMARK Flexibility Score: inf
ROOT
ATOM      1  C   UNL     1       6.528  14.183  70.577  1.00  0.00     0.039 C 
ATOM      2  C   UNL     1       6.601  15.658  70.897  1.00  0.00    -0.070 C 
ATOM      3  C   UNL     1       5.802  16.230  71.847  1.00  0.00    -0.006 C 
ATOM      4  C   UNL     1       5.932  17.705  72.202  1.00  0.00     0.047 C 
ATOM      5  C   UNL     1       5.562  18.002  73.677  1.00  0.00     0.025 C 
ATOM      6  C   UNL     1       5.634  19.476  74.080  1.00  0.00    -0.073 C 
ATOM      7  C   UNL     1       5.979  20.471  73.241  1.00  0.00     0.008 C 
ATOM      8  C   UNL     1       5.337  19.786  75.528  1.00  0.00     0.031 C 
ATOM      9  C   UNL     1       3.989  19.184  75.936  1.00  0.00     0.005 C 
ATOM     10  C   UNL     1       3.905  17.690  75.581  1.00  0.00     0.008 C 
ATOM     11  C   UNL     1       4.177  17.403  74.074  1.00  0.00    -0.018 C 
ATOM     12  C   UNL     1       4.228  15.867  73.878  1.00  0.00     0.088 C 
ATOM     13  C   UNL     1       4.685  15.488  72.498  1.00  0.00     0.159 C 
ATOM     14  O   UNL     1       4.093  14.544  71.907  1.00  0.00    -0.295 OA
ATOM     15  C   UNL     1       3.024  17.992  73.215  1.00  0.00     0.012 C 
ATOM     16  C   UNL     1       7.631  16.472  70.146  1.00  0.00     0.039 C 
ENDROOT
TORSDOF 0
ENDMDL
MODEL 6
REMARK VINA RESULT:    -5.198      2.726      5.285
REMARK INTER + INTRA:          -5.198
REMARK INTER:                  -5.198
REMARK INTRA:                   0.000
REMARK UNBOUND:                 0.000
REMARK SMILES C=C1CCC[C@]2(C)CC(=O)C(=C(C)C)C[C@@H]12
REMARK SMILES IDX 13 1 12 2 11 3 15 4 16 5 2 6 1 7 3 8 4 9 5 10 6 11 8 12 9 13
REMARK SMILES IDX 10 14 7 15 14 16
REMARK H PARENT
REMARK Flexibility Score: inf
ROOT
ATOM      1  C   UNL     1       2.649   6.771  68.910  1.00  0.00     0.039 C 
ATOM      2  C   UNL     1       1.633   6.241  67.925  1.00  0.00    -0.070 C 
ATOM      3  C   UNL     1       1.728   6.496  66.586  1.00  0.00    -0.006 C 
ATOM      4  C   UNL     1       0.731   5.902  65.599  1.00  0.00     0.047 C 
ATOM      5  C   UNL     1       1.349   5.649  64.201  1.00  0.00     0.025 C 
ATOM      6  C   UNL     1       0.382   5.092  63.156  1.00  0.00    -0.073 C 
ATOM      7  C   UNL     1      -0.919   4.837  63.391  1.00  0.00     0.008 C 
ATOM      8  C   UNL     1       0.974   4.779  61.801  1.00  0.00     0.031 C 
ATOM      9  C   UNL     1       1.715   6.000  61.248  1.00  0.00     0.005 C 
ATOM     10  C   UNL     1       2.727   6.556  62.264  1.00  0.00     0.008 C 
ATOM     11  C   UNL     1       2.083   6.907  63.640  1.00  0.00    -0.018 C 
ATOM     12  C   UNL     1       3.219   7.295  64.618  1.00  0.00     0.088 C 
ATOM     13  C   UNL     1       2.722   7.456  66.026  1.00  0.00     0.159 C 
ATOM     14  O   UNL     1       3.154   8.424  66.710  1.00  0.00    -0.295 OA
ATOM     15  C   UNL     1       1.118   8.113  63.470  1.00  0.00     0.012 C 
ATOM     16  C   UNL     1       0.523   5.379  68.483  1.00  0.00     0.039 C 
ENDROOT
TORSDOF 0
ENDMDL
MODEL 7
REMARK VINA RESULT:    -5.121      2.029      5.541
REMARK INTER + INTRA:          -5.121
REMARK INTER:                  -5.121
REMARK INTRA:                   0.000
REMARK UNBOUND:                 0.000
REMARK SMILES C=C1CCC[C@]2(C)CC(=O)C(=C(C)C)C[C@@H]12
REMARK SMILES IDX 13 1 12 2 11 3 15 4 16 5 2 6 1 7 3 8 4 9 5 10 6 11 8 12 9 13
REMARK SMILES IDX 10 14 7 15 14 16
REMARK H PARENT
REMARK Flexibility Score: inf
ROOT
ATOM      1  C   UNL     1      -4.010   6.823  65.463  1.00  0.00     0.039 C 
ATOM      2  C   UNL     1      -2.679   7.473  65.159  1.00  0.00    -0.070 C 
ATOM      3  C   UNL     1      -1.662   6.785  64.562  1.00  0.00    -0.006 C 
ATOM      4  C   UNL     1      -0.349   7.471  64.206  1.00  0.00     0.047 C 
ATOM      5  C   UNL     1       0.334   6.850  62.961  1.00  0.00     0.025 C 
ATOM      6  C   UNL     1       1.678   7.473  62.582  1.00  0.00    -0.073 C 
ATOM      7  C   UNL     1       2.262   8.479  63.260  1.00  0.00     0.008 C 
ATOM      8  C   UNL     1       2.336   6.928  61.336  1.00  0.00     0.031 C 
ATOM      9  C   UNL     1       2.457   5.403  61.421  1.00  0.00     0.005 C 
ATOM     10  C   UNL     1       1.108   4.746  61.759  1.00  0.00     0.008 C 
ATOM     11  C   UNL     1       0.470   5.300  63.069  1.00  0.00    -0.018 C 
ATOM     12  C   UNL     1      -0.946   4.688  63.211  1.00  0.00     0.088 C 
ATOM     13  C   UNL     1      -1.722   5.312  64.335  1.00  0.00     0.159 C 
ATOM     14  O   UNL     1      -2.407   4.562  65.083  1.00  0.00    -0.295 OA
ATOM     15  C   UNL     1       1.336   4.878  64.288  1.00  0.00     0.012 C 
ATOM     16  C   UNL     1      -2.536   8.937  65.512  1.00  0.00     0.039 C 
ENDROOT
TORSDOF 0
ENDMDL
MODEL 8
REMARK VINA RESULT:    -5.091      2.981      5.180
REMARK INTER + INTRA:          -5.091
REMARK INTER:                  -5.091
REMARK INTRA:                   0.000
REMARK UNBOUND:                 0.000
REMARK SMILES C=C1CCC[C@]2(C)CC(=O)C(=C(C)C)C[C@@H]12
REMARK SMILES IDX 13 1 12 2 11 3 15 4 16 5 2 6 1 7 3 8 4 9 5 10 6 11 8 12 9 13
REMARK SMILES IDX 10 14 7 15 14 16
REMARK H PARENT
REMARK Flexibility Score: inf
ROOT
ATOM      1  C   UNL     1       6.750   5.413  62.393  1.00  0.00     0.039 C 
ATOM      2  C   UNL     1       5.622   6.417  62.331  1.00  0.00    -0.070 C 
ATOM      3  C   UNL     1       4.313   6.035  62.416  1.00  0.00    -0.006 C 
ATOM      4  C   UNL     1       3.190   7.065  62.415  1.00  0.00     0.047 C 
ATOM      5  C   UNL     1       1.952   6.602  63.224  1.00  0.00     0.025 C 
ATOM      6  C   UNL     1       0.776   7.579  63.224  1.00  0.00    -0.073 C 
ATOM      7  C   UNL     1       0.774   8.758  62.573  1.00  0.00     0.008 C 
ATOM      8  C   UNL     1      -0.422   7.180  64.054  1.00  0.00     0.031 C 
ATOM      9  C   UNL     1      -0.893   5.775  63.669  1.00  0.00     0.005 C 
ATOM     10  C   UNL     1       0.263   4.761  63.703  1.00  0.00     0.008 C 
ATOM     11  C   UNL     1       1.469   5.178  62.808  1.00  0.00    -0.018 C 
ATOM     12  C   UNL     1       2.622   4.173  63.054  1.00  0.00     0.088 C 
ATOM     13  C   UNL     1       3.898   4.603  62.390  1.00  0.00     0.159 C 
ATOM     14  O   UNL     1       4.595   3.731  61.803  1.00  0.00    -0.295 OA
ATOM     15  C   UNL     1       1.050   5.122  61.312  1.00  0.00     0.012 C 
ATOM     16  C   UNL     1       6.007   7.874  62.211  1.00  0.00     0.039 C 
ENDROOT
TORSDOF 0
ENDMDL
MODEL 9
REMARK VINA RESULT:    -4.957     13.488     15.557
REMARK INTER + INTRA:          -4.957
REMARK INTER:                  -4.957
REMARK INTRA:                   0.000
REMARK UNBOUND:                 0.000
REMARK SMILES C=C1CCC[C@]2(C)CC(=O)C(=C(C)C)C[C@@H]12
REMARK SMILES IDX 13 1 12 2 11 3 15 4 16 5 2 6 1 7 3 8 4 9 5 10 6 11 8 12 9 13
REMARK SMILES IDX 10 14 7 15 14 16
REMARK H PARENT
REMARK Flexibility Score: inf
ROOT
ATOM      1  C   UNL     1      -0.287  13.004  73.661  1.00  0.00     0.039 C 
ATOM      2  C   UNL     1       0.726  13.810  72.880  1.00  0.00    -0.070 C 
ATOM      3  C   UNL     1       1.307  14.932  73.398  1.00  0.00    -0.006 C 
ATOM      4  C   UNL     1       2.373  15.697  72.623  1.00  0.00     0.047 C 
ATOM      5  C   UNL     1       3.397  16.402  73.548  1.00  0.00     0.025 C 
ATOM      6  C   UNL     1       4.467  17.221  72.825  1.00  0.00    -0.073 C 
ATOM      7  C   UNL     1       4.542  17.352  71.487  1.00  0.00     0.008 C 
ATOM      8  C   UNL     1       5.514  17.869  73.701  1.00  0.00     0.031 C 
ATOM      9  C   UNL     1       4.848  18.707  74.796  1.00  0.00     0.005 C 
ATOM     10  C   UNL     1       3.796  17.894  75.570  1.00  0.00     0.008 C 
ATOM     11  C   UNL     1       2.706  17.269  74.647  1.00  0.00    -0.018 C 
ATOM     12  C   UNL     1       1.812  16.349  75.513  1.00  0.00     0.088 C 
ATOM     13  C   UNL     1       0.856  15.543  74.681  1.00  0.00     0.159 C 
ATOM     14  O   UNL     1      -0.331  15.411  75.087  1.00  0.00    -0.295 OA
ATOM     15  C   UNL     1       1.836  18.399  74.030  1.00  0.00     0.012 C 
ATOM     16  C   UNL     1       1.101  13.294  71.509  1.00  0.00     0.039 C 
ENDROOT
TORSDOF 0
ENDMDL
