MODEL 1
REMARK VINA RESULT:    -5.225      0.000      0.000
REMARK INTER + INTRA:          -7.760
REMARK INTER:                  -7.974
REMARK INTRA:                   0.214
REMARK UNBOUND:                 0.214
REMARK SMILES CC1=CCC[C@H](C)C(=O)C[C@H](C(C)C)C(=O)C1
REMARK SMILES IDX 8 1 9 2 6 3 7 4 5 5 4 6 3 7 2 8 1 9 10 11 11 12 15 13 16 14
REMARK SMILES IDX 17 15 12 17 13 18 14 19
REMARK H PARENT
REMARK Flexibility Score: 70.00
ROOT
ATOM      1  C   UNL     1      -7.837  34.738  23.481  1.00  0.00     0.136 C 
ATOM      2  O   UNL     1      -7.106  35.250  22.646  1.00  0.00    -0.299 OA
ENDROOT
BRANCH   1   3
ATOM      3  C   UNL     1      -7.907  35.330  24.878  1.00  0.00     0.053 C 
ATOM      4  C   UNL     1      -9.315  35.868  25.164  1.00  0.00     0.016 C 
BRANCH   3   5
ATOM      5  C   UNL     1      -7.496  34.272  25.927  1.00  0.00     0.015 C 
BRANCH   5   6
ATOM      6  C   UNL     1      -8.705  33.466  26.444  1.00  0.00     0.028 C 
BRANCH   6   7
ATOM      7  C   UNL     1      -8.294  32.061  26.809  1.00  0.00    -0.028 C 
ATOM      8  C   UNL     1      -8.485  30.975  26.023  1.00  0.00    -0.070 CG0
ATOM      9  C   UNL     1      -8.092  29.626  26.572  1.00  0.00     0.039 C 
ATOM     10  G   UNL     1      -9.052  31.064  24.615  1.00  0.00     0.000 G0
ENDBRANCH   6   7
ENDBRANCH   5   6
ENDBRANCH   3   5
ENDBRANCH   1   3
BRANCH   1  11
ATOM     11  C   UNL     1      -8.662  33.527  23.105  1.00  0.00     0.087 C 
BRANCH  11  12
ATOM     12  C   UNL     1      -7.843  32.280  22.644  1.00  0.00     0.066 C 
BRANCH  12  13
ATOM     13  C   UNL     1      -8.009  31.058  23.545  1.00  0.00     0.140 C 
ATOM     14  O   UNL     1      -7.243  30.111  23.445  1.00  0.00    -0.299 OA
BRANCH  13  15
ATOM     15  C   UNL     1      -9.067  31.037  24.623  1.00  0.00     0.106 CG0
ATOM     16  G   UNL     1      -8.469  30.975  26.020  1.00  0.00     0.000 G0
ENDBRANCH  13  15
ENDBRANCH  12  13
BRANCH  12  17
ATOM     17  C   UNL     1      -7.998  31.962  21.122  1.00  0.00    -0.006 C 
ATOM     18  C   UNL     1      -7.504  33.073  20.182  1.00  0.00     0.008 C 
ATOM     19  C   UNL     1      -9.443  31.573  20.772  1.00  0.00     0.008 C 
ENDBRANCH  12  17
ENDBRANCH  11  12
ENDBRANCH   1  11
TORSDOF 1
ENDMDL
MODEL 2
REMARK VINA RESULT:    -5.007      1.510      2.014
REMARK INTER + INTRA:          -7.427
REMARK INTER:                  -7.676
REMARK INTRA:                   0.249
REMARK UNBOUND:                 0.214
REMARK SMILES CC1=CCC[C@H](C)C(=O)C[C@H](C(C)C)C(=O)C1
REMARK SMILES IDX 8 1 9 2 6 3 7 4 5 5 4 6 3 7 2 8 1 9 10 11 11 12 15 13 16 14
REMARK SMILES IDX 17 15 12 17 13 18 14 19
REMARK H PARENT
REMARK Flexibility Score: 70.00
ROOT
ATOM      1  C   UNL     1      -8.197  33.896  23.899  1.00  0.00     0.136 C 
ATOM      2  O   UNL     1      -7.694  34.457  22.938  1.00  0.00    -0.299 OA
ENDROOT
BRANCH   1   3
ATOM      3  C   UNL     1      -8.107  34.538  25.273  1.00  0.00     0.053 C 
ATOM      4  C   UNL     1      -8.656  35.970  25.234  1.00  0.00     0.016 C 
BRANCH   3   5
ATOM      5  C   UNL     1      -8.865  33.683  26.313  1.00  0.00     0.015 C 
BRANCH   5   6
ATOM      6  C   UNL     1      -7.908  32.983  27.299  1.00  0.00     0.028 C 
BRANCH   6   7
ATOM      7  C   UNL     1      -8.605  31.847  28.005  1.00  0.00    -0.028 C 
ATOM      8  C   UNL     1      -8.641  30.569  27.557  1.00  0.00    -0.070 CG0
ATOM      9  C   UNL     1      -9.454  29.568  28.339  1.00  0.00     0.039 C 
ATOM     10  G   UNL     1      -7.882  30.105  26.324  1.00  0.00     0.000 G0
ENDBRANCH   6   7
ENDBRANCH   5   6
ENDBRANCH   3   5
ENDBRANCH   1   3
BRANCH   1  11
ATOM     11  C   UNL     1      -8.906  32.573  23.702  1.00  0.00     0.087 C 
BRANCH  11  12
ATOM     12  C   UNL     1      -8.038  31.305  23.975  1.00  0.00     0.066 C 
BRANCH  12  13
ATOM     13  C   UNL     1      -8.621  30.367  25.030  1.00  0.00     0.140 C 
ATOM     14  O   UNL     1      -9.671  29.778  24.816  1.00  0.00    -0.299 OA
BRANCH  13  15
ATOM     15  C   UNL     1      -7.872  30.091  26.312  1.00  0.00     0.106 CG0
ATOM     16  G   UNL     1      -8.627  30.575  27.540  1.00  0.00     0.000 G0
ENDBRANCH  13  15
ENDBRANCH  12  13
BRANCH  12  17
ATOM     17  C   UNL     1      -7.576  30.575  22.674  1.00  0.00    -0.006 C 
ATOM     18  C   UNL     1      -8.694  30.319  21.651  1.00  0.00     0.008 C 
ATOM     19  C   UNL     1      -6.839  29.264  22.994  1.00  0.00     0.008 C 
ENDBRANCH  12  17
ENDBRANCH  11  12
ENDBRANCH   1  11
TORSDOF 1
ENDMDL
MODEL 3
REMARK VINA RESULT:    -4.681      1.692      2.559
REMARK INTER + INTRA:          -6.930
REMARK INTER:                  -7.839
REMARK INTRA:                   0.909
REMARK UNBOUND:                 0.214
REMARK SMILES CC1=CCC[C@H](C)C(=O)C[C@H](C(C)C)C(=O)C1
REMARK SMILES IDX 8 1 9 2 6 3 7 4 5 5 4 6 3 7 2 8 1 9 10 11 11 12 15 13 16 14
REMARK SMILES IDX 17 15 12 17 13 18 14 19
REMARK H PARENT
REMARK Flexibility Score: 70.00
ROOT
ATOM      1  C   UNL     1      -8.630  33.577  25.088  1.00  0.00     0.136 C 
ATOM      2  O   UNL     1      -8.269  34.734  25.239  1.00  0.00    -0.299 OA
ENDROOT
BRANCH   1   3
ATOM      3  C   UNL     1      -8.307  32.546  26.156  1.00  0.00     0.053 C 
ATOM      4  C   UNL     1      -7.891  33.236  27.461  1.00  0.00     0.016 C 
BRANCH   3   5
ATOM      5  C   UNL     1      -9.520  31.616  26.385  1.00  0.00     0.015 C 
BRANCH   5   6
ATOM      6  C   UNL     1      -9.122  30.127  26.372  1.00  0.00     0.028 C 
BRANCH   6   7
ATOM      7  C   UNL     1      -7.904  29.907  25.510  1.00  0.00    -0.028 C 
ATOM      8  C   UNL     1      -7.917  29.852  24.157  1.00  0.00    -0.070 CG0
ATOM      9  C   UNL     1      -6.623  29.540  23.448  1.00  0.00     0.039 C 
ATOM     10  G   UNL     1      -9.169  30.111  23.333  1.00  0.00     0.000 G0
ENDBRANCH   6   7
ENDBRANCH   5   6
ENDBRANCH   3   5
ENDBRANCH   1   3
BRANCH   1  11
ATOM     11  C   UNL     1      -9.398  33.194  23.841  1.00  0.00     0.087 C 
BRANCH  11  12
ATOM     12  C   UNL     1      -8.534  32.603  22.683  1.00  0.00     0.066 C 
BRANCH  12  13
ATOM     13  C   UNL     1      -8.922  31.182  22.279  1.00  0.00     0.140 C 
ATOM     14  O   UNL     1      -8.982  30.872  21.099  1.00  0.00    -0.299 OA
BRANCH  13  15
ATOM     15  C   UNL     1      -9.155  30.122  23.330  1.00  0.00     0.106 CG0
ATOM     16  G   UNL     1      -7.911  29.844  24.159  1.00  0.00     0.000 G0
ENDBRANCH  13  15
ENDBRANCH  12  13
BRANCH  12  17
ATOM     17  C   UNL     1      -8.371  33.576  21.471  1.00  0.00    -0.006 C 
ATOM     18  C   UNL     1      -7.500  33.033  20.327  1.00  0.00     0.008 C 
ATOM     19  C   UNL     1      -7.860  34.955  21.919  1.00  0.00     0.008 C 
ENDBRANCH  12  17
ENDBRANCH  11  12
ENDBRANCH   1  11
TORSDOF 1
ENDMDL
MODEL 4
REMARK VINA RESULT:    -4.486      2.043      4.223
REMARK INTER + INTRA:          -6.632
REMARK INTER:                  -6.785
REMARK INTRA:                   0.153
REMARK UNBOUND:                 0.214
REMARK SMILES CC1=CCC[C@H](C)C(=O)C[C@H](C(C)C)C(=O)C1
REMARK SMILES IDX 8 1 9 2 6 3 7 4 5 5 4 6 3 7 2 8 1 9 10 11 11 12 15 13 16 14
REMARK SMILES IDX 17 15 12 17 13 18 14 19
REMARK H PARENT
REMARK Flexibility Score: 70.00
ROOT
ATOM      1  C   UNL     1      -8.517  31.830  27.184  1.00  0.00     0.136 C 
ATOM      2  O   UNL     1      -7.600  32.219  27.892  1.00  0.00    -0.299 OA
ENDROOT
BRANCH   1   3
ATOM      3  C   UNL     1      -8.913  30.363  27.210  1.00  0.00     0.053 C 
ATOM      4  C   UNL     1     -10.119  30.115  26.295  1.00  0.00     0.016 C 
BRANCH   3   5
ATOM      5  C   UNL     1      -7.714  29.480  26.797  1.00  0.00     0.015 C 
BRANCH   5   6
ATOM      6  C   UNL     1      -7.044  29.979  25.501  1.00  0.00     0.028 C 
BRANCH   6   7
ATOM      7  C   UNL     1      -7.676  29.337  24.291  1.00  0.00    -0.028 C 
ATOM      8  C   UNL     1      -8.115  30.012  23.203  1.00  0.00    -0.070 CG0
ATOM      9  C   UNL     1      -8.802  29.228  22.112  1.00  0.00     0.039 C 
ATOM     10  G   UNL     1      -7.923  31.511  23.028  1.00  0.00     0.000 G0
ENDBRANCH   6   7
ENDBRANCH   5   6
ENDBRANCH   3   5
ENDBRANCH   1   3
BRANCH   1  11
ATOM     11  C   UNL     1      -9.245  32.818  26.298  1.00  0.00     0.087 C 
BRANCH  11  12
ATOM     12  C   UNL     1      -8.514  33.182  24.967  1.00  0.00     0.066 C 
BRANCH  12  13
ATOM     13  C   UNL     1      -8.946  32.337  23.770  1.00  0.00     0.140 C 
ATOM     14  O   UNL     1     -10.105  32.363  23.384  1.00  0.00    -0.299 OA
BRANCH  13  15
ATOM     15  C   UNL     1      -7.932  31.524  22.998  1.00  0.00     0.106 CG0
ATOM     16  G   UNL     1      -8.109  30.028  23.207  1.00  0.00     0.000 G0
ENDBRANCH  13  15
ENDBRANCH  12  13
BRANCH  12  17
ATOM     17  C   UNL     1      -8.485  34.715  24.673  1.00  0.00    -0.006 C 
ATOM     18  C   UNL     1      -7.649  35.117  23.446  1.00  0.00     0.008 C 
ATOM     19  C   UNL     1      -8.038  35.518  25.905  1.00  0.00     0.008 C 
ENDBRANCH  12  17
ENDBRANCH  11  12
ENDBRANCH   1  11
TORSDOF 1
ENDMDL
MODEL 5
REMARK VINA RESULT:    -4.135      1.442      3.681
REMARK INTER + INTRA:          -6.097
REMARK INTER:                  -7.406
REMARK INTRA:                   1.309
REMARK UNBOUND:                 0.214
REMARK SMILES CC1=CCC[C@H](C)C(=O)C[C@H](C(C)C)C(=O)C1
REMARK SMILES IDX 8 1 9 2 6 3 7 4 5 5 4 6 3 7 2 8 1 9 10 11 11 12 15 13 16 14
REMARK SMILES IDX 17 15 12 17 13 18 14 19
REMARK H PARENT
REMARK Flexibility Score: 70.00
ROOT
ATOM      1  C   UNL     1      -8.881  31.130  23.906  1.00  0.00     0.136 C 
ATOM      2  O   UNL     1      -7.797  30.835  23.426  1.00  0.00    -0.299 OA
ENDROOT
BRANCH   1   3
ATOM      3  C   UNL     1      -9.303  30.521  25.232  1.00  0.00     0.053 C 
ATOM      4  C   UNL     1      -8.210  29.587  25.767  1.00  0.00     0.016 C 
BRANCH   3   5
ATOM      5  C   UNL     1      -9.626  31.636  26.253  1.00  0.00     0.015 C 
BRANCH   5   6
ATOM      6  C   UNL     1      -8.391  32.500  26.579  1.00  0.00     0.028 C 
BRANCH   6   7
ATOM      7  C   UNL     1      -8.671  33.957  26.307  1.00  0.00    -0.028 C 
ATOM      8  C   UNL     1      -8.251  34.629  25.210  1.00  0.00    -0.070 CG0
ATOM      9  C   UNL     1      -8.544  36.107  25.129  1.00  0.00     0.039 C 
ATOM     10  G   UNL     1      -7.524  33.955  24.056  1.00  0.00     0.000 G0
ENDBRANCH   6   7
ENDBRANCH   5   6
ENDBRANCH   3   5
ENDBRANCH   1   3
BRANCH   1  11
ATOM     11  C   UNL     1      -9.780  32.101  23.173  1.00  0.00     0.087 C 
BRANCH  11  12
ATOM     12  C   UNL     1      -9.067  32.997  22.112  1.00  0.00     0.066 C 
BRANCH  12  13
ATOM     13  C   UNL     1      -8.239  34.132  22.711  1.00  0.00     0.140 C 
ATOM     14  O   UNL     1      -8.202  35.224  22.163  1.00  0.00    -0.299 OA
BRANCH  13  15
ATOM     15  C   UNL     1      -7.523  33.947  24.028  1.00  0.00     0.106 CG0
ATOM     16  G   UNL     1      -8.250  34.621  25.183  1.00  0.00     0.000 G0
ENDBRANCH  13  15
ENDBRANCH  12  13
BRANCH  12  17
ATOM     17  C   UNL     1      -8.310  32.181  21.016  1.00  0.00    -0.006 C 
ATOM     18  C   UNL     1      -7.504  33.034  20.024  1.00  0.00     0.008 C 
ATOM     19  C   UNL     1      -9.259  31.239  20.258  1.00  0.00     0.008 C 
ENDBRANCH  12  17
ENDBRANCH  11  12
ENDBRANCH   1  11
TORSDOF 1
ENDMDL
MODEL 6
REMARK VINA RESULT:    -3.973     17.341     19.606
REMARK INTER + INTRA:          -5.850
REMARK INTER:                  -5.992
REMARK INTRA:                   0.142
REMARK UNBOUND:                 0.214
REMARK SMILES CC1=CCC[C@H](C)C(=O)C[C@H](C(C)C)C(=O)C1
REMARK SMILES IDX 8 1 9 2 6 3 7 4 5 5 4 6 3 7 2 8 1 9 10 11 11 12 15 13 16 14
REMARK SMILES IDX 17 15 12 17 13 18 14 19
REMARK H PARENT
REMARK Flexibility Score: 70.00
ROOT
ATOM      1  C   UNL     1      -1.364  47.243  15.792  1.00  0.00     0.136 C 
ATOM      2  O   UNL     1      -2.542  46.924  15.743  1.00  0.00    -0.299 OA
ENDROOT
BRANCH   1   3
ATOM      3  C   UNL     1      -0.379  46.624  14.815  1.00  0.00     0.053 C 
ATOM      4  C   UNL     1      -0.891  45.263  14.325  1.00  0.00     0.016 C 
BRANCH   3   5
ATOM      5  C   UNL     1      -0.133  47.582  13.627  1.00  0.00     0.015 C 
BRANCH   5   6
ATOM      6  C   UNL     1       1.131  48.441  13.826  1.00  0.00     0.028 C 
BRANCH   6   7
ATOM      7  C   UNL     1       2.232  47.633  14.466  1.00  0.00    -0.028 C 
ATOM      8  C   UNL     1       2.656  47.785  15.743  1.00  0.00    -0.070 CG0
ATOM      9  C   UNL     1       3.827  46.954  16.204  1.00  0.00     0.039 C 
ATOM     10  G   UNL     1       1.990  48.736  16.726  1.00  0.00     0.000 G0
ENDBRANCH   6   7
ENDBRANCH   5   6
ENDBRANCH   3   5
ENDBRANCH   1   3
BRANCH   1  11
ATOM     11  C   UNL     1      -0.909  48.254  16.822  1.00  0.00     0.087 C 
BRANCH  11  12
ATOM     12  C   UNL     1      -0.059  47.672  17.995  1.00  0.00     0.066 C 
BRANCH  12  13
ATOM     13  C   UNL     1       1.418  48.059  17.945  1.00  0.00     0.140 C 
ATOM     14  O   UNL     1       2.167  47.748  18.859  1.00  0.00    -0.299 OA
BRANCH  13  15
ATOM     15  C   UNL     1       1.988  48.756  16.732  1.00  0.00     0.106 CG0
ATOM     16  G   UNL     1       2.643  47.786  15.760  1.00  0.00     0.000 G0
ENDBRANCH  13  15
ENDBRANCH  12  13
BRANCH  12  17
ATOM     17  C   UNL     1      -0.712  47.877  19.399  1.00  0.00    -0.006 C 
ATOM     18  C   UNL     1      -0.560  46.684  20.357  1.00  0.00     0.008 C 
ATOM     19  C   UNL     1      -2.192  48.276  19.279  1.00  0.00     0.008 C 
ENDBRANCH  12  17
ENDBRANCH  11  12
ENDBRANCH   1  11
TORSDOF 1
ENDMDL
MODEL 7
REMARK VINA RESULT:    -3.962     17.081     19.342
REMARK INTER + INTRA:          -5.832
REMARK INTER:                  -5.910
REMARK INTRA:                   0.079
REMARK UNBOUND:                 0.214
REMARK SMILES CC1=CCC[C@H](C)C(=O)C[C@H](C(C)C)C(=O)C1
REMARK SMILES IDX 8 1 9 2 6 3 7 4 5 5 4 6 3 7 2 8 1 9 10 11 11 12 15 13 16 14
REMARK SMILES IDX 17 15 12 17 13 18 14 19
REMARK H PARENT
REMARK Flexibility Score: 70.00
ROOT
ATOM      1  C   UNL     1       2.239  48.053  17.202  1.00  0.00     0.136 C 
ATOM      2  O   UNL     1       2.616  49.068  17.768  1.00  0.00    -0.299 OA
ENDROOT
BRANCH   1   3
ATOM      3  C   UNL     1       2.941  47.599  15.933  1.00  0.00     0.053 C 
ATOM      4  C   UNL     1       4.197  46.787  16.274  1.00  0.00     0.016 C 
BRANCH   3   5
ATOM      5  C   UNL     1       1.973  46.777  15.053  1.00  0.00     0.015 C 
BRANCH   5   6
ATOM      6  C   UNL     1       0.961  47.671  14.310  1.00  0.00     0.028 C 
BRANCH   6   7
ATOM      7  C   UNL     1      -0.398  47.017  14.264  1.00  0.00    -0.028 C 
ATOM      8  C   UNL     1      -1.440  47.350  15.061  1.00  0.00    -0.070 CG0
ATOM      9  C   UNL     1      -2.707  46.540  14.946  1.00  0.00     0.039 C 
ATOM     10  G   UNL     1      -1.391  48.513  16.041  1.00  0.00     0.000 G0
ENDBRANCH   6   7
ENDBRANCH   5   6
ENDBRANCH   3   5
ENDBRANCH   1   3
BRANCH   1  11
ATOM     11  C   UNL     1       1.084  47.263  17.779  1.00  0.00     0.087 C 
BRANCH  11  12
ATOM     12  C   UNL     1      -0.098  48.121  18.330  1.00  0.00     0.066 C 
BRANCH  12  13
ATOM     13  C   UNL     1      -1.376  48.026  17.499  1.00  0.00     0.140 C 
ATOM     14  O   UNL     1      -2.411  47.621  18.006  1.00  0.00    -0.299 OA
BRANCH  13  15
ATOM     15  C   UNL     1      -1.398  48.509  16.068  1.00  0.00     0.106 CG0
ATOM     16  G   UNL     1      -1.429  47.361  15.070  1.00  0.00     0.000 G0
ENDBRANCH  13  15
ENDBRANCH  12  13
BRANCH  12  17
ATOM     17  C   UNL     1      -0.334  47.941  19.864  1.00  0.00    -0.006 C 
ATOM     18  C   UNL     1       0.637  48.728  20.759  1.00  0.00     0.008 C 
ATOM     19  C   UNL     1      -0.340  46.457  20.264  1.00  0.00     0.008 C 
ENDBRANCH  12  17
ENDBRANCH  11  12
ENDBRANCH   1  11
TORSDOF 1
ENDMDL
MODEL 8
REMARK VINA RESULT:    -3.908     17.256     18.659
REMARK INTER + INTRA:          -5.750
REMARK INTER:                  -5.863
REMARK INTRA:                   0.113
REMARK UNBOUND:                 0.214
REMARK SMILES CC1=CCC[C@H](C)C(=O)C[C@H](C(C)C)C(=O)C1
REMARK SMILES IDX 8 1 9 2 6 3 7 4 5 5 4 6 3 7 2 8 1 9 10 11 11 12 15 13 16 14
REMARK SMILES IDX 17 15 12 17 13 18 14 19
REMARK H PARENT
REMARK Flexibility Score: 70.00
ROOT
ATOM      1  C   UNL     1       0.573  46.005  14.451  1.00  0.00     0.136 C 
ATOM      2  O   UNL     1       0.458  44.804  14.642  1.00  0.00    -0.299 OA
ENDROOT
BRANCH   1   3
ATOM      3  C   UNL     1       1.894  46.688  14.759  1.00  0.00     0.053 C 
ATOM      4  C   UNL     1       2.012  48.006  13.982  1.00  0.00     0.016 C 
BRANCH   3   5
ATOM      5  C   UNL     1       2.029  46.929  16.279  1.00  0.00     0.015 C 
BRANCH   5   6
ATOM      6  C   UNL     1       1.205  48.144  16.750  1.00  0.00     0.028 C 
BRANCH   6   7
ATOM      7  C   UNL     1       0.195  47.733  17.793  1.00  0.00    -0.028 C 
ATOM      8  C   UNL     1      -1.147  47.738  17.609  1.00  0.00    -0.070 CG0
ATOM      9  C   UNL     1      -2.024  47.378  18.782  1.00  0.00     0.039 C 
ATOM     10  G   UNL     1      -1.796  48.067  16.273  1.00  0.00     0.000 G0
ENDBRANCH   6   7
ENDBRANCH   5   6
ENDBRANCH   3   5
ENDBRANCH   1   3
BRANCH   1  11
ATOM     11  C   UNL     1      -0.602  46.788  13.906  1.00  0.00     0.087 C 
BRANCH  11  12
ATOM     12  C   UNL     1      -2.008  46.269  14.343  1.00  0.00     0.066 C 
BRANCH  12  13
ATOM     13  C   UNL     1      -2.528  46.893  15.636  1.00  0.00     0.140 C 
ATOM     14  O   UNL     1      -3.485  46.401  16.215  1.00  0.00    -0.299 OA
BRANCH  13  15
ATOM     15  C   UNL     1      -1.820  48.074  16.257  1.00  0.00     0.106 CG0
ATOM     16  G   UNL     1      -1.187  47.731  17.597  1.00  0.00     0.000 G0
ENDBRANCH  13  15
ENDBRANCH  12  13
BRANCH  12  17
ATOM     17  C   UNL     1      -3.056  46.262  13.184  1.00  0.00    -0.006 C 
ATOM     18  C   UNL     1      -2.514  45.770  11.832  1.00  0.00     0.008 C 
ATOM     19  C   UNL     1      -3.724  47.637  13.020  1.00  0.00     0.008 C 
ENDBRANCH  12  17
ENDBRANCH  11  12
ENDBRANCH   1  11
TORSDOF 1
ENDMDL
MODEL 9
REMARK VINA RESULT:    -3.553      1.706      4.071
REMARK INTER + INTRA:          -5.208
REMARK INTER:                  -6.475
REMARK INTRA:                   1.267
REMARK UNBOUND:                 0.214
REMARK SMILES CC1=CCC[C@H](C)C(=O)C[C@H](C(C)C)C(=O)C1
REMARK SMILES IDX 8 1 9 2 6 3 7 4 5 5 4 6 3 7 2 8 1 9 10 11 11 12 15 13 16 14
REMARK SMILES IDX 17 15 12 17 13 18 14 19
REMARK H PARENT
REMARK Flexibility Score: 70.00
ROOT
ATOM      1  C   UNL     1      -8.769  33.312  25.994  1.00  0.00     0.136 C 
ATOM      2  O   UNL     1      -7.999  32.877  26.837  1.00  0.00    -0.299 OA
ENDROOT
BRANCH   1   3
ATOM      3  C   UNL     1      -8.593  34.730  25.479  1.00  0.00     0.053 C 
ATOM      4  C   UNL     1      -7.127  35.168  25.601  1.00  0.00     0.016 C 
BRANCH   3   5
ATOM      5  C   UNL     1      -9.079  34.830  24.016  1.00  0.00     0.015 C 
BRANCH   5   6
ATOM      6  C   UNL     1      -7.941  34.583  23.006  1.00  0.00     0.028 C 
BRANCH   6   7
ATOM      7  C   UNL     1      -8.354  33.563  21.975  1.00  0.00    -0.028 C 
ATOM      8  C   UNL     1      -8.243  32.222  22.130  1.00  0.00    -0.070 CG0
ATOM      9  C   UNL     1      -8.624  31.340  20.967  1.00  0.00     0.039 C 
ATOM     10  G   UNL     1      -7.776  31.577  23.426  1.00  0.00     0.000 G0
ENDBRANCH   6   7
ENDBRANCH   5   6
ENDBRANCH   3   5
ENDBRANCH   1   3
BRANCH   1  11
ATOM     11  C   UNL     1      -9.881  32.426  25.475  1.00  0.00     0.087 C 
BRANCH  11  12
ATOM     12  C   UNL     1      -9.508  30.919  25.308  1.00  0.00     0.066 C 
BRANCH  12  13
ATOM     13  C   UNL     1      -8.765  30.602  24.012  1.00  0.00     0.140 C 
ATOM     14  O   UNL     1      -9.020  29.581  23.390  1.00  0.00    -0.299 OA
BRANCH  13  15
ATOM     15  C   UNL     1      -7.768  31.581  23.439  1.00  0.00     0.106 CG0
ATOM     16  G   UNL     1      -8.258  32.221  22.149  1.00  0.00     0.000 G0
ENDBRANCH  13  15
ENDBRANCH  12  13
BRANCH  12  17
ATOM     17  C   UNL     1      -8.845  30.298  26.578  1.00  0.00    -0.006 C 
ATOM     18  C   UNL     1      -7.460  29.674  26.338  1.00  0.00     0.008 C 
ATOM     19  C   UNL     1      -9.774  29.280  27.259  1.00  0.00     0.008 C 
ENDBRANCH  12  17
ENDBRANCH  11  12
ENDBRANCH   1  11
TORSDOF 1
ENDMDL
