MODEL 1
REMARK VINA RESULT:    -2.439      0.000      0.000
REMARK INTER + INTRA:          -2.439
REMARK INTER:                  -2.439
REMARK INTRA:                   0.000
REMARK UNBOUND:                 0.000
REMARK SMILES CC(=O)[O-]
REMARK SMILES IDX 1 1 2 2 3 3 4 4
REMARK H PARENT
REMARK Flexibility Score: inf
ROOT
ATOM      1  C   UNL     1     138.170 141.929 136.387  1.00  0.00     0.063 C 
ATOM      2  C   UNL     1     138.084 143.346 135.927  1.00  0.00     0.038 C 
ATOM      3  O   UNL     1     138.987 143.827 135.195  1.00  0.00    -0.550 OA
ATOM      4  O   UNL     1     136.982 144.120 136.262  1.00  0.00    -0.550 OA
ENDROOT
TORSDOF 0
ENDMDL
MODEL 2
REMARK VINA RESULT:    -2.337      1.483      1.784
REMARK INTER + INTRA:          -2.337
REMARK INTER:                  -2.337
REMARK INTRA:                   0.000
REMARK UNBOUND:                 0.000
REMARK SMILES CC(=O)[O-]
REMARK SMILES IDX 1 1 2 2 3 3 4 4
REMARK H PARENT
REMARK Flexibility Score: inf
ROOT
ATOM      1  C   UNL     1     138.603 143.740 135.176  1.00  0.00     0.063 C 
ATOM      2  C   UNL     1     138.016 142.911 136.268  1.00  0.00     0.038 C 
ATOM      3  O   UNL     1     138.417 141.731 136.448  1.00  0.00    -0.550 OA
ATOM      4  O   UNL     1     137.065 143.454 137.121  1.00  0.00    -0.550 OA
ENDROOT
TORSDOF 0
ENDMDL
MODEL 3
REMARK VINA RESULT:    -2.325     14.282     14.642
REMARK INTER + INTRA:          -2.325
REMARK INTER:                  -2.325
REMARK INTRA:                   0.000
REMARK UNBOUND:                 0.000
REMARK SMILES CC(=O)[O-]
REMARK SMILES IDX 1 1 2 2 3 3 4 4
REMARK H PARENT
REMARK Flexibility Score: inf
ROOT
ATOM      1  C   UNL     1     143.210 130.810 137.063  1.00  0.00     0.063 C 
ATOM      2  C   UNL     1     142.870 129.546 136.348  1.00  0.00     0.038 C 
ATOM      3  O   UNL     1     143.726 128.987 135.613  1.00  0.00    -0.550 OA
ATOM      4  O   UNL     1     141.629 128.953 136.534  1.00  0.00    -0.550 OA
ENDROOT
TORSDOF 0
ENDMDL
MODEL 4
REMARK VINA RESULT:    -2.240     14.063     14.581
REMARK INTER + INTRA:          -2.240
REMARK INTER:                  -2.240
REMARK INTRA:                   0.000
REMARK UNBOUND:                 0.000
REMARK SMILES CC(=O)[O-]
REMARK SMILES IDX 1 1 2 2 3 3 4 4
REMARK H PARENT
REMARK Flexibility Score: inf
ROOT
ATOM      1  C   UNL     1     123.875 138.316 135.261  1.00  0.00     0.063 C 
ATOM      2  C   UNL     1     124.749 137.745 136.327  1.00  0.00     0.038 C 
ATOM      3  O   UNL     1     125.791 138.356 136.681  1.00  0.00    -0.550 OA
ATOM      4  O   UNL     1     124.387 136.568 136.967  1.00  0.00    -0.550 OA
ENDROOT
TORSDOF 0
ENDMDL
MODEL 5
REMARK VINA RESULT:    -2.230      1.934      2.363
REMARK INTER + INTRA:          -2.230
REMARK INTER:                  -2.230
REMARK INTRA:                   0.000
REMARK UNBOUND:                 0.000
REMARK SMILES CC(=O)[O-]
REMARK SMILES IDX 1 1 2 2 3 3 4 4
REMARK H PARENT
REMARK Flexibility Score: inf
ROOT
ATOM      1  C   UNL     1     135.840 143.767 136.995  1.00  0.00     0.063 C 
ATOM      2  C   UNL     1     137.098 143.052 136.632  1.00  0.00     0.038 C 
ATOM      3  O   UNL     1     137.308 141.888 137.064  1.00  0.00    -0.550 OA
ATOM      4  O   UNL     1     138.015 143.646 135.776  1.00  0.00    -0.550 OA
ENDROOT
TORSDOF 0
ENDMDL
MODEL 6
REMARK VINA RESULT:    -2.051     18.773     18.975
REMARK INTER + INTRA:          -2.051
REMARK INTER:                  -2.051
REMARK INTRA:                   0.000
REMARK UNBOUND:                 0.000
REMARK SMILES CC(=O)[O-]
REMARK SMILES IDX 1 1 2 2 3 3 4 4
REMARK H PARENT
REMARK Flexibility Score: inf
ROOT
ATOM      1  C   UNL     1     132.535 134.406 121.381  1.00  0.00     0.063 C 
ATOM      2  C   UNL     1     133.329 133.930 120.211  1.00  0.00     0.038 C 
ATOM      3  O   UNL     1     134.342 133.205 120.389  1.00  0.00    -0.550 OA
ATOM      4  O   UNL     1     132.923 134.242 118.921  1.00  0.00    -0.550 OA
ENDROOT
TORSDOF 0
ENDMDL
MODEL 7
REMARK VINA RESULT:    -2.048     18.720     18.930
REMARK INTER + INTRA:          -2.048
REMARK INTER:                  -2.048
REMARK INTRA:                   0.000
REMARK UNBOUND:                 0.000
REMARK SMILES CC(=O)[O-]
REMARK SMILES IDX 1 1 2 2 3 3 4 4
REMARK H PARENT
REMARK Flexibility Score: inf
ROOT
ATOM      1  C   UNL     1     134.000 134.021 118.724  1.00  0.00     0.063 C 
ATOM      2  C   UNL     1     133.797 133.925 120.199  1.00  0.00     0.038 C 
ATOM      3  O   UNL     1     133.106 132.990 120.682  1.00  0.00    -0.550 OA
ATOM      4  O   UNL     1     134.414 134.835 121.046  1.00  0.00    -0.550 OA
ENDROOT
TORSDOF 0
ENDMDL
MODEL 8
REMARK VINA RESULT:    -2.045     18.762     19.017
REMARK INTER + INTRA:          -2.045
REMARK INTER:                  -2.045
REMARK INTRA:                   0.000
REMARK UNBOUND:                 0.000
REMARK SMILES CC(=O)[O-]
REMARK SMILES IDX 1 1 2 2 3 3 4 4
REMARK H PARENT
REMARK Flexibility Score: inf
ROOT
ATOM      1  C   UNL     1     134.762 132.885 121.438  1.00  0.00     0.063 C 
ATOM      2  C   UNL     1     133.993 133.438 120.285  1.00  0.00     0.038 C 
ATOM      3  O   UNL     1     133.008 134.195 120.489  1.00  0.00    -0.550 OA
ATOM      4  O   UNL     1     134.393 133.163 118.985  1.00  0.00    -0.550 OA
ENDROOT
TORSDOF 0
ENDMDL
MODEL 9
REMARK VINA RESULT:    -1.999      9.123      9.391
REMARK INTER + INTRA:          -1.999
REMARK INTER:                  -1.999
REMARK INTRA:                   0.000
REMARK UNBOUND:                 0.000
REMARK SMILES CC(=O)[O-]
REMARK SMILES IDX 1 1 2 2 3 3 4 4
REMARK H PARENT
REMARK Flexibility Score: inf
ROOT
ATOM      1  C   UNL     1     137.208 135.513 133.258  1.00  0.00     0.063 C 
ATOM      2  C   UNL     1     136.032 134.605 133.390  1.00  0.00     0.038 C 
ATOM      3  O   UNL     1     136.202 133.362 133.490  1.00  0.00    -0.550 OA
ATOM      4  O   UNL     1     134.750 135.133 133.455  1.00  0.00    -0.550 OA
ENDROOT
TORSDOF 0
ENDMDL
