MODEL 1
REMARK VINA RESULT:    -2.731      0.000      0.000
REMARK INTER + INTRA:          -3.563
REMARK INTER:                  -3.370
REMARK INTRA:                  -0.194
REMARK UNBOUND:                -0.194
REMARK SMILES CCCCCC(=O)[O-]
REMARK SMILES IDX 4 1 5 2 6 3 7 4 8 5 3 6 2 7 1 8
REMARK H PARENT
REMARK Flexibility Score: inf
ROOT
ATOM      1  C   UNL     1       3.019  24.641   6.794  1.00  0.00     0.006 C 
ENDROOT
BRANCH   1   2
ATOM      2  C   UNL     1       2.088  25.677   6.158  1.00  0.00     0.053 C 
BRANCH   2   3
ATOM      3  C   UNL     1       1.000  26.060   7.112  1.00  0.00     0.041 C 
ATOM      4  O   UNL     1       1.168  25.923   8.352  1.00  0.00    -0.550 OA
ATOM      5  O   UNL     1      -0.180  26.615   6.634  1.00  0.00    -0.550 OA
ENDBRANCH   2   3
ENDBRANCH   1   2
BRANCH   1   6
ATOM      6  C   UNL     1       4.489  25.036   6.608  1.00  0.00     0.000 C 
BRANCH   6   7
ATOM      7  C   UNL     1       5.160  25.309   7.959  1.00  0.00    -0.003 C 
ATOM      8  C   UNL     1       4.389  24.649   9.100  1.00  0.00     0.004 C 
ENDBRANCH   6   7
ENDBRANCH   1   6
TORSDOF 4
ENDMDL
MODEL 2
REMARK VINA RESULT:    -2.699      2.491      3.830
REMARK INTER + INTRA:          -3.524
REMARK INTER:                  -3.338
REMARK INTRA:                  -0.186
REMARK UNBOUND:                -0.194
REMARK SMILES CCCCCC(=O)[O-]
REMARK SMILES IDX 4 1 5 2 6 3 7 4 8 5 3 6 2 7 1 8
REMARK H PARENT
REMARK Flexibility Score: inf
ROOT
ATOM      1  C   UNL     1       2.882  24.527   6.679  1.00  0.00     0.006 C 
ENDROOT
BRANCH   1   2
ATOM      2  C   UNL     1       4.371  24.871   6.584  1.00  0.00     0.053 C 
BRANCH   2   3
ATOM      3  C   UNL     1       4.965  25.009   7.950  1.00  0.00     0.041 C 
ATOM      4  O   UNL     1       4.563  24.278   8.893  1.00  0.00    -0.550 OA
ATOM      5  O   UNL     1       5.999  25.910   8.170  1.00  0.00    -0.550 OA
ENDBRANCH   2   3
ENDBRANCH   1   2
BRANCH   1   6
ATOM      6  C   UNL     1       2.018  25.659   6.110  1.00  0.00     0.000 C 
BRANCH   6   7
ATOM      7  C   UNL     1       0.848  25.982   7.047  1.00  0.00    -0.003 C 
ATOM      8  C   UNL     1       1.249  25.808   8.510  1.00  0.00     0.004 C 
ENDBRANCH   6   7
ENDBRANCH   1   6
TORSDOF 4
ENDMDL
MODEL 3
REMARK VINA RESULT:    -2.689     21.895     22.756
REMARK INTER + INTRA:          -3.512
REMARK INTER:                  -3.321
REMARK INTRA:                  -0.191
REMARK UNBOUND:                -0.194
REMARK SMILES CCCCCC(=O)[O-]
REMARK SMILES IDX 4 1 5 2 6 3 7 4 8 5 3 6 2 7 1 8
REMARK H PARENT
REMARK Flexibility Score: inf
ROOT
ATOM      1  C   UNL     1      16.892  41.858   4.385  1.00  0.00     0.006 C 
ENDROOT
BRANCH   1   2
ATOM      2  C   UNL     1      18.046  42.645   5.013  1.00  0.00     0.053 C 
BRANCH   2   3
ATOM      3  C   UNL     1      17.791  42.877   6.469  1.00  0.00     0.041 C 
ATOM      4  O   UNL     1      16.869  43.653   6.835  1.00  0.00    -0.550 OA
ATOM      5  O   UNL     1      18.538  42.196   7.422  1.00  0.00    -0.550 OA
ENDBRANCH   2   3
ENDBRANCH   1   2
BRANCH   1   6
ATOM      6  C   UNL     1      16.299  42.613   3.189  1.00  0.00     0.000 C 
BRANCH   6   7
ATOM      7  C   UNL     1      15.355  43.727   3.655  1.00  0.00    -0.003 C 
ATOM      8  C   UNL     1      14.014  43.159   4.110  1.00  0.00     0.004 C 
ENDBRANCH   6   7
ENDBRANCH   1   6
TORSDOF 4
ENDMDL
MODEL 4
REMARK VINA RESULT:    -2.675      1.986      3.822
REMARK INTER + INTRA:          -3.494
REMARK INTER:                  -3.286
REMARK INTRA:                  -0.208
REMARK UNBOUND:                -0.194
REMARK SMILES CCCCCC(=O)[O-]
REMARK SMILES IDX 4 1 5 2 6 3 7 4 8 5 3 6 2 7 1 8
REMARK H PARENT
REMARK Flexibility Score: inf
ROOT
ATOM      1  C   UNL     1       5.022  25.137   8.017  1.00  0.00     0.006 C 
ENDROOT
BRANCH   1   2
ATOM      2  C   UNL     1       4.397  24.050   8.896  1.00  0.00     0.053 C 
BRANCH   2   3
ATOM      3  C   UNL     1       3.855  24.643  10.158  1.00  0.00     0.041 C 
ATOM      4  O   UNL     1       2.878  25.436  10.117  1.00  0.00    -0.550 OA
ATOM      5  O   UNL     1       4.398  24.282  11.385  1.00  0.00    -0.550 OA
ENDBRANCH   2   3
ENDBRANCH   1   2
BRANCH   1   6
ATOM      6  C   UNL     1       4.501  25.048   6.578  1.00  0.00     0.000 C 
BRANCH   6   7
ATOM      7  C   UNL     1       3.057  24.533   6.547  1.00  0.00    -0.003 C 
ATOM      8  C   UNL     1       2.067  25.679   6.362  1.00  0.00     0.004 C 
ENDBRANCH   6   7
ENDBRANCH   1   6
TORSDOF 4
ENDMDL
MODEL 5
REMARK VINA RESULT:    -2.670      2.464      3.870
REMARK INTER + INTRA:          -3.488
REMARK INTER:                  -3.324
REMARK INTRA:                  -0.164
REMARK UNBOUND:                -0.194
REMARK SMILES CCCCCC(=O)[O-]
REMARK SMILES IDX 4 1 5 2 6 3 7 4 8 5 3 6 2 7 1 8
REMARK H PARENT
REMARK Flexibility Score: inf
ROOT
ATOM      1  C   UNL     1       2.775  24.667   6.809  1.00  0.00     0.006 C 
ENDROOT
BRANCH   1   2
ATOM      2  C   UNL     1       4.262  24.978   6.613  1.00  0.00     0.053 C 
BRANCH   2   3
ATOM      3  C   UNL     1       4.952  25.095   7.935  1.00  0.00     0.041 C 
ATOM      4  O   UNL     1       5.927  25.879   8.074  1.00  0.00    -0.550 OA
ATOM      5  O   UNL     1       4.485  24.377   9.029  1.00  0.00    -0.550 OA
ENDBRANCH   2   3
ENDBRANCH   1   2
BRANCH   1   6
ATOM      6  C   UNL     1       1.898  25.739   6.151  1.00  0.00     0.000 C 
BRANCH   6   7
ATOM      7  C   UNL     1       0.704  26.096   7.043  1.00  0.00    -0.003 C 
ATOM      8  C   UNL     1       1.008  25.810   8.511  1.00  0.00     0.004 C 
ENDBRANCH   6   7
ENDBRANCH   1   6
TORSDOF 4
ENDMDL
MODEL 6
REMARK VINA RESULT:    -2.660      1.959      3.644
REMARK INTER + INTRA:          -3.475
REMARK INTER:                  -3.272
REMARK INTRA:                  -0.204
REMARK UNBOUND:                -0.194
REMARK SMILES CCCCCC(=O)[O-]
REMARK SMILES IDX 4 1 5 2 6 3 7 4 8 5 3 6 2 7 1 8
REMARK H PARENT
REMARK Flexibility Score: inf
ROOT
ATOM      1  C   UNL     1       5.008  25.158   8.026  1.00  0.00     0.006 C 
ENDROOT
BRANCH   1   2
ATOM      2  C   UNL     1       4.466  24.028   8.905  1.00  0.00     0.053 C 
BRANCH   2   3
ATOM      3  C   UNL     1       3.870  24.581  10.161  1.00  0.00     0.041 C 
ATOM      4  O   UNL     1       4.345  24.261  11.282  1.00  0.00    -0.550 OA
ATOM      5  O   UNL     1       2.821  25.489  10.092  1.00  0.00    -0.550 OA
ENDBRANCH   2   3
ENDBRANCH   1   2
BRANCH   1   6
ATOM      6  C   UNL     1       4.504  25.024   6.584  1.00  0.00     0.000 C 
BRANCH   6   7
ATOM      7  C   UNL     1       3.059  24.513   6.553  1.00  0.00    -0.003 C 
ATOM      8  C   UNL     1       2.076  25.655   6.312  1.00  0.00     0.004 C 
ENDBRANCH   6   7
ENDBRANCH   1   6
TORSDOF 4
ENDMDL
MODEL 7
REMARK VINA RESULT:    -2.529      2.630      4.236
REMARK INTER + INTRA:          -3.313
REMARK INTER:                  -3.218
REMARK INTRA:                  -0.095
REMARK UNBOUND:                -0.194
REMARK SMILES CCCCCC(=O)[O-]
REMARK SMILES IDX 4 1 5 2 6 3 7 4 8 5 3 6 2 7 1 8
REMARK H PARENT
REMARK Flexibility Score: inf
ROOT
ATOM      1  C   UNL     1       3.913  24.656   9.049  1.00  0.00     0.006 C 
ENDROOT
BRANCH   1   2
ATOM      2  C   UNL     1       4.480  23.895  10.251  1.00  0.00     0.053 C 
BRANCH   2   3
ATOM      3  C   UNL     1       4.013  24.514  11.531  1.00  0.00     0.041 C 
ATOM      4  O   UNL     1       4.676  24.357  12.590  1.00  0.00    -0.550 OA
ATOM      5  O   UNL     1       2.873  25.308  11.544  1.00  0.00    -0.550 OA
ENDBRANCH   2   3
ENDBRANCH   1   2
BRANCH   1   6
ATOM      6  C   UNL     1       5.025  25.037   8.065  1.00  0.00     0.000 C 
BRANCH   6   7
ATOM      7  C   UNL     1       4.486  25.121   6.632  1.00  0.00    -0.003 C 
ATOM      8  C   UNL     1       2.963  25.211   6.621  1.00  0.00     0.004 C 
ENDBRANCH   6   7
ENDBRANCH   1   6
TORSDOF 4
ENDMDL
MODEL 8
REMARK VINA RESULT:    -2.509      1.541      2.094
REMARK INTER + INTRA:          -3.289
REMARK INTER:                  -3.101
REMARK INTRA:                  -0.189
REMARK UNBOUND:                -0.194
REMARK SMILES CCCCCC(=O)[O-]
REMARK SMILES IDX 4 1 5 2 6 3 7 4 8 5 3 6 2 7 1 8
REMARK H PARENT
REMARK Flexibility Score: inf
ROOT
ATOM      1  C   UNL     1       2.009  24.711   7.025  1.00  0.00     0.006 C 
ENDROOT
BRANCH   1   2
ATOM      2  C   UNL     1       1.212  25.856   7.656  1.00  0.00     0.053 C 
BRANCH   2   3
ATOM      3  C   UNL     1       1.068  25.644   9.131  1.00  0.00     0.041 C 
ATOM      4  O   UNL     1      -0.053  25.353   9.622  1.00  0.00    -0.550 OA
ATOM      5  O   UNL     1       2.183  25.719   9.956  1.00  0.00    -0.550 OA
ENDBRANCH   2   3
ENDBRANCH   1   2
BRANCH   1   6
ATOM      6  C   UNL     1       3.280  25.235   6.345  1.00  0.00     0.000 C 
BRANCH   6   7
ATOM      7  C   UNL     1       4.522  24.497   6.858  1.00  0.00    -0.003 C 
ATOM      8  C   UNL     1       5.138  25.220   8.053  1.00  0.00     0.004 C 
ENDBRANCH   6   7
ENDBRANCH   1   6
TORSDOF 4
ENDMDL
MODEL 9
REMARK VINA RESULT:    -2.437      3.708      4.790
REMARK INTER + INTRA:          -3.201
REMARK INTER:                  -3.148
REMARK INTRA:                  -0.053
REMARK UNBOUND:                -0.194
REMARK SMILES CCCCCC(=O)[O-]
REMARK SMILES IDX 4 1 5 2 6 3 7 4 8 5 3 6 2 7 1 8
REMARK H PARENT
REMARK Flexibility Score: inf
ROOT
ATOM      1  C   UNL     1       3.844  24.546  10.425  1.00  0.00     0.006 C 
ENDROOT
BRANCH   1   2
ATOM      2  C   UNL     1       2.976  25.476  11.277  1.00  0.00     0.053 C 
BRANCH   2   3
ATOM      3  C   UNL     1       3.501  25.548  12.676  1.00  0.00     0.041 C 
ATOM      4  O   UNL     1       4.537  24.909  12.997  1.00  0.00    -0.550 OA
ATOM      5  O   UNL     1       2.876  26.362  13.612  1.00  0.00    -0.550 OA
ENDBRANCH   2   3
ENDBRANCH   1   2
BRANCH   1   6
ATOM      6  C   UNL     1       3.511  24.694   8.935  1.00  0.00     0.000 C 
BRANCH   6   7
ATOM      7  C   UNL     1       4.784  24.896   8.105  1.00  0.00    -0.003 C 
ATOM      8  C   UNL     1       4.458  25.029   6.620  1.00  0.00     0.004 C 
ENDBRANCH   6   7
ENDBRANCH   1   6
TORSDOF 4
ENDMDL
