MODEL 1
REMARK VINA RESULT:    -5.811      0.000      0.000
REMARK INTER + INTRA:          -6.943
REMARK INTER:                  -6.660
REMARK INTRA:                  -0.283
REMARK UNBOUND:                -0.283
REMARK SMILES O=C1C[C@@H](c2ccc(O)cc2)Oc2cc(O)cc(O)c21
REMARK SMILES IDX 3 1 4 2 12 3 13 4 14 5 15 6 17 7 18 8 20 9 2 10 1 11 5 12
REMARK SMILES IDX 6 13 11 14 7 15 10 16 8 17 9 18 19 20 16 22
REMARK H PARENT 9 19 19 21 16 23
REMARK Flexibility Score: inf
ROOT
ATOM      1  C   UNL     1       2.687  38.359   5.003  1.00  0.00     0.131 C 
ATOM      2  C   UNL     1       2.075  38.129   6.389  1.00  0.00     0.211 C 
ATOM      3  O   UNL     1       3.049  37.569   7.268  1.00  0.00    -0.484 OA
ATOM      4  C   UNL     1       4.354  38.070   7.337  1.00  0.00     0.138 A 
ATOM      5  C   UNL     1       5.157  37.708   8.420  1.00  0.00     0.093 A 
ATOM      6  C   UNL     1       6.453  38.209   8.534  1.00  0.00     0.123 A 
ATOM      7  C   UNL     1       6.943  39.092   7.567  1.00  0.00     0.093 A 
ATOM      8  C   UNL     1       6.153  39.474   6.474  1.00  0.00     0.133 A 
ATOM      9  C   UNL     1       4.850  38.918   6.323  1.00  0.00     0.102 A 
ATOM     10  C   UNL     1       3.989  39.102   5.116  1.00  0.00     0.174 C 
ATOM     11  O   UNL     1       4.371  39.782   4.127  1.00  0.00    -0.294 OA
ENDROOT
BRANCH   2  12
ATOM     12  C   UNL     1       0.872  37.222   6.300  1.00  0.00    -0.007 A 
ATOM     13  C   UNL     1       1.003  35.926   5.771  1.00  0.00     0.011 A 
ATOM     14  C   UNL     1      -0.377  37.636   6.795  1.00  0.00     0.011 A 
ATOM     15  C   UNL     1      -0.102  35.071   5.716  1.00  0.00     0.046 A 
ATOM     16  C   UNL     1      -1.480  36.779   6.738  1.00  0.00     0.046 A 
ATOM     17  C   UNL     1      -1.347  35.496   6.198  1.00  0.00     0.115 A 
BRANCH  17  18
ATOM     18  O   UNL     1      -2.455  34.652   6.147  1.00  0.00    -0.508 OA
ATOM     19  H   UNL     1      -2.876  34.383   5.266  1.00  0.00     0.293 HD
ENDBRANCH  17  18
ENDBRANCH   2  12
BRANCH   8  20
ATOM     20  O   UNL     1       6.703  40.409   5.595  1.00  0.00    -0.507 OA
ATOM     21  H   UNL     1       7.029  40.196   4.665  1.00  0.00     0.293 HD
ENDBRANCH   8  20
BRANCH   6  22
ATOM     22  O   UNL     1       7.241  37.834   9.619  1.00  0.00    -0.508 OA
ATOM     23  H   UNL     1       8.253  37.869   9.575  1.00  0.00     0.293 HD
ENDBRANCH   6  22
TORSDOF 4
ENDMDL
MODEL 2
REMARK VINA RESULT:    -5.732      3.668      6.282
REMARK INTER + INTRA:          -6.853
REMARK INTER:                  -6.563
REMARK INTRA:                  -0.290
REMARK UNBOUND:                -0.283
REMARK SMILES O=C1C[C@@H](c2ccc(O)cc2)Oc2cc(O)cc(O)c21
REMARK SMILES IDX 3 1 4 2 12 3 13 4 14 5 15 6 17 7 18 8 20 9 2 10 1 11 5 12
REMARK SMILES IDX 6 13 11 14 7 15 10 16 8 17 9 18 19 20 16 22
REMARK H PARENT 9 19 19 21 16 23
REMARK Flexibility Score: inf
ROOT
ATOM      1  C   UNL     1      -2.449  37.092   7.671  1.00  0.00     0.131 C 
ATOM      2  C   UNL     1      -2.258  38.525   7.161  1.00  0.00     0.211 C 
ATOM      3  O   UNL     1      -0.868  38.840   7.094  1.00  0.00    -0.484 OA
ATOM      4  C   UNL     1       0.063  37.950   6.547  1.00  0.00     0.138 A 
ATOM      5  C   UNL     1       1.334  38.425   6.215  1.00  0.00     0.093 A 
ATOM      6  C   UNL     1       2.277  37.573   5.645  1.00  0.00     0.123 A 
ATOM      7  C   UNL     1       1.943  36.239   5.389  1.00  0.00     0.093 A 
ATOM      8  C   UNL     1       0.672  35.741   5.708  1.00  0.00     0.133 A 
ATOM      9  C   UNL     1      -0.275  36.593   6.345  1.00  0.00     0.102 A 
ATOM     10  C   UNL     1      -1.585  36.135   6.897  1.00  0.00     0.174 C 
ATOM     11  O   UNL     1      -1.948  34.932   6.830  1.00  0.00    -0.294 OA
ENDROOT
BRANCH   2  12
ATOM     12  C   UNL     1      -2.971  39.511   8.053  1.00  0.00    -0.007 A 
ATOM     13  C   UNL     1      -3.472  39.101   9.301  1.00  0.00     0.011 A 
ATOM     14  C   UNL     1      -3.095  40.860   7.676  1.00  0.00     0.011 A 
ATOM     15  C   UNL     1      -4.106  40.019  10.144  1.00  0.00     0.046 A 
ATOM     16  C   UNL     1      -3.730  41.775   8.520  1.00  0.00     0.046 A 
ATOM     17  C   UNL     1      -4.238  41.359   9.755  1.00  0.00     0.115 A 
BRANCH  17  18
ATOM     18  O   UNL     1      -4.869  42.281  10.587  1.00  0.00    -0.508 OA
ATOM     19  H   UNL     1      -4.467  43.194  10.766  1.00  0.00     0.293 HD
ENDBRANCH  17  18
ENDBRANCH   2  12
BRANCH   8  20
ATOM     20  O   UNL     1       0.408  34.415   5.356  1.00  0.00    -0.507 OA
ATOM     21  H   UNL     1       0.162  33.689   6.010  1.00  0.00     0.293 HD
ENDBRANCH   8  20
BRANCH   6  22
ATOM     22  O   UNL     1       3.541  38.062   5.325  1.00  0.00    -0.508 OA
ATOM     23  H   UNL     1       4.358  37.818   5.871  1.00  0.00     0.293 HD
ENDBRANCH   6  22
TORSDOF 4
ENDMDL
MODEL 3
REMARK VINA RESULT:    -5.724      4.707      7.629
REMARK INTER + INTRA:          -6.843
REMARK INTER:                  -6.552
REMARK INTRA:                  -0.291
REMARK UNBOUND:                -0.283
REMARK SMILES O=C1C[C@@H](c2ccc(O)cc2)Oc2cc(O)cc(O)c21
REMARK SMILES IDX 3 1 4 2 12 3 13 4 14 5 15 6 17 7 18 8 20 9 2 10 1 11 5 12
REMARK SMILES IDX 6 13 11 14 7 15 10 16 8 17 9 18 19 20 16 22
REMARK H PARENT 9 19 19 21 16 23
REMARK Flexibility Score: inf
ROOT
ATOM      1  C   UNL     1      -1.461  40.013   7.195  1.00  0.00     0.131 C 
ATOM      2  C   UNL     1      -2.326  39.613   8.396  1.00  0.00     0.211 C 
ATOM      3  O   UNL     1      -3.057  38.424   8.099  1.00  0.00    -0.484 OA
ATOM      4  C   UNL     1      -2.453  37.321   7.485  1.00  0.00     0.138 A 
ATOM      5  C   UNL     1      -3.113  36.091   7.510  1.00  0.00     0.093 A 
ATOM      6  C   UNL     1      -2.528  34.966   6.931  1.00  0.00     0.123 A 
ATOM      7  C   UNL     1      -1.266  35.068   6.339  1.00  0.00     0.093 A 
ATOM      8  C   UNL     1      -0.581  36.290   6.307  1.00  0.00     0.133 A 
ATOM      9  C   UNL     1      -1.200  37.454   6.845  1.00  0.00     0.102 A 
ATOM     10  C   UNL     1      -0.657  38.839   6.708  1.00  0.00     0.174 C 
ATOM     11  O   UNL     1       0.416  39.072   6.093  1.00  0.00    -0.294 OA
ENDROOT
BRANCH   2  12
ATOM     12  C   UNL     1      -3.274  40.726   8.768  1.00  0.00    -0.007 A 
ATOM     13  C   UNL     1      -4.094  40.605   9.904  1.00  0.00     0.011 A 
ATOM     14  C   UNL     1      -3.311  41.917   8.021  1.00  0.00     0.011 A 
ATOM     15  C   UNL     1      -4.952  41.647  10.270  1.00  0.00     0.046 A 
ATOM     16  C   UNL     1      -4.170  42.956   8.390  1.00  0.00     0.046 A 
ATOM     17  C   UNL     1      -4.993  42.825   9.512  1.00  0.00     0.115 A 
BRANCH  17  18
ATOM     18  O   UNL     1      -5.844  43.869   9.868  1.00  0.00    -0.508 OA
ATOM     19  H   UNL     1      -5.920  44.707   9.304  1.00  0.00     0.293 HD
ENDBRANCH  17  18
ENDBRANCH   2  12
BRANCH   8  20
ATOM     20  O   UNL     1       0.701  36.281   5.753  1.00  0.00    -0.507 OA
ATOM     21  H   UNL     1       1.337  35.500   5.797  1.00  0.00     0.293 HD
ENDBRANCH   8  20
BRANCH   6  22
ATOM     22  O   UNL     1      -3.204  33.749   6.961  1.00  0.00    -0.508 OA
ATOM     23  H   UNL     1      -3.414  33.281   7.835  1.00  0.00     0.293 HD
ENDBRANCH   6  22
TORSDOF 4
ENDMDL
MODEL 4
REMARK VINA RESULT:    -5.609      3.830      5.642
REMARK INTER + INTRA:          -6.713
REMARK INTER:                  -6.427
REMARK INTRA:                  -0.286
REMARK UNBOUND:                -0.283
REMARK SMILES O=C1C[C@@H](c2ccc(O)cc2)Oc2cc(O)cc(O)c21
REMARK SMILES IDX 3 1 4 2 12 3 13 4 14 5 15 6 17 7 18 8 20 9 2 10 1 11 5 12
REMARK SMILES IDX 6 13 11 14 7 15 10 16 8 17 9 18 19 20 16 22
REMARK H PARENT 9 19 19 21 16 23
REMARK Flexibility Score: inf
ROOT
ATOM      1  C   UNL     1       0.197  40.685   6.884  1.00  0.00     0.131 C 
ATOM      2  C   UNL     1      -0.678  39.817   7.795  1.00  0.00     0.211 C 
ATOM      3  O   UNL     1      -0.936  38.559   7.173  1.00  0.00    -0.484 OA
ATOM      4  C   UNL     1       0.078  37.824   6.549  1.00  0.00     0.138 A 
ATOM      5  C   UNL     1      -0.153  36.480   6.247  1.00  0.00     0.093 A 
ATOM      6  C   UNL     1       0.844  35.712   5.650  1.00  0.00     0.123 A 
ATOM      7  C   UNL     1       2.088  36.286   5.367  1.00  0.00     0.093 A 
ATOM      8  C   UNL     1       2.345  37.630   5.666  1.00  0.00     0.133 A 
ATOM      9  C   UNL     1       1.309  38.435   6.223  1.00  0.00     0.102 A 
ATOM     10  C   UNL     1       1.400  39.914   6.414  1.00  0.00     0.174 C 
ATOM     11  O   UNL     1       2.428  40.562   6.089  1.00  0.00    -0.294 OA
ENDROOT
BRANCH   2  12
ATOM     12  C   UNL     1      -1.978  40.515   8.113  1.00  0.00    -0.007 A 
ATOM     13  C   UNL     1      -2.808  40.028   9.138  1.00  0.00     0.011 A 
ATOM     14  C   UNL     1      -2.348  41.688   7.431  1.00  0.00     0.011 A 
ATOM     15  C   UNL     1      -3.999  40.690   9.456  1.00  0.00     0.046 A 
ATOM     16  C   UNL     1      -3.538  42.346   7.752  1.00  0.00     0.046 A 
ATOM     17  C   UNL     1      -4.367  41.850   8.762  1.00  0.00     0.115 A 
BRANCH  17  18
ATOM     18  O   UNL     1      -5.551  42.517   9.072  1.00  0.00    -0.508 OA
ATOM     19  H   UNL     1      -5.621  43.526   9.017  1.00  0.00     0.293 HD
ENDBRANCH  17  18
ENDBRANCH   2  12
BRANCH   8  20
ATOM     20  O   UNL     1       3.635  38.098   5.408  1.00  0.00    -0.507 OA
ATOM     21  H   UNL     1       4.198  38.614   6.067  1.00  0.00     0.293 HD
ENDBRANCH   8  20
BRANCH   6  22
ATOM     22  O   UNL     1       0.595  34.374   5.351  1.00  0.00    -0.508 OA
ATOM     23  H   UNL     1       0.490  34.055   4.395  1.00  0.00     0.293 HD
ENDBRANCH   6  22
TORSDOF 4
ENDMDL
MODEL 5
REMARK VINA RESULT:    -5.379      2.217      6.900
REMARK INTER + INTRA:          -6.448
REMARK INTER:                  -6.163
REMARK INTRA:                  -0.285
REMARK UNBOUND:                -0.283
REMARK SMILES O=C1C[C@@H](c2ccc(O)cc2)Oc2cc(O)cc(O)c21
REMARK SMILES IDX 3 1 4 2 12 3 13 4 14 5 15 6 17 7 18 8 20 9 2 10 1 11 5 12
REMARK SMILES IDX 6 13 11 14 7 15 10 16 8 17 9 18 19 20 16 22
REMARK H PARENT 9 19 19 21 16 23
REMARK Flexibility Score: inf
ROOT
ATOM      1  C   UNL     1       2.209  37.135   5.940  1.00  0.00     0.131 C 
ATOM      2  C   UNL     1       2.586  37.785   7.276  1.00  0.00     0.211 C 
ATOM      3  O   UNL     1       1.798  38.956   7.491  1.00  0.00    -0.484 OA
ATOM      4  C   UNL     1       0.418  38.967   7.262  1.00  0.00     0.138 A 
ATOM      5  C   UNL     1      -0.342  40.015   7.785  1.00  0.00     0.093 A 
ATOM      6  C   UNL     1      -1.723  40.044   7.599  1.00  0.00     0.123 A 
ATOM      7  C   UNL     1      -2.351  39.009   6.900  1.00  0.00     0.093 A 
ATOM      8  C   UNL     1      -1.610  37.943   6.371  1.00  0.00     0.133 A 
ATOM      9  C   UNL     1      -0.192  37.940   6.509  1.00  0.00     0.102 A 
ATOM     10  C   UNL     1       0.718  36.964   5.837  1.00  0.00     0.174 C 
ATOM     11  O   UNL     1       0.278  36.055   5.087  1.00  0.00    -0.294 OA
ENDROOT
BRANCH   2  12
ATOM     12  C   UNL     1       4.054  38.134   7.307  1.00  0.00    -0.007 A 
ATOM     13  C   UNL     1       4.577  39.065   6.393  1.00  0.00     0.011 A 
ATOM     14  C   UNL     1       4.903  37.579   8.281  1.00  0.00     0.011 A 
ATOM     15  C   UNL     1       5.931  39.415   6.438  1.00  0.00     0.046 A 
ATOM     16  C   UNL     1       6.255  37.930   8.323  1.00  0.00     0.046 A 
ATOM     17  C   UNL     1       6.773  38.846   7.403  1.00  0.00     0.115 A 
BRANCH  17  18
ATOM     18  O   UNL     1       8.124  39.187   7.456  1.00  0.00    -0.508 OA
ATOM     19  H   UNL     1       8.762  38.940   6.710  1.00  0.00     0.293 HD
ENDBRANCH  17  18
ENDBRANCH   2  12
BRANCH   8  20
ATOM     20  O   UNL     1      -2.330  36.923   5.746  1.00  0.00    -0.507 OA
ATOM     21  H   UNL     1      -2.292  36.719   4.759  1.00  0.00     0.293 HD
ENDBRANCH   8  20
BRANCH   6  22
ATOM     22  O   UNL     1      -2.465  41.100   8.123  1.00  0.00    -0.508 OA
ATOM     23  H   UNL     1      -2.141  42.058   8.058  1.00  0.00     0.293 HD
ENDBRANCH   6  22
TORSDOF 4
ENDMDL
MODEL 6
REMARK VINA RESULT:    -5.287      2.007      7.058
REMARK INTER + INTRA:          -6.343
REMARK INTER:                  -6.045
REMARK INTRA:                  -0.298
REMARK UNBOUND:                -0.283
REMARK SMILES O=C1C[C@@H](c2ccc(O)cc2)Oc2cc(O)cc(O)c21
REMARK SMILES IDX 3 1 4 2 12 3 13 4 14 5 15 6 17 7 18 8 20 9 2 10 1 11 5 12
REMARK SMILES IDX 6 13 11 14 7 15 10 16 8 17 9 18 19 20 16 22
REMARK H PARENT 9 19 19 21 16 23
REMARK Flexibility Score: inf
ROOT
ATOM      1  C   UNL     1       0.966  39.699   7.274  1.00  0.00     0.131 C 
ATOM      2  C   UNL     1       1.665  38.640   6.414  1.00  0.00     0.211 C 
ATOM      3  O   UNL     1       1.075  37.360   6.638  1.00  0.00    -0.484 OA
ATOM      4  C   UNL     1      -0.313  37.186   6.676  1.00  0.00     0.138 A 
ATOM      5  C   UNL     1      -0.832  35.893   6.576  1.00  0.00     0.093 A 
ATOM      6  C   UNL     1      -2.210  35.685   6.584  1.00  0.00     0.123 A 
ATOM      7  C   UNL     1      -3.076  36.779   6.677  1.00  0.00     0.093 A 
ATOM      8  C   UNL     1      -2.579  38.085   6.773  1.00  0.00     0.133 A 
ATOM      9  C   UNL     1      -1.172  38.298   6.824  1.00  0.00     0.102 A 
ATOM     10  C   UNL     1      -0.527  39.615   7.108  1.00  0.00     0.174 C 
ATOM     11  O   UNL     1      -1.206  40.652   7.324  1.00  0.00    -0.294 OA
ENDROOT
BRANCH   2  12
ATOM     12  C   UNL     1       3.142  38.591   6.720  1.00  0.00    -0.007 A 
ATOM     13  C   UNL     1       4.037  39.411   6.010  1.00  0.00     0.011 A 
ATOM     14  C   UNL     1       3.634  37.771   7.751  1.00  0.00     0.011 A 
ATOM     15  C   UNL     1       5.403  39.391   6.311  1.00  0.00     0.046 A 
ATOM     16  C   UNL     1       5.000  37.754   8.049  1.00  0.00     0.046 A 
ATOM     17  C   UNL     1       5.887  38.560   7.331  1.00  0.00     0.115 A 
BRANCH  17  18
ATOM     18  O   UNL     1       7.246  38.533   7.638  1.00  0.00    -0.508 OA
ATOM     19  H   UNL     1       7.920  38.093   7.022  1.00  0.00     0.293 HD
ENDBRANCH  17  18
ENDBRANCH   2  12
BRANCH   8  20
ATOM     20  O   UNL     1      -3.520  39.118   6.796  1.00  0.00    -0.507 OA
ATOM     21  H   UNL     1      -4.121  39.325   7.578  1.00  0.00     0.293 HD
ENDBRANCH   8  20
BRANCH   6  22
ATOM     22  O   UNL     1      -2.709  34.389   6.488  1.00  0.00    -0.508 OA
ATOM     23  H   UNL     1      -3.514  34.172   5.911  1.00  0.00     0.293 HD
ENDBRANCH   6  22
TORSDOF 4
ENDMDL
MODEL 7
REMARK VINA RESULT:    -5.213     14.226     15.932
REMARK INTER + INTRA:          -6.259
REMARK INTER:                  -5.974
REMARK INTRA:                  -0.285
REMARK UNBOUND:                -0.283
REMARK SMILES O=C1C[C@@H](c2ccc(O)cc2)Oc2cc(O)cc(O)c21
REMARK SMILES IDX 3 1 4 2 12 3 13 4 14 5 15 6 17 7 18 8 20 9 2 10 1 11 5 12
REMARK SMILES IDX 6 13 11 14 7 15 10 16 8 17 9 18 19 20 16 22
REMARK H PARENT 9 19 19 21 16 23
REMARK Flexibility Score: inf
ROOT
ATOM      1  C   UNL     1      -4.678  51.507  10.501  1.00  0.00     0.131 C 
ATOM      2  C   UNL     1      -3.229  51.025  10.626  1.00  0.00     0.211 C 
ATOM      3  O   UNL     1      -3.189  49.599  10.674  1.00  0.00    -0.484 OA
ATOM      4  C   UNL     1      -3.940  48.812   9.795  1.00  0.00     0.138 A 
ATOM      5  C   UNL     1      -3.626  47.457   9.670  1.00  0.00     0.093 A 
ATOM      6  C   UNL     1      -4.336  46.648   8.784  1.00  0.00     0.123 A 
ATOM      7  C   UNL     1      -5.357  47.203   8.006  1.00  0.00     0.093 A 
ATOM      8  C   UNL     1      -5.686  48.561   8.109  1.00  0.00     0.133 A 
ATOM      9  C   UNL     1      -5.002  49.377   9.055  1.00  0.00     0.102 A 
ATOM     10  C   UNL     1      -5.383  50.783   9.388  1.00  0.00     0.174 C 
ATOM     11  O   UNL     1      -6.359  51.353   8.835  1.00  0.00    -0.294 OA
ENDROOT
BRANCH   2  12
ATOM     12  C   UNL     1      -2.575  51.605  11.856  1.00  0.00    -0.007 A 
ATOM     13  C   UNL     1      -3.361  52.010  12.949  1.00  0.00     0.011 A 
ATOM     14  C   UNL     1      -1.174  51.695  11.950  1.00  0.00     0.011 A 
ATOM     15  C   UNL     1      -2.757  52.519  14.104  1.00  0.00     0.046 A 
ATOM     16  C   UNL     1      -0.574  52.204  13.104  1.00  0.00     0.046 A 
ATOM     17  C   UNL     1      -1.361  52.619  14.183  1.00  0.00     0.115 A 
BRANCH  17  18
ATOM     18  O   UNL     1      -0.750  53.125  15.328  1.00  0.00    -0.508 OA
ATOM     19  H   UNL     1      -1.239  53.750  15.958  1.00  0.00     0.293 HD
ENDBRANCH  17  18
ENDBRANCH   2  12
BRANCH   8  20
ATOM     20  O   UNL     1      -6.674  49.038   7.245  1.00  0.00    -0.507 OA
ATOM     21  H   UNL     1      -7.139  48.481   6.545  1.00  0.00     0.293 HD
ENDBRANCH   8  20
BRANCH   6  22
ATOM     22  O   UNL     1      -4.013  45.298   8.676  1.00  0.00    -0.508 OA
ATOM     23  H   UNL     1      -4.564  44.665   8.108  1.00  0.00     0.293 HD
ENDBRANCH   6  22
TORSDOF 4
ENDMDL
MODEL 8
REMARK VINA RESULT:    -5.190      9.864     11.485
REMARK INTER + INTRA:          -6.232
REMARK INTER:                  -5.948
REMARK INTRA:                  -0.284
REMARK UNBOUND:                -0.283
REMARK SMILES O=C1C[C@@H](c2ccc(O)cc2)Oc2cc(O)cc(O)c21
REMARK SMILES IDX 3 1 4 2 12 3 13 4 14 5 15 6 17 7 18 8 20 9 2 10 1 11 5 12
REMARK SMILES IDX 6 13 11 14 7 15 10 16 8 17 9 18 19 20 16 22
REMARK H PARENT 9 19 19 21 16 23
REMARK Flexibility Score: inf
ROOT
ATOM      1  C   UNL     1      -5.488  44.712   7.406  1.00  0.00     0.131 C 
ATOM      2  C   UNL     1      -5.000  44.351   8.813  1.00  0.00     0.211 C 
ATOM      3  O   UNL     1      -4.015  45.289   9.246  1.00  0.00    -0.484 OA
ATOM      4  C   UNL     1      -4.186  46.667   9.077  1.00  0.00     0.138 A 
ATOM      5  C   UNL     1      -3.363  47.539   9.792  1.00  0.00     0.093 A 
ATOM      6  C   UNL     1      -3.523  48.918   9.668  1.00  0.00     0.123 A 
ATOM      7  C   UNL     1      -4.524  49.428   8.836  1.00  0.00     0.093 A 
ATOM      8  C   UNL     1      -5.365  48.573   8.113  1.00  0.00     0.133 A 
ATOM      9  C   UNL     1      -5.167  47.165   8.192  1.00  0.00     0.102 A 
ATOM     10  C   UNL     1      -5.872  46.164   7.335  1.00  0.00     0.174 C 
ATOM     11  O   UNL     1      -6.713  46.512   6.466  1.00  0.00    -0.294 OA
ENDROOT
BRANCH   2  12
ATOM     12  C   UNL     1      -4.434  42.953   8.842  1.00  0.00    -0.007 A 
ATOM     13  C   UNL     1      -3.522  42.539   7.854  1.00  0.00     0.011 A 
ATOM     14  C   UNL     1      -4.764  42.066   9.883  1.00  0.00     0.011 A 
ATOM     15  C   UNL     1      -2.972  41.254   7.896  1.00  0.00     0.046 A 
ATOM     16  C   UNL     1      -4.212  40.783   9.920  1.00  0.00     0.046 A 
ATOM     17  C   UNL     1      -3.317  40.372   8.928  1.00  0.00     0.115 A 
BRANCH  17  18
ATOM     18  O   UNL     1      -2.774  39.090   8.978  1.00  0.00    -0.508 OA
ATOM     19  H   UNL     1      -2.438  38.624   8.143  1.00  0.00     0.293 HD
ENDBRANCH  17  18
ENDBRANCH   2  12
BRANCH   8  20
ATOM     20  O   UNL     1      -6.378  49.172   7.360  1.00  0.00    -0.507 OA
ATOM     21  H   UNL     1      -6.233  49.642   6.479  1.00  0.00     0.293 HD
ENDBRANCH   8  20
BRANCH   6  22
ATOM     22  O   UNL     1      -2.690  49.774  10.385  1.00  0.00    -0.508 OA
ATOM     23  H   UNL     1      -1.776  49.477  10.706  1.00  0.00     0.293 HD
ENDBRANCH   6  22
TORSDOF 4
ENDMDL
MODEL 9
REMARK VINA RESULT:    -4.966      4.561      7.743
REMARK INTER + INTRA:          -5.975
REMARK INTER:                  -5.666
REMARK INTRA:                  -0.309
REMARK UNBOUND:                -0.283
REMARK SMILES O=C1C[C@@H](c2ccc(O)cc2)Oc2cc(O)cc(O)c21
REMARK SMILES IDX 3 1 4 2 12 3 13 4 14 5 15 6 17 7 18 8 20 9 2 10 1 11 5 12
REMARK SMILES IDX 6 13 11 14 7 15 10 16 8 17 9 18 19 20 16 22
REMARK H PARENT 9 19 19 21 16 23
REMARK Flexibility Score: inf
ROOT
ATOM      1  C   UNL     1      -3.506  37.889   8.760  1.00  0.00     0.131 C 
ATOM      2  C   UNL     1      -3.466  38.906   7.614  1.00  0.00     0.211 C 
ATOM      3  O   UNL     1      -2.178  38.901   7.000  1.00  0.00    -0.484 OA
ATOM      4  C   UNL     1      -1.519  37.709   6.680  1.00  0.00     0.138 A 
ATOM      5  C   UNL     1      -0.431  37.756   5.805  1.00  0.00     0.093 A 
ATOM      6  C   UNL     1       0.232  36.584   5.444  1.00  0.00     0.123 A 
ATOM      7  C   UNL     1      -0.206  35.356   5.947  1.00  0.00     0.093 A 
ATOM      8  C   UNL     1      -1.299  35.283   6.821  1.00  0.00     0.133 A 
ATOM      9  C   UNL     1      -1.943  36.483   7.239  1.00  0.00     0.102 A 
ATOM     10  C   UNL     1      -2.991  36.553   8.301  1.00  0.00     0.174 C 
ATOM     11  O   UNL     1      -3.386  35.525   8.910  1.00  0.00    -0.294 OA
ENDROOT
BRANCH   2  12
ATOM     12  C   UNL     1      -3.798  40.290   8.114  1.00  0.00    -0.007 A 
ATOM     13  C   UNL     1      -4.392  40.462   9.377  1.00  0.00     0.011 A 
ATOM     14  C   UNL     1      -3.469  41.426   7.353  1.00  0.00     0.011 A 
ATOM     15  C   UNL     1      -4.673  41.745   9.857  1.00  0.00     0.046 A 
ATOM     16  C   UNL     1      -3.751  42.707   7.835  1.00  0.00     0.046 A 
ATOM     17  C   UNL     1      -4.354  42.871   9.085  1.00  0.00     0.115 A 
BRANCH  17  18
ATOM     18  O   UNL     1      -4.630  44.154   9.554  1.00  0.00    -0.508 OA
ATOM     19  H   UNL     1      -5.580  44.499   9.624  1.00  0.00     0.293 HD
ENDBRANCH  17  18
ENDBRANCH   2  12
BRANCH   8  20
ATOM     20  O   UNL     1      -1.705  34.007   7.219  1.00  0.00    -0.507 OA
ATOM     21  H   UNL     1      -1.440  33.153   6.754  1.00  0.00     0.293 HD
ENDBRANCH   8  20
BRANCH   6  22
ATOM     22  O   UNL     1       1.318  36.650   4.574  1.00  0.00    -0.508 OA
ATOM     23  H   UNL     1       1.251  37.117   3.677  1.00  0.00     0.293 HD
ENDBRANCH   6  22
TORSDOF 4
ENDMDL
