MODEL 1
REMARK VINA RESULT:    -3.653      0.000      0.000
REMARK INTER + INTRA:          -9.847
REMARK INTER:                  -7.070
REMARK INTRA:                  -2.778
REMARK UNBOUND:                -2.778
REMARK SMILES CCCCCCCCCCCCCCCCCC(=O)[O-]
REMARK SMILES IDX 10 1 11 2 12 3 13 4 14 5 15 6 16 7 17 8 18 9 19 10 20 11
REMARK SMILES IDX 9 12 8 13 7 14 6 15 5 16 4 17 3 18 2 19 1 20
REMARK H PARENT
REMARK Flexibility Score: inf
ROOT
ATOM      1  C   UNL     1     -36.142   6.000  -1.318  1.00  0.00     0.000 C 
ENDROOT
BRANCH   1   2
ATOM      2  C   UNL     1     -36.710   5.246  -2.540  1.00  0.00     0.000 C 
BRANCH   2   3
ATOM      3  C   UNL     1     -35.934   3.979  -2.945  1.00  0.00     0.000 C 
BRANCH   3   4
ATOM      4  C   UNL     1     -34.494   4.231  -3.426  1.00  0.00     0.000 C 
BRANCH   4   5
ATOM      5  C   UNL     1     -34.414   4.963  -4.785  1.00  0.00     0.000 C 
BRANCH   5   6
ATOM      6  C   UNL     1     -35.091   4.172  -5.917  1.00  0.00     0.000 C 
BRANCH   6   7
ATOM      7  C   UNL     1     -34.464   2.785  -6.130  1.00  0.00     0.006 C 
BRANCH   7   8
ATOM      8  C   UNL     1     -35.513   1.669  -6.225  1.00  0.00     0.053 C 
BRANCH   8   9
ATOM      9  C   UNL     1     -35.191   0.568  -5.264  1.00  0.00     0.041 C 
ATOM     10  O   UNL     1     -34.613  -0.476  -5.668  1.00  0.00    -0.550 OA
ATOM     11  O   UNL     1     -35.573   0.673  -3.933  1.00  0.00    -0.550 OA
ENDBRANCH   8   9
ENDBRANCH   7   8
ENDBRANCH   6   7
ENDBRANCH   5   6
ENDBRANCH   4   5
ENDBRANCH   3   4
ENDBRANCH   2   3
ENDBRANCH   1   2
BRANCH   1  12
ATOM     12  C   UNL     1     -35.796   7.480  -1.558  1.00  0.00     0.000 C 
BRANCH  12  13
ATOM     13  C   UNL     1     -35.881   7.882  -3.041  1.00  0.00    -0.000 C 
BRANCH  13  14
ATOM     14  C   UNL     1     -34.649   8.674  -3.517  1.00  0.00    -0.000 C 
BRANCH  14  15
ATOM     15  C   UNL     1     -33.375   8.490  -2.666  1.00  0.00    -0.000 C 
BRANCH  15  16
ATOM     16  C   UNL     1     -32.418   7.381  -3.139  1.00  0.00    -0.000 C 
BRANCH  16  17
ATOM     17  C   UNL     1     -31.589   6.778  -1.994  1.00  0.00    -0.000 C 
BRANCH  17  18
ATOM     18  C   UNL     1     -32.403   6.592  -0.703  1.00  0.00    -0.000 C 
BRANCH  18  19
ATOM     19  C   UNL     1     -32.644   5.114  -0.329  1.00  0.00    -0.003 C 
ATOM     20  C   UNL     1     -31.635   4.175  -0.992  1.00  0.00     0.004 C 
ENDBRANCH  18  19
ENDBRANCH  17  18
ENDBRANCH  16  17
ENDBRANCH  15  16
ENDBRANCH  14  15
ENDBRANCH  13  14
ENDBRANCH  12  13
ENDBRANCH   1  12
TORSDOF 16
ENDMDL
MODEL 2
REMARK VINA RESULT:    -3.592      3.832      6.084
REMARK INTER + INTRA:          -9.730
REMARK INTER:                  -7.159
REMARK INTRA:                  -2.571
REMARK UNBOUND:                -2.778
REMARK SMILES CCCCCCCCCCCCCCCCCC(=O)[O-]
REMARK SMILES IDX 10 1 11 2 12 3 13 4 14 5 15 6 16 7 17 8 18 9 19 10 20 11
REMARK SMILES IDX 9 12 8 13 7 14 6 15 5 16 4 17 3 18 2 19 1 20
REMARK H PARENT
REMARK Flexibility Score: inf
ROOT
ATOM      1  C   UNL     1     -29.942   8.365  -0.938  1.00  0.00     0.000 C 
ENDROOT
BRANCH   1   2
ATOM      2  C   UNL     1     -31.152   7.471  -1.279  1.00  0.00     0.000 C 
BRANCH   2   3
ATOM      3  C   UNL     1     -31.779   6.732  -0.081  1.00  0.00     0.000 C 
BRANCH   3   4
ATOM      4  C   UNL     1     -32.109   5.250  -0.340  1.00  0.00     0.000 C 
BRANCH   4   5
ATOM      5  C   UNL     1     -33.253   5.039  -1.356  1.00  0.00     0.000 C 
BRANCH   5   6
ATOM      6  C   UNL     1     -34.633   4.976  -0.680  1.00  0.00     0.000 C 
BRANCH   6   7
ATOM      7  C   UNL     1     -35.740   5.621  -1.530  1.00  0.00     0.006 C 
BRANCH   7   8
ATOM      8  C   UNL     1     -35.787   7.147  -1.382  1.00  0.00     0.053 C 
BRANCH   8   9
ATOM      9  C   UNL     1     -35.312   7.807  -2.638  1.00  0.00     0.041 C 
ATOM     10  O   UNL     1     -36.001   7.735  -3.691  1.00  0.00    -0.550 OA
ATOM     11  O   UNL     1     -34.085   8.459  -2.661  1.00  0.00    -0.550 OA
ENDBRANCH   8   9
ENDBRANCH   7   8
ENDBRANCH   6   7
ENDBRANCH   5   6
ENDBRANCH   4   5
ENDBRANCH   3   4
ENDBRANCH   2   3
ENDBRANCH   1   2
BRANCH   1  12
ATOM     12  C   UNL     1     -28.606   7.936  -1.569  1.00  0.00     0.000 C 
BRANCH  12  13
ATOM     13  C   UNL     1     -28.715   7.670  -3.080  1.00  0.00    -0.000 C 
BRANCH  13  14
ATOM     14  C   UNL     1     -27.633   6.704  -3.598  1.00  0.00    -0.000 C 
BRANCH  14  15
ATOM     15  C   UNL     1     -28.120   5.273  -3.912  1.00  0.00    -0.000 C 
BRANCH  15  16
ATOM     16  C   UNL     1     -29.578   4.970  -3.522  1.00  0.00    -0.000 C 
BRANCH  16  17
ATOM     17  C   UNL     1     -29.708   3.751  -2.595  1.00  0.00    -0.000 C 
BRANCH  17  18
ATOM     18  C   UNL     1     -28.494   3.577  -1.667  1.00  0.00    -0.000 C 
BRANCH  18  19
ATOM     19  C   UNL     1     -28.583   4.403  -0.366  1.00  0.00    -0.003 C 
ATOM     20  C   UNL     1     -27.210   4.863   0.125  1.00  0.00     0.004 C 
ENDBRANCH  18  19
ENDBRANCH  17  18
ENDBRANCH  16  17
ENDBRANCH  15  16
ENDBRANCH  14  15
ENDBRANCH  13  14
ENDBRANCH  12  13
ENDBRANCH   1  12
TORSDOF 16
ENDMDL
MODEL 3
REMARK VINA RESULT:    -3.523      1.800      5.361
REMARK INTER + INTRA:          -9.596
REMARK INTER:                  -7.030
REMARK INTRA:                  -2.566
REMARK UNBOUND:                -2.778
REMARK SMILES CCCCCCCCCCCCCCCCCC(=O)[O-]
REMARK SMILES IDX 10 1 11 2 12 3 13 4 14 5 15 6 16 7 17 8 18 9 19 10 20 11
REMARK SMILES IDX 9 12 8 13 7 14 6 15 5 16 4 17 3 18 2 19 1 20
REMARK H PARENT
REMARK Flexibility Score: inf
ROOT
ATOM      1  C   UNL     1     -36.125   7.365  -1.947  1.00  0.00     0.000 C 
ENDROOT
BRANCH   1   2
ATOM      2  C   UNL     1     -35.133   7.686  -3.085  1.00  0.00     0.000 C 
BRANCH   2   3
ATOM      3  C   UNL     1     -33.711   8.062  -2.627  1.00  0.00     0.000 C 
BRANCH   3   4
ATOM      4  C   UNL     1     -32.756   6.868  -2.444  1.00  0.00     0.000 C 
BRANCH   4   5
ATOM      5  C   UNL     1     -32.440   6.548  -0.966  1.00  0.00     0.000 C 
BRANCH   5   6
ATOM      6  C   UNL     1     -33.077   5.227  -0.503  1.00  0.00     0.000 C 
BRANCH   6   7
ATOM      7  C   UNL     1     -32.043   4.229   0.043  1.00  0.00     0.006 C 
BRANCH   7   8
ATOM      8  C   UNL     1     -31.926   2.967  -0.821  1.00  0.00     0.053 C 
BRANCH   8   9
ATOM      9  C   UNL     1     -32.729   1.853  -0.227  1.00  0.00     0.041 C 
ATOM     10  O   UNL     1     -33.964   1.767  -0.463  1.00  0.00    -0.550 OA
ATOM     11  O   UNL     1     -32.126   0.938   0.626  1.00  0.00    -0.550 OA
ENDBRANCH   8   9
ENDBRANCH   7   8
ENDBRANCH   6   7
ENDBRANCH   5   6
ENDBRANCH   4   5
ENDBRANCH   3   4
ENDBRANCH   2   3
ENDBRANCH   1   2
BRANCH   1  12
ATOM     12  C   UNL     1     -36.392   5.869  -1.707  1.00  0.00     0.000 C 
BRANCH  12  13
ATOM     13  C   UNL     1     -36.409   5.047  -3.007  1.00  0.00    -0.000 C 
BRANCH  13  14
ATOM     14  C   UNL     1     -35.610   3.735  -2.896  1.00  0.00    -0.000 C 
BRANCH  14  15
ATOM     15  C   UNL     1     -34.277   3.705  -3.673  1.00  0.00    -0.000 C 
BRANCH  15  16
ATOM     16  C   UNL     1     -34.362   4.137  -5.148  1.00  0.00    -0.000 C 
BRANCH  16  17
ATOM     17  C   UNL     1     -34.443   2.946  -6.117  1.00  0.00    -0.000 C 
BRANCH  17  18
ATOM     18  C   UNL     1     -35.889   2.505  -6.396  1.00  0.00    -0.000 C 
BRANCH  18  19
ATOM     19  C   UNL     1     -36.195   1.060  -5.946  1.00  0.00    -0.003 C 
ATOM     20  C   UNL     1     -34.944   0.326  -5.463  1.00  0.00     0.004 C 
ENDBRANCH  18  19
ENDBRANCH  17  18
ENDBRANCH  16  17
ENDBRANCH  15  16
ENDBRANCH  14  15
ENDBRANCH  13  14
ENDBRANCH  12  13
ENDBRANCH   1  12
TORSDOF 16
ENDMDL
MODEL 4
REMARK VINA RESULT:    -3.505      3.382      6.197
REMARK INTER + INTRA:          -9.561
REMARK INTER:                  -6.683
REMARK INTRA:                  -2.878
REMARK UNBOUND:                -2.778
REMARK SMILES CCCCCCCCCCCCCCCCCC(=O)[O-]
REMARK SMILES IDX 10 1 11 2 12 3 13 4 14 5 15 6 16 7 17 8 18 9 19 10 20 11
REMARK SMILES IDX 9 12 8 13 7 14 6 15 5 16 4 17 3 18 2 19 1 20
REMARK H PARENT
REMARK Flexibility Score: inf
ROOT
ATOM      1  C   UNL     1     -32.196   6.864  -2.461  1.00  0.00     0.000 C 
ENDROOT
BRANCH   1   2
ATOM      2  C   UNL     1     -31.249   7.897  -3.107  1.00  0.00     0.000 C 
BRANCH   2   3
ATOM      3  C   UNL     1     -30.595   8.889  -2.127  1.00  0.00     0.000 C 
BRANCH   3   4
ATOM      4  C   UNL     1     -29.150   8.540  -1.726  1.00  0.00     0.000 C 
BRANCH   4   5
ATOM      5  C   UNL     1     -28.593   7.289  -2.442  1.00  0.00     0.000 C 
BRANCH   5   6
ATOM      6  C   UNL     1     -28.194   6.178  -1.456  1.00  0.00     0.000 C 
BRANCH   6   7
ATOM      7  C   UNL     1     -28.286   4.774  -2.075  1.00  0.00     0.006 C 
BRANCH   7   8
ATOM      8  C   UNL     1     -29.337   4.686  -3.189  1.00  0.00     0.053 C 
BRANCH   8   9
ATOM      9  C   UNL     1     -28.745   4.063  -4.414  1.00  0.00     0.041 C 
ATOM     10  O   UNL     1     -28.915   4.599  -5.543  1.00  0.00    -0.550 OA
ATOM     11  O   UNL     1     -28.048   2.866  -4.319  1.00  0.00    -0.550 OA
ENDBRANCH   8   9
ENDBRANCH   7   8
ENDBRANCH   6   7
ENDBRANCH   5   6
ENDBRANCH   4   5
ENDBRANCH   3   4
ENDBRANCH   2   3
ENDBRANCH   1   2
BRANCH   1  12
ATOM     12  C   UNL     1     -32.437   7.045  -0.951  1.00  0.00     0.000 C 
BRANCH  12  13
ATOM     13  C   UNL     1     -31.633   6.053  -0.093  1.00  0.00    -0.000 C 
BRANCH  13  14
ATOM     14  C   UNL     1     -31.886   4.585  -0.482  1.00  0.00    -0.000 C 
BRANCH  14  15
ATOM     15  C   UNL     1     -32.971   3.859   0.340  1.00  0.00    -0.000 C 
BRANCH  15  16
ATOM     16  C   UNL     1     -34.404   3.974  -0.211  1.00  0.00    -0.000 C 
BRANCH  16  17
ATOM     17  C   UNL     1     -34.464   3.893  -1.744  1.00  0.00    -0.000 C 
BRANCH  17  18
ATOM     18  C   UNL     1     -35.373   4.968  -2.362  1.00  0.00    -0.000 C 
BRANCH  18  19
ATOM     19  C   UNL     1     -35.969   5.946  -1.327  1.00  0.00    -0.003 C 
ATOM     20  C   UNL     1     -36.046   7.378  -1.858  1.00  0.00     0.004 C 
ENDBRANCH  18  19
ENDBRANCH  17  18
ENDBRANCH  16  17
ENDBRANCH  15  16
ENDBRANCH  14  15
ENDBRANCH  13  14
ENDBRANCH  12  13
ENDBRANCH   1  12
TORSDOF 16
ENDMDL
MODEL 5
REMARK VINA RESULT:    -3.501      3.882      6.012
REMARK INTER + INTRA:          -9.554
REMARK INTER:                  -7.471
REMARK INTRA:                  -2.082
REMARK UNBOUND:                -2.778
REMARK SMILES CCCCCCCCCCCCCCCCCC(=O)[O-]
REMARK SMILES IDX 10 1 11 2 12 3 13 4 14 5 15 6 16 7 17 8 18 9 19 10 20 11
REMARK SMILES IDX 9 12 8 13 7 14 6 15 5 16 4 17 3 18 2 19 1 20
REMARK H PARENT
REMARK Flexibility Score: inf
ROOT
ATOM      1  C   UNL     1     -32.048   6.670  -0.348  1.00  0.00     0.000 C 
ENDROOT
BRANCH   1   2
ATOM      2  C   UNL     1     -31.992   5.181   0.054  1.00  0.00     0.000 C 
BRANCH   2   3
ATOM      3  C   UNL     1     -33.145   4.314  -0.485  1.00  0.00     0.000 C 
BRANCH   3   4
ATOM      4  C   UNL     1     -33.332   4.368  -2.013  1.00  0.00     0.000 C 
BRANCH   4   5
ATOM      5  C   UNL     1     -34.691   4.958  -2.450  1.00  0.00     0.000 C 
BRANCH   5   6
ATOM      6  C   UNL     1     -35.489   5.532  -1.266  1.00  0.00     0.000 C 
BRANCH   6   7
ATOM      7  C   UNL     1     -35.718   7.048  -1.384  1.00  0.00     0.006 C 
BRANCH   7   8
ATOM      8  C   UNL     1     -35.867   7.512  -2.839  1.00  0.00     0.053 C 
BRANCH   8   9
ATOM      9  C   UNL     1     -34.954   8.666  -3.113  1.00  0.00     0.041 C 
ATOM     10  O   UNL     1     -33.730   8.589  -2.822  1.00  0.00    -0.550 OA
ATOM     11  O   UNL     1     -35.462   9.845  -3.643  1.00  0.00    -0.550 OA
ENDBRANCH   8   9
ENDBRANCH   7   8
ENDBRANCH   6   7
ENDBRANCH   5   6
ENDBRANCH   4   5
ENDBRANCH   3   4
ENDBRANCH   2   3
ENDBRANCH   1   2
BRANCH   1  12
ATOM     12  C   UNL     1     -30.739   7.251  -0.911  1.00  0.00     0.000 C 
BRANCH  12  13
ATOM     13  C   UNL     1     -30.385   6.692  -2.300  1.00  0.00    -0.000 C 
BRANCH  13  14
ATOM     14  C   UNL     1     -28.888   6.829  -2.635  1.00  0.00    -0.000 C 
BRANCH  14  15
ATOM     15  C   UNL     1     -28.061   5.532  -2.510  1.00  0.00    -0.000 C 
BRANCH  15  16
ATOM     16  C   UNL     1     -28.858   4.274  -2.118  1.00  0.00    -0.000 C 
BRANCH  16  17
ATOM     17  C   UNL     1     -28.499   3.750  -0.719  1.00  0.00    -0.000 C 
BRANCH  17  18
ATOM     18  C   UNL     1     -27.317   4.503  -0.087  1.00  0.00    -0.000 C 
BRANCH  18  19
ATOM     19  C   UNL     1     -26.475   3.640   0.877  1.00  0.00    -0.003 C 
ATOM     20  C   UNL     1     -25.126   4.282   1.203  1.00  0.00     0.004 C 
ENDBRANCH  18  19
ENDBRANCH  17  18
ENDBRANCH  16  17
ENDBRANCH  15  16
ENDBRANCH  14  15
ENDBRANCH  13  14
ENDBRANCH  12  13
ENDBRANCH   1  12
TORSDOF 16
ENDMDL
MODEL 6
REMARK VINA RESULT:    -3.483      3.539      5.271
REMARK INTER + INTRA:          -9.518
REMARK INTER:                  -6.821
REMARK INTRA:                  -2.697
REMARK UNBOUND:                -2.778
REMARK SMILES CCCCCCCCCCCCCCCCCC(=O)[O-]
REMARK SMILES IDX 10 1 11 2 12 3 13 4 14 5 15 6 16 7 17 8 18 9 19 10 20 11
REMARK SMILES IDX 9 12 8 13 7 14 6 15 5 16 4 17 3 18 2 19 1 20
REMARK H PARENT
REMARK Flexibility Score: inf
ROOT
ATOM      1  C   UNL     1     -31.533   4.370  -1.280  1.00  0.00     0.000 C 
ENDROOT
BRANCH   1   2
ATOM      2  C   UNL     1     -32.191   2.976  -1.209  1.00  0.00     0.000 C 
BRANCH   2   3
ATOM      3  C   UNL     1     -33.538   2.849  -1.944  1.00  0.00     0.000 C 
BRANCH   3   4
ATOM      4  C   UNL     1     -33.924   4.072  -2.796  1.00  0.00     0.000 C 
BRANCH   4   5
ATOM      5  C   UNL     1     -35.342   4.610  -2.499  1.00  0.00     0.000 C 
BRANCH   5   6
ATOM      6  C   UNL     1     -35.369   5.557  -1.288  1.00  0.00     0.000 C 
BRANCH   6   7
ATOM      7  C   UNL     1     -35.868   6.966  -1.646  1.00  0.00     0.006 C 
BRANCH   7   8
ATOM      8  C   UNL     1     -36.016   7.174  -3.159  1.00  0.00     0.053 C 
BRANCH   8   9
ATOM      9  C   UNL     1     -35.473   8.510  -3.556  1.00  0.00     0.041 C 
ATOM     10  O   UNL     1     -34.447   8.972  -2.988  1.00  0.00    -0.550 OA
ATOM     11  O   UNL     1     -36.127   9.269  -4.519  1.00  0.00    -0.550 OA
ENDBRANCH   8   9
ENDBRANCH   7   8
ENDBRANCH   6   7
ENDBRANCH   5   6
ENDBRANCH   4   5
ENDBRANCH   3   4
ENDBRANCH   2   3
ENDBRANCH   1   2
BRANCH   1  12
ATOM     12  C   UNL     1     -31.698   5.242  -0.022  1.00  0.00     0.000 C 
BRANCH  12  13
ATOM     13  C   UNL     1     -32.081   6.696  -0.346  1.00  0.00    -0.000 C 
BRANCH  13  14
ATOM     14  C   UNL     1     -31.952   7.028  -1.844  1.00  0.00    -0.000 C 
BRANCH  14  15
ATOM     15  C   UNL     1     -30.888   8.088  -2.198  1.00  0.00    -0.000 C 
BRANCH  15  16
ATOM     16  C   UNL     1     -29.887   8.419  -1.076  1.00  0.00    -0.000 C 
BRANCH  16  17
ATOM     17  C   UNL     1     -28.504   7.788  -1.302  1.00  0.00    -0.000 C 
BRANCH  17  18
ATOM     18  C   UNL     1     -28.409   7.025  -2.634  1.00  0.00    -0.000 C 
BRANCH  18  19
ATOM     19  C   UNL     1     -28.147   5.513  -2.467  1.00  0.00    -0.003 C 
ATOM     20  C   UNL     1     -27.852   5.133  -1.015  1.00  0.00     0.004 C 
ENDBRANCH  18  19
ENDBRANCH  17  18
ENDBRANCH  16  17
ENDBRANCH  15  16
ENDBRANCH  14  15
ENDBRANCH  13  14
ENDBRANCH  12  13
ENDBRANCH   1  12
TORSDOF 16
ENDMDL
MODEL 7
REMARK VINA RESULT:    -3.466      2.558      4.619
REMARK INTER + INTRA:          -9.485
REMARK INTER:                  -6.593
REMARK INTRA:                  -2.892
REMARK UNBOUND:                -2.778
REMARK SMILES CCCCCCCCCCCCCCCCCC(=O)[O-]
REMARK SMILES IDX 10 1 11 2 12 3 13 4 14 5 15 6 16 7 17 8 18 9 19 10 20 11
REMARK SMILES IDX 9 12 8 13 7 14 6 15 5 16 4 17 3 18 2 19 1 20
REMARK H PARENT
REMARK Flexibility Score: inf
ROOT
ATOM      1  C   UNL     1     -34.851   1.303  -4.707  1.00  0.00     0.000 C 
ENDROOT
BRANCH   1   2
ATOM      2  C   UNL     1     -35.729   1.300  -5.977  1.00  0.00     0.000 C 
BRANCH   2   3
ATOM      3  C   UNL     1     -35.627   2.567  -6.847  1.00  0.00     0.000 C 
BRANCH   3   4
ATOM      4  C   UNL     1     -34.455   3.500  -6.490  1.00  0.00     0.000 C 
BRANCH   4   5
ATOM      5  C   UNL     1     -34.881   4.966  -6.253  1.00  0.00     0.000 C 
BRANCH   5   6
ATOM      6  C   UNL     1     -33.990   5.676  -5.219  1.00  0.00     0.000 C 
BRANCH   6   7
ATOM      7  C   UNL     1     -32.903   4.755  -4.641  1.00  0.00     0.006 C 
BRANCH   7   8
ATOM      8  C   UNL     1     -31.513   5.404  -4.646  1.00  0.00     0.053 C 
BRANCH   8   9
ATOM      9  C   UNL     1     -30.618   4.710  -5.623  1.00  0.00     0.041 C 
ATOM     10  O   UNL     1     -31.049   4.397  -6.766  1.00  0.00    -0.550 OA
ATOM     11  O   UNL     1     -29.323   4.364  -5.258  1.00  0.00    -0.550 OA
ENDBRANCH   8   9
ENDBRANCH   7   8
ENDBRANCH   6   7
ENDBRANCH   5   6
ENDBRANCH   4   5
ENDBRANCH   3   4
ENDBRANCH   2   3
ENDBRANCH   1   2
BRANCH   1  12
ATOM     12  C   UNL     1     -35.607   1.520  -3.384  1.00  0.00     0.000 C 
BRANCH  12  13
ATOM     13  C   UNL     1     -35.550   2.976  -2.893  1.00  0.00    -0.000 C 
BRANCH  13  14
ATOM     14  C   UNL     1     -36.809   3.782  -3.263  1.00  0.00    -0.000 C 
BRANCH  14  15
ATOM     15  C   UNL     1     -36.777   5.275  -2.874  1.00  0.00    -0.000 C 
BRANCH  15  16
ATOM     16  C   UNL     1     -36.045   5.599  -1.559  1.00  0.00    -0.000 C 
BRANCH  16  17
ATOM     17  C   UNL     1     -35.509   7.039  -1.512  1.00  0.00    -0.000 C 
BRANCH  17  18
ATOM     18  C   UNL     1     -33.977   7.108  -1.626  1.00  0.00    -0.000 C 
BRANCH  18  19
ATOM     19  C   UNL     1     -33.254   5.895  -1.002  1.00  0.00    -0.003 C 
ATOM     20  C   UNL     1     -31.985   6.299  -0.250  1.00  0.00     0.004 C 
ENDBRANCH  18  19
ENDBRANCH  17  18
ENDBRANCH  16  17
ENDBRANCH  15  16
ENDBRANCH  14  15
ENDBRANCH  13  14
ENDBRANCH  12  13
ENDBRANCH   1  12
TORSDOF 16
ENDMDL
MODEL 8
REMARK VINA RESULT:    -3.446      2.946      6.061
REMARK INTER + INTRA:          -9.447
REMARK INTER:                  -6.635
REMARK INTRA:                  -2.813
REMARK UNBOUND:                -2.778
REMARK SMILES CCCCCCCCCCCCCCCCCC(=O)[O-]
REMARK SMILES IDX 10 1 11 2 12 3 13 4 14 5 15 6 16 7 17 8 18 9 19 10 20 11
REMARK SMILES IDX 9 12 8 13 7 14 6 15 5 16 4 17 3 18 2 19 1 20
REMARK H PARENT
REMARK Flexibility Score: inf
ROOT
ATOM      1  C   UNL     1     -32.931   4.433  -1.383  1.00  0.00     0.000 C 
ENDROOT
BRANCH   1   2
ATOM      2  C   UNL     1     -32.261   5.277  -0.279  1.00  0.00     0.000 C 
BRANCH   2   3
ATOM      3  C   UNL     1     -32.196   6.790  -0.560  1.00  0.00     0.000 C 
BRANCH   3   4
ATOM      4  C   UNL     1     -30.775   7.383  -0.572  1.00  0.00     0.000 C 
BRANCH   4   5
ATOM      5  C   UNL     1     -29.806   6.649  -1.526  1.00  0.00     0.000 C 
BRANCH   5   6
ATOM      6  C   UNL     1     -28.547   6.140  -0.803  1.00  0.00     0.000 C 
BRANCH   6   7
ATOM      7  C   UNL     1     -27.996   4.841  -1.415  1.00  0.00     0.006 C 
BRANCH   7   8
ATOM      8  C   UNL     1     -29.087   3.788  -1.648  1.00  0.00     0.053 C 
BRANCH   8   9
ATOM      9  C   UNL     1     -29.222   2.904  -0.448  1.00  0.00     0.041 C 
ATOM     10  O   UNL     1     -28.268   2.793   0.367  1.00  0.00    -0.550 OA
ATOM     11  O   UNL     1     -30.382   2.164  -0.256  1.00  0.00    -0.550 OA
ENDBRANCH   8   9
ENDBRANCH   7   8
ENDBRANCH   6   7
ENDBRANCH   5   6
ENDBRANCH   4   5
ENDBRANCH   3   4
ENDBRANCH   2   3
ENDBRANCH   1   2
BRANCH   1  12
ATOM     12  C   UNL     1     -32.742   4.955  -2.819  1.00  0.00     0.000 C 
BRANCH  12  13
ATOM     13  C   UNL     1     -33.856   4.494  -3.774  1.00  0.00    -0.000 C 
BRANCH  13  14
ATOM     14  C   UNL     1     -34.753   3.402  -3.165  1.00  0.00    -0.000 C 
BRANCH  14  15
ATOM     15  C   UNL     1     -36.227   3.804  -2.942  1.00  0.00    -0.000 C 
BRANCH  15  16
ATOM     16  C   UNL     1     -36.495   5.318  -2.869  1.00  0.00    -0.000 C 
BRANCH  16  17
ATOM     17  C   UNL     1     -36.335   5.886  -1.450  1.00  0.00    -0.000 C 
BRANCH  17  18
ATOM     18  C   UNL     1     -35.791   7.324  -1.442  1.00  0.00    -0.000 C 
BRANCH  18  19
ATOM     19  C   UNL     1     -35.599   7.922  -2.852  1.00  0.00    -0.003 C 
ATOM     20  C   UNL     1     -34.182   8.454  -3.069  1.00  0.00     0.004 C 
ENDBRANCH  18  19
ENDBRANCH  17  18
ENDBRANCH  16  17
ENDBRANCH  15  16
ENDBRANCH  14  15
ENDBRANCH  13  14
ENDBRANCH  12  13
ENDBRANCH   1  12
TORSDOF 16
ENDMDL
MODEL 9
REMARK VINA RESULT:    -3.427      2.719      5.289
REMARK INTER + INTRA:          -9.411
REMARK INTER:                  -6.462
REMARK INTRA:                  -2.949
REMARK UNBOUND:                -2.778
REMARK SMILES CCCCCCCCCCCCCCCCCC(=O)[O-]
REMARK SMILES IDX 10 1 11 2 12 3 13 4 14 5 15 6 16 7 17 8 18 9 19 10 20 11
REMARK SMILES IDX 9 12 8 13 7 14 6 15 5 16 4 17 3 18 2 19 1 20
REMARK H PARENT
REMARK Flexibility Score: inf
ROOT
ATOM      1  C   UNL     1     -34.935   1.161  -4.749  1.00  0.00     0.000 C 
ENDROOT
BRANCH   1   2
ATOM      2  C   UNL     1     -35.851   1.203  -5.990  1.00  0.00     0.000 C 
BRANCH   2   3
ATOM      3  C   UNL     1     -35.758   2.491  -6.829  1.00  0.00     0.000 C 
BRANCH   3   4
ATOM      4  C   UNL     1     -34.538   3.377  -6.516  1.00  0.00     0.000 C 
BRANCH   4   5
ATOM      5  C   UNL     1     -34.890   4.867  -6.311  1.00  0.00     0.000 C 
BRANCH   5   6
ATOM      6  C   UNL     1     -33.902   5.578  -5.370  1.00  0.00     0.000 C 
BRANCH   6   7
ATOM      7  C   UNL     1     -33.020   4.596  -4.583  1.00  0.00     0.006 C 
BRANCH   7   8
ATOM      8  C   UNL     1     -32.569   5.159  -3.229  1.00  0.00     0.053 C 
BRANCH   8   9
ATOM      9  C   UNL     1     -31.153   5.637  -3.310  1.00  0.00     0.041 C 
ATOM     10  O   UNL     1     -30.684   6.384  -2.410  1.00  0.00    -0.550 OA
ATOM     11  O   UNL     1     -30.366   5.299  -4.404  1.00  0.00    -0.550 OA
ENDBRANCH   8   9
ENDBRANCH   7   8
ENDBRANCH   6   7
ENDBRANCH   5   6
ENDBRANCH   4   5
ENDBRANCH   3   4
ENDBRANCH   2   3
ENDBRANCH   1   2
BRANCH   1  12
ATOM     12  C   UNL     1     -35.644   1.371  -3.399  1.00  0.00     0.000 C 
BRANCH  12  13
ATOM     13  C   UNL     1     -35.592   2.830  -2.915  1.00  0.00    -0.000 C 
BRANCH  13  14
ATOM     14  C   UNL     1     -36.839   3.639  -3.318  1.00  0.00    -0.000 C 
BRANCH  14  15
ATOM     15  C   UNL     1     -36.767   5.154  -3.030  1.00  0.00    -0.000 C 
BRANCH  15  16
ATOM     16  C   UNL     1     -36.053   5.544  -1.723  1.00  0.00    -0.000 C 
BRANCH  16  17
ATOM     17  C   UNL     1     -35.992   7.065  -1.506  1.00  0.00    -0.000 C 
BRANCH  17  18
ATOM     18  C   UNL     1     -35.119   7.781  -2.549  1.00  0.00    -0.000 C 
BRANCH  18  19
ATOM     19  C   UNL     1     -35.882   8.835  -3.379  1.00  0.00    -0.003 C 
ATOM     20  C   UNL     1     -35.459   8.835  -4.848  1.00  0.00     0.004 C 
ENDBRANCH  18  19
ENDBRANCH  17  18
ENDBRANCH  16  17
ENDBRANCH  15  16
ENDBRANCH  14  15
ENDBRANCH  13  14
ENDBRANCH  12  13
ENDBRANCH   1  12
TORSDOF 16
ENDMDL
