MODEL 1
REMARK VINA RESULT:    -3.457      0.000      0.000
REMARK INTER + INTRA:          -4.055
REMARK INTER:                  -3.962
REMARK INTRA:                  -0.093
REMARK UNBOUND:                -0.093
REMARK SMILES C=Cc1ccc(O)c(OC)c1
REMARK SMILES IDX 8 1 6 2 5 3 4 4 3 5 11 6 9 7 10 8 7 9 2 11 1 12
REMARK H PARENT 7 10
REMARK Flexibility Score: inf
ROOT
ATOM      1  C   UNL     1     138.420 141.154 140.829  1.00  0.00     0.161 A 
ATOM      2  C   UNL     1     138.342 141.380 142.215  1.00  0.00     0.157 A 
ATOM      3  C   UNL     1     138.927 140.475 143.104  1.00  0.00     0.051 A 
ATOM      4  C   UNL     1     139.597 139.346 142.629  1.00  0.00     0.012 A 
ATOM      5  C   UNL     1     139.699 139.108 141.246  1.00  0.00    -0.022 A 
ATOM      6  C   UNL     1     139.097 140.012 140.355  1.00  0.00     0.058 A 
ENDROOT
BRANCH   1   7
ATOM      7  O   UNL     1     137.818 142.077 139.958  1.00  0.00    -0.493 OA
ATOM      8  C   UNL     1     136.510 141.942 139.414  1.00  0.00     0.278 C 
ENDBRANCH   1   7
BRANCH   2   9
ATOM      9  O   UNL     1     137.682 142.496 142.728  1.00  0.00    -0.504 OA
ATOM     10  H   UNL     1     137.134 142.456 143.579  1.00  0.00     0.293 HD
ENDBRANCH   2   9
BRANCH   5  11
ATOM     11  C   UNL     1     140.391 137.918 140.689  1.00  0.00     0.000 C 
ATOM     12  C   UNL     1     139.765 136.860 140.171  1.00  0.00     0.009 C 
ENDBRANCH   5  11
TORSDOF 3
ENDMDL
MODEL 2
REMARK VINA RESULT:    -3.453      4.714      5.907
REMARK INTER + INTRA:          -4.050
REMARK INTER:                  -3.968
REMARK INTRA:                  -0.082
REMARK UNBOUND:                -0.093
REMARK SMILES C=Cc1ccc(O)c(OC)c1
REMARK SMILES IDX 8 1 6 2 5 3 4 4 3 5 11 6 9 7 10 8 7 9 2 11 1 12
REMARK H PARENT 7 10
REMARK Flexibility Score: inf
ROOT
ATOM      1  C   UNL     1     143.201 140.480 140.755  1.00  0.00     0.161 A 
ATOM      2  C   UNL     1     143.280 140.266 142.143  1.00  0.00     0.157 A 
ATOM      3  C   UNL     1     142.706 141.185 143.024  1.00  0.00     0.051 A 
ATOM      4  C   UNL     1     142.046 142.316 142.540  1.00  0.00     0.012 A 
ATOM      5  C   UNL     1     141.944 142.542 141.156  1.00  0.00    -0.022 A 
ATOM      6  C   UNL     1     142.534 141.623 140.272  1.00  0.00     0.058 A 
ENDROOT
BRANCH   1   7
ATOM      7  O   UNL     1     143.791 139.541 139.892  1.00  0.00    -0.493 OA
ATOM      8  C   UNL     1     145.134 139.605 139.425  1.00  0.00     0.278 C 
ENDBRANCH   1   7
BRANCH   2   9
ATOM      9  O   UNL     1     143.930 139.148 142.665  1.00  0.00    -0.504 OA
ATOM     10  H   UNL     1     144.745 139.226 143.262  1.00  0.00     0.293 HD
ENDBRANCH   2   9
BRANCH   5  11
ATOM     11  C   UNL     1     141.263 143.733 140.588  1.00  0.00     0.000 C 
ATOM     12  C   UNL     1     141.898 144.778 140.054  1.00  0.00     0.009 C 
ENDBRANCH   5  11
TORSDOF 3
ENDMDL
MODEL 3
REMARK VINA RESULT:    -3.399      3.348      4.261
REMARK INTER + INTRA:          -3.989
REMARK INTER:                  -3.890
REMARK INTRA:                  -0.099
REMARK UNBOUND:                -0.093
REMARK SMILES C=Cc1ccc(O)c(OC)c1
REMARK SMILES IDX 8 1 6 2 5 3 4 4 3 5 11 6 9 7 10 8 7 9 2 11 1 12
REMARK H PARENT 7 10
REMARK Flexibility Score: inf
ROOT
ATOM      1  C   UNL     1     140.479 138.258 140.642  1.00  0.00     0.161 A 
ATOM      2  C   UNL     1     140.314 138.295 142.038  1.00  0.00     0.157 A 
ATOM      3  C   UNL     1     141.253 138.955 142.834  1.00  0.00     0.051 A 
ATOM      4  C   UNL     1     142.356 139.587 142.255  1.00  0.00     0.012 A 
ATOM      5  C   UNL     1     142.532 139.573 140.860  1.00  0.00    -0.022 A 
ATOM      6  C   UNL     1     141.594 138.897 140.063  1.00  0.00     0.058 A 
ENDROOT
BRANCH   1   7
ATOM      7  O   UNL     1     139.521 137.583 139.866  1.00  0.00    -0.493 OA
ATOM      8  C   UNL     1     139.670 136.256 139.372  1.00  0.00     0.278 C 
ENDBRANCH   1   7
BRANCH   2   9
ATOM      9  O   UNL     1     139.225 137.678 142.653  1.00  0.00    -0.504 OA
ATOM     10  H   UNL     1     138.378 138.183 142.886  1.00  0.00     0.293 HD
ENDBRANCH   2   9
BRANCH   5  11
ATOM     11  C   UNL     1     143.692 140.219 140.194  1.00  0.00     0.000 C 
ATOM     12  C   UNL     1     144.918 139.695 140.146  1.00  0.00     0.009 C 
ENDBRANCH   5  11
TORSDOF 3
ENDMDL
MODEL 4
REMARK VINA RESULT:    -3.383      9.336     10.447
REMARK INTER + INTRA:          -3.970
REMARK INTER:                  -3.900
REMARK INTRA:                  -0.070
REMARK UNBOUND:                -0.093
REMARK SMILES C=Cc1ccc(O)c(OC)c1
REMARK SMILES IDX 8 1 6 2 5 3 4 4 3 5 11 6 9 7 10 8 7 9 2 11 1 12
REMARK H PARENT 7 10
REMARK Flexibility Score: inf
ROOT
ATOM      1  C   UNL     1     142.585 150.349 139.968  1.00  0.00     0.161 A 
ATOM      2  C   UNL     1     141.982 150.366 141.238  1.00  0.00     0.157 A 
ATOM      3  C   UNL     1     140.827 149.616 141.472  1.00  0.00     0.051 A 
ATOM      4  C   UNL     1     140.264 148.843 140.454  1.00  0.00     0.012 A 
ATOM      5  C   UNL     1     140.860 148.801 139.181  1.00  0.00    -0.022 A 
ATOM      6  C   UNL     1     142.014 149.566 138.945  1.00  0.00     0.058 A 
ENDROOT
BRANCH   1   7
ATOM      7  O   UNL     1     143.744 151.115 139.760  1.00  0.00    -0.493 OA
ATOM      8  C   UNL     1     144.582 151.020 138.613  1.00  0.00     0.278 C 
ENDBRANCH   1   7
BRANCH   2   9
ATOM      9  O   UNL     1     142.514 151.125 142.280  1.00  0.00    -0.504 OA
ATOM     10  H   UNL     1     142.569 150.776 143.230  1.00  0.00     0.293 HD
ENDBRANCH   2   9
BRANCH   5  11
ATOM     11  C   UNL     1     140.298 148.003 138.061  1.00  0.00     0.000 C 
ATOM     12  C   UNL     1     140.297 148.396 136.786  1.00  0.00     0.009 C 
ENDBRANCH   5  11
TORSDOF 3
ENDMDL
MODEL 5
REMARK VINA RESULT:    -3.358      3.267      4.085
REMARK INTER + INTRA:          -3.941
REMARK INTER:                  -3.853
REMARK INTRA:                  -0.089
REMARK UNBOUND:                -0.093
REMARK SMILES C=Cc1ccc(O)c(OC)c1
REMARK SMILES IDX 8 1 6 2 5 3 4 4 3 5 11 6 9 7 10 8 7 9 2 11 1 12
REMARK H PARENT 7 10
REMARK Flexibility Score: inf
ROOT
ATOM      1  C   UNL     1     140.928 142.897 140.896  1.00  0.00     0.161 A 
ATOM      2  C   UNL     1     141.084 142.935 142.293  1.00  0.00     0.157 A 
ATOM      3  C   UNL     1     140.033 142.541 143.124  1.00  0.00     0.051 A 
ATOM      4  C   UNL     1     138.824 142.103 142.579  1.00  0.00     0.012 A 
ATOM      5  C   UNL     1     138.651 142.045 141.184  1.00  0.00    -0.022 A 
ATOM      6  C   UNL     1     139.706 142.455 140.351  1.00  0.00     0.058 A 
ENDROOT
BRANCH   1   7
ATOM      7  O   UNL     1     142.001 143.304 140.085  1.00  0.00    -0.493 OA
ATOM      8  C   UNL     1     141.999 144.467 139.265  1.00  0.00     0.278 C 
ENDBRANCH   1   7
BRANCH   2   9
ATOM      9  O   UNL     1     142.277 143.365 142.875  1.00  0.00    -0.504 OA
ATOM     10  H   UNL     1     142.405 143.403 143.880  1.00  0.00     0.293 HD
ENDBRANCH   2   9
BRANCH   5  11
ATOM     11  C   UNL     1     137.384 141.597 140.553  1.00  0.00     0.000 C 
ATOM     12  C   UNL     1     136.980 141.965 139.336  1.00  0.00     0.009 C 
ENDBRANCH   5  11
TORSDOF 3
ENDMDL
MODEL 6
REMARK VINA RESULT:    -3.356     10.587     11.560
REMARK INTER + INTRA:          -3.940
REMARK INTER:                  -3.869
REMARK INTRA:                  -0.070
REMARK UNBOUND:                -0.093
REMARK SMILES C=Cc1ccc(O)c(OC)c1
REMARK SMILES IDX 8 1 6 2 5 3 4 4 3 5 11 6 9 7 10 8 7 9 2 11 1 12
REMARK H PARENT 7 10
REMARK Flexibility Score: inf
ROOT
ATOM      1  C   UNL     1     150.101 139.065 139.813  1.00  0.00     0.161 A 
ATOM      2  C   UNL     1     150.079 139.774 141.027  1.00  0.00     0.157 A 
ATOM      3  C   UNL     1     149.328 140.946 141.137  1.00  0.00     0.051 A 
ATOM      4  C   UNL     1     148.590 141.422 140.050  1.00  0.00     0.012 A 
ATOM      5  C   UNL     1     148.588 140.721 138.831  1.00  0.00    -0.022 A 
ATOM      6  C   UNL     1     149.355 139.549 138.719  1.00  0.00     0.058 A 
ENDROOT
BRANCH   1   7
ATOM      7  O   UNL     1     150.869 137.891 139.729  1.00  0.00    -0.493 OA
ATOM      8  C   UNL     1     150.902 137.026 138.599  1.00  0.00     0.278 C 
ENDBRANCH   1   7
BRANCH   2   9
ATOM      9  O   UNL     1     150.801 139.331 142.135  1.00  0.00    -0.504 OA
ATOM     10  H   UNL     1     150.416 138.674 142.803  1.00  0.00     0.293 HD
ENDBRANCH   2   9
BRANCH   5  11
ATOM     11  C   UNL     1     147.830 141.187 137.642  1.00  0.00     0.000 C 
ATOM     12  C   UNL     1     148.379 141.431 136.451  1.00  0.00     0.009 C 
ENDBRANCH   5  11
TORSDOF 3
ENDMDL
MODEL 7
REMARK VINA RESULT:    -3.318      6.404      7.975
REMARK INTER + INTRA:          -3.896
REMARK INTER:                  -3.815
REMARK INTRA:                  -0.081
REMARK UNBOUND:                -0.093
REMARK SMILES C=Cc1ccc(O)c(OC)c1
REMARK SMILES IDX 8 1 6 2 5 3 4 4 3 5 11 6 9 7 10 8 7 9 2 11 1 12
REMARK H PARENT 7 10
REMARK Flexibility Score: inf
ROOT
ATOM      1  C   UNL     1     140.011 133.072 139.720  1.00  0.00     0.161 A 
ATOM      2  C   UNL     1     138.973 134.020 139.705  1.00  0.00     0.157 A 
ATOM      3  C   UNL     1     138.917 134.978 138.690  1.00  0.00     0.051 A 
ATOM      4  C   UNL     1     139.883 135.002 137.682  1.00  0.00     0.012 A 
ATOM      5  C   UNL     1     140.922 134.054 137.670  1.00  0.00    -0.022 A 
ATOM      6  C   UNL     1     140.984 133.100 138.700  1.00  0.00     0.058 A 
ENDROOT
BRANCH   1   7
ATOM      7  O   UNL     1     140.046 132.123 140.755  1.00  0.00    -0.493 OA
ATOM      8  C   UNL     1     141.188 131.841 141.556  1.00  0.00     0.278 C 
ENDBRANCH   1   7
BRANCH   2   9
ATOM      9  O   UNL     1     137.990 134.029 140.694  1.00  0.00    -0.504 OA
ATOM     10  H   UNL     1     137.060 134.395 140.528  1.00  0.00     0.293 HD
ENDBRANCH   2   9
BRANCH   5  11
ATOM     11  C   UNL     1     141.980 134.041 136.628  1.00  0.00     0.000 C 
ATOM     12  C   UNL     1     142.019 133.179 135.610  1.00  0.00     0.009 C 
ENDBRANCH   5  11
TORSDOF 3
ENDMDL
MODEL 8
REMARK VINA RESULT:    -3.290      4.473      4.759
REMARK INTER + INTRA:          -3.864
REMARK INTER:                  -3.761
REMARK INTRA:                  -0.103
REMARK UNBOUND:                -0.093
REMARK SMILES C=Cc1ccc(O)c(OC)c1
REMARK SMILES IDX 8 1 6 2 5 3 4 4 3 5 11 6 9 7 10 8 7 9 2 11 1 12
REMARK H PARENT 7 10
REMARK Flexibility Score: inf
ROOT
ATOM      1  C   UNL     1     142.103 143.366 139.397  1.00  0.00     0.161 A 
ATOM      2  C   UNL     1     141.744 144.130 140.521  1.00  0.00     0.157 A 
ATOM      3  C   UNL     1     141.732 143.544 141.789  1.00  0.00     0.051 A 
ATOM      4  C   UNL     1     142.079 142.201 141.953  1.00  0.00     0.012 A 
ATOM      5  C   UNL     1     142.454 141.422 140.843  1.00  0.00    -0.022 A 
ATOM      6  C   UNL     1     142.452 142.011 139.568  1.00  0.00     0.058 A 
ENDROOT
BRANCH   1   7
ATOM      7  O   UNL     1     142.102 143.980 138.133  1.00  0.00    -0.493 OA
ATOM      8  C   UNL     1     143.240 144.581 137.526  1.00  0.00     0.278 C 
ENDBRANCH   1   7
BRANCH   2   9
ATOM      9  O   UNL     1     141.391 145.474 140.398  1.00  0.00    -0.504 OA
ATOM     10  H   UNL     1     140.539 145.769 139.936  1.00  0.00     0.293 HD
ENDBRANCH   2   9
BRANCH   5  11
ATOM     11  C   UNL     1     142.823 139.989 140.961  1.00  0.00     0.000 C 
ATOM     12  C   UNL     1     143.552 139.481 141.957  1.00  0.00     0.009 C 
ENDBRANCH   5  11
TORSDOF 3
ENDMDL
MODEL 9
REMARK VINA RESULT:    -3.267      2.800      4.258
REMARK INTER + INTRA:          -3.838
REMARK INTER:                  -3.727
REMARK INTRA:                  -0.111
REMARK UNBOUND:                -0.093
REMARK SMILES C=Cc1ccc(O)c(OC)c1
REMARK SMILES IDX 8 1 6 2 5 3 4 4 3 5 11 6 9 7 10 8 7 9 2 11 1 12
REMARK H PARENT 7 10
REMARK Flexibility Score: inf
ROOT
ATOM      1  C   UNL     1     139.530 138.292 139.488  1.00  0.00     0.161 A 
ATOM      2  C   UNL     1     139.870 137.472 140.579  1.00  0.00     0.157 A 
ATOM      3  C   UNL     1     139.852 137.993 141.875  1.00  0.00     0.051 A 
ATOM      4  C   UNL     1     139.493 139.323 142.101  1.00  0.00     0.012 A 
ATOM      5  C   UNL     1     139.136 140.156 141.026  1.00  0.00    -0.022 A 
ATOM      6  C   UNL     1     139.168 139.634 139.722  1.00  0.00     0.058 A 
ENDROOT
BRANCH   1   7
ATOM      7  O   UNL     1     139.561 137.744 138.195  1.00  0.00    -0.493 OA
ATOM      8  C   UNL     1     138.418 137.273 137.489  1.00  0.00     0.278 C 
ENDBRANCH   1   7
BRANCH   2   9
ATOM      9  O   UNL     1     140.234 136.139 140.394  1.00  0.00    -0.504 OA
ATOM     10  H   UNL     1     140.944 135.689 140.959  1.00  0.00     0.293 HD
ENDBRANCH   2   9
BRANCH   5  11
ATOM     11  C   UNL     1     138.756 141.580 141.209  1.00  0.00     0.000 C 
ATOM     12  C   UNL     1     138.381 142.112 142.374  1.00  0.00     0.009 C 
ENDBRANCH   5  11
TORSDOF 3
ENDMDL
