MODEL 1
REMARK VINA RESULT:    -3.840      0.000      0.000
REMARK INTER + INTRA:          -5.818
REMARK INTER:                  -5.187
REMARK INTRA:                  -0.632
REMARK UNBOUND:                -0.632
REMARK SMILES O=C[C@@H](O)[C@H](O)[C@H](O)CO
REMARK SMILES IDX 7 1 9 2 10 3 5 5 3 6 2 7 1 8 4 9 6 11 8 13
REMARK H PARENT 10 4 4 10 6 12 8 14
REMARK Flexibility Score: inf
ROOT
ATOM      1  C   UNL     1       1.728   6.685  -7.083  1.00  0.00     0.171 C 
ENDROOT
BRANCH   1   2
ATOM      2  C   UNL     1       1.678   5.619  -5.970  1.00  0.00     0.190 C 
BRANCH   2   3
ATOM      3  O   UNL     1       0.885   6.044  -4.894  1.00  0.00    -0.394 OA
ATOM      4  H   UNL     1       0.186   6.639  -5.273  1.00  0.00     0.210 HD
ENDBRANCH   2   3
ENDBRANCH   1   2
BRANCH   1   5
ATOM      5  C   UNL     1       0.423   6.710  -7.924  1.00  0.00     0.181 C 
BRANCH   5   6
ATOM      6  C   UNL     1       0.220   8.065  -8.649  1.00  0.00     0.209 C 
BRANCH   6   7
ATOM      7  C   UNL     1      -1.190   8.568  -8.522  1.00  0.00     0.258 C 
ATOM      8  O   UNL     1      -2.119   7.956  -9.024  1.00  0.00    -0.300 OA
ENDBRANCH   6   7
BRANCH   6   9
ATOM      9  O   UNL     1       1.081   9.034  -8.107  1.00  0.00    -0.383 OA
ATOM     10  H   UNL     1       0.689   9.323  -7.242  1.00  0.00     0.211 HD
ENDBRANCH   6   9
ENDBRANCH   5   6
BRANCH   5  11
ATOM     11  O   UNL     1      -0.682   6.495  -7.079  1.00  0.00    -0.387 OA
ATOM     12  H   UNL     1      -0.334   6.370  -6.158  1.00  0.00     0.211 HD
ENDBRANCH   5  11
ENDBRANCH   1   5
BRANCH   1  13
ATOM     13  O   UNL     1       2.821   6.405  -7.920  1.00  0.00    -0.388 OA
ATOM     14  H   UNL     1       3.631   6.761  -7.469  1.00  0.00     0.211 HD
ENDBRANCH   1  13
TORSDOF 8
ENDMDL
MODEL 2
REMARK VINA RESULT:    -3.656     12.352     13.650
REMARK INTER + INTRA:          -5.570
REMARK INTER:                  -4.893
REMARK INTRA:                  -0.677
REMARK UNBOUND:                -0.632
REMARK SMILES O=C[C@@H](O)[C@H](O)[C@H](O)CO
REMARK SMILES IDX 7 1 9 2 10 3 5 5 3 6 2 7 1 8 4 9 6 11 8 13
REMARK H PARENT 10 4 4 10 6 12 8 14
REMARK Flexibility Score: inf
ROOT
ATOM      1  C   UNL     1       5.436  -6.173  -7.622  1.00  0.00     0.171 C 
ENDROOT
BRANCH   1   2
ATOM      2  C   UNL     1       6.323  -7.257  -8.267  1.00  0.00     0.190 C 
BRANCH   2   3
ATOM      3  O   UNL     1       5.917  -8.543  -7.880  1.00  0.00    -0.394 OA
ATOM      4  H   UNL     1       6.630  -8.900  -7.288  1.00  0.00     0.210 HD
ENDBRANCH   2   3
ENDBRANCH   1   2
BRANCH   1   5
ATOM      5  C   UNL     1       4.074  -6.025  -8.354  1.00  0.00     0.181 C 
BRANCH   5   6
ATOM      6  C   UNL     1       3.358  -4.699  -7.995  1.00  0.00     0.209 C 
BRANCH   6   7
ATOM      7  C   UNL     1       1.927  -4.686  -8.456  1.00  0.00     0.258 C 
ATOM      8  O   UNL     1       1.020  -4.951  -7.683  1.00  0.00    -0.300 OA
ENDBRANCH   6   7
BRANCH   6   9
ATOM      9  O   UNL     1       3.369  -4.508  -6.603  1.00  0.00    -0.383 OA
ATOM     10  H   UNL     1       2.424  -4.424  -6.311  1.00  0.00     0.211 HD
ENDBRANCH   6   9
ENDBRANCH   5   6
BRANCH   5  11
ATOM     11  O   UNL     1       3.230  -7.092  -7.993  1.00  0.00    -0.387 OA
ATOM     12  H   UNL     1       2.533  -7.172  -8.695  1.00  0.00     0.211 HD
ENDBRANCH   5  11
ENDBRANCH   1   5
BRANCH   1  13
ATOM     13  O   UNL     1       6.125  -4.951  -7.661  1.00  0.00    -0.388 OA
ATOM     14  H   UNL     1       6.857  -5.051  -8.326  1.00  0.00     0.211 HD
ENDBRANCH   1  13
TORSDOF 8
ENDMDL
MODEL 3
REMARK VINA RESULT:    -3.572     12.052     13.761
REMARK INTER + INTRA:          -5.456
REMARK INTER:                  -4.747
REMARK INTRA:                  -0.710
REMARK UNBOUND:                -0.632
REMARK SMILES O=C[C@@H](O)[C@H](O)[C@H](O)CO
REMARK SMILES IDX 7 1 9 2 10 3 5 5 3 6 2 7 1 8 4 9 6 11 8 13
REMARK H PARENT 10 4 4 10 6 12 8 14
REMARK Flexibility Score: inf
ROOT
ATOM      1  C   UNL     1       2.811  -5.672  -7.542  1.00  0.00     0.171 C 
ENDROOT
BRANCH   1   2
ATOM      2  C   UNL     1       2.225  -4.508  -6.717  1.00  0.00     0.190 C 
BRANCH   2   3
ATOM      3  O   UNL     1       2.802  -4.449  -5.440  1.00  0.00    -0.394 OA
ATOM      4  H   UNL     1       3.273  -3.578  -5.380  1.00  0.00     0.210 HD
ENDBRANCH   2   3
ENDBRANCH   1   2
BRANCH   1   5
ATOM      5  C   UNL     1       4.033  -5.225  -8.391  1.00  0.00     0.181 C 
BRANCH   5   6
ATOM      6  C   UNL     1       5.068  -6.363  -8.572  1.00  0.00     0.209 C 
BRANCH   6   7
ATOM      7  C   UNL     1       6.212  -6.246  -7.604  1.00  0.00     0.258 C 
ATOM      8  O   UNL     1       7.171  -5.533  -7.854  1.00  0.00    -0.300 OA
ENDBRANCH   6   7
BRANCH   6   9
ATOM      9  O   UNL     1       4.452  -7.610  -8.370  1.00  0.00    -0.383 OA
ATOM     10  H   UNL     1       5.127  -8.308  -8.577  1.00  0.00     0.211 HD
ENDBRANCH   6   9
ENDBRANCH   5   6
BRANCH   5  11
ATOM     11  O   UNL     1       4.674  -4.145  -7.755  1.00  0.00    -0.387 OA
ATOM     12  H   UNL     1       5.341  -4.523  -7.125  1.00  0.00     0.211 HD
ENDBRANCH   5  11
ENDBRANCH   1   5
BRANCH   1  13
ATOM     13  O   UNL     1       1.807  -6.168  -8.389  1.00  0.00    -0.388 OA
ATOM     14  H   UNL     1       2.263  -6.576  -9.172  1.00  0.00     0.211 HD
ENDBRANCH   1  13
TORSDOF 8
ENDMDL
MODEL 4
REMARK VINA RESULT:    -3.566      1.511      4.095
REMARK INTER + INTRA:          -5.448
REMARK INTER:                  -4.764
REMARK INTRA:                  -0.684
REMARK UNBOUND:                -0.632
REMARK SMILES O=C[C@@H](O)[C@H](O)[C@H](O)CO
REMARK SMILES IDX 7 1 9 2 10 3 5 5 3 6 2 7 1 8 4 9 6 11 8 13
REMARK H PARENT 10 4 4 10 6 12 8 14
REMARK Flexibility Score: inf
ROOT
ATOM      1  C   UNL     1       1.041   7.760  -8.395  1.00  0.00     0.171 C 
ENDROOT
BRANCH   1   2
ATOM      2  C   UNL     1       2.037   8.725  -9.070  1.00  0.00     0.190 C 
BRANCH   2   3
ATOM      3  O   UNL     1       2.899   9.306  -8.129  1.00  0.00    -0.394 OA
ATOM      4  H   UNL     1       2.481  10.162  -7.850  1.00  0.00     0.210 HD
ENDBRANCH   2   3
ENDBRANCH   1   2
BRANCH   1   5
ATOM      5  C   UNL     1       1.589   6.309  -8.330  1.00  0.00     0.181 C 
BRANCH   5   6
ATOM      6  C   UNL     1       1.223   5.604  -6.999  1.00  0.00     0.209 C 
BRANCH   6   7
ATOM      7  C   UNL     1       2.040   6.115  -5.846  1.00  0.00     0.258 C 
ATOM      8  O   UNL     1       3.245   5.924  -5.801  1.00  0.00    -0.300 OA
ENDBRANCH   6   7
BRANCH   6   9
ATOM      9  O   UNL     1      -0.133   5.815  -6.701  1.00  0.00    -0.383 OA
ATOM     10  H   UNL     1      -0.260   5.594  -5.741  1.00  0.00     0.211 HD
ENDBRANCH   6   9
ENDBRANCH   5   6
BRANCH   5  11
ATOM     11  O   UNL     1       2.993   6.334  -8.442  1.00  0.00    -0.387 OA
ATOM     12  H   UNL     1       3.326   5.425  -8.221  1.00  0.00     0.211 HD
ENDBRANCH   5  11
ENDBRANCH   1   5
BRANCH   1  13
ATOM     13  O   UNL     1      -0.159   7.776  -9.125  1.00  0.00    -0.388 OA
ATOM     14  H   UNL     1      -0.887   7.986  -8.482  1.00  0.00     0.211 HD
ENDBRANCH   1  13
TORSDOF 8
ENDMDL
MODEL 5
REMARK VINA RESULT:    -3.519      1.565      2.725
REMARK INTER + INTRA:          -5.386
REMARK INTER:                  -5.021
REMARK INTRA:                  -0.364
REMARK UNBOUND:                -0.632
REMARK SMILES O=C[C@@H](O)[C@H](O)[C@H](O)CO
REMARK SMILES IDX 7 1 9 2 10 3 5 5 3 6 2 7 1 8 4 9 6 11 8 13
REMARK H PARENT 10 4 4 10 6 12 8 14
REMARK Flexibility Score: inf
ROOT
ATOM      1  C   UNL     1       1.045   5.650  -6.816  1.00  0.00     0.171 C 
ENDROOT
BRANCH   1   2
ATOM      2  C   UNL     1       1.860   5.665  -5.506  1.00  0.00     0.190 C 
BRANCH   2   3
ATOM      3  O   UNL     1       3.203   5.989  -5.747  1.00  0.00    -0.394 OA
ATOM      4  H   UNL     1       3.731   5.575  -5.015  1.00  0.00     0.210 HD
ENDBRANCH   2   3
ENDBRANCH   1   2
BRANCH   1   5
ATOM      5  C   UNL     1       1.727   6.484  -7.935  1.00  0.00     0.181 C 
BRANCH   5   6
ATOM      6  C   UNL     1       0.974   7.808  -8.219  1.00  0.00     0.209 C 
BRANCH   6   7
ATOM      7  C   UNL     1       1.866   8.842  -8.847  1.00  0.00     0.258 C 
ATOM      8  O   UNL     1       3.013   8.997  -8.457  1.00  0.00    -0.300 OA
ENDBRANCH   6   7
BRANCH   6   9
ATOM      9  O   UNL     1      -0.101   7.571  -9.092  1.00  0.00    -0.383 OA
ATOM     10  H   UNL     1      -0.601   8.425  -9.180  1.00  0.00     0.211 HD
ENDBRANCH   6   9
ENDBRANCH   5   6
BRANCH   5  11
ATOM     11  O   UNL     1       1.759   5.733  -9.125  1.00  0.00    -0.387 OA
ATOM     12  H   UNL     1       0.881   5.278  -9.214  1.00  0.00     0.211 HD
ENDBRANCH   5  11
ENDBRANCH   1   5
BRANCH   1  13
ATOM     13  O   UNL     1      -0.232   6.173  -6.553  1.00  0.00    -0.388 OA
ATOM     14  H   UNL     1      -0.852   5.401  -6.479  1.00  0.00     0.211 HD
ENDBRANCH   1  13
TORSDOF 8
ENDMDL
MODEL 6
REMARK VINA RESULT:    -3.369      1.368      3.707
REMARK INTER + INTRA:          -5.182
REMARK INTER:                  -4.786
REMARK INTRA:                  -0.396
REMARK UNBOUND:                -0.632
REMARK SMILES O=C[C@@H](O)[C@H](O)[C@H](O)CO
REMARK SMILES IDX 7 1 9 2 10 3 5 5 3 6 2 7 1 8 4 9 6 11 8 13
REMARK H PARENT 10 4 4 10 6 12 8 14
REMARK Flexibility Score: inf
ROOT
ATOM      1  C   UNL     1       1.896   7.914  -8.443  1.00  0.00     0.171 C 
ENDROOT
BRANCH   1   2
ATOM      2  C   UNL     1       0.433   8.077  -8.901  1.00  0.00     0.190 C 
BRANCH   2   3
ATOM      3  O   UNL     1      -0.452   7.452  -8.010  1.00  0.00    -0.394 OA
ATOM      4  H   UNL     1      -1.358   7.528  -8.408  1.00  0.00     0.210 HD
ENDBRANCH   2   3
ENDBRANCH   1   2
BRANCH   1   5
ATOM      5  C   UNL     1       2.186   6.480  -7.923  1.00  0.00     0.181 C 
BRANCH   5   6
ATOM      6  C   UNL     1       2.322   6.433  -6.380  1.00  0.00     0.209 C 
BRANCH   6   7
ATOM      7  C   UNL     1       1.273   5.562  -5.747  1.00  0.00     0.258 C 
ATOM      8  O   UNL     1       0.301   5.191  -6.386  1.00  0.00    -0.300 OA
ENDBRANCH   6   7
BRANCH   6   9
ATOM      9  O   UNL     1       3.583   5.926  -6.024  1.00  0.00    -0.383 OA
ATOM     10  H   UNL     1       3.607   4.974  -6.306  1.00  0.00     0.211 HD
ENDBRANCH   6   9
ENDBRANCH   5   6
BRANCH   5  11
ATOM     11  O   UNL     1       3.391   6.014  -8.484  1.00  0.00    -0.387 OA
ATOM     12  H   UNL     1       3.746   6.733  -9.068  1.00  0.00     0.211 HD
ENDBRANCH   5  11
ENDBRANCH   1   5
BRANCH   1  13
ATOM     13  O   UNL     1       2.150   8.844  -7.421  1.00  0.00    -0.388 OA
ATOM     14  H   UNL     1       1.346   8.861  -6.839  1.00  0.00     0.211 HD
ENDBRANCH   1  13
TORSDOF 8
ENDMDL
MODEL 7
REMARK VINA RESULT:    -3.341     12.256     13.976
REMARK INTER + INTRA:          -5.144
REMARK INTER:                  -4.701
REMARK INTRA:                  -0.443
REMARK UNBOUND:                -0.632
REMARK SMILES O=C[C@@H](O)[C@H](O)[C@H](O)CO
REMARK SMILES IDX 7 1 9 2 10 3 5 5 3 6 2 7 1 8 4 9 6 11 8 13
REMARK H PARENT 10 4 4 10 6 12 8 14
REMARK Flexibility Score: inf
ROOT
ATOM      1  C   UNL     1       3.712  -4.552  -8.092  1.00  0.00     0.171 C 
ENDROOT
BRANCH   1   2
ATOM      2  C   UNL     1       2.377  -4.981  -8.733  1.00  0.00     0.190 C 
BRANCH   2   3
ATOM      3  O   UNL     1       1.309  -4.818  -7.839  1.00  0.00    -0.394 OA
ATOM      4  H   UNL     1       1.665  -4.319  -7.057  1.00  0.00     0.210 HD
ENDBRANCH   2   3
ENDBRANCH   1   2
BRANCH   1   5
ATOM      5  C   UNL     1       4.909  -5.383  -8.629  1.00  0.00     0.181 C 
BRANCH   5   6
ATOM      6  C   UNL     1       5.549  -6.267  -7.529  1.00  0.00     0.209 C 
BRANCH   6   7
ATOM      7  C   UNL     1       6.237  -7.474  -8.102  1.00  0.00     0.258 C 
ATOM      8  O   UNL     1       7.272  -7.358  -8.739  1.00  0.00    -0.300 OA
ENDBRANCH   6   7
BRANCH   6   9
ATOM      9  O   UNL     1       6.500  -5.523  -6.809  1.00  0.00    -0.383 OA
ATOM     10  H   UNL     1       7.374  -5.647  -7.263  1.00  0.00     0.211 HD
ENDBRANCH   6   9
ENDBRANCH   5   6
BRANCH   5  11
ATOM     11  O   UNL     1       5.899  -4.513  -9.124  1.00  0.00    -0.387 OA
ATOM     12  H   UNL     1       5.856  -4.544 -10.115  1.00  0.00     0.211 HD
ENDBRANCH   5  11
ENDBRANCH   1   5
BRANCH   1  13
ATOM     13  O   UNL     1       3.613  -4.717  -6.701  1.00  0.00    -0.388 OA
ATOM     14  H   UNL     1       4.329  -5.351  -6.432  1.00  0.00     0.211 HD
ENDBRANCH   1  13
TORSDOF 8
ENDMDL
MODEL 8
REMARK VINA RESULT:    -3.287     12.640     13.730
REMARK INTER + INTRA:          -5.071
REMARK INTER:                  -4.830
REMARK INTRA:                  -0.242
REMARK UNBOUND:                -0.632
REMARK SMILES O=C[C@@H](O)[C@H](O)[C@H](O)CO
REMARK SMILES IDX 7 1 9 2 10 3 5 5 3 6 2 7 1 8 4 9 6 11 8 13
REMARK H PARENT 10 4 4 10 6 12 8 14
REMARK Flexibility Score: inf
ROOT
ATOM      1  C   UNL     1       5.029  -6.113  -8.462  1.00  0.00     0.171 C 
ENDROOT
BRANCH   1   2
ATOM      2  C   UNL     1       6.264  -5.199  -8.321  1.00  0.00     0.190 C 
BRANCH   2   3
ATOM      3  O   UNL     1       6.857  -5.339  -7.058  1.00  0.00    -0.394 OA
ATOM      4  H   UNL     1       7.129  -4.429  -6.768  1.00  0.00     0.210 HD
ENDBRANCH   2   3
ENDBRANCH   1   2
BRANCH   1   5
ATOM      5  C   UNL     1       3.815  -5.579  -7.653  1.00  0.00     0.181 C 
BRANCH   5   6
ATOM      6  C   UNL     1       2.494  -5.661  -8.458  1.00  0.00     0.209 C 
BRANCH   6   7
ATOM      7  C   UNL     1       2.096  -7.081  -8.749  1.00  0.00     0.258 C 
ATOM      8  O   UNL     1       1.028  -7.523  -8.354  1.00  0.00    -0.300 OA
ENDBRANCH   6   7
BRANCH   6   9
ATOM      9  O   UNL     1       1.452  -5.056  -7.735  1.00  0.00    -0.383 OA
ATOM     10  H   UNL     1       0.615  -5.202  -8.248  1.00  0.00     0.211 HD
ENDBRANCH   6   9
ENDBRANCH   5   6
BRANCH   5  11
ATOM     11  O   UNL     1       4.037  -4.232  -7.311  1.00  0.00    -0.387 OA
ATOM     12  H   UNL     1       3.163  -3.765  -7.355  1.00  0.00     0.211 HD
ENDBRANCH   5  11
ENDBRANCH   1   5
BRANCH   1  13
ATOM     13  O   UNL     1       5.369  -7.396  -8.006  1.00  0.00    -0.388 OA
ATOM     14  H   UNL     1       5.594  -7.312  -7.042  1.00  0.00     0.211 HD
ENDBRANCH   1  13
TORSDOF 8
ENDMDL
MODEL 9
REMARK VINA RESULT:    -3.141     12.702     14.099
REMARK INTER + INTRA:          -4.875
REMARK INTER:                  -4.458
REMARK INTRA:                  -0.416
REMARK UNBOUND:                -0.632
REMARK SMILES O=C[C@@H](O)[C@H](O)[C@H](O)CO
REMARK SMILES IDX 7 1 9 2 10 3 5 5 3 6 2 7 1 8 4 9 6 11 8 13
REMARK H PARENT 10 4 4 10 6 12 8 14
REMARK Flexibility Score: inf
ROOT
ATOM      1  C   UNL     1       2.919  -7.266  -8.766  1.00  0.00     0.171 C 
ENDROOT
BRANCH   1   2
ATOM      2  C   UNL     1       3.465  -8.664  -9.125  1.00  0.00     0.190 C 
BRANCH   2   3
ATOM      3  O   UNL     1       4.235  -9.192  -8.079  1.00  0.00    -0.394 OA
ATOM      4  H   UNL     1       5.087  -9.505  -8.482  1.00  0.00     0.210 HD
ENDBRANCH   2   3
ENDBRANCH   1   2
BRANCH   1   5
ATOM      5  C   UNL     1       3.953  -6.425  -7.970  1.00  0.00     0.181 C 
BRANCH   5   6
ATOM      6  C   UNL     1       3.582  -4.921  -7.936  1.00  0.00     0.209 C 
BRANCH   6   7
ATOM      7  C   UNL     1       2.743  -4.573  -6.737  1.00  0.00     0.258 C 
ATOM      8  O   UNL     1       1.525  -4.560  -6.811  1.00  0.00    -0.300 OA
ENDBRANCH   6   7
BRANCH   6   9
ATOM      9  O   UNL     1       4.748  -4.139  -7.894  1.00  0.00    -0.383 OA
ATOM     10  H   UNL     1       5.148  -4.160  -8.803  1.00  0.00     0.211 HD
ENDBRANCH   6   9
ENDBRANCH   5   6
BRANCH   5  11
ATOM     11  O   UNL     1       5.220  -6.550  -8.571  1.00  0.00    -0.387 OA
ATOM     12  H   UNL     1       5.601  -5.637  -8.657  1.00  0.00     0.211 HD
ENDBRANCH   5  11
ENDBRANCH   1   5
BRANCH   1  13
ATOM     13  O   UNL     1       1.754  -7.426  -7.999  1.00  0.00    -0.388 OA
ATOM     14  H   UNL     1       1.782  -6.741  -7.282  1.00  0.00     0.211 HD
ENDBRANCH   1  13
TORSDOF 8
ENDMDL
