MODEL 1
REMARK VINA RESULT:    47.743      0.000      0.000
REMARK INTER + INTRA:          63.605
REMARK INTER:                  63.093
REMARK INTRA:                   0.511
REMARK UNBOUND:                 0.511
REMARK SMILES CC[C@H](C=C[C@@H](C)[C@@H]1CC[C@@H]2[C@@H]3CC=C4C[C@@H](O)CC[C@@]4(C)[C@@H]3CC[C@@]21C)C(C)C
REMARK SMILES IDX 6 1 7 2 5 3 4 4 3 5 2 6 1 7 28 8 29 9 30 10 8 11 9 12 26 13
REMARK SMILES IDX 10 14 11 15 25 16 27 17 12 18 24 19 23 20 13 21 21 22 14 23
REMARK SMILES IDX 15 24 20 25 22 26 16 27 19 28 17 29 18 30
REMARK H PARENT 18 31
REMARK Flexibility Score: inf
ROOT
ATOM      1  C   UNL     1      20.115  33.952   1.904  1.00  0.00     0.012 C 
ATOM      2  C   UNL     1      20.115  34.124   3.430  1.00  0.00     0.012 C 
ENDROOT
BRANCH   1   3
ATOM      3  C   UNL     1      19.155  32.833   1.560  1.00  0.00    -0.028 C 
ATOM      4  C   UNL     1      18.026  32.630   2.264  1.00  0.00    -0.027 C 
BRANCH   4   5
ATOM      5  C   UNL     1      17.017  31.578   1.857  1.00  0.00     0.014 C 
BRANCH   5   6
ATOM      6  C   UNL     1      16.783  30.613   3.047  1.00  0.00     0.004 C 
ATOM      7  C   UNL     1      15.327  30.522   3.496  1.00  0.00     0.004 C 
ENDBRANCH   5   6
BRANCH   5   8
ATOM      8  C   UNL     1      15.738  32.275   1.278  1.00  0.00    -0.011 C 
ATOM      9  C   UNL     1      16.049  33.263   0.143  1.00  0.00     0.008 C 
ATOM     10  C   UNL     1      14.629  31.295   0.862  1.00  0.00     0.008 C 
ENDBRANCH   5   8
ENDBRANCH   4   5
ENDBRANCH   1   3
BRANCH   1  11
ATOM     11  C   UNL     1      21.590  33.791   1.357  1.00  0.00     0.002 C 
ATOM     12  C   UNL     1      21.633  33.006   0.037  1.00  0.00     0.005 C 
ATOM     13  C   UNL     1      22.726  33.145   2.211  1.00  0.00    -0.026 C 
ATOM     14  C   UNL     1      23.069  32.503  -0.121  1.00  0.00     0.005 C 
ATOM     15  C   UNL     1      23.829  32.953   1.143  1.00  0.00    -0.001 C 
ATOM     16  C   UNL     1      22.294  31.767   2.822  1.00  0.00     0.007 C 
ATOM     17  C   UNL     1      23.228  34.122   3.306  1.00  0.00     0.012 C 
ATOM     18  C   UNL     1      25.056  32.082   1.596  1.00  0.00     0.000 C 
ATOM     19  C   UNL     1      23.272  30.598   2.620  1.00  0.00     0.005 C 
ATOM     20  C   UNL     1      24.746  31.046   2.727  1.00  0.00     0.003 C 
ATOM     21  C   UNL     1      25.857  31.508   0.395  1.00  0.00     0.031 C 
ATOM     22  C   UNL     1      25.783  29.851   2.792  1.00  0.00    -0.008 C 
ATOM     23  C   UNL     1      25.874  30.009   0.309  1.00  0.00    -0.027 C 
ATOM     24  C   UNL     1      26.006  29.251   1.414  1.00  0.00    -0.065 C 
ATOM     25  C   UNL     1      27.176  30.342   3.290  1.00  0.00     0.014 C 
ATOM     26  C   UNL     1      25.268  28.763   3.781  1.00  0.00     0.016 C 
ATOM     27  C   UNL     1      26.929  28.060   1.343  1.00  0.00     0.063 C 
ATOM     28  C   UNL     1      28.285  29.255   3.203  1.00  0.00     0.033 C 
ATOM     29  C   UNL     1      28.326  28.477   1.856  1.00  0.00     0.118 C 
BRANCH  29  30
ATOM     30  O   UNL     1      29.021  29.199   0.870  1.00  0.00    -0.393 OA
ATOM     31  H   UNL     1      28.357  29.548   0.220  1.00  0.00     0.210 HD
ENDBRANCH  29  30
ENDBRANCH   1  11
TORSDOF 6
ENDMDL
MODEL 2
REMARK VINA RESULT:    48.534      2.217      5.172
REMARK INTER + INTRA:          64.650
REMARK INTER:                  63.464
REMARK INTRA:                   1.186
REMARK UNBOUND:                 0.511
REMARK SMILES CC[C@H](C=C[C@@H](C)[C@@H]1CC[C@@H]2[C@@H]3CC=C4C[C@@H](O)CC[C@@]4(C)[C@@H]3CC[C@@]21C)C(C)C
REMARK SMILES IDX 6 1 7 2 5 3 4 4 3 5 2 6 1 7 28 8 29 9 30 10 8 11 9 12 26 13
REMARK SMILES IDX 10 14 11 15 25 16 27 17 12 18 24 19 23 20 13 21 21 22 14 23
REMARK SMILES IDX 15 24 20 25 22 26 16 27 19 28 17 29 18 30
REMARK H PARENT 18 31
REMARK Flexibility Score: inf
ROOT
ATOM      1  C   UNL     1      25.100  32.639   0.327  1.00  0.00     0.012 C 
ATOM      2  C   UNL     1      25.646  34.002  -0.123  1.00  0.00     0.012 C 
ENDROOT
BRANCH   1   3
ATOM      3  C   UNL     1      23.705  32.852   0.875  1.00  0.00    -0.028 C 
ATOM      4  C   UNL     1      22.638  32.976   0.064  1.00  0.00    -0.027 C 
BRANCH   4   5
ATOM      5  C   UNL     1      21.232  33.085   0.614  1.00  0.00     0.014 C 
BRANCH   5   6
ATOM      6  C   UNL     1      20.321  32.070  -0.124  1.00  0.00     0.004 C 
ATOM      7  C   UNL     1      18.829  32.286   0.119  1.00  0.00     0.004 C 
ENDBRANCH   5   6
BRANCH   5   8
ATOM      8  C   UNL     1      21.269  32.964   2.175  1.00  0.00    -0.011 C 
ATOM      9  C   UNL     1      22.664  33.217   2.769  1.00  0.00     0.008 C 
ATOM     10  C   UNL     1      20.208  33.816   2.891  1.00  0.00     0.008 C 
ENDBRANCH   5   8
ENDBRANCH   4   5
ENDBRANCH   1   3
BRANCH   1  11
ATOM     11  C   UNL     1      26.121  31.916   1.295  1.00  0.00     0.002 C 
ATOM     12  C   UNL     1      27.580  32.167   0.885  1.00  0.00     0.005 C 
ATOM     13  C   UNL     1      26.067  30.378   1.558  1.00  0.00    -0.026 C 
ATOM     14  C   UNL     1      28.411  31.068   1.549  1.00  0.00     0.005 C 
ATOM     15  C   UNL     1      27.412  30.155   2.289  1.00  0.00    -0.001 C 
ATOM     16  C   UNL     1      26.011  29.553   0.226  1.00  0.00     0.007 C 
ATOM     17  C   UNL     1      24.895  30.012   2.505  1.00  0.00     0.012 C 
ATOM     18  C   UNL     1      27.823  28.651   2.492  1.00  0.00     0.000 C 
ATOM     19  C   UNL     1      27.016  28.396   0.101  1.00  0.00     0.005 C 
ATOM     20  C   UNL     1      27.224  27.658   1.441  1.00  0.00     0.003 C 
ATOM     21  C   UNL     1      29.344  28.478   2.752  1.00  0.00     0.031 C 
ATOM     22  C   UNL     1      28.036  26.304   1.316  1.00  0.00    -0.008 C 
ATOM     23  C   UNL     1      30.074  27.679   1.710  1.00  0.00    -0.027 C 
ATOM     24  C   UNL     1      29.524  26.577   1.169  1.00  0.00    -0.065 C 
ATOM     25  C   UNL     1      27.872  25.430   2.596  1.00  0.00     0.014 C 
ATOM     26  C   UNL     1      27.510  25.488   0.098  1.00  0.00     0.016 C 
ATOM     27  C   UNL     1      30.410  25.371   0.978  1.00  0.00     0.063 C 
ATOM     28  C   UNL     1      28.789  24.174   2.611  1.00  0.00     0.033 C 
ATOM     29  C   UNL     1      30.267  24.444   2.207  1.00  0.00     0.118 C 
BRANCH  29  30
ATOM     30  O   UNL     1      31.010  24.942   3.292  1.00  0.00    -0.393 OA
ATOM     31  H   UNL     1      31.931  25.128   2.974  1.00  0.00     0.210 HD
ENDBRANCH  29  30
ENDBRANCH   1  11
TORSDOF 6
ENDMDL
MODEL 3
REMARK VINA RESULT:    49.861      2.680      5.670
REMARK INTER + INTRA:          66.404
REMARK INTER:                  66.170
REMARK INTRA:                   0.234
REMARK UNBOUND:                 0.511
REMARK SMILES CC[C@H](C=C[C@@H](C)[C@@H]1CC[C@@H]2[C@@H]3CC=C4C[C@@H](O)CC[C@@]4(C)[C@@H]3CC[C@@]21C)C(C)C
REMARK SMILES IDX 6 1 7 2 5 3 4 4 3 5 2 6 1 7 28 8 29 9 30 10 8 11 9 12 26 13
REMARK SMILES IDX 10 14 11 15 25 16 27 17 12 18 24 19 23 20 13 21 21 22 14 23
REMARK SMILES IDX 15 24 20 25 22 26 16 27 19 28 17 29 18 30
REMARK H PARENT 18 31
REMARK Flexibility Score: inf
ROOT
ATOM      1  C   UNL     1      26.326  32.692   0.137  1.00  0.00     0.012 C 
ATOM      2  C   UNL     1      27.162  33.954  -0.121  1.00  0.00     0.012 C 
ENDROOT
BRANCH   1   3
ATOM      3  C   UNL     1      24.997  33.123   0.719  1.00  0.00    -0.028 C 
ATOM      4  C   UNL     1      23.847  32.982   0.035  1.00  0.00    -0.027 C 
BRANCH   4   5
ATOM      5  C   UNL     1      22.508  33.316   0.657  1.00  0.00     0.014 C 
BRANCH   5   6
ATOM      6  C   UNL     1      21.390  32.577  -0.123  1.00  0.00     0.004 C 
ATOM      7  C   UNL     1      20.016  32.660   0.536  1.00  0.00     0.004 C 
ENDBRANCH   5   6
BRANCH   5   8
ATOM      8  C   UNL     1      22.564  33.043   2.199  1.00  0.00    -0.011 C 
ATOM      9  C   UNL     1      21.354  33.609   2.958  1.00  0.00     0.008 C 
ATOM     10  C   UNL     1      22.797  31.568   2.563  1.00  0.00     0.008 C 
ENDBRANCH   5   8
ENDBRANCH   4   5
ENDBRANCH   1   3
BRANCH   1  11
ATOM     11  C   UNL     1      27.146  31.640   0.988  1.00  0.00     0.002 C 
ATOM     12  C   UNL     1      28.336  31.065   0.203  1.00  0.00     0.005 C 
ATOM     13  C   UNL     1      26.474  30.381   1.620  1.00  0.00    -0.026 C 
ATOM     14  C   UNL     1      28.726  29.762   0.901  1.00  0.00     0.005 C 
ATOM     15  C   UNL     1      27.717  29.565   2.051  1.00  0.00    -0.001 C 
ATOM     16  C   UNL     1      25.617  29.582   0.577  1.00  0.00     0.007 C 
ATOM     17  C   UNL     1      25.642  30.759   2.872  1.00  0.00     0.012 C 
ATOM     18  C   UNL     1      27.424  28.091   2.511  1.00  0.00     0.000 C 
ATOM     19  C   UNL     1      25.870  28.068   0.507  1.00  0.00     0.005 C 
ATOM     20  C   UNL     1      26.131  27.455   1.900  1.00  0.00     0.003 C 
ATOM     21  C   UNL     1      28.684  27.185   2.445  1.00  0.00     0.031 C 
ATOM     22  C   UNL     1      26.134  25.871   1.921  1.00  0.00    -0.008 C 
ATOM     23  C   UNL     1      28.581  26.032   1.488  1.00  0.00    -0.027 C 
ATOM     24  C   UNL     1      27.441  25.325   1.372  1.00  0.00    -0.065 C 
ATOM     25  C   UNL     1      26.007  25.329   3.376  1.00  0.00     0.014 C 
ATOM     26  C   UNL     1      24.930  25.334   1.093  1.00  0.00     0.016 C 
ATOM     27  C   UNL     1      27.553  23.824   1.279  1.00  0.00     0.063 C 
ATOM     28  C   UNL     1      26.186  23.788   3.482  1.00  0.00     0.033 C 
ATOM     29  C   UNL     1      27.402  23.221   2.694  1.00  0.00     0.118 C 
BRANCH  29  30
ATOM     30  O   UNL     1      28.595  23.363   3.424  1.00  0.00    -0.393 OA
ATOM     31  H   UNL     1      28.954  24.272   3.251  1.00  0.00     0.210 HD
ENDBRANCH  29  30
ENDBRANCH   1  11
TORSDOF 6
ENDMDL
