MODEL 1
REMARK VINA RESULT:    -7.218      0.000      0.000
REMARK INTER + INTRA:         -10.829
REMARK INTER:                  -9.750
REMARK INTRA:                  -1.079
REMARK UNBOUND:                -1.079
REMARK SMILES O=c1c(-c2ccc(O)cc2)coc2c([C@H]3O[C@@H](CO)[C@@H](O)[C@H](O)[C@H]3O)c(O)ccc12
REMARK SMILES IDX 3 1 11 2 12 3 13 4 30 5 2 6 1 7 29 8 28 9 26 10 14 11 4 12
REMARK SMILES IDX 5 13 6 14 7 15 10 16 9 17 8 18 15 20 24 21 16 22 22 23 17 24
REMARK SMILES IDX 20 25 25 26 23 28 18 30 19 31 21 33 27 35
REMARK H PARENT 8 19 25 27 23 29 19 32 21 34 27 36
REMARK Flexibility Score: inf
ROOT
ATOM      1  C   UNL     1     -30.500  44.577  13.201  1.00  0.00     0.065 A 
ATOM      2  C   UNL     1     -31.348  43.868  12.338  1.00  0.00     0.208 A 
ATOM      3  O   UNL     1     -32.663  43.878  12.515  1.00  0.00    -0.463 OA
ATOM      4  C   UNL     1     -33.265  44.546  13.498  1.00  0.00     0.147 A 
ATOM      5  C   UNL     1     -32.484  45.299  14.405  1.00  0.00     0.066 A 
ATOM      6  C   UNL     1     -31.086  45.312  14.248  1.00  0.00     0.200 A 
ATOM      7  O   UNL     1     -30.363  45.995  15.025  1.00  0.00    -0.288 OA
ATOM      8  C   UNL     1     -33.115  46.020  15.428  1.00  0.00     0.020 A 
ATOM      9  C   UNL     1     -34.501  46.011  15.537  1.00  0.00     0.047 A 
ATOM     10  C   UNL     1     -35.293  45.283  14.645  1.00  0.00     0.125 A 
ATOM     11  C   UNL     1     -34.678  44.503  13.622  1.00  0.00     0.069 A 
ENDROOT
BRANCH   1  12
ATOM     12  C   UNL     1     -29.032  44.543  12.990  1.00  0.00    -0.011 A 
ATOM     13  C   UNL     1     -28.427  45.418  12.070  1.00  0.00     0.013 A 
ATOM     14  C   UNL     1     -27.045  45.383  11.862  1.00  0.00     0.047 A 
ATOM     15  C   UNL     1     -26.250  44.472  12.564  1.00  0.00     0.115 A 
ATOM     16  C   UNL     1     -28.228  43.625  13.687  1.00  0.00     0.013 A 
ATOM     17  C   UNL     1     -26.845  43.592  13.477  1.00  0.00     0.047 A 
BRANCH  15  18
ATOM     18  O   UNL     1     -24.875  44.448  12.347  1.00  0.00    -0.508 OA
ATOM     19  H   UNL     1     -24.439  45.033  11.644  1.00  0.00     0.293 HD
ENDBRANCH  15  18
ENDBRANCH   1  12
BRANCH  11  20
ATOM     20  C   UNL     1     -35.472  43.662  12.618  1.00  0.00     0.188 C 
ATOM     21  C   UNL     1     -35.831  44.442  11.303  1.00  0.00     0.179 C 
ATOM     22  O   UNL     1     -36.599  43.073  13.248  1.00  0.00    -0.362 OA
ATOM     23  C   UNL     1     -37.339  44.740  11.198  1.00  0.00     0.177 C 
ATOM     24  C   UNL     1     -37.420  42.420  12.296  1.00  0.00     0.176 C 
ATOM     25  C   UNL     1     -38.192  43.468  11.446  1.00  0.00     0.177 C 
BRANCH  21  26
ATOM     26  O   UNL     1     -35.063  45.611  11.137  1.00  0.00    -0.387 OA
ATOM     27  H   UNL     1     -35.319  46.250  11.853  1.00  0.00     0.211 HD
ENDBRANCH  21  26
BRANCH  23  28
ATOM     28  O   UNL     1     -37.619  45.266   9.926  1.00  0.00    -0.387 OA
ATOM     29  H   UNL     1     -38.023  44.531   9.395  1.00  0.00     0.211 HD
ENDBRANCH  23  28
BRANCH  24  30
ATOM     30  C   UNL     1     -38.354  41.439  13.022  1.00  0.00     0.191 C 
BRANCH  30  31
ATOM     31  O   UNL     1     -37.607  40.487  13.730  1.00  0.00    -0.394 OA
ATOM     32  H   UNL     1     -36.882  40.983  14.197  1.00  0.00     0.210 HD
ENDBRANCH  30  31
ENDBRANCH  24  30
BRANCH  25  33
ATOM     33  O   UNL     1     -39.387  43.854  12.079  1.00  0.00    -0.388 OA
ATOM     34  H   UNL     1     -39.287  43.657  13.048  1.00  0.00     0.211 HD
ENDBRANCH  25  33
ENDBRANCH  11  20
BRANCH  10  35
ATOM     35  O   UNL     1     -36.676  45.383  14.819  1.00  0.00    -0.507 OA
ATOM     36  H   UNL     1     -37.346  44.685  14.541  1.00  0.00     0.293 HD
ENDBRANCH  10  35
TORSDOF 9
ENDMDL
MODEL 2
REMARK VINA RESULT:    -6.968     13.099     16.518
REMARK INTER + INTRA:         -10.491
REMARK INTER:                  -9.289
REMARK INTRA:                  -1.202
REMARK UNBOUND:                -1.079
REMARK SMILES O=c1c(-c2ccc(O)cc2)coc2c([C@H]3O[C@@H](CO)[C@@H](O)[C@H](O)[C@H]3O)c(O)ccc12
REMARK SMILES IDX 3 1 11 2 12 3 13 4 30 5 2 6 1 7 29 8 28 9 26 10 14 11 4 12
REMARK SMILES IDX 5 13 6 14 7 15 10 16 9 17 8 18 15 20 24 21 16 22 22 23 17 24
REMARK SMILES IDX 20 25 25 26 23 28 18 30 19 31 21 33 27 35
REMARK H PARENT 8 19 25 27 23 29 19 32 21 34 27 36
REMARK Flexibility Score: inf
ROOT
ATOM      1  C   UNL     1     -32.022  29.171  11.339  1.00  0.00     0.065 A 
ATOM      2  C   UNL     1     -31.961  30.213  12.275  1.00  0.00     0.208 A 
ATOM      3  O   UNL     1     -30.794  30.670  12.712  1.00  0.00    -0.463 OA
ATOM      4  C   UNL     1     -29.621  30.187  12.305  1.00  0.00     0.147 A 
ATOM      5  C   UNL     1     -29.591  29.144  11.352  1.00  0.00     0.066 A 
ATOM      6  C   UNL     1     -30.810  28.636  10.865  1.00  0.00     0.200 A 
ATOM      7  O   UNL     1     -30.818  27.722   9.994  1.00  0.00    -0.288 OA
ATOM      8  C   UNL     1     -28.359  28.649  10.906  1.00  0.00     0.020 A 
ATOM      9  C   UNL     1     -27.172  29.194  11.383  1.00  0.00     0.047 A 
ATOM     10  C   UNL     1     -27.178  30.233  12.318  1.00  0.00     0.125 A 
ATOM     11  C   UNL     1     -28.415  30.728  12.825  1.00  0.00     0.069 A 
ENDROOT
BRANCH   1  12
ATOM     12  C   UNL     1     -33.338  28.670  10.872  1.00  0.00    -0.011 A 
ATOM     13  C   UNL     1     -34.136  27.876  11.716  1.00  0.00     0.013 A 
ATOM     14  C   UNL     1     -35.372  27.395  11.276  1.00  0.00     0.047 A 
ATOM     15  C   UNL     1     -35.826  27.695   9.988  1.00  0.00     0.115 A 
ATOM     16  C   UNL     1     -33.798  28.962   9.576  1.00  0.00     0.013 A 
ATOM     17  C   UNL     1     -35.036  28.479   9.138  1.00  0.00     0.047 A 
BRANCH  15  18
ATOM     18  O   UNL     1     -37.060  27.209   9.563  1.00  0.00    -0.508 OA
ATOM     19  H   UNL     1     -37.396  26.296   9.846  1.00  0.00     0.293 HD
ENDBRANCH  15  18
ENDBRANCH   1  12
BRANCH  11  20
ATOM     20  C   UNL     1     -28.508  31.849  13.863  1.00  0.00     0.188 C 
ATOM     21  C   UNL     1     -28.321  33.281  13.247  1.00  0.00     0.179 C 
ATOM     22  O   UNL     1     -27.636  31.587  14.953  1.00  0.00    -0.362 OA
ATOM     23  C   UNL     1     -26.991  33.930  13.679  1.00  0.00     0.177 C 
ATOM     24  C   UNL     1     -27.602  32.689  15.842  1.00  0.00     0.176 C 
ATOM     25  C   UNL     1     -26.791  33.858  15.215  1.00  0.00     0.177 C 
BRANCH  21  26
ATOM     26  O   UNL     1     -28.470  33.295  11.847  1.00  0.00    -0.387 OA
ATOM     27  H   UNL     1     -28.116  32.437  11.494  1.00  0.00     0.211 HD
ENDBRANCH  21  26
BRANCH  23  28
ATOM     28  O   UNL     1     -26.971  35.269  13.253  1.00  0.00    -0.387 OA
ATOM     29  H   UNL     1     -26.839  35.825  14.064  1.00  0.00     0.211 HD
ENDBRANCH  23  28
BRANCH  24  30
ATOM     30  C   UNL     1     -27.033  32.230  17.194  1.00  0.00     0.191 C 
BRANCH  30  31
ATOM     31  O   UNL     1     -26.058  31.241  17.002  1.00  0.00    -0.394 OA
ATOM     32  H   UNL     1     -25.765  31.309  16.055  1.00  0.00     0.210 HD
ENDBRANCH  30  31
ENDBRANCH  24  30
BRANCH  25  33
ATOM     33  O   UNL     1     -25.416  33.720  15.476  1.00  0.00    -0.388 OA
ATOM     34  H   UNL     1     -25.223  34.210  16.318  1.00  0.00     0.211 HD
ENDBRANCH  25  33
ENDBRANCH  11  20
BRANCH  10  35
ATOM     35  O   UNL     1     -25.929  30.737  12.693  1.00  0.00    -0.507 OA
ATOM     36  H   UNL     1     -25.509  31.574  12.327  1.00  0.00     0.293 HD
ENDBRANCH  10  35
TORSDOF 9
ENDMDL
MODEL 3
REMARK VINA RESULT:    -6.752     13.586     16.797
REMARK INTER + INTRA:         -10.199
REMARK INTER:                  -9.456
REMARK INTRA:                  -0.743
REMARK UNBOUND:                -1.079
REMARK SMILES O=c1c(-c2ccc(O)cc2)coc2c([C@H]3O[C@@H](CO)[C@@H](O)[C@H](O)[C@H]3O)c(O)ccc12
REMARK SMILES IDX 3 1 11 2 12 3 13 4 30 5 2 6 1 7 29 8 28 9 26 10 14 11 4 12
REMARK SMILES IDX 5 13 6 14 7 15 10 16 9 17 8 18 15 20 24 21 16 22 22 23 17 24
REMARK SMILES IDX 20 25 25 26 23 28 18 30 19 31 21 33 27 35
REMARK H PARENT 8 19 25 27 23 29 19 32 21 34 27 36
REMARK Flexibility Score: inf
ROOT
ATOM      1  C   UNL     1     -30.801  28.675  12.923  1.00  0.00     0.065 A 
ATOM      2  C   UNL     1     -30.407  29.712  13.780  1.00  0.00     0.208 A 
ATOM      3  O   UNL     1     -29.276  30.376  13.571  1.00  0.00    -0.463 OA
ATOM      4  C   UNL     1     -28.451  30.116  12.558  1.00  0.00     0.147 A 
ATOM      5  C   UNL     1     -28.781  29.094  11.638  1.00  0.00     0.066 A 
ATOM      6  C   UNL     1     -29.973  28.370  11.828  1.00  0.00     0.200 A 
ATOM      7  O   UNL     1     -30.309  27.470  11.010  1.00  0.00    -0.288 OA
ATOM      8  C   UNL     1     -27.926  28.832  10.560  1.00  0.00     0.020 A 
ATOM      9  C   UNL     1     -26.772  29.587  10.383  1.00  0.00     0.047 A 
ATOM     10  C   UNL     1     -26.432  30.609  11.274  1.00  0.00     0.125 A 
ATOM     11  C   UNL     1     -27.257  30.869  12.407  1.00  0.00     0.069 A 
ENDROOT
BRANCH   1  12
ATOM     12  C   UNL     1     -32.065  27.941  13.182  1.00  0.00    -0.011 A 
ATOM     13  C   UNL     1     -33.295  28.474  12.756  1.00  0.00     0.013 A 
ATOM     14  C   UNL     1     -34.488  27.789  13.006  1.00  0.00     0.047 A 
ATOM     15  C   UNL     1     -34.469  26.568  13.686  1.00  0.00     0.115 A 
ATOM     16  C   UNL     1     -32.054  26.716  13.871  1.00  0.00     0.013 A 
ATOM     17  C   UNL     1     -33.249  26.033  14.120  1.00  0.00     0.047 A 
BRANCH  15  18
ATOM     18  O   UNL     1     -35.665  25.897  13.928  1.00  0.00    -0.508 OA
ATOM     19  H   UNL     1     -36.207  25.490  13.174  1.00  0.00     0.293 HD
ENDBRANCH  15  18
ENDBRANCH   1  12
BRANCH  11  20
ATOM     20  C   UNL     1     -26.946  31.956  13.439  1.00  0.00     0.188 C 
ATOM     21  C   UNL     1     -26.233  31.404  14.724  1.00  0.00     0.179 C 
ATOM     22  O   UNL     1     -28.111  32.715  13.725  1.00  0.00    -0.362 OA
ATOM     23  C   UNL     1     -27.147  31.456  15.964  1.00  0.00     0.177 C 
ATOM     24  C   UNL     1     -27.872  33.621  14.786  1.00  0.00     0.176 C 
ATOM     25  C   UNL     1     -27.797  32.854  16.137  1.00  0.00     0.177 C 
BRANCH  21  26
ATOM     26  O   UNL     1     -25.693  30.117  14.537  1.00  0.00    -0.387 OA
ATOM     27  H   UNL     1     -26.227  29.661  13.836  1.00  0.00     0.211 HD
ENDBRANCH  21  26
BRANCH  23  28
ATOM     28  O   UNL     1     -26.397  31.130  17.106  1.00  0.00    -0.387 OA
ATOM     29  H   UNL     1     -25.445  31.104  16.826  1.00  0.00     0.211 HD
ENDBRANCH  23  28
BRANCH  24  30
ATOM     30  C   UNL     1     -28.958  34.707  14.780  1.00  0.00     0.191 C 
BRANCH  30  31
ATOM     31  O   UNL     1     -30.172  34.179  14.318  1.00  0.00    -0.394 OA
ATOM     32  H   UNL     1     -30.533  33.612  15.049  1.00  0.00     0.210 HD
ENDBRANCH  30  31
ENDBRANCH  24  30
BRANCH  25  33
ATOM     33  O   UNL     1     -29.077  32.680  16.694  1.00  0.00    -0.388 OA
ATOM     34  H   UNL     1     -28.995  32.820  17.674  1.00  0.00     0.211 HD
ENDBRANCH  25  33
ENDBRANCH  11  20
BRANCH  10  35
ATOM     35  O   UNL     1     -25.275  31.333  10.975  1.00  0.00    -0.507 OA
ATOM     36  H   UNL     1     -24.520  31.005  10.396  1.00  0.00     0.293 HD
ENDBRANCH  10  35
TORSDOF 9
ENDMDL
MODEL 4
REMARK VINA RESULT:    -6.648     14.817     17.556
REMARK INTER + INTRA:         -10.059
REMARK INTER:                  -9.969
REMARK INTRA:                  -0.090
REMARK UNBOUND:                -1.079
REMARK SMILES O=c1c(-c2ccc(O)cc2)coc2c([C@H]3O[C@@H](CO)[C@@H](O)[C@H](O)[C@H]3O)c(O)ccc12
REMARK SMILES IDX 3 1 11 2 12 3 13 4 30 5 2 6 1 7 29 8 28 9 26 10 14 11 4 12
REMARK SMILES IDX 5 13 6 14 7 15 10 16 9 17 8 18 15 20 24 21 16 22 22 23 17 24
REMARK SMILES IDX 20 25 25 26 23 28 18 30 19 31 21 33 27 35
REMARK H PARENT 8 19 25 27 23 29 19 32 21 34 27 36
REMARK Flexibility Score: inf
ROOT
ATOM      1  C   UNL     1     -32.413  27.700  15.279  1.00  0.00     0.065 A 
ATOM      2  C   UNL     1     -31.489  28.549  14.654  1.00  0.00     0.208 A 
ATOM      3  O   UNL     1     -31.362  28.564  13.334  1.00  0.00    -0.463 OA
ATOM      4  C   UNL     1     -32.083  27.795  12.520  1.00  0.00     0.147 A 
ATOM      5  C   UNL     1     -33.048  26.918  13.067  1.00  0.00     0.066 A 
ATOM      6  C   UNL     1     -33.212  26.877  14.464  1.00  0.00     0.200 A 
ATOM      7  O   UNL     1     -34.083  26.125  14.982  1.00  0.00    -0.288 OA
ATOM      8  C   UNL     1     -33.824  26.123  12.213  1.00  0.00     0.020 A 
ATOM      9  C   UNL     1     -33.659  26.211  10.835  1.00  0.00     0.047 A 
ATOM     10  C   UNL     1     -32.719  27.078  10.272  1.00  0.00     0.125 A 
ATOM     11  C   UNL     1     -31.883  27.866  11.116  1.00  0.00     0.069 A 
ENDROOT
BRANCH   1  12
ATOM     12  C   UNL     1     -32.532  27.693  16.758  1.00  0.00    -0.011 A 
ATOM     13  C   UNL     1     -32.288  28.867  17.495  1.00  0.00     0.013 A 
ATOM     14  C   UNL     1     -32.391  28.862  18.889  1.00  0.00     0.047 A 
ATOM     15  C   UNL     1     -32.732  27.687  19.566  1.00  0.00     0.115 A 
ATOM     16  C   UNL     1     -32.868  26.514  17.446  1.00  0.00     0.013 A 
ATOM     17  C   UNL     1     -32.969  26.512  18.841  1.00  0.00     0.047 A 
BRANCH  15  18
ATOM     18  O   UNL     1     -32.830  27.697  20.955  1.00  0.00    -0.508 OA
ATOM     19  H   UNL     1     -32.281  28.334  21.520  1.00  0.00     0.293 HD
ENDBRANCH  15  18
ENDBRANCH   1  12
BRANCH  11  20
ATOM     20  C   UNL     1     -30.816  28.825  10.581  1.00  0.00     0.188 C 
ATOM     21  C   UNL     1     -29.349  28.332  10.848  1.00  0.00     0.179 C 
ATOM     22  O   UNL     1     -31.059  30.144  11.045  1.00  0.00    -0.362 OA
ATOM     23  C   UNL     1     -28.624  29.205  11.891  1.00  0.00     0.177 C 
ATOM     24  C   UNL     1     -29.997  31.007  10.681  1.00  0.00     0.176 C 
ATOM     25  C   UNL     1     -28.746  30.715  11.558  1.00  0.00     0.177 C 
BRANCH  21  26
ATOM     26  O   UNL     1     -29.287  26.967  11.187  1.00  0.00    -0.387 OA
ATOM     27  H   UNL     1     -28.908  26.896  12.101  1.00  0.00     0.211 HD
ENDBRANCH  21  26
BRANCH  23  28
ATOM     28  O   UNL     1     -27.271  28.832  11.945  1.00  0.00    -0.387 OA
ATOM     29  H   UNL     1     -27.249  27.860  12.143  1.00  0.00     0.211 HD
ENDBRANCH  23  28
BRANCH  24  30
ATOM     30  C   UNL     1     -30.470  32.465  10.789  1.00  0.00     0.191 C 
BRANCH  30  31
ATOM     31  O   UNL     1     -31.302  32.626  11.906  1.00  0.00    -0.394 OA
ATOM     32  H   UNL     1     -30.981  33.434  12.387  1.00  0.00     0.210 HD
ENDBRANCH  30  31
ENDBRANCH  24  30
BRANCH  25  33
ATOM     33  O   UNL     1     -28.795  31.431  12.767  1.00  0.00    -0.388 OA
ATOM     34  H   UNL     1     -28.098  31.051  13.365  1.00  0.00     0.211 HD
ENDBRANCH  25  33
ENDBRANCH  11  20
BRANCH  10  35
ATOM     35  O   UNL     1     -32.670  27.119   8.876  1.00  0.00    -0.507 OA
ATOM     36  H   UNL     1     -32.650  27.959   8.322  1.00  0.00     0.293 HD
ENDBRANCH  10  35
TORSDOF 9
ENDMDL
MODEL 5
REMARK VINA RESULT:    -6.642     12.973     14.771
REMARK INTER + INTRA:         -10.051
REMARK INTER:                  -8.865
REMARK INTRA:                  -1.186
REMARK UNBOUND:                -1.079
REMARK SMILES O=c1c(-c2ccc(O)cc2)coc2c([C@H]3O[C@@H](CO)[C@@H](O)[C@H](O)[C@H]3O)c(O)ccc12
REMARK SMILES IDX 3 1 11 2 12 3 13 4 30 5 2 6 1 7 29 8 28 9 26 10 14 11 4 12
REMARK SMILES IDX 5 13 6 14 7 15 10 16 9 17 8 18 15 20 24 21 16 22 22 23 17 24
REMARK SMILES IDX 20 25 25 26 23 28 18 30 19 31 21 33 27 35
REMARK H PARENT 8 19 25 27 23 29 19 32 21 34 27 36
REMARK Flexibility Score: inf
ROOT
ATOM      1  C   UNL     1     -28.232  32.378  16.218  1.00  0.00     0.065 A 
ATOM      2  C   UNL     1     -28.937  31.183  16.018  1.00  0.00     0.208 A 
ATOM      3  O   UNL     1     -29.300  30.802  14.800  1.00  0.00    -0.463 OA
ATOM      4  C   UNL     1     -29.029  31.505  13.701  1.00  0.00     0.147 A 
ATOM      5  C   UNL     1     -28.309  32.717  13.812  1.00  0.00     0.066 A 
ATOM      6  C   UNL     1     -27.907  33.151  15.089  1.00  0.00     0.200 A 
ATOM      7  O   UNL     1     -27.240  34.215  15.219  1.00  0.00    -0.288 OA
ATOM      8  C   UNL     1     -28.004  33.448  12.657  1.00  0.00     0.020 A 
ATOM      9  C   UNL     1     -28.389  32.975  11.407  1.00  0.00     0.047 A 
ATOM     10  C   UNL     1     -29.092  31.774  11.273  1.00  0.00     0.125 A 
ATOM     11  C   UNL     1     -29.457  31.030  12.433  1.00  0.00     0.069 A 
ENDROOT
BRANCH   1  12
ATOM     12  C   UNL     1     -27.845  32.789  17.590  1.00  0.00    -0.011 A 
ATOM     13  C   UNL     1     -28.775  33.433  18.427  1.00  0.00     0.013 A 
ATOM     14  C   UNL     1     -28.410  33.830  19.717  1.00  0.00     0.047 A 
ATOM     15  C   UNL     1     -27.115  33.595  20.186  1.00  0.00     0.115 A 
ATOM     16  C   UNL     1     -26.542  32.563  18.066  1.00  0.00     0.013 A 
ATOM     17  C   UNL     1     -26.180  32.961  19.357  1.00  0.00     0.047 A 
BRANCH  15  18
ATOM     18  O   UNL     1     -26.766  33.996  21.474  1.00  0.00    -0.508 OA
ATOM     19  H   UNL     1     -25.897  34.481  21.660  1.00  0.00     0.293 HD
ENDBRANCH  15  18
ENDBRANCH   1  12
BRANCH  11  20
ATOM     20  C   UNL     1     -30.242  29.718  12.375  1.00  0.00     0.188 C 
ATOM     21  C   UNL     1     -29.377  28.498  11.896  1.00  0.00     0.179 C 
ATOM     22  O   UNL     1     -31.436  29.888  11.626  1.00  0.00    -0.362 OA
ATOM     23  C   UNL     1     -29.790  28.006  10.495  1.00  0.00     0.177 C 
ATOM     24  C   UNL     1     -32.092  28.647  11.438  1.00  0.00     0.176 C 
ATOM     25  C   UNL     1     -31.323  27.788  10.395  1.00  0.00     0.177 C 
BRANCH  21  26
ATOM     26  O   UNL     1     -27.993  28.752  11.965  1.00  0.00    -0.387 OA
ATOM     27  H   UNL     1     -27.788  29.080  12.879  1.00  0.00     0.211 HD
ENDBRANCH  21  26
BRANCH  23  28
ATOM     28  O   UNL     1     -29.114  26.809  10.207  1.00  0.00    -0.387 OA
ATOM     29  H   UNL     1     -28.873  26.400  11.078  1.00  0.00     0.211 HD
ENDBRANCH  23  28
BRANCH  24  30
ATOM     30  C   UNL     1     -33.552  28.902  11.036  1.00  0.00     0.191 C 
BRANCH  30  31
ATOM     31  O   UNL     1     -34.187  27.693  10.715  1.00  0.00    -0.394 OA
ATOM     32  H   UNL     1     -33.835  27.010  11.344  1.00  0.00     0.210 HD
ENDBRANCH  30  31
ENDBRANCH  24  30
BRANCH  25  33
ATOM     33  O   UNL     1     -31.728  28.098   9.084  1.00  0.00    -0.388 OA
ATOM     34  H   UNL     1     -30.927  28.025   8.501  1.00  0.00     0.211 HD
ENDBRANCH  25  33
ENDBRANCH  11  20
BRANCH  10  35
ATOM     35  O   UNL     1     -29.387  31.370   9.969  1.00  0.00    -0.507 OA
ATOM     36  H   UNL     1     -28.734  31.364   9.203  1.00  0.00     0.293 HD
ENDBRANCH  10  35
TORSDOF 9
ENDMDL
MODEL 6
REMARK VINA RESULT:    -6.574     14.027     16.922
REMARK INTER + INTRA:          -9.958
REMARK INTER:                  -9.471
REMARK INTRA:                  -0.488
REMARK UNBOUND:                -1.079
REMARK SMILES O=c1c(-c2ccc(O)cc2)coc2c([C@H]3O[C@@H](CO)[C@@H](O)[C@H](O)[C@H]3O)c(O)ccc12
REMARK SMILES IDX 3 1 11 2 12 3 13 4 30 5 2 6 1 7 29 8 28 9 26 10 14 11 4 12
REMARK SMILES IDX 5 13 6 14 7 15 10 16 9 17 8 18 15 20 24 21 16 22 22 23 17 24
REMARK SMILES IDX 20 25 25 26 23 28 18 30 19 31 21 33 27 35
REMARK H PARENT 8 19 25 27 23 29 19 32 21 34 27 36
REMARK Flexibility Score: inf
ROOT
ATOM      1  C   UNL     1     -32.263  27.979  13.463  1.00  0.00     0.065 A 
ATOM      2  C   UNL     1     -31.446  29.074  13.150  1.00  0.00     0.208 A 
ATOM      3  O   UNL     1     -30.619  29.586  14.052  1.00  0.00    -0.463 OA
ATOM      4  C   UNL     1     -30.502  29.112  15.292  1.00  0.00     0.147 A 
ATOM      5  C   UNL     1     -31.280  28.000  15.686  1.00  0.00     0.066 A 
ATOM      6  C   UNL     1     -32.168  27.430  14.755  1.00  0.00     0.200 A 
ATOM      7  O   UNL     1     -32.857  26.419  15.067  1.00  0.00    -0.288 OA
ATOM      8  C   UNL     1     -31.145  27.486  16.982  1.00  0.00     0.020 A 
ATOM      9  C   UNL     1     -30.235  28.053  17.868  1.00  0.00     0.047 A 
ATOM     10  C   UNL     1     -29.448  29.146  17.496  1.00  0.00     0.125 A 
ATOM     11  C   UNL     1     -29.596  29.721  16.200  1.00  0.00     0.069 A 
ENDROOT
BRANCH   1  12
ATOM     12  C   UNL     1     -33.188  27.428  12.441  1.00  0.00    -0.011 A 
ATOM     13  C   UNL     1     -32.693  26.631  11.392  1.00  0.00     0.013 A 
ATOM     14  C   UNL     1     -33.560  26.118  10.423  1.00  0.00     0.047 A 
ATOM     15  C   UNL     1     -34.929  26.397  10.485  1.00  0.00     0.115 A 
ATOM     16  C   UNL     1     -34.564  27.710  12.493  1.00  0.00     0.013 A 
ATOM     17  C   UNL     1     -35.429  27.195  11.521  1.00  0.00     0.047 A 
BRANCH  15  18
ATOM     18  O   UNL     1     -35.781  25.879   9.512  1.00  0.00    -0.508 OA
ATOM     19  H   UNL     1     -36.710  25.550   9.743  1.00  0.00     0.293 HD
ENDBRANCH  15  18
ENDBRANCH   1  12
BRANCH  11  20
ATOM     20  C   UNL     1     -28.787  30.930  15.721  1.00  0.00     0.188 C 
ATOM     21  C   UNL     1     -29.618  32.261  15.697  1.00  0.00     0.179 C 
ATOM     22  O   UNL     1     -28.151  30.641  14.486  1.00  0.00    -0.362 OA
ATOM     23  C   UNL     1     -29.894  32.748  14.260  1.00  0.00     0.177 C 
ATOM     24  C   UNL     1     -27.526  31.799  13.961  1.00  0.00     0.176 C 
ATOM     25  C   UNL     1     -28.598  32.781  13.409  1.00  0.00     0.177 C 
BRANCH  21  26
ATOM     26  O   UNL     1     -30.807  32.175  16.448  1.00  0.00    -0.387 OA
ATOM     27  H   UNL     1     -30.638  32.586  17.335  1.00  0.00     0.211 HD
ENDBRANCH  21  26
BRANCH  23  28
ATOM     28  O   UNL     1     -30.471  34.028  14.308  1.00  0.00    -0.387 OA
ATOM     29  H   UNL     1     -30.395  34.341  15.247  1.00  0.00     0.211 HD
ENDBRANCH  23  28
BRANCH  24  30
ATOM     30  C   UNL     1     -26.499  31.382  12.898  1.00  0.00     0.191 C 
BRANCH  30  31
ATOM     31  O   UNL     1     -26.348  29.988  12.886  1.00  0.00    -0.394 OA
ATOM     32  H   UNL     1     -25.663  29.781  12.196  1.00  0.00     0.210 HD
ENDBRANCH  30  31
ENDBRANCH  24  30
BRANCH  25  33
ATOM     33  O   UNL     1     -28.935  32.470  12.079  1.00  0.00    -0.388 OA
ATOM     34  H   UNL     1     -28.140  32.670  11.518  1.00  0.00     0.211 HD
ENDBRANCH  25  33
ENDBRANCH  11  20
BRANCH  10  35
ATOM     35  O   UNL     1     -28.536  29.607  18.449  1.00  0.00    -0.507 OA
ATOM     36  H   UNL     1     -27.568  29.336  18.501  1.00  0.00     0.293 HD
ENDBRANCH  10  35
TORSDOF 9
ENDMDL
MODEL 7
REMARK VINA RESULT:    -6.501     13.117     14.970
REMARK INTER + INTRA:          -9.860
REMARK INTER:                  -8.581
REMARK INTRA:                  -1.279
REMARK UNBOUND:                -1.079
REMARK SMILES O=c1c(-c2ccc(O)cc2)coc2c([C@H]3O[C@@H](CO)[C@@H](O)[C@H](O)[C@H]3O)c(O)ccc12
REMARK SMILES IDX 3 1 11 2 12 3 13 4 30 5 2 6 1 7 29 8 28 9 26 10 14 11 4 12
REMARK SMILES IDX 5 13 6 14 7 15 10 16 9 17 8 18 15 20 24 21 16 22 22 23 17 24
REMARK SMILES IDX 20 25 25 26 23 28 18 30 19 31 21 33 27 35
REMARK H PARENT 8 19 25 27 23 29 19 32 21 34 27 36
REMARK Flexibility Score: inf
ROOT
ATOM      1  C   UNL     1     -27.371  31.892  17.459  1.00  0.00     0.065 A 
ATOM      2  C   UNL     1     -27.056  32.465  16.219  1.00  0.00     0.208 A 
ATOM      3  O   UNL     1     -27.600  32.007  15.098  1.00  0.00    -0.463 OA
ATOM      4  C   UNL     1     -28.465  30.995  15.065  1.00  0.00     0.147 A 
ATOM      5  C   UNL     1     -28.848  30.368  16.273  1.00  0.00     0.066 A 
ATOM      6  C   UNL     1     -28.292  30.829  17.481  1.00  0.00     0.200 A 
ATOM      7  O   UNL     1     -28.633  30.308  18.579  1.00  0.00    -0.288 OA
ATOM      8  C   UNL     1     -29.773  29.317  16.244  1.00  0.00     0.020 A 
ATOM      9  C   UNL     1     -30.328  28.907  15.037  1.00  0.00     0.047 A 
ATOM     10  C   UNL     1     -29.972  29.519  13.832  1.00  0.00     0.125 A 
ATOM     11  C   UNL     1     -28.999  30.560  13.823  1.00  0.00     0.069 A 
ENDROOT
BRANCH   1  12
ATOM     12  C   UNL     1     -26.743  32.414  18.698  1.00  0.00    -0.011 A 
ATOM     13  C   UNL     1     -25.485  31.939  19.111  1.00  0.00     0.013 A 
ATOM     14  C   UNL     1     -24.896  32.423  20.282  1.00  0.00     0.047 A 
ATOM     15  C   UNL     1     -25.554  33.381  21.058  1.00  0.00     0.115 A 
ATOM     16  C   UNL     1     -27.403  33.373  19.487  1.00  0.00     0.013 A 
ATOM     17  C   UNL     1     -26.810  33.854  20.659  1.00  0.00     0.047 A 
BRANCH  15  18
ATOM     18  O   UNL     1     -24.954  33.854  22.223  1.00  0.00    -0.508 OA
ATOM     19  H   UNL     1     -25.241  34.727  22.650  1.00  0.00     0.293 HD
ENDBRANCH  15  18
ENDBRANCH   1  12
BRANCH  11  20
ATOM     20  C   UNL     1     -28.540  31.269  12.546  1.00  0.00     0.188 C 
ATOM     21  C   UNL     1     -29.558  32.350  12.037  1.00  0.00     0.179 C 
ATOM     22  O   UNL     1     -28.186  30.318  11.552  1.00  0.00    -0.362 OA
ATOM     23  C   UNL     1     -30.252  31.925  10.728  1.00  0.00     0.177 C 
ATOM     24  C   UNL     1     -27.906  30.960  10.322  1.00  0.00     0.176 C 
ATOM     25  C   UNL     1     -29.226  31.454   9.664  1.00  0.00     0.177 C 
BRANCH  21  26
ATOM     26  O   UNL     1     -30.497  32.719  13.020  1.00  0.00    -0.387 OA
ATOM     27  H   UNL     1     -30.302  33.654  13.292  1.00  0.00     0.211 HD
ENDBRANCH  21  26
BRANCH  23  28
ATOM     28  O   UNL     1     -31.000  33.004  10.229  1.00  0.00    -0.387 OA
ATOM     29  H   UNL     1     -31.790  32.616   9.769  1.00  0.00     0.211 HD
ENDBRANCH  23  28
BRANCH  24  30
ATOM     30  C   UNL     1     -27.116  30.001   9.419  1.00  0.00     0.191 C 
BRANCH  30  31
ATOM     31  O   UNL     1     -27.525  28.677   9.638  1.00  0.00    -0.394 OA
ATOM     32  H   UNL     1     -27.521  28.228   8.751  1.00  0.00     0.210 HD
ENDBRANCH  30  31
ENDBRANCH  24  30
BRANCH  25  33
ATOM     33  O   UNL     1     -29.822  30.437   8.895  1.00  0.00    -0.388 OA
ATOM     34  H   UNL     1     -30.769  30.696   8.745  1.00  0.00     0.211 HD
ENDBRANCH  25  33
ENDBRANCH  11  20
BRANCH  10  35
ATOM     35  O   UNL     1     -30.625  29.059  12.685  1.00  0.00    -0.507 OA
ATOM     36  H   UNL     1     -30.173  28.630  11.895  1.00  0.00     0.293 HD
ENDBRANCH  10  35
TORSDOF 9
ENDMDL
MODEL 8
REMARK VINA RESULT:    -6.498     12.390     14.517
REMARK INTER + INTRA:          -9.856
REMARK INTER:                  -8.790
REMARK INTRA:                  -1.066
REMARK UNBOUND:                -1.079
REMARK SMILES O=c1c(-c2ccc(O)cc2)coc2c([C@H]3O[C@@H](CO)[C@@H](O)[C@H](O)[C@H]3O)c(O)ccc12
REMARK SMILES IDX 3 1 11 2 12 3 13 4 30 5 2 6 1 7 29 8 28 9 26 10 14 11 4 12
REMARK SMILES IDX 5 13 6 14 7 15 10 16 9 17 8 18 15 20 24 21 16 22 22 23 17 24
REMARK SMILES IDX 20 25 25 26 23 28 18 30 19 31 21 33 27 35
REMARK H PARENT 8 19 25 27 23 29 19 32 21 34 27 36
REMARK Flexibility Score: inf
ROOT
ATOM      1  C   UNL     1     -27.028  32.723  18.891  1.00  0.00     0.065 A 
ATOM      2  C   UNL     1     -26.289  32.210  17.816  1.00  0.00     0.208 A 
ATOM      3  O   UNL     1     -26.786  32.208  16.585  1.00  0.00    -0.463 OA
ATOM      4  C   UNL     1     -27.993  32.684  16.283  1.00  0.00     0.147 A 
ATOM      5  C   UNL     1     -28.800  33.233  17.306  1.00  0.00     0.066 A 
ATOM      6  C   UNL     1     -28.305  33.252  18.623  1.00  0.00     0.200 A 
ATOM      7  O   UNL     1     -28.989  33.759  19.555  1.00  0.00    -0.288 OA
ATOM      8  C   UNL     1     -30.061  33.753  16.988  1.00  0.00     0.020 A 
ATOM      9  C   UNL     1     -30.508  33.748  15.671  1.00  0.00     0.047 A 
ATOM     10  C   UNL     1     -29.723  33.220  14.643  1.00  0.00     0.125 A 
ATOM     11  C   UNL     1     -28.455  32.642  14.941  1.00  0.00     0.069 A 
ENDROOT
BRANCH   1  12
ATOM     12  C   UNL     1     -26.457  32.705  20.260  1.00  0.00    -0.011 A 
ATOM     13  C   UNL     1     -26.756  31.649  21.140  1.00  0.00     0.013 A 
ATOM     14  C   UNL     1     -26.226  31.633  22.434  1.00  0.00     0.047 A 
ATOM     15  C   UNL     1     -25.396  32.672  22.867  1.00  0.00     0.115 A 
ATOM     16  C   UNL     1     -25.627  33.749  20.705  1.00  0.00     0.013 A 
ATOM     17  C   UNL     1     -25.099  33.731  22.000  1.00  0.00     0.047 A 
BRANCH  15  18
ATOM     18  O   UNL     1     -24.876  32.643  24.158  1.00  0.00    -0.508 OA
ATOM     19  H   UNL     1     -25.478  32.587  24.971  1.00  0.00     0.293 HD
ENDBRANCH  15  18
ENDBRANCH   1  12
BRANCH  11  20
ATOM     20  C   UNL     1     -27.543  32.026  13.877  1.00  0.00     0.188 C 
ATOM     21  C   UNL     1     -26.573  33.067  13.213  1.00  0.00     0.179 C 
ATOM     22  O   UNL     1     -28.309  31.291  12.934  1.00  0.00    -0.362 OA
ATOM     23  C   UNL     1     -26.942  33.351  11.744  1.00  0.00     0.177 C 
ATOM     24  C   UNL     1     -27.494  30.846  11.865  1.00  0.00     0.176 C 
ATOM     25  C   UNL     1     -27.129  32.039  10.937  1.00  0.00     0.177 C 
BRANCH  21  26
ATOM     26  O   UNL     1     -26.463  34.259  13.955  1.00  0.00    -0.387 OA
ATOM     27  H   UNL     1     -26.601  35.020  13.333  1.00  0.00     0.211 HD
ENDBRANCH  21  26
BRANCH  23  28
ATOM     28  O   UNL     1     -25.936  34.137  11.158  1.00  0.00    -0.387 OA
ATOM     29  H   UNL     1     -25.424  34.548  11.901  1.00  0.00     0.211 HD
ENDBRANCH  23  28
BRANCH  24  30
ATOM     30  C   UNL     1     -28.214  29.713  11.118  1.00  0.00     0.191 C 
BRANCH  30  31
ATOM     31  O   UNL     1     -28.189  28.535  11.879  1.00  0.00    -0.394 OA
ATOM     32  H   UNL     1     -28.049  27.786  11.241  1.00  0.00     0.210 HD
ENDBRANCH  30  31
ENDBRANCH  24  30
BRANCH  25  33
ATOM     33  O   UNL     1     -28.126  32.254   9.969  1.00  0.00    -0.388 OA
ATOM     34  H   UNL     1     -29.004  32.202  10.432  1.00  0.00     0.211 HD
ENDBRANCH  25  33
ENDBRANCH  11  20
BRANCH  10  35
ATOM     35  O   UNL     1     -30.250  33.309  13.352  1.00  0.00    -0.507 OA
ATOM     36  H   UNL     1     -30.220  34.129  12.769  1.00  0.00     0.293 HD
ENDBRANCH  10  35
TORSDOF 9
ENDMDL
MODEL 9
REMARK VINA RESULT:    -6.379     12.939     16.093
REMARK INTER + INTRA:          -9.695
REMARK INTER:                  -8.962
REMARK INTRA:                  -0.733
REMARK UNBOUND:                -1.079
REMARK SMILES O=c1c(-c2ccc(O)cc2)coc2c([C@H]3O[C@@H](CO)[C@@H](O)[C@H](O)[C@H]3O)c(O)ccc12
REMARK SMILES IDX 3 1 11 2 12 3 13 4 30 5 2 6 1 7 29 8 28 9 26 10 14 11 4 12
REMARK SMILES IDX 5 13 6 14 7 15 10 16 9 17 8 18 15 20 24 21 16 22 22 23 17 24
REMARK SMILES IDX 20 25 25 26 23 28 18 30 19 31 21 33 27 35
REMARK H PARENT 8 19 25 27 23 29 19 32 21 34 27 36
REMARK Flexibility Score: inf
ROOT
ATOM      1  C   UNL     1     -30.824  29.786  11.594  1.00  0.00     0.065 A 
ATOM      2  C   UNL     1     -30.265  30.145  12.829  1.00  0.00     0.208 A 
ATOM      3  O   UNL     1     -29.263  31.011  12.897  1.00  0.00    -0.463 OA
ATOM      4  C   UNL     1     -28.725  31.594  11.827  1.00  0.00     0.147 A 
ATOM      5  C   UNL     1     -29.238  31.299  10.543  1.00  0.00     0.066 A 
ATOM      6  C   UNL     1     -30.302  30.385  10.433  1.00  0.00     0.200 A 
ATOM      7  O   UNL     1     -30.801  30.119   9.304  1.00  0.00    -0.288 OA
ATOM      8  C   UNL     1     -28.689  31.925   9.417  1.00  0.00     0.020 A 
ATOM      9  C   UNL     1     -27.658  32.848   9.563  1.00  0.00     0.047 A 
ATOM     10  C   UNL     1     -27.143  33.163  10.823  1.00  0.00     0.125 A 
ATOM     11  C   UNL     1     -27.649  32.508  11.984  1.00  0.00     0.069 A 
ENDROOT
BRANCH   1  12
ATOM     12  C   UNL     1     -31.939  28.807  11.541  1.00  0.00    -0.011 A 
ATOM     13  C   UNL     1     -33.267  29.234  11.722  1.00  0.00     0.013 A 
ATOM     14  C   UNL     1     -34.318  28.313  11.682  1.00  0.00     0.047 A 
ATOM     15  C   UNL     1     -34.058  26.957  11.466  1.00  0.00     0.115 A 
ATOM     16  C   UNL     1     -31.684  27.441  11.332  1.00  0.00     0.013 A 
ATOM     17  C   UNL     1     -32.738  26.522  11.292  1.00  0.00     0.047 A 
BRANCH  15  18
ATOM     18  O   UNL     1     -35.115  26.051  11.428  1.00  0.00    -0.508 OA
ATOM     19  H   UNL     1     -36.058  26.327  11.676  1.00  0.00     0.293 HD
ENDBRANCH  15  18
ENDBRANCH   1  12
BRANCH  11  20
ATOM     20  C   UNL     1     -27.127  32.781  13.396  1.00  0.00     0.188 C 
ATOM     21  C   UNL     1     -26.015  31.771  13.853  1.00  0.00     0.179 C 
ATOM     22  O   UNL     1     -28.207  32.880  14.313  1.00  0.00    -0.362 OA
ATOM     23  C   UNL     1     -26.510  30.824  14.963  1.00  0.00     0.177 C 
ATOM     24  C   UNL     1     -27.728  32.981  15.642  1.00  0.00     0.176 C 
ATOM     25  C   UNL     1     -27.185  31.605  16.121  1.00  0.00     0.177 C 
BRANCH  21  26
ATOM     26  O   UNL     1     -25.457  31.054  12.776  1.00  0.00    -0.387 OA
ATOM     27  H   UNL     1     -24.499  30.893  12.980  1.00  0.00     0.211 HD
ENDBRANCH  21  26
BRANCH  23  28
ATOM     28  O   UNL     1     -25.425  30.080  15.455  1.00  0.00    -0.387 OA
ATOM     29  H   UNL     1     -24.723  30.733  15.712  1.00  0.00     0.211 HD
ENDBRANCH  23  28
BRANCH  24  30
ATOM     30  C   UNL     1     -28.848  33.524  16.543  1.00  0.00     0.191 C 
BRANCH  30  31
ATOM     31  O   UNL     1     -30.090  33.015  16.137  1.00  0.00    -0.394 OA
ATOM     32  H   UNL     1     -30.714  33.787  16.091  1.00  0.00     0.210 HD
ENDBRANCH  30  31
ENDBRANCH  24  30
BRANCH  25  33
ATOM     33  O   UNL     1     -28.218  30.808  16.649  1.00  0.00    -0.388 OA
ATOM     34  H   UNL     1     -28.341  30.037  16.034  1.00  0.00     0.211 HD
ENDBRANCH  25  33
ENDBRANCH  11  20
BRANCH  10  35
ATOM     35  O   UNL     1     -26.141  34.137  10.858  1.00  0.00    -0.507 OA
ATOM     36  H   UNL     1     -25.934  34.726  11.647  1.00  0.00     0.293 HD
ENDBRANCH  10  35
TORSDOF 9
ENDMDL
