MODEL 1
REMARK VINA RESULT:    -4.783      0.000      0.000
REMARK INTER + INTRA:         -18.942
REMARK INTER:                 -12.613
REMARK INTRA:                  -6.329
REMARK UNBOUND:                -6.329
REMARK SMILES CCCCCCCCCCCCCCCCCCCCCCCCCCCCCC(=O)[O-]
REMARK SMILES IDX 16 1 17 2 18 3 19 4 20 5 21 6 22 7 23 8 24 9 25 10 26 11
REMARK SMILES IDX 27 12 28 13 29 14 30 15 31 16 32 17 15 18 14 19 13 20 12 21
REMARK SMILES IDX 11 22 10 23 9 24 8 25 7 26 6 27 5 28 4 29 3 30 2 31 1 32
REMARK H PARENT
REMARK Flexibility Score: inf
ROOT
ATOM      1  C   UNL     1      13.586 -29.426  22.614  1.00  0.00     0.000 C 
ENDROOT
BRANCH   1   2
ATOM      2  C   UNL     1      15.095 -29.221  22.356  1.00  0.00     0.000 C 
BRANCH   2   3
ATOM      3  C   UNL     1      15.995 -30.199  23.134  1.00  0.00     0.000 C 
BRANCH   3   4
ATOM      4  C   UNL     1      17.318 -30.552  22.434  1.00  0.00     0.000 C 
BRANCH   4   5
ATOM      5  C   UNL     1      17.145 -30.807  20.929  1.00  0.00     0.000 C 
BRANCH   5   6
ATOM      6  C   UNL     1      18.201 -31.798  20.418  1.00  0.00     0.000 C 
BRANCH   6   7
ATOM      7  C   UNL     1      18.709 -32.747  21.515  1.00  0.00     0.000 C 
BRANCH   7   8
ATOM      8  C   UNL     1      20.173 -33.169  21.300  1.00  0.00     0.000 C 
BRANCH   8   9
ATOM      9  C   UNL     1      20.952 -33.285  22.620  1.00  0.00     0.000 C 
BRANCH   9  10
ATOM     10  C   UNL     1      20.193 -32.664  23.805  1.00  0.00     0.000 C 
BRANCH  10  11
ATOM     11  C   UNL     1      20.506 -31.169  23.997  1.00  0.00     0.000 C 
BRANCH  11  12
ATOM     12  C   UNL     1      21.873 -30.707  23.457  1.00  0.00     0.000 C 
BRANCH  12  13
ATOM     13  C   UNL     1      21.845 -29.437  22.586  1.00  0.00     0.006 C 
BRANCH  13  14
ATOM     14  C   UNL     1      20.759 -29.451  21.493  1.00  0.00     0.053 C 
BRANCH  14  15
ATOM     15  C   UNL     1      20.195 -28.086  21.238  1.00  0.00     0.041 C 
ATOM     16  O   UNL     1      19.145 -27.947  20.559  1.00  0.00    -0.550 OA
ATOM     17  O   UNL     1      20.819 -26.965  21.772  1.00  0.00    -0.550 OA
ENDBRANCH  14  15
ENDBRANCH  13  14
ENDBRANCH  12  13
ENDBRANCH  11  12
ENDBRANCH  10  11
ENDBRANCH   9  10
ENDBRANCH   8   9
ENDBRANCH   7   8
ENDBRANCH   6   7
ENDBRANCH   5   6
ENDBRANCH   4   5
ENDBRANCH   3   4
ENDBRANCH   2   3
ENDBRANCH   1   2
BRANCH   1  18
ATOM     18  C   UNL     1      13.156 -30.889  22.408  1.00  0.00     0.000 C 
BRANCH  18  19
ATOM     19  C   UNL     1      12.876 -31.224  20.927  1.00  0.00     0.000 C 
BRANCH  19  20
ATOM     20  C   UNL     1      13.766 -32.346  20.358  1.00  0.00     0.000 C 
BRANCH  20  21
ATOM     21  C   UNL     1      14.594 -33.126  21.399  1.00  0.00     0.000 C 
BRANCH  21  22
ATOM     22  C   UNL     1      15.226 -34.434  20.886  1.00  0.00     0.000 C 
BRANCH  22  23
ATOM     23  C   UNL     1      15.748 -34.317  19.443  1.00  0.00     0.000 C 
BRANCH  23  24
ATOM     24  C   UNL     1      17.013 -35.155  19.200  1.00  0.00    -0.000 C 
BRANCH  24  25
ATOM     25  C   UNL     1      16.747 -36.668  19.232  1.00  0.00    -0.000 C 
BRANCH  25  26
ATOM     26  C   UNL     1      17.675 -37.368  20.237  1.00  0.00    -0.000 C 
BRANCH  26  27
ATOM     27  C   UNL     1      18.371 -36.368  21.187  1.00  0.00    -0.000 C 
BRANCH  27  28
ATOM     28  C   UNL     1      19.059 -37.035  22.389  1.00  0.00    -0.000 C 
BRANCH  28  29
ATOM     29  C   UNL     1      18.509 -36.546  23.739  1.00  0.00    -0.000 C 
BRANCH  29  30
ATOM     30  C   UNL     1      17.389 -35.506  23.580  1.00  0.00    -0.000 C 
BRANCH  30  31
ATOM     31  C   UNL     1      17.401 -34.447  24.692  1.00  0.00    -0.003 C 
ATOM     32  C   UNL     1      16.138 -33.593  24.652  1.00  0.00     0.004 C 
ENDBRANCH  30  31
ENDBRANCH  29  30
ENDBRANCH  28  29
ENDBRANCH  27  28
ENDBRANCH  26  27
ENDBRANCH  25  26
ENDBRANCH  24  25
ENDBRANCH  23  24
ENDBRANCH  22  23
ENDBRANCH  21  22
ENDBRANCH  20  21
ENDBRANCH  19  20
ENDBRANCH  18  19
ENDBRANCH   1  18
TORSDOF 28
ENDMDL
MODEL 2
REMARK VINA RESULT:    -4.641      1.802      3.338
REMARK INTER + INTRA:         -18.566
REMARK INTER:                 -13.939
REMARK INTRA:                  -4.627
REMARK UNBOUND:                -6.329
REMARK SMILES CCCCCCCCCCCCCCCCCCCCCCCCCCCCCC(=O)[O-]
REMARK SMILES IDX 16 1 17 2 18 3 19 4 20 5 21 6 22 7 23 8 24 9 25 10 26 11
REMARK SMILES IDX 27 12 28 13 29 14 30 15 31 16 32 17 15 18 14 19 13 20 12 21
REMARK SMILES IDX 11 22 10 23 9 24 8 25 7 26 6 27 5 28 4 29 3 30 2 31 1 32
REMARK H PARENT
REMARK Flexibility Score: inf
ROOT
ATOM      1  C   UNL     1      14.398 -32.760  23.553  1.00  0.00     0.000 C 
ENDROOT
BRANCH   1   2
ATOM      2  C   UNL     1      13.320 -31.713  23.194  1.00  0.00     0.000 C 
BRANCH   2   3
ATOM      3  C   UNL     1      13.705 -30.271  23.579  1.00  0.00     0.000 C 
BRANCH   3   4
ATOM      4  C   UNL     1      13.943 -29.329  22.386  1.00  0.00     0.000 C 
BRANCH   4   5
ATOM      5  C   UNL     1      15.260 -29.620  21.651  1.00  0.00     0.000 C 
BRANCH   5   6
ATOM      6  C   UNL     1      16.404 -29.848  22.650  1.00  0.00     0.000 C 
BRANCH   6   7
ATOM      7  C   UNL     1      17.443 -30.861  22.145  1.00  0.00     0.000 C 
BRANCH   7   8
ATOM      8  C   UNL     1      18.232 -30.344  20.929  1.00  0.00     0.000 C 
BRANCH   8   9
ATOM      9  C   UNL     1      19.739 -30.226  21.213  1.00  0.00     0.000 C 
BRANCH   9  10
ATOM     10  C   UNL     1      20.307 -28.855  20.809  1.00  0.00     0.000 C 
BRANCH  10  11
ATOM     11  C   UNL     1      19.268 -27.723  20.917  1.00  0.00     0.000 C 
BRANCH  11  12
ATOM     12  C   UNL     1      19.847 -26.324  21.200  1.00  0.00     0.000 C 
BRANCH  12  13
ATOM     13  C   UNL     1      20.623 -25.680  20.035  1.00  0.00     0.006 C 
BRANCH  13  14
ATOM     14  C   UNL     1      22.060 -25.260  20.397  1.00  0.00     0.053 C 
BRANCH  14  15
ATOM     15  C   UNL     1      23.023 -26.406  20.318  1.00  0.00     0.041 C 
ATOM     16  O   UNL     1      23.525 -26.742  19.215  1.00  0.00    -0.550 OA
ATOM     17  O   UNL     1      23.384 -27.089  21.473  1.00  0.00    -0.550 OA
ENDBRANCH  14  15
ENDBRANCH  13  14
ENDBRANCH  12  13
ENDBRANCH  11  12
ENDBRANCH  10  11
ENDBRANCH   9  10
ENDBRANCH   8   9
ENDBRANCH   7   8
ENDBRANCH   6   7
ENDBRANCH   5   6
ENDBRANCH   4   5
ENDBRANCH   3   4
ENDBRANCH   2   3
ENDBRANCH   1   2
BRANCH   1  18
ATOM     18  C   UNL     1      14.955 -33.470  22.305  1.00  0.00     0.000 C 
BRANCH  18  19
ATOM     19  C   UNL     1      14.298 -32.978  20.997  1.00  0.00     0.000 C 
BRANCH  19  20
ATOM     20  C   UNL     1      14.721 -33.772  19.746  1.00  0.00     0.000 C 
BRANCH  20  21
ATOM     21  C   UNL     1      15.488 -35.081  20.021  1.00  0.00     0.000 C 
BRANCH  21  22
ATOM     22  C   UNL     1      16.711 -35.325  19.117  1.00  0.00     0.000 C 
BRANCH  22  23
ATOM     23  C   UNL     1      17.457 -34.027  18.759  1.00  0.00     0.000 C 
BRANCH  23  24
ATOM     24  C   UNL     1      18.781 -33.873  19.523  1.00  0.00    -0.000 C 
BRANCH  24  25
ATOM     25  C   UNL     1      18.628 -34.082  21.038  1.00  0.00    -0.000 C 
BRANCH  25  26
ATOM     26  C   UNL     1      19.965 -33.860  21.760  1.00  0.00    -0.000 C 
BRANCH  26  27
ATOM     27  C   UNL     1      20.444 -35.122  22.510  1.00  0.00    -0.000 C 
BRANCH  27  28
ATOM     28  C   UNL     1      20.926 -34.845  23.944  1.00  0.00    -0.000 C 
BRANCH  28  29
ATOM     29  C   UNL     1      19.833 -35.083  24.998  1.00  0.00    -0.000 C 
BRANCH  29  30
ATOM     30  C   UNL     1      18.960 -33.840  25.237  1.00  0.00    -0.000 C 
BRANCH  30  31
ATOM     31  C   UNL     1      17.460 -34.137  25.106  1.00  0.00    -0.003 C 
ATOM     32  C   UNL     1      17.222 -35.512  24.490  1.00  0.00     0.004 C 
ENDBRANCH  30  31
ENDBRANCH  29  30
ENDBRANCH  28  29
ENDBRANCH  27  28
ENDBRANCH  26  27
ENDBRANCH  25  26
ENDBRANCH  24  25
ENDBRANCH  23  24
ENDBRANCH  22  23
ENDBRANCH  21  22
ENDBRANCH  20  21
ENDBRANCH  19  20
ENDBRANCH  18  19
ENDBRANCH   1  18
TORSDOF 28
ENDMDL
MODEL 3
REMARK VINA RESULT:    -4.621      1.460      3.167
REMARK INTER + INTRA:         -18.514
REMARK INTER:                 -12.975
REMARK INTRA:                  -5.540
REMARK UNBOUND:                -6.329
REMARK SMILES CCCCCCCCCCCCCCCCCCCCCCCCCCCCCC(=O)[O-]
REMARK SMILES IDX 16 1 17 2 18 3 19 4 20 5 21 6 22 7 23 8 24 9 25 10 26 11
REMARK SMILES IDX 27 12 28 13 29 14 30 15 31 16 32 17 15 18 14 19 13 20 12 21
REMARK SMILES IDX 11 22 10 23 9 24 8 25 7 26 6 27 5 28 4 29 3 30 2 31 1 32
REMARK H PARENT
REMARK Flexibility Score: inf
ROOT
ATOM      1  C   UNL     1      14.301 -32.524  23.591  1.00  0.00     0.000 C 
ENDROOT
BRANCH   1   2
ATOM      2  C   UNL     1      13.454 -31.489  22.818  1.00  0.00     0.000 C 
BRANCH   2   3
ATOM      3  C   UNL     1      13.466 -30.084  23.449  1.00  0.00     0.000 C 
BRANCH   3   4
ATOM      4  C   UNL     1      14.408 -29.079  22.763  1.00  0.00     0.000 C 
BRANCH   4   5
ATOM      5  C   UNL     1      15.145 -29.682  21.557  1.00  0.00     0.000 C 
BRANCH   5   6
ATOM      6  C   UNL     1      16.602 -30.008  21.915  1.00  0.00     0.000 C 
BRANCH   6   7
ATOM      7  C   UNL     1      17.313 -30.832  20.830  1.00  0.00     0.000 C 
BRANCH   7   8
ATOM      8  C   UNL     1      18.177 -31.962  21.417  1.00  0.00     0.000 C 
BRANCH   8   9
ATOM      9  C   UNL     1      19.542 -32.080  20.720  1.00  0.00     0.000 C 
BRANCH   9  10
ATOM     10  C   UNL     1      20.713 -31.761  21.664  1.00  0.00     0.000 C 
BRANCH  10  11
ATOM     11  C   UNL     1      20.866 -30.254  21.938  1.00  0.00     0.000 C 
BRANCH  11  12
ATOM     12  C   UNL     1      20.650 -29.337  20.719  1.00  0.00     0.000 C 
BRANCH  12  13
ATOM     13  C   UNL     1      20.946 -27.843  20.953  1.00  0.00     0.006 C 
BRANCH  13  14
ATOM     14  C   UNL     1      22.116 -27.582  21.921  1.00  0.00     0.053 C 
BRANCH  14  15
ATOM     15  C   UNL     1      21.781 -26.542  22.947  1.00  0.00     0.041 C 
ATOM     16  O   UNL     1      21.187 -25.485  22.614  1.00  0.00    -0.550 OA
ATOM     17  O   UNL     1      22.105 -26.755  24.282  1.00  0.00    -0.550 OA
ENDBRANCH  14  15
ENDBRANCH  13  14
ENDBRANCH  12  13
ENDBRANCH  11  12
ENDBRANCH  10  11
ENDBRANCH   9  10
ENDBRANCH   8   9
ENDBRANCH   7   8
ENDBRANCH   6   7
ENDBRANCH   5   6
ENDBRANCH   4   5
ENDBRANCH   3   4
ENDBRANCH   2   3
ENDBRANCH   1   2
BRANCH   1  18
ATOM     18  C   UNL     1      14.992 -33.527  22.650  1.00  0.00     0.000 C 
BRANCH  18  19
ATOM     19  C   UNL     1      14.615 -33.311  21.168  1.00  0.00     0.000 C 
BRANCH  19  20
ATOM     20  C   UNL     1      15.056 -34.456  20.236  1.00  0.00     0.000 C 
BRANCH  20  21
ATOM     21  C   UNL     1      16.214 -34.119  19.275  1.00  0.00     0.000 C 
BRANCH  21  22
ATOM     22  C   UNL     1      17.412 -35.085  19.331  1.00  0.00     0.000 C 
BRANCH  22  23
ATOM     23  C   UNL     1      17.103 -36.375  20.110  1.00  0.00     0.000 C 
BRANCH  23  24
ATOM     24  C   UNL     1      18.130 -36.662  21.216  1.00  0.00    -0.000 C 
BRANCH  24  25
ATOM     25  C   UNL     1      18.126 -35.605  22.331  1.00  0.00    -0.000 C 
BRANCH  25  26
ATOM     26  C   UNL     1      17.813 -36.243  23.692  1.00  0.00    -0.000 C 
BRANCH  26  27
ATOM     27  C   UNL     1      18.041 -35.265  24.865  1.00  0.00    -0.000 C 
BRANCH  27  28
ATOM     28  C   UNL     1      18.483 -33.860  24.422  1.00  0.00    -0.000 C 
BRANCH  28  29
ATOM     29  C   UNL     1      17.674 -32.740  25.096  1.00  0.00    -0.000 C 
BRANCH  29  30
ATOM     30  C   UNL     1      18.413 -31.392  25.092  1.00  0.00    -0.000 C 
BRANCH  30  31
ATOM     31  C   UNL     1      19.916 -31.541  25.368  1.00  0.00    -0.003 C 
ATOM     32  C   UNL     1      20.243 -31.219  26.824  1.00  0.00     0.004 C 
ENDBRANCH  30  31
ENDBRANCH  29  30
ENDBRANCH  28  29
ENDBRANCH  27  28
ENDBRANCH  26  27
ENDBRANCH  25  26
ENDBRANCH  24  25
ENDBRANCH  23  24
ENDBRANCH  22  23
ENDBRANCH  21  22
ENDBRANCH  20  21
ENDBRANCH  19  20
ENDBRANCH  18  19
ENDBRANCH   1  18
TORSDOF 28
ENDMDL
MODEL 4
REMARK VINA RESULT:    -4.610      2.481      6.363
REMARK INTER + INTRA:         -18.485
REMARK INTER:                 -13.108
REMARK INTRA:                  -5.378
REMARK UNBOUND:                -6.329
REMARK SMILES CCCCCCCCCCCCCCCCCCCCCCCCCCCCCC(=O)[O-]
REMARK SMILES IDX 16 1 17 2 18 3 19 4 20 5 21 6 22 7 23 8 24 9 25 10 26 11
REMARK SMILES IDX 27 12 28 13 29 14 30 15 31 16 32 17 15 18 14 19 13 20 12 21
REMARK SMILES IDX 11 22 10 23 9 24 8 25 7 26 6 27 5 28 4 29 3 30 2 31 1 32
REMARK H PARENT
REMARK Flexibility Score: inf
ROOT
ATOM      1  C   UNL     1      18.008 -36.658  21.524  1.00  0.00     0.000 C 
ENDROOT
BRANCH   1   2
ATOM      2  C   UNL     1      17.602 -37.431  20.250  1.00  0.00     0.000 C 
BRANCH   2   3
ATOM      3  C   UNL     1      17.236 -36.518  19.063  1.00  0.00     0.000 C 
BRANCH   3   4
ATOM      4  C   UNL     1      16.267 -35.373  19.407  1.00  0.00     0.000 C 
BRANCH   4   5
ATOM      5  C   UNL     1      16.827 -33.991  19.040  1.00  0.00     0.000 C 
BRANCH   5   6
ATOM      6  C   UNL     1      18.344 -34.057  18.817  1.00  0.00     0.000 C 
BRANCH   6   7
ATOM      7  C   UNL     1      19.148 -33.567  20.032  1.00  0.00     0.000 C 
BRANCH   7   8
ATOM      8  C   UNL     1      18.313 -32.683  20.975  1.00  0.00     0.000 C 
BRANCH   8   9
ATOM      9  C   UNL     1      18.815 -31.231  21.016  1.00  0.00     0.000 C 
BRANCH   9  10
ATOM     10  C   UNL     1      17.711 -30.218  20.666  1.00  0.00     0.000 C 
BRANCH  10  11
ATOM     11  C   UNL     1      16.900 -29.770  21.895  1.00  0.00     0.000 C 
BRANCH  11  12
ATOM     12  C   UNL     1      15.372 -29.745  21.702  1.00  0.00     0.000 C 
BRANCH  12  13
ATOM     13  C   UNL     1      14.540 -29.972  22.979  1.00  0.00     0.006 C 
BRANCH  13  14
ATOM     14  C   UNL     1      13.938 -31.386  23.091  1.00  0.00     0.053 C 
BRANCH  14  15
ATOM     15  C   UNL     1      13.908 -32.095  21.771  1.00  0.00     0.041 C 
ATOM     16  O   UNL     1      14.610 -33.122  21.583  1.00  0.00    -0.550 OA
ATOM     17  O   UNL     1      13.084 -31.633  20.753  1.00  0.00    -0.550 OA
ENDBRANCH  14  15
ENDBRANCH  13  14
ENDBRANCH  12  13
ENDBRANCH  11  12
ENDBRANCH  10  11
ENDBRANCH   9  10
ENDBRANCH   8   9
ENDBRANCH   7   8
ENDBRANCH   6   7
ENDBRANCH   5   6
ENDBRANCH   4   5
ENDBRANCH   3   4
ENDBRANCH   2   3
ENDBRANCH   1   2
BRANCH   1  18
ATOM     18  C   UNL     1      18.889 -37.506  22.460  1.00  0.00     0.000 C 
BRANCH  18  19
ATOM     19  C   UNL     1      20.275 -36.872  22.709  1.00  0.00     0.000 C 
BRANCH  19  20
ATOM     20  C   UNL     1      20.220 -35.394  23.142  1.00  0.00     0.000 C 
BRANCH  20  21
ATOM     21  C   UNL     1      21.165 -35.007  24.296  1.00  0.00     0.000 C 
BRANCH  21  22
ATOM     22  C   UNL     1      20.749 -33.754  25.090  1.00  0.00     0.000 C 
BRANCH  22  23
ATOM     23  C   UNL     1      20.983 -32.448  24.310  1.00  0.00     0.000 C 
BRANCH  23  24
ATOM     24  C   UNL     1      19.796 -31.478  24.406  1.00  0.00    -0.000 C 
BRANCH  24  25
ATOM     25  C   UNL     1      18.650 -32.015  25.278  1.00  0.00    -0.000 C 
BRANCH  25  26
ATOM     26  C   UNL     1      17.357 -32.153  24.461  1.00  0.00    -0.000 C 
BRANCH  26  27
ATOM     27  C   UNL     1      16.981 -33.629  24.203  1.00  0.00    -0.000 C 
BRANCH  27  28
ATOM     28  C   UNL     1      17.114 -34.527  25.444  1.00  0.00    -0.000 C 
BRANCH  28  29
ATOM     29  C   UNL     1      16.898 -36.016  25.129  1.00  0.00    -0.000 C 
BRANCH  29  30
ATOM     30  C   UNL     1      17.709 -36.940  26.051  1.00  0.00    -0.000 C 
BRANCH  30  31
ATOM     31  C   UNL     1      16.831 -37.963  26.785  1.00  0.00    -0.003 C 
ATOM     32  C   UNL     1      16.121 -37.325  27.975  1.00  0.00     0.004 C 
ENDBRANCH  30  31
ENDBRANCH  29  30
ENDBRANCH  28  29
ENDBRANCH  27  28
ENDBRANCH  26  27
ENDBRANCH  25  26
ENDBRANCH  24  25
ENDBRANCH  23  24
ENDBRANCH  22  23
ENDBRANCH  21  22
ENDBRANCH  20  21
ENDBRANCH  19  20
ENDBRANCH  18  19
ENDBRANCH   1  18
TORSDOF 28
ENDMDL
MODEL 5
REMARK VINA RESULT:    -4.602      3.288      7.450
REMARK INTER + INTRA:         -18.463
REMARK INTER:                 -14.330
REMARK INTRA:                  -4.133
REMARK UNBOUND:                -6.329
REMARK SMILES CCCCCCCCCCCCCCCCCCCCCCCCCCCCCC(=O)[O-]
REMARK SMILES IDX 16 1 17 2 18 3 19 4 20 5 21 6 22 7 23 8 24 9 25 10 26 11
REMARK SMILES IDX 27 12 28 13 29 14 30 15 31 16 32 17 15 18 14 19 13 20 12 21
REMARK SMILES IDX 11 22 10 23 9 24 8 25 7 26 6 27 5 28 4 29 3 30 2 31 1 32
REMARK H PARENT
REMARK Flexibility Score: inf
ROOT
ATOM      1  C   UNL     1      13.079 -29.474  22.792  1.00  0.00     0.000 C 
ENDROOT
BRANCH   1   2
ATOM      2  C   UNL     1      13.011 -31.015  22.706  1.00  0.00     0.000 C 
BRANCH   2   3
ATOM      3  C   UNL     1      13.902 -31.733  23.738  1.00  0.00     0.000 C 
BRANCH   3   4
ATOM      4  C   UNL     1      14.847 -32.793  23.146  1.00  0.00     0.000 C 
BRANCH   4   5
ATOM      5  C   UNL     1      14.584 -33.057  21.655  1.00  0.00     0.000 C 
BRANCH   5   6
ATOM      6  C   UNL     1      15.239 -34.373  21.210  1.00  0.00     0.000 C 
BRANCH   6   7
ATOM      7  C   UNL     1      15.568 -34.398  19.709  1.00  0.00     0.000 C 
BRANCH   7   8
ATOM      8  C   UNL     1      16.454 -35.594  19.318  1.00  0.00     0.000 C 
BRANCH   8   9
ATOM      9  C   UNL     1      17.755 -35.654  20.134  1.00  0.00     0.000 C 
BRANCH   9  10
ATOM     10  C   UNL     1      17.940 -37.005  20.846  1.00  0.00     0.000 C 
BRANCH  10  11
ATOM     11  C   UNL     1      18.796 -36.896  22.122  1.00  0.00     0.000 C 
BRANCH  11  12
ATOM     12  C   UNL     1      19.174 -35.462  22.540  1.00  0.00     0.000 C 
BRANCH  12  13
ATOM     13  C   UNL     1      18.447 -34.923  23.787  1.00  0.00     0.006 C 
BRANCH  13  14
ATOM     14  C   UNL     1      17.333 -35.849  24.312  1.00  0.00     0.053 C 
BRANCH  14  15
ATOM     15  C   UNL     1      17.719 -36.531  25.590  1.00  0.00     0.041 C 
ATOM     16  O   UNL     1      18.351 -35.907  26.480  1.00  0.00    -0.550 OA
ATOM     17  O   UNL     1      17.356 -37.855  25.807  1.00  0.00    -0.550 OA
ENDBRANCH  14  15
ENDBRANCH  13  14
ENDBRANCH  12  13
ENDBRANCH  11  12
ENDBRANCH  10  11
ENDBRANCH   9  10
ENDBRANCH   8   9
ENDBRANCH   7   8
ENDBRANCH   6   7
ENDBRANCH   5   6
ENDBRANCH   4   5
ENDBRANCH   3   4
ENDBRANCH   2   3
ENDBRANCH   1   2
BRANCH   1  18
ATOM     18  C   UNL     1      14.530 -28.960  22.840  1.00  0.00     0.000 C 
BRANCH  18  19
ATOM     19  C   UNL     1      15.348 -29.369  21.596  1.00  0.00     0.000 C 
BRANCH  19  20
ATOM     20  C   UNL     1      16.771 -29.865  21.917  1.00  0.00     0.000 C 
BRANCH  20  21
ATOM     21  C   UNL     1      17.445 -30.701  20.810  1.00  0.00     0.000 C 
BRANCH  21  22
ATOM     22  C   UNL     1      18.061 -32.033  21.280  1.00  0.00     0.000 C 
BRANCH  22  23
ATOM     23  C   UNL     1      19.594 -31.971  21.402  1.00  0.00     0.000 C 
BRANCH  23  24
ATOM     24  C   UNL     1      20.205 -30.794  20.626  1.00  0.00    -0.000 C 
BRANCH  24  25
ATOM     25  C   UNL     1      20.905 -29.773  21.536  1.00  0.00    -0.000 C 
BRANCH  25  26
ATOM     26  C   UNL     1      21.009 -28.404  20.846  1.00  0.00    -0.000 C 
BRANCH  26  27
ATOM     27  C   UNL     1      19.684 -27.613  20.908  1.00  0.00    -0.000 C 
BRANCH  27  28
ATOM     28  C   UNL     1      19.874 -26.087  20.917  1.00  0.00    -0.000 C 
BRANCH  28  29
ATOM     29  C   UNL     1      20.934 -25.611  19.910  1.00  0.00    -0.000 C 
BRANCH  29  30
ATOM     30  C   UNL     1      22.152 -24.970  20.592  1.00  0.00    -0.000 C 
BRANCH  30  31
ATOM     31  C   UNL     1      23.186 -24.445  19.585  1.00  0.00    -0.003 C 
ATOM     32  C   UNL     1      23.914 -23.221  20.131  1.00  0.00     0.004 C 
ENDBRANCH  30  31
ENDBRANCH  29  30
ENDBRANCH  28  29
ENDBRANCH  27  28
ENDBRANCH  26  27
ENDBRANCH  25  26
ENDBRANCH  24  25
ENDBRANCH  23  24
ENDBRANCH  22  23
ENDBRANCH  21  22
ENDBRANCH  20  21
ENDBRANCH  19  20
ENDBRANCH  18  19
ENDBRANCH   1  18
TORSDOF 28
ENDMDL
MODEL 6
REMARK VINA RESULT:    -4.586      2.294      5.775
REMARK INTER + INTRA:         -18.421
REMARK INTER:                 -13.203
REMARK INTRA:                  -5.218
REMARK UNBOUND:                -6.329
REMARK SMILES CCCCCCCCCCCCCCCCCCCCCCCCCCCCCC(=O)[O-]
REMARK SMILES IDX 16 1 17 2 18 3 19 4 20 5 21 6 22 7 23 8 24 9 25 10 26 11
REMARK SMILES IDX 27 12 28 13 29 14 30 15 31 16 32 17 15 18 14 19 13 20 12 21
REMARK SMILES IDX 11 22 10 23 9 24 8 25 7 26 6 27 5 28 4 29 3 30 2 31 1 32
REMARK H PARENT
REMARK Flexibility Score: inf
ROOT
ATOM      1  C   UNL     1      16.782 -31.003  23.302  1.00  0.00     0.000 C 
ENDROOT
BRANCH   1   2
ATOM      2  C   UNL     1      17.693 -30.492  22.165  1.00  0.00     0.000 C 
BRANCH   2   3
ATOM      3  C   UNL     1      17.603 -31.330  20.875  1.00  0.00     0.000 C 
BRANCH   3   4
ATOM      4  C   UNL     1      18.897 -32.074  20.500  1.00  0.00     0.000 C 
BRANCH   4   5
ATOM      5  C   UNL     1      18.702 -33.595  20.403  1.00  0.00     0.000 C 
BRANCH   5   6
ATOM      6  C   UNL     1      18.326 -34.007  18.973  1.00  0.00     0.000 C 
BRANCH   6   7
ATOM      7  C   UNL     1      16.811 -34.179  18.780  1.00  0.00     0.000 C 
BRANCH   7   8
ATOM      8  C   UNL     1      16.213 -35.242  19.719  1.00  0.00     0.000 C 
BRANCH   8   9
ATOM      9  C   UNL     1      15.248 -34.637  20.752  1.00  0.00     0.000 C 
BRANCH   9  10
ATOM     10  C   UNL     1      14.594 -33.337  20.254  1.00  0.00     0.000 C 
BRANCH  10  11
ATOM     11  C   UNL     1      14.019 -32.482  21.398  1.00  0.00     0.000 C 
BRANCH  11  12
ATOM     12  C   UNL     1      13.438 -31.120  20.974  1.00  0.00     0.000 C 
BRANCH  12  13
ATOM     13  C   UNL     1      12.507 -30.448  22.002  1.00  0.00     0.006 C 
BRANCH  13  14
ATOM     14  C   UNL     1      13.248 -29.650  23.090  1.00  0.00     0.053 C 
BRANCH  14  15
ATOM     15  C   UNL     1      12.488 -28.430  23.515  1.00  0.00     0.041 C 
ATOM     16  O   UNL     1      11.231 -28.418  23.480  1.00  0.00    -0.550 OA
ATOM     17  O   UNL     1      13.172 -27.311  23.975  1.00  0.00    -0.550 OA
ENDBRANCH  14  15
ENDBRANCH  13  14
ENDBRANCH  12  13
ENDBRANCH  11  12
ENDBRANCH  10  11
ENDBRANCH   9  10
ENDBRANCH   8   9
ENDBRANCH   7   8
ENDBRANCH   6   7
ENDBRANCH   5   6
ENDBRANCH   4   5
ENDBRANCH   3   4
ENDBRANCH   2   3
ENDBRANCH   1   2
BRANCH   1  18
ATOM     18  C   UNL     1      17.270 -32.347  23.876  1.00  0.00     0.000 C 
BRANCH  18  19
ATOM     19  C   UNL     1      16.111 -33.323  24.172  1.00  0.00     0.000 C 
BRANCH  19  20
ATOM     20  C   UNL     1      16.539 -34.802  24.245  1.00  0.00     0.000 C 
BRANCH  20  21
ATOM     21  C   UNL     1      17.353 -35.195  25.494  1.00  0.00     0.000 C 
BRANCH  21  22
ATOM     22  C   UNL     1      16.888 -36.483  26.198  1.00  0.00     0.000 C 
BRANCH  22  23
ATOM     23  C   UNL     1      17.688 -37.723  25.761  1.00  0.00     0.000 C 
BRANCH  23  24
ATOM     24  C   UNL     1      19.019 -37.363  25.083  1.00  0.00    -0.000 C 
BRANCH  24  25
ATOM     25  C   UNL     1      19.114 -37.872  23.636  1.00  0.00    -0.000 C 
BRANCH  25  26
ATOM     26  C   UNL     1      19.329 -36.708  22.658  1.00  0.00    -0.000 C 
BRANCH  26  27
ATOM     27  C   UNL     1      20.559 -35.851  23.027  1.00  0.00    -0.000 C 
BRANCH  27  28
ATOM     28  C   UNL     1      20.215 -34.393  23.376  1.00  0.00    -0.000 C 
BRANCH  28  29
ATOM     29  C   UNL     1      21.341 -33.410  23.014  1.00  0.00    -0.000 C 
BRANCH  29  30
ATOM     30  C   UNL     1      21.119 -32.011  23.610  1.00  0.00    -0.000 C 
BRANCH  30  31
ATOM     31  C   UNL     1      22.032 -30.949  22.982  1.00  0.00    -0.003 C 
ATOM     32  C   UNL     1      21.216 -29.860  22.293  1.00  0.00     0.004 C 
ENDBRANCH  30  31
ENDBRANCH  29  30
ENDBRANCH  28  29
ENDBRANCH  27  28
ENDBRANCH  26  27
ENDBRANCH  25  26
ENDBRANCH  24  25
ENDBRANCH  23  24
ENDBRANCH  22  23
ENDBRANCH  21  22
ENDBRANCH  20  21
ENDBRANCH  19  20
ENDBRANCH  18  19
ENDBRANCH   1  18
TORSDOF 28
ENDMDL
MODEL 7
REMARK VINA RESULT:    -4.569      3.183      6.023
REMARK INTER + INTRA:         -18.377
REMARK INTER:                 -13.112
REMARK INTRA:                  -5.265
REMARK UNBOUND:                -6.329
REMARK SMILES CCCCCCCCCCCCCCCCCCCCCCCCCCCCCC(=O)[O-]
REMARK SMILES IDX 16 1 17 2 18 3 19 4 20 5 21 6 22 7 23 8 24 9 25 10 26 11
REMARK SMILES IDX 27 12 28 13 29 14 30 15 31 16 32 17 15 18 14 19 13 20 12 21
REMARK SMILES IDX 11 22 10 23 9 24 8 25 7 26 6 27 5 28 4 29 3 30 2 31 1 32
REMARK H PARENT
REMARK Flexibility Score: inf
ROOT
ATOM      1  C   UNL     1      16.846 -30.116  22.165  1.00  0.00     0.000 C 
ENDROOT
BRANCH   1   2
ATOM      2  C   UNL     1      18.166 -29.693  21.484  1.00  0.00     0.000 C 
BRANCH   2   3
ATOM      3  C   UNL     1      18.974 -30.875  20.914  1.00  0.00     0.000 C 
BRANCH   3   4
ATOM      4  C   UNL     1      18.142 -32.130  20.597  1.00  0.00     0.000 C 
BRANCH   4   5
ATOM      5  C   UNL     1      19.004 -33.313  20.131  1.00  0.00     0.000 C 
BRANCH   5   6
ATOM      6  C   UNL     1      18.361 -34.016  18.927  1.00  0.00     0.000 C 
BRANCH   6   7
ATOM      7  C   UNL     1      16.828 -34.072  19.018  1.00  0.00     0.000 C 
BRANCH   7   8
ATOM      8  C   UNL     1      16.312 -35.454  19.455  1.00  0.00     0.000 C 
BRANCH   8   9
ATOM      9  C   UNL     1      17.362 -36.561  19.264  1.00  0.00     0.000 C 
BRANCH   9  10
ATOM     10  C   UNL     1      17.583 -37.387  20.542  1.00  0.00     0.000 C 
BRANCH  10  11
ATOM     11  C   UNL     1      18.407 -36.636  21.604  1.00  0.00     0.000 C 
BRANCH  11  12
ATOM     12  C   UNL     1      18.939 -37.504  22.760  1.00  0.00     0.000 C 
BRANCH  12  13
ATOM     13  C   UNL     1      18.699 -36.943  24.175  1.00  0.00     0.006 C 
BRANCH  13  14
ATOM     14  C   UNL     1      18.369 -38.018  25.227  1.00  0.00     0.053 C 
BRANCH  14  15
ATOM     15  C   UNL     1      17.562 -37.469  26.365  1.00  0.00     0.041 C 
ATOM     16  O   UNL     1      18.074 -36.652  27.173  1.00  0.00    -0.550 OA
ATOM     17  O   UNL     1      16.233 -37.843  26.518  1.00  0.00    -0.550 OA
ENDBRANCH  14  15
ENDBRANCH  13  14
ENDBRANCH  12  13
ENDBRANCH  11  12
ENDBRANCH  10  11
ENDBRANCH   9  10
ENDBRANCH   8   9
ENDBRANCH   7   8
ENDBRANCH   6   7
ENDBRANCH   5   6
ENDBRANCH   4   5
ENDBRANCH   3   4
ENDBRANCH   2   3
ENDBRANCH   1   2
BRANCH   1  18
ATOM     18  C   UNL     1      15.695 -29.141  21.855  1.00  0.00     0.000 C 
BRANCH  18  19
ATOM     19  C   UNL     1      14.335 -29.855  21.701  1.00  0.00     0.000 C 
BRANCH  19  20
ATOM     20  C   UNL     1      13.650 -30.195  23.038  1.00  0.00     0.000 C 
BRANCH  20  21
ATOM     21  C   UNL     1      13.202 -31.661  23.199  1.00  0.00     0.000 C 
BRANCH  21  22
ATOM     22  C   UNL     1      14.254 -32.602  23.815  1.00  0.00     0.000 C 
BRANCH  22  23
ATOM     23  C   UNL     1      15.013 -33.422  22.757  1.00  0.00     0.000 C 
BRANCH  23  24
ATOM     24  C   UNL     1      16.210 -34.187  23.344  1.00  0.00    -0.000 C 
BRANCH  24  25
ATOM     25  C   UNL     1      16.463 -33.862  24.825  1.00  0.00    -0.000 C 
BRANCH  25  26
ATOM     26  C   UNL     1      17.961 -33.656  25.093  1.00  0.00    -0.000 C 
BRANCH  26  27
ATOM     27  C   UNL     1      18.708 -33.105  23.858  1.00  0.00    -0.000 C 
BRANCH  27  28
ATOM     28  C   UNL     1      20.215 -32.901  24.086  1.00  0.00    -0.000 C 
BRANCH  28  29
ATOM     29  C   UNL     1      21.039 -34.166  23.797  1.00  0.00    -0.000 C 
BRANCH  29  30
ATOM     30  C   UNL     1      21.768 -34.102  22.446  1.00  0.00    -0.000 C 
BRANCH  30  31
ATOM     31  C   UNL     1      22.453 -32.749  22.207  1.00  0.00    -0.003 C 
ATOM     32  C   UNL     1      23.972 -32.892  22.222  1.00  0.00     0.004 C 
ENDBRANCH  30  31
ENDBRANCH  29  30
ENDBRANCH  28  29
ENDBRANCH  27  28
ENDBRANCH  26  27
ENDBRANCH  25  26
ENDBRANCH  24  25
ENDBRANCH  23  24
ENDBRANCH  22  23
ENDBRANCH  21  22
ENDBRANCH  20  21
ENDBRANCH  19  20
ENDBRANCH  18  19
ENDBRANCH   1  18
TORSDOF 28
ENDMDL
MODEL 8
REMARK VINA RESULT:    -4.563      2.274      4.957
REMARK INTER + INTRA:         -18.363
REMARK INTER:                 -12.498
REMARK INTRA:                  -5.864
REMARK UNBOUND:                -6.329
REMARK SMILES CCCCCCCCCCCCCCCCCCCCCCCCCCCCCC(=O)[O-]
REMARK SMILES IDX 16 1 17 2 18 3 19 4 20 5 21 6 22 7 23 8 24 9 25 10 26 11
REMARK SMILES IDX 27 12 28 13 29 14 30 15 31 16 32 17 15 18 14 19 13 20 12 21
REMARK SMILES IDX 11 22 10 23 9 24 8 25 7 26 6 27 5 28 4 29 3 30 2 31 1 32
REMARK H PARENT
REMARK Flexibility Score: inf
ROOT
ATOM      1  C   UNL     1      18.556 -33.093  20.329  1.00  0.00     0.000 C 
ENDROOT
BRANCH   1   2
ATOM      2  C   UNL     1      17.127 -33.097  19.742  1.00  0.00     0.000 C 
BRANCH   2   3
ATOM      3  C   UNL     1      16.827 -34.320  18.854  1.00  0.00     0.000 C 
BRANCH   3   4
ATOM      4  C   UNL     1      16.527 -35.617  19.627  1.00  0.00     0.000 C 
BRANCH   4   5
ATOM      5  C   UNL     1      17.593 -36.701  19.406  1.00  0.00     0.000 C 
BRANCH   5   6
ATOM      6  C   UNL     1      17.828 -37.505  20.693  1.00  0.00     0.000 C 
BRANCH   6   7
ATOM      7  C   UNL     1      18.123 -36.613  21.909  1.00  0.00     0.000 C 
BRANCH   7   8
ATOM      8  C   UNL     1      19.630 -36.399  22.133  1.00  0.00     0.000 C 
BRANCH   8   9
ATOM      9  C   UNL     1      19.936 -35.065  22.835  1.00  0.00     0.000 C 
BRANCH   9  10
ATOM     10  C   UNL     1      20.464 -35.263  24.266  1.00  0.00     0.000 C 
BRANCH  10  11
ATOM     11  C   UNL     1      20.997 -33.960  24.891  1.00  0.00     0.000 C 
BRANCH  11  12
ATOM     12  C   UNL     1      20.868 -32.705  24.008  1.00  0.00     0.000 C 
BRANCH  12  13
ATOM     13  C   UNL     1      20.021 -31.563  24.601  1.00  0.00     0.006 C 
BRANCH  13  14
ATOM     14  C   UNL     1      19.784 -31.682  26.118  1.00  0.00     0.053 C 
BRANCH  14  15
ATOM     15  C   UNL     1      20.660 -30.753  26.903  1.00  0.00     0.041 C 
ATOM     16  O   UNL     1      20.278 -30.302  28.014  1.00  0.00    -0.550 OA
ATOM     17  O   UNL     1      21.913 -30.403  26.416  1.00  0.00    -0.550 OA
ENDBRANCH  14  15
ENDBRANCH  13  14
ENDBRANCH  12  13
ENDBRANCH  11  12
ENDBRANCH  10  11
ENDBRANCH   9  10
ENDBRANCH   8   9
ENDBRANCH   7   8
ENDBRANCH   6   7
ENDBRANCH   5   6
ENDBRANCH   4   5
ENDBRANCH   3   4
ENDBRANCH   2   3
ENDBRANCH   1   2
BRANCH   1  18
ATOM     18  C   UNL     1      18.860 -31.798  21.105  1.00  0.00     0.000 C 
BRANCH  18  19
ATOM     19  C   UNL     1      17.814 -30.691  20.850  1.00  0.00     0.000 C 
BRANCH  19  20
ATOM     20  C   UNL     1      17.035 -30.262  22.109  1.00  0.00     0.000 C 
BRANCH  20  21
ATOM     21  C   UNL     1      15.936 -29.206  21.879  1.00  0.00     0.000 C 
BRANCH  21  22
ATOM     22  C   UNL     1      14.530 -29.773  21.606  1.00  0.00     0.000 C 
BRANCH  22  23
ATOM     23  C   UNL     1      13.702 -29.956  22.889  1.00  0.00     0.000 C 
BRANCH  23  24
ATOM     24  C   UNL     1      13.200 -31.397  23.071  1.00  0.00    -0.000 C 
BRANCH  24  25
ATOM     25  C   UNL     1      14.258 -32.331  23.679  1.00  0.00    -0.000 C 
BRANCH  25  26
ATOM     26  C   UNL     1      14.821 -33.287  22.617  1.00  0.00    -0.000 C 
BRANCH  26  27
ATOM     27  C   UNL     1      16.074 -34.042  23.112  1.00  0.00    -0.000 C 
BRANCH  27  28
ATOM     28  C   UNL     1      16.786 -33.353  24.289  1.00  0.00    -0.000 C 
BRANCH  28  29
ATOM     29  C   UNL     1      17.256 -34.345  25.366  1.00  0.00    -0.000 C 
BRANCH  29  30
ATOM     30  C   UNL     1      16.752 -35.774  25.115  1.00  0.00    -0.000 C 
BRANCH  30  31
ATOM     31  C   UNL     1      17.426 -36.808  26.027  1.00  0.00    -0.003 C 
ATOM     32  C   UNL     1      16.391 -37.598  26.823  1.00  0.00     0.004 C 
ENDBRANCH  30  31
ENDBRANCH  29  30
ENDBRANCH  28  29
ENDBRANCH  27  28
ENDBRANCH  26  27
ENDBRANCH  25  26
ENDBRANCH  24  25
ENDBRANCH  23  24
ENDBRANCH  22  23
ENDBRANCH  21  22
ENDBRANCH  20  21
ENDBRANCH  19  20
ENDBRANCH  18  19
ENDBRANCH   1  18
TORSDOF 28
ENDMDL
MODEL 9
REMARK VINA RESULT:    -4.560      2.801      6.704
REMARK INTER + INTRA:         -18.353
REMARK INTER:                 -13.193
REMARK INTRA:                  -5.160
REMARK UNBOUND:                -6.329
REMARK SMILES CCCCCCCCCCCCCCCCCCCCCCCCCCCCCC(=O)[O-]
REMARK SMILES IDX 16 1 17 2 18 3 19 4 20 5 21 6 22 7 23 8 24 9 25 10 26 11
REMARK SMILES IDX 27 12 28 13 29 14 30 15 31 16 32 17 15 18 14 19 13 20 12 21
REMARK SMILES IDX 11 22 10 23 9 24 8 25 7 26 6 27 5 28 4 29 3 30 2 31 1 32
REMARK H PARENT
REMARK Flexibility Score: inf
ROOT
ATOM      1  C   UNL     1      14.569 -29.298  23.127  1.00  0.00     0.000 C 
ENDROOT
BRANCH   1   2
ATOM      2  C   UNL     1      13.111 -29.605  22.721  1.00  0.00     0.000 C 
BRANCH   2   3
ATOM      3  C   UNL     1      12.892 -31.057  22.253  1.00  0.00     0.000 C 
BRANCH   3   4
ATOM      4  C   UNL     1      12.976 -31.262  20.730  1.00  0.00     0.000 C 
BRANCH   4   5
ATOM      5  C   UNL     1      13.911 -32.414  20.335  1.00  0.00     0.000 C 
BRANCH   5   6
ATOM      6  C   UNL     1      14.522 -33.073  21.581  1.00  0.00     0.000 C 
BRANCH   6   7
ATOM      7  C   UNL     1      15.291 -34.363  21.257  1.00  0.00     0.000 C 
BRANCH   7   8
ATOM      8  C   UNL     1      15.538 -34.541  19.749  1.00  0.00     0.000 C 
BRANCH   8   9
ATOM      9  C   UNL     1      16.257 -35.860  19.423  1.00  0.00     0.000 C 
BRANCH   9  10
ATOM     10  C   UNL     1      17.675 -35.918  20.016  1.00  0.00     0.000 C 
BRANCH  10  11
ATOM     11  C   UNL     1      17.917 -37.181  20.863  1.00  0.00     0.000 C 
BRANCH  11  12
ATOM     12  C   UNL     1      18.925 -37.017  22.017  1.00  0.00     0.000 C 
BRANCH  12  13
ATOM     13  C   UNL     1      18.741 -35.755  22.881  1.00  0.00     0.006 C 
BRANCH  13  14
ATOM     14  C   UNL     1      17.504 -35.799  23.799  1.00  0.00     0.053 C 
BRANCH  14  15
ATOM     15  C   UNL     1      17.810 -36.413  25.132  1.00  0.00     0.041 C 
ATOM     16  O   UNL     1      18.233 -37.595  25.208  1.00  0.00    -0.550 OA
ATOM     17  O   UNL     1      17.649 -35.666  26.293  1.00  0.00    -0.550 OA
ENDBRANCH  14  15
ENDBRANCH  13  14
ENDBRANCH  12  13
ENDBRANCH  11  12
ENDBRANCH  10  11
ENDBRANCH   9  10
ENDBRANCH   8   9
ENDBRANCH   7   8
ENDBRANCH   6   7
ENDBRANCH   5   6
ENDBRANCH   4   5
ENDBRANCH   3   4
ENDBRANCH   2   3
ENDBRANCH   1   2
BRANCH   1  18
ATOM     18  C   UNL     1      15.398 -28.758  21.946  1.00  0.00     0.000 C 
BRANCH  18  19
ATOM     19  C   UNL     1      16.566 -29.692  21.563  1.00  0.00     0.000 C 
BRANCH  19  20
ATOM     20  C   UNL     1      17.074 -30.569  22.723  1.00  0.00     0.000 C 
BRANCH  20  21
ATOM     21  C   UNL     1      17.848 -31.836  22.306  1.00  0.00     0.000 C 
BRANCH  21  22
ATOM     22  C   UNL     1      18.060 -32.002  20.789  1.00  0.00     0.000 C 
BRANCH  22  23
ATOM     23  C   UNL     1      19.378 -32.718  20.446  1.00  0.00     0.000 C 
BRANCH  23  24
ATOM     24  C   UNL     1      20.318 -32.843  21.655  1.00  0.00    -0.000 C 
BRANCH  24  25
ATOM     25  C   UNL     1      21.471 -31.828  21.628  1.00  0.00    -0.000 C 
BRANCH  25  26
ATOM     26  C   UNL     1      21.371 -30.851  22.809  1.00  0.00    -0.000 C 
BRANCH  26  27
ATOM     27  C   UNL     1      21.290 -29.379  22.348  1.00  0.00    -0.000 C 
BRANCH  27  28
ATOM     28  C   UNL     1      20.488 -29.181  21.051  1.00  0.00    -0.000 C 
BRANCH  28  29
ATOM     29  C   UNL     1      20.002 -27.734  20.865  1.00  0.00    -0.000 C 
BRANCH  29  30
ATOM     30  C   UNL     1      21.123 -26.787  20.411  1.00  0.00    -0.000 C 
BRANCH  30  31
ATOM     31  C   UNL     1      21.453 -25.714  21.459  1.00  0.00    -0.003 C 
ATOM     32  C   UNL     1      20.184 -25.053  21.987  1.00  0.00     0.004 C 
ENDBRANCH  30  31
ENDBRANCH  29  30
ENDBRANCH  28  29
ENDBRANCH  27  28
ENDBRANCH  26  27
ENDBRANCH  25  26
ENDBRANCH  24  25
ENDBRANCH  23  24
ENDBRANCH  22  23
ENDBRANCH  21  22
ENDBRANCH  20  21
ENDBRANCH  19  20
ENDBRANCH  18  19
ENDBRANCH   1  18
TORSDOF 28
ENDMDL
