MODEL 1
REMARK VINA RESULT:    -7.572      0.000      0.000
REMARK INTER + INTRA:          -8.236
REMARK INTER:                  -8.236
REMARK INTRA:                   0.000
REMARK UNBOUND:                 0.000
REMARK SMILES Cc1cc(O)c2c(c1)C(=O)c1cc(O)cc(O)c1C2=O
REMARK SMILES IDX 1 1 2 2 8 3 7 4 6 5 4 6 3 7 19 8 20 9 18 10 11 11 9 12 10 13
REMARK SMILES IDX 12 14 13 15 15 16 16 17 5 18 17 20 14 22
REMARK H PARENT 5 19 17 21 14 23
REMARK Flexibility Score: inf
ROOT
ATOM      1  C   UNL     1       4.237  -4.861   4.183  1.00  0.00     0.044 C 
ATOM      2  C   UNL     1       4.150  -5.694   5.427  1.00  0.00    -0.047 A 
ATOM      3  C   UNL     1       2.990  -5.675   6.208  1.00  0.00     0.016 A 
ATOM      4  C   UNL     1       2.889  -6.470   7.363  1.00  0.00     0.038 A 
ATOM      5  C   UNL     1       3.968  -7.300   7.744  1.00  0.00     0.076 A 
ATOM      6  C   UNL     1       5.102  -7.389   6.890  1.00  0.00     0.127 A 
ATOM      7  C   UNL     1       5.189  -6.567   5.763  1.00  0.00     0.050 A 
ATOM      8  C   UNL     1       3.891  -8.006   9.053  1.00  0.00     0.201 C 
ATOM      9  O   UNL     1       4.943  -8.403   9.622  1.00  0.00    -0.288 OA
ATOM     10  C   UNL     1       2.585  -8.145   9.752  1.00  0.00     0.076 A 
ATOM     11  C   UNL     1       1.492  -7.363   9.324  1.00  0.00     0.041 A 
ATOM     12  C   UNL     1       1.646  -6.446   8.171  1.00  0.00     0.194 C 
ATOM     13  O   UNL     1       0.710  -5.657   7.866  1.00  0.00    -0.289 OA
ATOM     14  C   UNL     1       0.261  -7.455   9.998  1.00  0.00     0.059 A 
ATOM     15  C   UNL     1       0.109  -8.318  11.082  1.00  0.00     0.120 A 
ATOM     16  C   UNL     1       1.187  -9.101  11.504  1.00  0.00     0.093 A 
ATOM     17  C   UNL     1       2.422  -9.023  10.848  1.00  0.00     0.131 A 
ENDROOT
BRANCH   6  18
ATOM     18  O   UNL     1       6.142  -8.298   7.099  1.00  0.00    -0.507 OA
ATOM     19  H   UNL     1       6.484  -8.558   8.014  1.00  0.00     0.293 HD
ENDBRANCH   6  18
BRANCH  17  20
ATOM     20  O   UNL     1       3.478  -9.826  11.280  1.00  0.00    -0.507 OA
ATOM     21  H   UNL     1       4.347  -9.888  10.762  1.00  0.00     0.293 HD
ENDBRANCH  17  20
BRANCH  15  22
ATOM     22  O   UNL     1      -1.120  -8.394  11.733  1.00  0.00    -0.508 OA
ATOM     23  H   UNL     1      -1.445  -9.256  12.154  1.00  0.00     0.293 HD
ENDBRANCH  15  22
TORSDOF 3
ENDMDL
MODEL 2
REMARK VINA RESULT:    -7.451      2.416      4.996
REMARK INTER + INTRA:          -8.104
REMARK INTER:                  -8.104
REMARK INTRA:                   0.000
REMARK UNBOUND:                 0.000
REMARK SMILES Cc1cc(O)c2c(c1)C(=O)c1cc(O)cc(O)c1C2=O
REMARK SMILES IDX 1 1 2 2 8 3 7 4 6 5 4 6 3 7 19 8 20 9 18 10 11 11 9 12 10 13
REMARK SMILES IDX 12 14 13 15 15 16 16 17 5 18 17 20 14 22
REMARK H PARENT 5 19 17 21 14 23
REMARK Flexibility Score: inf
ROOT
ATOM      1  C   UNL     1       4.626 -11.943  12.251  1.00  0.00     0.044 C 
ATOM      2  C   UNL     1       4.272 -10.822  11.320  1.00  0.00    -0.047 A 
ATOM      3  C   UNL     1       3.015 -10.785  10.708  1.00  0.00     0.016 A 
ATOM      4  C   UNL     1       2.664  -9.726   9.852  1.00  0.00     0.038 A 
ATOM      5  C   UNL     1       3.588  -8.684   9.604  1.00  0.00     0.076 A 
ATOM      6  C   UNL     1       4.822  -8.679  10.309  1.00  0.00     0.127 A 
ATOM      7  C   UNL     1       5.158  -9.757  11.132  1.00  0.00     0.050 A 
ATOM      8  C   UNL     1       3.246  -7.665   8.574  1.00  0.00     0.201 C 
ATOM      9  O   UNL     1       4.157  -6.988   8.025  1.00  0.00    -0.288 OA
ATOM     10  C   UNL     1       1.843  -7.521   8.102  1.00  0.00     0.076 A 
ATOM     11  C   UNL     1       0.908  -8.531   8.409  1.00  0.00     0.041 A 
ATOM     12  C   UNL     1       1.322  -9.697   9.222  1.00  0.00     0.194 C 
ATOM     13  O   UNL     1       0.524 -10.660   9.392  1.00  0.00    -0.289 OA
ATOM     14  C   UNL     1      -0.413  -8.427   7.939  1.00  0.00     0.059 A 
ATOM     15  C   UNL     1      -0.810  -7.330   7.176  1.00  0.00     0.120 A 
ATOM     16  C   UNL     1       0.110  -6.322   6.875  1.00  0.00     0.093 A 
ATOM     17  C   UNL     1       1.432  -6.407   7.333  1.00  0.00     0.131 A 
ENDROOT
BRANCH   6  18
ATOM     18  O   UNL     1       5.725  -7.614  10.252  1.00  0.00    -0.507 OA
ATOM     19  H   UNL     1       6.728  -7.725  10.306  1.00  0.00     0.293 HD
ENDBRANCH   6  18
BRANCH  17  20
ATOM     20  O   UNL     1       2.328  -5.380   7.031  1.00  0.00    -0.507 OA
ATOM     21  H   UNL     1       2.281  -4.480   7.493  1.00  0.00     0.293 HD
ENDBRANCH  17  20
BRANCH  15  22
ATOM     22  O   UNL     1      -2.125  -7.248   6.722  1.00  0.00    -0.508 OA
ATOM     23  H   UNL     1      -2.537  -6.363   6.448  1.00  0.00     0.293 HD
ENDBRANCH  15  22
TORSDOF 3
ENDMDL
MODEL 3
REMARK VINA RESULT:    -7.017      1.741      3.274
REMARK INTER + INTRA:          -7.632
REMARK INTER:                  -7.632
REMARK INTRA:                   0.000
REMARK UNBOUND:                 0.000
REMARK SMILES Cc1cc(O)c2c(c1)C(=O)c1cc(O)cc(O)c1C2=O
REMARK SMILES IDX 1 1 2 2 8 3 7 4 6 5 4 6 3 7 19 8 20 9 18 10 11 11 9 12 10 13
REMARK SMILES IDX 12 14 13 15 15 16 16 17 5 18 17 20 14 22
REMARK H PARENT 5 19 17 21 14 23
REMARK Flexibility Score: inf
ROOT
ATOM      1  C   UNL     1       7.209  -9.542   5.503  1.00  0.00     0.044 C 
ATOM      2  C   UNL     1       6.052  -8.875   6.185  1.00  0.00    -0.047 A 
ATOM      3  C   UNL     1       5.269  -9.584   7.099  1.00  0.00     0.016 A 
ATOM      4  C   UNL     1       4.196  -8.961   7.762  1.00  0.00     0.038 A 
ATOM      5  C   UNL     1       3.903  -7.602   7.505  1.00  0.00     0.076 A 
ATOM      6  C   UNL     1       4.767  -6.862   6.652  1.00  0.00     0.127 A 
ATOM      7  C   UNL     1       5.808  -7.512   5.984  1.00  0.00     0.050 A 
ATOM      8  C   UNL     1       2.670  -7.019   8.102  1.00  0.00     0.201 C 
ATOM      9  O   UNL     1       2.147  -5.989   7.596  1.00  0.00    -0.288 OA
ATOM     10  C   UNL     1       1.982  -7.711   9.224  1.00  0.00     0.076 A 
ATOM     11  C   UNL     1       2.326  -9.047   9.519  1.00  0.00     0.041 A 
ATOM     12  C   UNL     1       3.384  -9.727   8.738  1.00  0.00     0.194 C 
ATOM     13  O   UNL     1       3.606 -10.956   8.917  1.00  0.00    -0.289 OA
ATOM     14  C   UNL     1       1.659  -9.727  10.553  1.00  0.00     0.059 A 
ATOM     15  C   UNL     1       0.664  -9.092  11.295  1.00  0.00     0.120 A 
ATOM     16  C   UNL     1       0.325  -7.766  11.011  1.00  0.00     0.093 A 
ATOM     17  C   UNL     1       0.977  -7.070   9.984  1.00  0.00     0.131 A 
ENDROOT
BRANCH   6  18
ATOM     18  O   UNL     1       4.652  -5.483   6.466  1.00  0.00    -0.507 OA
ATOM     19  H   UNL     1       3.822  -4.952   6.693  1.00  0.00     0.293 HD
ENDBRANCH   6  18
BRANCH  17  20
ATOM     20  O   UNL     1       0.629  -5.742   9.730  1.00  0.00    -0.507 OA
ATOM     21  H   UNL     1       0.334  -5.118  10.472  1.00  0.00     0.293 HD
ENDBRANCH  17  20
BRANCH  15  22
ATOM     22  O   UNL     1       0.018  -9.786  12.315  1.00  0.00    -0.508 OA
ATOM     23  H   UNL     1       0.181  -9.567  13.291  1.00  0.00     0.293 HD
ENDBRANCH  15  22
TORSDOF 3
ENDMDL
MODEL 4
REMARK VINA RESULT:    -6.901      1.316      5.462
REMARK INTER + INTRA:          -7.506
REMARK INTER:                  -7.506
REMARK INTRA:                   0.000
REMARK UNBOUND:                 0.000
REMARK SMILES Cc1cc(O)c2c(c1)C(=O)c1cc(O)cc(O)c1C2=O
REMARK SMILES IDX 1 1 2 2 8 3 7 4 6 5 4 6 3 7 19 8 20 9 18 10 11 11 9 12 10 13
REMARK SMILES IDX 12 14 13 15 15 16 16 17 5 18 17 20 14 22
REMARK H PARENT 5 19 17 21 14 23
REMARK Flexibility Score: inf
ROOT
ATOM      1  C   UNL     1      -1.380  -9.149  11.496  1.00  0.00     0.044 C 
ATOM      2  C   UNL     1      -0.079  -8.890  10.797  1.00  0.00    -0.047 A 
ATOM      3  C   UNL     1      -0.012  -7.961   9.754  1.00  0.00     0.016 A 
ATOM      4  C   UNL     1       1.208  -7.692   9.108  1.00  0.00     0.038 A 
ATOM      5  C   UNL     1       2.383  -8.365   9.515  1.00  0.00     0.076 A 
ATOM      6  C   UNL     1       2.325  -9.231  10.641  1.00  0.00     0.127 A 
ATOM      7  C   UNL     1       1.096  -9.502  11.247  1.00  0.00     0.050 A 
ATOM      8  C   UNL     1       3.622  -8.176   8.710  1.00  0.00     0.201 C 
ATOM      9  O   UNL     1       4.547  -9.031   8.759  1.00  0.00    -0.288 OA
ATOM     10  C   UNL     1       3.727  -7.040   7.756  1.00  0.00     0.076 A 
ATOM     11  C   UNL     1       2.560  -6.328   7.405  1.00  0.00     0.041 A 
ATOM     12  C   UNL     1       1.261  -6.695   8.012  1.00  0.00     0.194 C 
ATOM     13  O   UNL     1       0.200  -6.145   7.608  1.00  0.00    -0.289 OA
ATOM     14  C   UNL     1       2.638  -5.276   6.476  1.00  0.00     0.059 A 
ATOM     15  C   UNL     1       3.859  -4.923   5.903  1.00  0.00     0.120 A 
ATOM     16  C   UNL     1       5.019  -5.619   6.253  1.00  0.00     0.093 A 
ATOM     17  C   UNL     1       4.964  -6.673   7.176  1.00  0.00     0.131 A 
ENDROOT
BRANCH   6  18
ATOM     18  O   UNL     1       3.460  -9.812  11.213  1.00  0.00    -0.507 OA
ATOM     19  H   UNL     1       4.358  -9.861  10.752  1.00  0.00     0.293 HD
ENDBRANCH   6  18
BRANCH  17  20
ATOM     20  O   UNL     1       6.138  -7.343   7.519  1.00  0.00    -0.507 OA
ATOM     21  H   UNL     1       6.838  -7.580   6.826  1.00  0.00     0.293 HD
ENDBRANCH  17  20
BRANCH  15  22
ATOM     22  O   UNL     1       3.911  -3.875   4.986  1.00  0.00    -0.508 OA
ATOM     23  H   UNL     1       4.314  -3.997   4.064  1.00  0.00     0.293 HD
ENDBRANCH  15  22
TORSDOF 3
ENDMDL
MODEL 5
REMARK VINA RESULT:    -6.864      1.638      6.064
REMARK INTER + INTRA:          -7.466
REMARK INTER:                  -7.466
REMARK INTRA:                   0.000
REMARK UNBOUND:                 0.000
REMARK SMILES Cc1cc(O)c2c(c1)C(=O)c1cc(O)cc(O)c1C2=O
REMARK SMILES IDX 1 1 2 2 8 3 7 4 6 5 4 6 3 7 19 8 20 9 18 10 11 11 9 12 10 13
REMARK SMILES IDX 12 14 13 15 15 16 16 17 5 18 17 20 14 22
REMARK H PARENT 5 19 17 21 14 23
REMARK Flexibility Score: inf
ROOT
ATOM      1  C   UNL     1       4.256 -11.529  11.871  1.00  0.00     0.044 C 
ATOM      2  C   UNL     1       3.658 -10.392  11.098  1.00  0.00    -0.047 A 
ATOM      3  C   UNL     1       4.414  -9.721  10.133  1.00  0.00     0.016 A 
ATOM      4  C   UNL     1       3.856  -8.669   9.385  1.00  0.00     0.038 A 
ATOM      5  C   UNL     1       2.514  -8.281   9.607  1.00  0.00     0.076 A 
ATOM      6  C   UNL     1       1.723  -9.035  10.518  1.00  0.00     0.127 A 
ATOM      7  C   UNL     1       2.310 -10.057  11.267  1.00  0.00     0.050 A 
ATOM      8  C   UNL     1       2.004  -7.066   8.914  1.00  0.00     0.201 C 
ATOM      9  O   UNL     1       1.004  -6.450   9.370  1.00  0.00    -0.288 OA
ATOM     10  C   UNL     1       2.740  -6.506   7.749  1.00  0.00     0.076 A 
ATOM     11  C   UNL     1       4.055  -6.946   7.492  1.00  0.00     0.041 A 
ATOM     12  C   UNL     1       4.671  -7.978   8.357  1.00  0.00     0.194 C 
ATOM     13  O   UNL     1       5.886  -8.281   8.206  1.00  0.00    -0.289 OA
ATOM     14  C   UNL     1       4.777  -6.398   6.417  1.00  0.00     0.059 A 
ATOM     15  C   UNL     1       4.201  -5.429   5.596  1.00  0.00     0.120 A 
ATOM     16  C   UNL     1       2.895  -4.995   5.842  1.00  0.00     0.093 A 
ATOM     17  C   UNL     1       2.159  -5.527   6.909  1.00  0.00     0.131 A 
ENDROOT
BRANCH   6  18
ATOM     18  O   UNL     1       0.352  -8.829  10.682  1.00  0.00    -0.507 OA
ATOM     19  H   UNL     1      -0.163  -8.085  10.232  1.00  0.00     0.293 HD
ENDBRANCH   6  18
BRANCH  17  20
ATOM     20  O   UNL     1       0.853  -5.087   7.125  1.00  0.00    -0.507 OA
ATOM     21  H   UNL     1       0.586  -4.606   7.976  1.00  0.00     0.293 HD
ENDBRANCH  17  20
BRANCH  15  22
ATOM     22  O   UNL     1       4.935  -4.902   4.536  1.00  0.00    -0.508 OA
ATOM     23  H   UNL     1       4.530  -4.233   3.891  1.00  0.00     0.293 HD
ENDBRANCH  15  22
TORSDOF 3
ENDMDL
MODEL 6
REMARK VINA RESULT:    -6.831      2.127      6.388
REMARK INTER + INTRA:          -7.430
REMARK INTER:                  -7.430
REMARK INTRA:                   0.000
REMARK UNBOUND:                 0.000
REMARK SMILES Cc1cc(O)c2c(c1)C(=O)c1cc(O)cc(O)c1C2=O
REMARK SMILES IDX 1 1 2 2 8 3 7 4 6 5 4 6 3 7 19 8 20 9 18 10 11 11 9 12 10 13
REMARK SMILES IDX 12 14 13 15 15 16 16 17 5 18 17 20 14 22
REMARK H PARENT 5 19 17 21 14 23
REMARK Flexibility Score: inf
ROOT
ATOM      1  C   UNL     1      -1.508 -10.702  12.261  1.00  0.00     0.044 C 
ATOM      2  C   UNL     1      -0.992 -10.027  11.026  1.00  0.00    -0.047 A 
ATOM      3  C   UNL     1       0.317  -9.539  10.984  1.00  0.00     0.016 A 
ATOM      4  C   UNL     1       0.819  -8.926   9.823  1.00  0.00     0.038 A 
ATOM      5  C   UNL     1      -0.006  -8.798   8.681  1.00  0.00     0.076 A 
ATOM      6  C   UNL     1      -1.300  -9.387   8.698  1.00  0.00     0.127 A 
ATOM      7  C   UNL     1      -1.784  -9.966   9.874  1.00  0.00     0.050 A 
ATOM      8  C   UNL     1       0.502  -8.006   7.526  1.00  0.00     0.201 C 
ATOM      9  O   UNL     1      -0.305  -7.518   6.690  1.00  0.00    -0.288 OA
ATOM     10  C   UNL     1       1.950  -7.687   7.417  1.00  0.00     0.076 A 
ATOM     11  C   UNL     1       2.782  -7.880   8.540  1.00  0.00     0.041 A 
ATOM     12  C   UNL     1       2.215  -8.426   9.793  1.00  0.00     0.194 C 
ATOM     13  O   UNL     1       2.927  -8.481  10.834  1.00  0.00    -0.289 OA
ATOM     14  C   UNL     1       4.146  -7.548   8.463  1.00  0.00     0.059 A 
ATOM     15  C   UNL     1       4.687  -7.037   7.284  1.00  0.00     0.120 A 
ATOM     16  C   UNL     1       3.869  -6.852   6.166  1.00  0.00     0.093 A 
ATOM     17  C   UNL     1       2.507  -7.175   6.222  1.00  0.00     0.131 A 
ENDROOT
BRANCH   6  18
ATOM     18  O   UNL     1      -2.120  -9.452   7.570  1.00  0.00    -0.507 OA
ATOM     19  H   UNL     1      -2.025  -8.841   6.770  1.00  0.00     0.293 HD
ENDBRANCH   6  18
BRANCH  17  20
ATOM     20  O   UNL     1       1.714  -6.994   5.087  1.00  0.00    -0.507 OA
ATOM     21  H   UNL     1       0.743  -7.282   5.065  1.00  0.00     0.293 HD
ENDBRANCH  17  20
BRANCH  15  22
ATOM     22  O   UNL     1       6.042  -6.717   7.232  1.00  0.00    -0.508 OA
ATOM     23  H   UNL     1       6.686  -7.016   7.955  1.00  0.00     0.293 HD
ENDBRANCH  15  22
TORSDOF 3
ENDMDL
MODEL 7
REMARK VINA RESULT:    -6.814      1.284      3.409
REMARK INTER + INTRA:          -7.411
REMARK INTER:                  -7.411
REMARK INTRA:                   0.000
REMARK UNBOUND:                 0.000
REMARK SMILES Cc1cc(O)c2c(c1)C(=O)c1cc(O)cc(O)c1C2=O
REMARK SMILES IDX 1 1 2 2 8 3 7 4 6 5 4 6 3 7 19 8 20 9 18 10 11 11 9 12 10 13
REMARK SMILES IDX 12 14 13 15 15 16 16 17 5 18 17 20 14 22
REMARK H PARENT 5 19 17 21 14 23
REMARK Flexibility Score: inf
ROOT
ATOM      1  C   UNL     1       5.505  -5.225   4.072  1.00  0.00     0.044 C 
ATOM      2  C   UNL     1       4.641  -5.711   5.198  1.00  0.00    -0.047 A 
ATOM      3  C   UNL     1       5.039  -6.805   5.970  1.00  0.00     0.016 A 
ATOM      4  C   UNL     1       4.248  -7.254   7.043  1.00  0.00     0.038 A 
ATOM      5  C   UNL     1       3.036  -6.593   7.348  1.00  0.00     0.076 A 
ATOM      6  C   UNL     1       2.690  -5.421   6.623  1.00  0.00     0.127 A 
ATOM      7  C   UNL     1       3.479  -5.013   5.544  1.00  0.00     0.050 A 
ATOM      8  C   UNL     1       2.148  -7.188   8.386  1.00  0.00     0.201 C 
ATOM      9  O   UNL     1       0.920  -6.904   8.406  1.00  0.00    -0.288 OA
ATOM     10  C   UNL     1       2.679  -8.207   9.330  1.00  0.00     0.076 A 
ATOM     11  C   UNL     1       3.922  -8.815   9.055  1.00  0.00     0.041 A 
ATOM     12  C   UNL     1       4.694  -8.409   7.859  1.00  0.00     0.194 C 
ATOM     13  O   UNL     1       5.742  -9.037   7.544  1.00  0.00    -0.289 OA
ATOM     14  C   UNL     1       4.419  -9.807   9.918  1.00  0.00     0.059 A 
ATOM     15  C   UNL     1       3.699 -10.192  11.048  1.00  0.00     0.120 A 
ATOM     16  C   UNL     1       2.471  -9.586  11.329  1.00  0.00     0.093 A 
ATOM     17  C   UNL     1       1.956  -8.597  10.481  1.00  0.00     0.131 A 
ENDROOT
BRANCH   6  18
ATOM     18  O   UNL     1       1.600  -4.614   6.957  1.00  0.00    -0.507 OA
ATOM     19  H   UNL     1       1.196  -3.929   6.333  1.00  0.00     0.293 HD
ENDBRANCH   6  18
BRANCH  17  20
ATOM     20  O   UNL     1       0.734  -7.998  10.791  1.00  0.00    -0.507 OA
ATOM     21  H   UNL     1      -0.141  -8.352  10.423  1.00  0.00     0.293 HD
ENDBRANCH  17  20
BRANCH  15  22
ATOM     22  O   UNL     1       4.213 -11.176  11.889  1.00  0.00    -0.508 OA
ATOM     23  H   UNL     1       3.926 -12.145  11.810  1.00  0.00     0.293 HD
ENDBRANCH  15  22
TORSDOF 3
ENDMDL
MODEL 8
REMARK VINA RESULT:    -6.648      2.003      2.261
REMARK INTER + INTRA:          -7.231
REMARK INTER:                  -7.231
REMARK INTRA:                   0.000
REMARK UNBOUND:                 0.000
REMARK SMILES Cc1cc(O)c2c(c1)C(=O)c1cc(O)cc(O)c1C2=O
REMARK SMILES IDX 1 1 2 2 8 3 7 4 6 5 4 6 3 7 19 8 20 9 18 10 11 11 9 12 10 13
REMARK SMILES IDX 12 14 13 15 15 16 16 17 5 18 17 20 14 22
REMARK H PARENT 5 19 17 21 14 23
REMARK Flexibility Score: inf
ROOT
ATOM      1  C   UNL     1       6.932  -3.875   5.137  1.00  0.00     0.044 C 
ATOM      2  C   UNL     1       6.326  -5.106   5.743  1.00  0.00    -0.047 A 
ATOM      3  C   UNL     1       4.993  -5.101   6.164  1.00  0.00     0.016 A 
ATOM      4  C   UNL     1       4.407  -6.257   6.711  1.00  0.00     0.038 A 
ATOM      5  C   UNL     1       5.171  -7.440   6.838  1.00  0.00     0.076 A 
ATOM      6  C   UNL     1       6.492  -7.465   6.314  1.00  0.00     0.127 A 
ATOM      7  C   UNL     1       7.059  -6.295   5.801  1.00  0.00     0.050 A 
ATOM      8  C   UNL     1       4.572  -8.595   7.563  1.00  0.00     0.201 C 
ATOM      9  O   UNL     1       5.313  -9.485   8.060  1.00  0.00    -0.288 OA
ATOM     10  C   UNL     1       3.105  -8.645   7.807  1.00  0.00     0.076 A 
ATOM     11  C   UNL     1       2.337  -7.478   7.614  1.00  0.00     0.041 A 
ATOM     12  C   UNL     1       2.989  -6.235   7.141  1.00  0.00     0.194 C 
ATOM     13  O   UNL     1       2.329  -5.161   7.087  1.00  0.00    -0.289 OA
ATOM     14  C   UNL     1       0.956  -7.500   7.875  1.00  0.00     0.059 A 
ATOM     15  C   UNL     1       0.336  -8.668   8.317  1.00  0.00     0.120 A 
ATOM     16  C   UNL     1       1.091  -9.829   8.502  1.00  0.00     0.093 A 
ATOM     17  C   UNL     1       2.469  -9.828   8.249  1.00  0.00     0.131 A 
ENDROOT
BRANCH   6  18
ATOM     18  O   UNL     1       7.262  -8.629   6.249  1.00  0.00    -0.507 OA
ATOM     19  H   UNL     1       7.421  -9.150   5.398  1.00  0.00     0.293 HD
ENDBRANCH   6  18
BRANCH  17  20
ATOM     20  O   UNL     1       3.198 -11.005   8.428  1.00  0.00    -0.507 OA
ATOM     21  H   UNL     1       2.743 -11.907   8.502  1.00  0.00     0.293 HD
ENDBRANCH  17  20
BRANCH  15  22
ATOM     22  O   UNL     1      -1.035  -8.666   8.568  1.00  0.00    -0.508 OA
ATOM     23  H   UNL     1      -1.698  -9.023   7.890  1.00  0.00     0.293 HD
ENDBRANCH  15  22
TORSDOF 3
ENDMDL
MODEL 9
REMARK VINA RESULT:    -6.465      2.678      3.863
REMARK INTER + INTRA:          -7.032
REMARK INTER:                  -7.032
REMARK INTRA:                   0.000
REMARK UNBOUND:                 0.000
REMARK SMILES Cc1cc(O)c2c(c1)C(=O)c1cc(O)cc(O)c1C2=O
REMARK SMILES IDX 1 1 2 2 8 3 7 4 6 5 4 6 3 7 19 8 20 9 18 10 11 11 9 12 10 13
REMARK SMILES IDX 12 14 13 15 15 16 16 17 5 18 17 20 14 22
REMARK H PARENT 5 19 17 21 14 23
REMARK Flexibility Score: inf
ROOT
ATOM      1  C   UNL     1       9.636  -5.371   5.057  1.00  0.00     0.044 C 
ATOM      2  C   UNL     1       8.401  -6.099   5.498  1.00  0.00    -0.047 A 
ATOM      3  C   UNL     1       7.235  -5.390   5.798  1.00  0.00     0.016 A 
ATOM      4  C   UNL     1       6.064  -6.064   6.189  1.00  0.00     0.038 A 
ATOM      5  C   UNL     1       6.061  -7.475   6.280  1.00  0.00     0.076 A 
ATOM      6  C   UNL     1       7.220  -8.192   5.876  1.00  0.00     0.127 A 
ATOM      7  C   UNL     1       8.378  -7.497   5.518  1.00  0.00     0.050 A 
ATOM      8  C   UNL     1       4.858  -8.145   6.846  1.00  0.00     0.201 C 
ATOM      9  O   UNL     1       4.948  -9.307   7.328  1.00  0.00    -0.288 OA
ATOM     10  C   UNL     1       3.571  -7.407   6.954  1.00  0.00     0.076 A 
ATOM     11  C   UNL     1       3.570  -6.005   6.795  1.00  0.00     0.041 A 
ATOM     12  C   UNL     1       4.833  -5.295   6.491  1.00  0.00     0.194 C 
ATOM     13  O   UNL     1       4.856  -4.033   6.472  1.00  0.00    -0.289 OA
ATOM     14  C   UNL     1       2.367  -5.289   6.930  1.00  0.00     0.059 A 
ATOM     15  C   UNL     1       1.174  -5.952   7.213  1.00  0.00     0.120 A 
ATOM     16  C   UNL     1       1.169  -7.341   7.363  1.00  0.00     0.093 A 
ATOM     17  C   UNL     1       2.356  -8.074   7.234  1.00  0.00     0.131 A 
ENDROOT
BRANCH   6  18
ATOM     18  O   UNL     1       7.256  -9.585   5.778  1.00  0.00    -0.507 OA
ATOM     19  H   UNL     1       6.457 -10.181   5.947  1.00  0.00     0.293 HD
ENDBRANCH   6  18
BRANCH  17  20
ATOM     20  O   UNL     1       2.322  -9.462   7.374  1.00  0.00    -0.507 OA
ATOM     21  H   UNL     1       3.079 -10.049   7.046  1.00  0.00     0.293 HD
ENDBRANCH  17  20
BRANCH  15  22
ATOM     22  O   UNL     1      -0.005  -5.221   7.340  1.00  0.00    -0.508 OA
ATOM     23  H   UNL     1      -0.002  -4.264   7.677  1.00  0.00     0.293 HD
ENDBRANCH  15  22
TORSDOF 3
ENDMDL
