MODEL 1
REMARK VINA RESULT:    -5.109      0.000      0.000
REMARK INTER + INTRA:          -9.345
REMARK INTER:                  -7.797
REMARK INTRA:                  -1.548
REMARK UNBOUND:                -1.548
REMARK SMILES OC[C@@H]1O[C@@H](O[C@]2(CO)O[C@@H](CO)[C@@H](O)[C@@H]2O)[C@@H](O)[C@@H](O)[C@H]1O
REMARK SMILES IDX 6 1 5 2 3 3 22 4 4 5 20 6 18 7 2 8 1 9 23 11 21 13 19 15
REMARK SMILES IDX 7 17 16 18 10 19 14 20 11 21 8 22 9 23 17 25 15 27 12 29
REMARK SMILES IDX 13 30
REMARK H PARENT 1 10 23 12 21 14 19 16 9 24 17 26 15 28 13 31
REMARK Flexibility Score: inf
ROOT
ATOM      1  O   UNL     1    -143.945  58.133  -2.144  1.00  0.00    -0.313 OA
ENDROOT
BRANCH   1   2
ATOM      2  C   UNL     1    -143.544  59.355  -1.528  1.00  0.00     0.285 C 
ATOM      3  C   UNL     1    -144.780  60.626  -3.076  1.00  0.00     0.178 C 
ATOM      4  C   UNL     1    -143.525  61.228  -3.748  1.00  0.00     0.177 C 
ATOM      5  O   UNL     1    -144.533  60.357  -1.704  1.00  0.00    -0.341 OA
ATOM      6  C   UNL     1    -142.298  60.309  -3.551  1.00  0.00     0.179 C 
ATOM      7  C   UNL     1    -142.186  59.837  -2.088  1.00  0.00     0.202 C 
BRANCH   3   8
ATOM      8  C   UNL     1    -145.961  61.606  -3.168  1.00  0.00     0.191 C 
BRANCH   8   9
ATOM      9  O   UNL     1    -145.512  62.880  -3.542  1.00  0.00    -0.394 OA
ATOM     10  H   UNL     1    -145.763  63.497  -2.805  1.00  0.00     0.210 HD
ENDBRANCH   8   9
ENDBRANCH   3   8
BRANCH   4  11
ATOM     11  O   UNL     1    -143.763  61.429  -5.117  1.00  0.00    -0.387 OA
ATOM     12  H   UNL     1    -144.466  60.781  -5.384  1.00  0.00     0.211 HD
ENDBRANCH   4  11
BRANCH   6  13
ATOM     13  O   UNL     1    -142.286  59.227  -4.454  1.00  0.00    -0.387 OA
ATOM     14  H   UNL     1    -142.548  58.406  -3.968  1.00  0.00     0.211 HD
ENDBRANCH   6  13
BRANCH   7  15
ATOM     15  O   UNL     1    -141.217  58.825  -1.990  1.00  0.00    -0.385 OA
ATOM     16  H   UNL     1    -141.704  57.960  -1.990  1.00  0.00     0.211 HD
ENDBRANCH   7  15
ENDBRANCH   1   2
BRANCH   1  17
ATOM     17  C   UNL     1    -143.858  56.966  -1.325  1.00  0.00     0.224 C 
ATOM     18  C   UNL     1    -143.109  55.786  -2.002  1.00  0.00     0.208 C 
ATOM     19  O   UNL     1    -143.096  57.328  -0.188  1.00  0.00    -0.337 OA
ATOM     20  C   UNL     1    -142.412  55.115  -0.843  1.00  0.00     0.180 C 
ATOM     21  C   UNL     1    -142.177  56.293   0.105  1.00  0.00     0.179 C 
BRANCH  17  22
ATOM     22  C   UNL     1    -145.263  56.570  -0.779  1.00  0.00     0.225 C 
BRANCH  22  23
ATOM     23  O   UNL     1    -146.239  56.491  -1.783  1.00  0.00    -0.391 OA
ATOM     24  H   UNL     1    -145.804  56.103  -2.587  1.00  0.00     0.210 HD
ENDBRANCH  22  23
ENDBRANCH  17  22
BRANCH  18  25
ATOM     25  O   UNL     1    -142.158  56.222  -2.947  1.00  0.00    -0.385 OA
ATOM     26  H   UNL     1    -142.635  56.688  -3.682  1.00  0.00     0.211 HD
ENDBRANCH  18  25
BRANCH  20  27
ATOM     27  O   UNL     1    -143.252  54.145  -0.266  1.00  0.00    -0.387 OA
ATOM     28  H   UNL     1    -142.821  53.264  -0.430  1.00  0.00     0.211 HD
ENDBRANCH  20  27
BRANCH  21  29
ATOM     29  C   UNL     1    -142.256  55.918   1.593  1.00  0.00     0.191 C 
BRANCH  29  30
ATOM     30  O   UNL     1    -141.265  54.980   1.913  1.00  0.00    -0.394 OA
ATOM     31  H   UNL     1    -140.815  55.311   2.734  1.00  0.00     0.210 HD
ENDBRANCH  29  30
ENDBRANCH  21  29
ENDBRANCH   1  17
TORSDOF 13
ENDMDL
MODEL 2
REMARK VINA RESULT:    -5.052      8.114     10.812
REMARK INTER + INTRA:          -9.257
REMARK INTER:                  -7.852
REMARK INTRA:                  -1.406
REMARK UNBOUND:                -1.548
REMARK SMILES OC[C@@H]1O[C@@H](O[C@]2(CO)O[C@@H](CO)[C@@H](O)[C@@H]2O)[C@@H](O)[C@@H](O)[C@H]1O
REMARK SMILES IDX 6 1 5 2 3 3 22 4 4 5 20 6 18 7 2 8 1 9 23 11 21 13 19 15
REMARK SMILES IDX 7 17 16 18 10 19 14 20 11 21 8 22 9 23 17 25 15 27 12 29
REMARK SMILES IDX 13 30
REMARK H PARENT 1 10 23 12 21 14 19 16 9 24 17 26 15 28 13 31
REMARK Flexibility Score: inf
ROOT
ATOM      1  O   UNL     1    -140.302  63.060   4.837  1.00  0.00    -0.313 OA
ENDROOT
BRANCH   1   2
ATOM      2  C   UNL     1    -139.789  62.554   6.067  1.00  0.00     0.285 C 
ATOM      3  C   UNL     1    -138.505  60.929   4.947  1.00  0.00     0.178 C 
ATOM      4  C   UNL     1    -139.342  59.744   5.478  1.00  0.00     0.177 C 
ATOM      5  O   UNL     1    -138.497  61.996   5.883  1.00  0.00    -0.341 OA
ATOM      6  C   UNL     1    -140.773  60.199   5.849  1.00  0.00     0.179 C 
ATOM      7  C   UNL     1    -140.745  61.501   6.673  1.00  0.00     0.202 C 
BRANCH   3   8
ATOM      8  C   UNL     1    -137.051  60.493   4.703  1.00  0.00     0.191 C 
BRANCH   8   9
ATOM      9  O   UNL     1    -136.607  59.664   5.742  1.00  0.00    -0.394 OA
ATOM     10  H   UNL     1    -136.558  60.230   6.557  1.00  0.00     0.210 HD
ENDBRANCH   8   9
ENDBRANCH   3   8
BRANCH   4  11
ATOM     11  O   UNL     1    -139.395  58.723   4.516  1.00  0.00    -0.387 OA
ATOM     12  H   UNL     1    -140.087  58.987   3.856  1.00  0.00     0.211 HD
ENDBRANCH   4  11
BRANCH   6  13
ATOM     13  O   UNL     1    -141.610  60.311   4.721  1.00  0.00    -0.387 OA
ATOM     14  H   UNL     1    -142.000  59.423   4.527  1.00  0.00     0.211 HD
ENDBRANCH   6  13
BRANCH   7  15
ATOM     15  O   UNL     1    -142.047  62.016   6.789  1.00  0.00    -0.385 OA
ATOM     16  H   UNL     1    -142.510  61.472   7.478  1.00  0.00     0.211 HD
ENDBRANCH   7  15
ENDBRANCH   1   2
BRANCH   1  17
ATOM     17  C   UNL     1    -140.870  64.369   4.893  1.00  0.00     0.224 C 
ATOM     18  C   UNL     1    -140.637  65.204   3.604  1.00  0.00     0.208 C 
ATOM     19  O   UNL     1    -142.270  64.196   5.013  1.00  0.00    -0.337 OA
ATOM     20  C   UNL     1    -141.895  66.031   3.501  1.00  0.00     0.180 C 
ATOM     21  C   UNL     1    -142.928  65.114   4.160  1.00  0.00     0.179 C 
BRANCH  17  22
ATOM     22  C   UNL     1    -140.426  65.108   6.191  1.00  0.00     0.225 C 
BRANCH  22  23
ATOM     23  O   UNL     1    -139.568  66.189   5.942  1.00  0.00    -0.391 OA
ATOM     24  H   UNL     1    -138.703  65.987   6.384  1.00  0.00     0.210 HD
ENDBRANCH  22  23
ENDBRANCH  17  22
BRANCH  18  25
ATOM     25  O   UNL     1    -140.498  64.397   2.456  1.00  0.00    -0.385 OA
ATOM     26  H   UNL     1    -139.530  64.274   2.273  1.00  0.00     0.211 HD
ENDBRANCH  18  25
BRANCH  20  27
ATOM     27  O   UNL     1    -141.744  67.236   4.211  1.00  0.00    -0.387 OA
ATOM     28  H   UNL     1    -140.769  67.357   4.361  1.00  0.00     0.211 HD
ENDBRANCH  20  27
BRANCH  21  29
ATOM     29  C   UNL     1    -144.023  65.865   4.933  1.00  0.00     0.191 C 
BRANCH  29  30
ATOM     30  O   UNL     1    -143.671  65.986   6.284  1.00  0.00    -0.394 OA
ATOM     31  H   UNL     1    -143.665  65.067   6.660  1.00  0.00     0.210 HD
ENDBRANCH  29  30
ENDBRANCH  21  29
ENDBRANCH   1  17
TORSDOF 13
ENDMDL
MODEL 3
REMARK VINA RESULT:    -5.008      9.501     11.887
REMARK INTER + INTRA:          -9.190
REMARK INTER:                  -7.386
REMARK INTRA:                  -1.804
REMARK UNBOUND:                -1.548
REMARK SMILES OC[C@@H]1O[C@@H](O[C@]2(CO)O[C@@H](CO)[C@@H](O)[C@@H]2O)[C@@H](O)[C@@H](O)[C@H]1O
REMARK SMILES IDX 6 1 5 2 3 3 22 4 4 5 20 6 18 7 2 8 1 9 23 11 21 13 19 15
REMARK SMILES IDX 7 17 16 18 10 19 14 20 11 21 8 22 9 23 17 25 15 27 12 29
REMARK SMILES IDX 13 30
REMARK H PARENT 1 10 23 12 21 14 19 16 9 24 17 26 15 28 13 31
REMARK Flexibility Score: inf
ROOT
ATOM      1  O   UNL     1    -140.177  65.020   4.522  1.00  0.00    -0.313 OA
ENDROOT
BRANCH   1   2
ATOM      2  C   UNL     1    -139.949  64.561   5.853  1.00  0.00     0.285 C 
ATOM      3  C   UNL     1    -139.813  62.322   5.137  1.00  0.00     0.178 C 
ATOM      4  C   UNL     1    -141.126  61.906   5.838  1.00  0.00     0.177 C 
ATOM      5  O   UNL     1    -139.176  63.371   5.850  1.00  0.00    -0.341 OA
ATOM      6  C   UNL     1    -142.059  63.122   6.035  1.00  0.00     0.179 C 
ATOM      7  C   UNL     1    -141.285  64.331   6.595  1.00  0.00     0.202 C 
BRANCH   3   8
ATOM      8  C   UNL     1    -138.843  61.133   5.061  1.00  0.00     0.191 C 
BRANCH   8   9
ATOM      9  O   UNL     1    -139.025  60.282   6.160  1.00  0.00    -0.394 OA
ATOM     10  H   UNL     1    -139.953  60.426   6.481  1.00  0.00     0.210 HD
ENDBRANCH   8   9
ENDBRANCH   3   8
BRANCH   4  11
ATOM     11  O   UNL     1    -141.778  60.914   5.088  1.00  0.00    -0.387 OA
ATOM     12  H   UNL     1    -142.307  60.371   5.729  1.00  0.00     0.211 HD
ENDBRANCH   4  11
BRANCH   6  13
ATOM     13  O   UNL     1    -142.768  63.452   4.862  1.00  0.00    -0.387 OA
ATOM     14  H   UNL     1    -142.615  64.407   4.658  1.00  0.00     0.211 HD
ENDBRANCH   6  13
BRANCH   7  15
ATOM     15  O   UNL     1    -142.092  65.479   6.538  1.00  0.00    -0.385 OA
ATOM     16  H   UNL     1    -142.748  65.332   5.808  1.00  0.00     0.211 HD
ENDBRANCH   7  15
ENDBRANCH   1   2
BRANCH   1  17
ATOM     17  C   UNL     1    -139.350  66.099   4.086  1.00  0.00     0.224 C 
ATOM     18  C   UNL     1    -140.148  67.301   3.512  1.00  0.00     0.208 C 
ATOM     19  O   UNL     1    -138.673  66.576   5.234  1.00  0.00    -0.337 OA
ATOM     20  C   UNL     1    -139.317  68.491   3.924  1.00  0.00     0.180 C 
ATOM     21  C   UNL     1    -138.678  67.992   5.223  1.00  0.00     0.179 C 
BRANCH  17  22
ATOM     22  C   UNL     1    -138.236  65.586   3.125  1.00  0.00     0.225 C 
BRANCH  22  23
ATOM     23  O   UNL     1    -137.185  64.944   3.797  1.00  0.00    -0.391 OA
ATOM     24  H   UNL     1    -136.777  65.610   4.410  1.00  0.00     0.210 HD
ENDBRANCH  22  23
ENDBRANCH  17  22
BRANCH  18  25
ATOM     25  O   UNL     1    -141.441  67.404   4.064  1.00  0.00    -0.385 OA
ATOM     26  H   UNL     1    -141.418  68.072   4.799  1.00  0.00     0.211 HD
ENDBRANCH  18  25
BRANCH  20  27
ATOM     27  O   UNL     1    -138.348  68.771   2.944  1.00  0.00    -0.387 OA
ATOM     28  H   UNL     1    -138.151  69.742   3.009  1.00  0.00     0.211 HD
ENDBRANCH  20  27
BRANCH  21  29
ATOM     29  C   UNL     1    -137.260  68.530   5.464  1.00  0.00     0.191 C 
BRANCH  29  30
ATOM     30  O   UNL     1    -136.307  67.658   4.921  1.00  0.00    -0.394 OA
ATOM     31  H   UNL     1    -136.811  66.944   4.449  1.00  0.00     0.210 HD
ENDBRANCH  29  30
ENDBRANCH  21  29
ENDBRANCH   1  17
TORSDOF 13
ENDMDL
MODEL 4
REMARK VINA RESULT:    -4.906      8.638     11.317
REMARK INTER + INTRA:          -9.035
REMARK INTER:                  -7.185
REMARK INTRA:                  -1.850
REMARK UNBOUND:                -1.548
REMARK SMILES OC[C@@H]1O[C@@H](O[C@]2(CO)O[C@@H](CO)[C@@H](O)[C@@H]2O)[C@@H](O)[C@@H](O)[C@H]1O
REMARK SMILES IDX 6 1 5 2 3 3 22 4 4 5 20 6 18 7 2 8 1 9 23 11 21 13 19 15
REMARK SMILES IDX 7 17 16 18 10 19 14 20 11 21 8 22 9 23 17 25 15 27 12 29
REMARK SMILES IDX 13 30
REMARK H PARENT 1 10 23 12 21 14 19 16 9 24 17 26 15 28 13 31
REMARK Flexibility Score: inf
ROOT
ATOM      1  O   UNL     1    -140.834  64.330   4.289  1.00  0.00    -0.313 OA
ENDROOT
BRANCH   1   2
ATOM      2  C   UNL     1    -139.835  64.207   5.300  1.00  0.00     0.285 C 
ATOM      3  C   UNL     1    -139.784  61.865   5.066  1.00  0.00     0.178 C 
ATOM      4  C   UNL     1    -140.400  61.603   6.458  1.00  0.00     0.177 C 
ATOM      5  O   UNL     1    -139.025  63.065   5.071  1.00  0.00    -0.341 OA
ATOM      6  C   UNL     1    -141.237  62.815   6.930  1.00  0.00     0.179 C 
ATOM      7  C   UNL     1    -140.477  64.136   6.705  1.00  0.00     0.202 C 
BRANCH   3   8
ATOM      8  C   UNL     1    -138.852  60.709   4.665  1.00  0.00     0.191 C 
BRANCH   8   9
ATOM      9  O   UNL     1    -138.374  60.048   5.804  1.00  0.00    -0.394 OA
ATOM     10  H   UNL     1    -138.313  59.085   5.569  1.00  0.00     0.210 HD
ENDBRANCH   8   9
ENDBRANCH   3   8
BRANCH   4  11
ATOM     11  O   UNL     1    -141.199  60.449   6.422  1.00  0.00    -0.387 OA
ATOM     12  H   UNL     1    -140.738  59.801   5.829  1.00  0.00     0.211 HD
ENDBRANCH   4  11
BRANCH   6  13
ATOM     13  O   UNL     1    -142.519  62.842   6.346  1.00  0.00    -0.387 OA
ATOM     14  H   UNL     1    -143.140  62.328   6.920  1.00  0.00     0.211 HD
ENDBRANCH   6  13
BRANCH   7  15
ATOM     15  O   UNL     1    -141.342  65.222   6.914  1.00  0.00    -0.385 OA
ATOM     16  H   UNL     1    -142.213  64.979   6.503  1.00  0.00     0.211 HD
ENDBRANCH   7  15
ENDBRANCH   1   2
BRANCH   1  17
ATOM     17  C   UNL     1    -140.686  65.439   3.402  1.00  0.00     0.224 C 
ATOM     18  C   UNL     1    -141.921  66.380   3.371  1.00  0.00     0.208 C 
ATOM     19  O   UNL     1    -139.605  66.209   3.896  1.00  0.00    -0.337 OA
ATOM     20  C   UNL     1    -141.307  67.742   3.155  1.00  0.00     0.180 C 
ATOM     21  C   UNL     1    -139.944  67.581   3.832  1.00  0.00     0.179 C 
BRANCH  17  22
ATOM     22  C   UNL     1    -140.245  64.957   1.987  1.00  0.00     0.225 C 
BRANCH  22  23
ATOM     23  O   UNL     1    -138.860  64.758   1.882  1.00  0.00    -0.391 OA
ATOM     24  H   UNL     1    -138.519  64.569   2.795  1.00  0.00     0.210 HD
ENDBRANCH  22  23
ENDBRANCH  17  22
BRANCH  18  25
ATOM     25  O   UNL     1    -142.642  66.364   4.582  1.00  0.00    -0.385 OA
ATOM     26  H   UNL     1    -141.996  66.432   5.334  1.00  0.00     0.211 HD
ENDBRANCH  18  25
BRANCH  20  27
ATOM     27  O   UNL     1    -141.175  68.003   1.780  1.00  0.00    -0.387 OA
ATOM     28  H   UNL     1    -141.717  67.318   1.307  1.00  0.00     0.211 HD
ENDBRANCH  20  27
BRANCH  21  29
ATOM     29  C   UNL     1    -138.817  68.376   3.156  1.00  0.00     0.191 C 
BRANCH  29  30
ATOM     30  O   UNL     1    -138.287  67.651   2.080  1.00  0.00    -0.394 OA
ATOM     31  H   UNL     1    -139.050  67.188   1.644  1.00  0.00     0.210 HD
ENDBRANCH  29  30
ENDBRANCH  21  29
ENDBRANCH   1  17
TORSDOF 13
ENDMDL
MODEL 5
REMARK VINA RESULT:    -4.803      1.590      3.271
REMARK INTER + INTRA:          -8.878
REMARK INTER:                  -7.081
REMARK INTRA:                  -1.797
REMARK UNBOUND:                -1.548
REMARK SMILES OC[C@@H]1O[C@@H](O[C@]2(CO)O[C@@H](CO)[C@@H](O)[C@@H]2O)[C@@H](O)[C@@H](O)[C@H]1O
REMARK SMILES IDX 6 1 5 2 3 3 22 4 4 5 20 6 18 7 2 8 1 9 23 11 21 13 19 15
REMARK SMILES IDX 7 17 16 18 10 19 14 20 11 21 8 22 9 23 17 25 15 27 12 29
REMARK SMILES IDX 13 30
REMARK H PARENT 1 10 23 12 21 14 19 16 9 24 17 26 15 28 13 31
REMARK Flexibility Score: inf
ROOT
ATOM      1  O   UNL     1    -142.904  58.826  -0.988  1.00  0.00    -0.313 OA
ENDROOT
BRANCH   1   2
ATOM      2  C   UNL     1    -143.190  58.758  -2.383  1.00  0.00     0.285 C 
ATOM      3  C   UNL     1    -142.747  61.054  -2.660  1.00  0.00     0.178 C 
ATOM      4  C   UNL     1    -144.219  61.411  -2.966  1.00  0.00     0.177 C 
ATOM      5  O   UNL     1    -142.451  59.736  -3.098  1.00  0.00    -0.341 OA
ATOM      6  C   UNL     1    -145.181  60.368  -2.354  1.00  0.00     0.179 C 
ATOM      7  C   UNL     1    -144.704  58.933  -2.646  1.00  0.00     0.202 C 
BRANCH   3   8
ATOM      8  C   UNL     1    -141.798  62.024  -3.380  1.00  0.00     0.191 C 
BRANCH   8   9
ATOM      9  O   UNL     1    -142.408  62.546  -4.529  1.00  0.00    -0.394 OA
ATOM     10  H   UNL     1    -142.608  63.499  -4.337  1.00  0.00     0.210 HD
ENDBRANCH   8   9
ENDBRANCH   3   8
BRANCH   4  11
ATOM     11  O   UNL     1    -144.516  62.691  -2.471  1.00  0.00    -0.387 OA
ATOM     12  H   UNL     1    -143.813  63.302  -2.816  1.00  0.00     0.211 HD
ENDBRANCH   4  11
BRANCH   6  13
ATOM     13  O   UNL     1    -145.397  60.579  -0.977  1.00  0.00    -0.387 OA
ATOM     14  H   UNL     1    -146.168  60.031  -0.690  1.00  0.00     0.211 HD
ENDBRANCH   6  13
BRANCH   7  15
ATOM     15  O   UNL     1    -145.451  58.020  -1.885  1.00  0.00    -0.385 OA
ATOM     16  H   UNL     1    -145.286  57.121  -2.271  1.00  0.00     0.211 HD
ENDBRANCH   7  15
ENDBRANCH   1   2
BRANCH   1  17
ATOM     17  C   UNL     1    -142.403  57.626  -0.398  1.00  0.00     0.224 C 
ATOM     18  C   UNL     1    -143.222  57.149   0.832  1.00  0.00     0.208 C 
ATOM     19  O   UNL     1    -142.523  56.613  -1.380  1.00  0.00    -0.337 OA
ATOM     20  C   UNL     1    -143.135  55.646   0.738  1.00  0.00     0.180 C 
ATOM     21  C   UNL     1    -143.014  55.433  -0.773  1.00  0.00     0.179 C 
BRANCH  17  22
ATOM     22  C   UNL     1    -140.877  57.751  -0.109  1.00  0.00     0.225 C 
BRANCH  22  23
ATOM     23  O   UNL     1    -140.589  57.933   1.252  1.00  0.00    -0.391 OA
ATOM     24  H   UNL     1    -139.913  58.657   1.316  1.00  0.00     0.210 HD
ENDBRANCH  22  23
ENDBRANCH  17  22
BRANCH  18  25
ATOM     25  O   UNL     1    -144.571  57.556   0.773  1.00  0.00    -0.385 OA
ATOM     26  H   UNL     1    -144.927  57.337  -0.127  1.00  0.00     0.211 HD
ENDBRANCH  18  25
BRANCH  20  27
ATOM     27  O   UNL     1    -141.995  55.181   1.419  1.00  0.00    -0.387 OA
ATOM     28  H   UNL     1    -141.271  55.107   0.742  1.00  0.00     0.211 HD
ENDBRANCH  20  27
BRANCH  21  29
ATOM     29  C   UNL     1    -142.140  54.232  -1.163  1.00  0.00     0.191 C 
BRANCH  29  30
ATOM     30  O   UNL     1    -140.789  54.603  -1.202  1.00  0.00    -0.394 OA
ATOM     31  H   UNL     1    -140.608  54.925  -2.123  1.00  0.00     0.210 HD
ENDBRANCH  29  30
ENDBRANCH  21  29
ENDBRANCH   1  17
TORSDOF 13
ENDMDL
MODEL 6
REMARK VINA RESULT:    -4.743      1.673      6.217
REMARK INTER + INTRA:          -8.787
REMARK INTER:                  -7.152
REMARK INTRA:                  -1.634
REMARK UNBOUND:                -1.548
REMARK SMILES OC[C@@H]1O[C@@H](O[C@]2(CO)O[C@@H](CO)[C@@H](O)[C@@H]2O)[C@@H](O)[C@@H](O)[C@H]1O
REMARK SMILES IDX 6 1 5 2 3 3 22 4 4 5 20 6 18 7 2 8 1 9 23 11 21 13 19 15
REMARK SMILES IDX 7 17 16 18 10 19 14 20 11 21 8 22 9 23 17 25 15 27 12 29
REMARK SMILES IDX 13 30
REMARK H PARENT 1 10 23 12 21 14 19 16 9 24 17 26 15 28 13 31
REMARK Flexibility Score: inf
ROOT
ATOM      1  O   UNL     1    -143.327  58.856  -2.940  1.00  0.00    -0.313 OA
ENDROOT
BRANCH   1   2
ATOM      2  C   UNL     1    -142.993  58.789  -1.555  1.00  0.00     0.285 C 
ATOM      3  C   UNL     1    -142.529  56.485  -1.704  1.00  0.00     0.178 C 
ATOM      4  C   UNL     1    -143.740  56.076  -0.836  1.00  0.00     0.177 C 
ATOM      5  O   UNL     1    -142.043  57.762  -1.315  1.00  0.00    -0.341 OA
ATOM      6  C   UNL     1    -144.846  57.154  -0.884  1.00  0.00     0.179 C 
ATOM      7  C   UNL     1    -144.255  58.565  -0.692  1.00  0.00     0.202 C 
BRANCH   3   8
ATOM      8  C   UNL     1    -141.387  55.469  -1.547  1.00  0.00     0.191 C 
BRANCH   8   9
ATOM      9  O   UNL     1    -141.429  54.875  -0.279  1.00  0.00    -0.394 OA
ATOM     10  H   UNL     1    -142.276  55.173   0.146  1.00  0.00     0.210 HD
ENDBRANCH   8   9
ENDBRANCH   3   8
BRANCH   4  11
ATOM     11  O   UNL     1    -144.249  54.842  -1.273  1.00  0.00    -0.387 OA
ATOM     12  H   UNL     1    -143.492  54.350  -1.686  1.00  0.00     0.211 HD
ENDBRANCH   4  11
BRANCH   6  13
ATOM     13  O   UNL     1    -145.630  57.069  -2.052  1.00  0.00    -0.387 OA
ATOM     14  H   UNL     1    -145.065  56.727  -2.788  1.00  0.00     0.211 HD
ENDBRANCH   6  13
BRANCH   7  15
ATOM     15  O   UNL     1    -145.233  59.531  -0.977  1.00  0.00    -0.385 OA
ATOM     16  H   UNL     1    -145.033  60.319  -0.407  1.00  0.00     0.211 HD
ENDBRANCH   7  15
ENDBRANCH   1   2
BRANCH   1  17
ATOM     17  C   UNL     1    -142.852  60.007  -3.639  1.00  0.00     0.224 C 
ATOM     18  C   UNL     1    -143.975  60.806  -4.357  1.00  0.00     0.208 C 
ATOM     19  O   UNL     1    -142.303  60.873  -2.663  1.00  0.00    -0.337 OA
ATOM     20  C   UNL     1    -143.501  62.234  -4.246  1.00  0.00     0.180 C 
ATOM     21  C   UNL     1    -142.708  62.201  -2.937  1.00  0.00     0.179 C 
BRANCH  17  22
ATOM     22  C   UNL     1    -141.668  59.631  -4.579  1.00  0.00     0.225 C 
BRANCH  22  23
ATOM     23  O   UNL     1    -141.250  58.300  -4.430  1.00  0.00    -0.391 OA
ATOM     24  H   UNL     1    -140.841  58.022  -5.291  1.00  0.00     0.210 HD
ENDBRANCH  22  23
ENDBRANCH  17  22
BRANCH  18  25
ATOM     25  O   UNL     1    -145.227  60.664  -3.724  1.00  0.00    -0.385 OA
ATOM     26  H   UNL     1    -145.937  60.908  -4.373  1.00  0.00     0.211 HD
ENDBRANCH  18  25
BRANCH  20  27
ATOM     27  O   UNL     1    -142.680  62.561  -5.340  1.00  0.00    -0.387 OA
ATOM     28  H   UNL     1    -141.998  63.199  -5.003  1.00  0.00     0.211 HD
ENDBRANCH  20  27
BRANCH  21  29
ATOM     29  C   UNL     1    -141.493  63.140  -2.923  1.00  0.00     0.191 C 
BRANCH  29  30
ATOM     30  O   UNL     1    -140.385  62.515  -3.511  1.00  0.00    -0.394 OA
ATOM     31  H   UNL     1    -139.930  63.202  -4.065  1.00  0.00     0.210 HD
ENDBRANCH  29  30
ENDBRANCH  21  29
ENDBRANCH   1  17
TORSDOF 13
ENDMDL
MODEL 7
REMARK VINA RESULT:    -4.670      8.196     10.955
REMARK INTER + INTRA:          -8.675
REMARK INTER:                  -7.037
REMARK INTRA:                  -1.638
REMARK UNBOUND:                -1.548
REMARK SMILES OC[C@@H]1O[C@@H](O[C@]2(CO)O[C@@H](CO)[C@@H](O)[C@@H]2O)[C@@H](O)[C@@H](O)[C@H]1O
REMARK SMILES IDX 6 1 5 2 3 3 22 4 4 5 20 6 18 7 2 8 1 9 23 11 21 13 19 15
REMARK SMILES IDX 7 17 16 18 10 19 14 20 11 21 8 22 9 23 17 25 15 27 12 29
REMARK SMILES IDX 13 30
REMARK H PARENT 1 10 23 12 21 14 19 16 9 24 17 26 15 28 13 31
REMARK Flexibility Score: inf
ROOT
ATOM      1  O   UNL     1    -140.961  64.626   4.101  1.00  0.00    -0.313 OA
ENDROOT
BRANCH   1   2
ATOM      2  C   UNL     1    -140.193  64.600   5.302  1.00  0.00     0.285 C 
ATOM      3  C   UNL     1    -139.805  62.288   5.089  1.00  0.00     0.178 C 
ATOM      4  C   UNL     1    -140.666  61.920   6.319  1.00  0.00     0.177 C 
ATOM      5  O   UNL     1    -139.218  63.570   5.254  1.00  0.00    -0.341 OA
ATOM      6  C   UNL     1    -141.726  63.010   6.598  1.00  0.00     0.179 C 
ATOM      7  C   UNL     1    -141.104  64.419   6.538  1.00  0.00     0.202 C 
BRANCH   3   8
ATOM      8  C   UNL     1    -138.675  61.263   4.899  1.00  0.00     0.191 C 
BRANCH   8   9
ATOM      9  O   UNL     1    -138.354  60.655   6.120  1.00  0.00    -0.394 OA
ATOM     10  H   UNL     1    -137.987  61.369   6.705  1.00  0.00     0.210 HD
ENDBRANCH   8   9
ENDBRANCH   3   8
BRANCH   4  11
ATOM     11  O   UNL     1    -141.291  60.679   6.115  1.00  0.00    -0.387 OA
ATOM     12  H   UNL     1    -140.568  60.018   5.958  1.00  0.00     0.211 HD
ENDBRANCH   4  11
BRANCH   6  13
ATOM     13  O   UNL     1    -142.849  62.896   5.753  1.00  0.00    -0.387 OA
ATOM     14  H   UNL     1    -143.609  62.550   6.283  1.00  0.00     0.211 HD
ENDBRANCH   6  13
BRANCH   7  15
ATOM     15  O   UNL     1    -142.121  65.387   6.555  1.00  0.00    -0.385 OA
ATOM     16  H   UNL     1    -142.221  65.714   5.623  1.00  0.00     0.211 HD
ENDBRANCH   7  15
ENDBRANCH   1   2
BRANCH   1  17
ATOM     17  C   UNL     1    -140.600  65.632   3.154  1.00  0.00     0.224 C 
ATOM     18  C   UNL     1    -139.496  65.182   2.159  1.00  0.00     0.208 C 
ATOM     19  O   UNL     1    -141.758  65.893   2.382  1.00  0.00    -0.337 OA
ATOM     20  C   UNL     1    -139.872  65.899   0.885  1.00  0.00     0.180 C 
ATOM     21  C   UNL     1    -141.394  65.997   1.018  1.00  0.00     0.179 C 
BRANCH  17  22
ATOM     22  C   UNL     1    -140.267  66.973   3.875  1.00  0.00     0.225 C 
BRANCH  22  23
ATOM     23  O   UNL     1    -141.387  67.803   4.036  1.00  0.00    -0.391 OA
ATOM     24  H   UNL     1    -142.052  67.536   3.350  1.00  0.00     0.210 HD
ENDBRANCH  22  23
ENDBRANCH  17  22
BRANCH  18  25
ATOM     25  O   UNL     1    -139.500  63.788   1.944  1.00  0.00    -0.385 OA
ATOM     26  H   UNL     1    -138.662  63.540   1.473  1.00  0.00     0.211 HD
ENDBRANCH  18  25
BRANCH  20  27
ATOM     27  O   UNL     1    -139.273  67.171   0.848  1.00  0.00    -0.387 OA
ATOM     28  H   UNL     1    -138.917  67.290  -0.072  1.00  0.00     0.211 HD
ENDBRANCH  20  27
BRANCH  21  29
ATOM     29  C   UNL     1    -141.990  67.274   0.406  1.00  0.00     0.191 C 
BRANCH  29  30
ATOM     30  O   UNL     1    -142.088  68.280   1.376  1.00  0.00    -0.394 OA
ATOM     31  H   UNL     1    -141.159  68.548   1.604  1.00  0.00     0.210 HD
ENDBRANCH  29  30
ENDBRANCH  21  29
ENDBRANCH   1  17
TORSDOF 13
ENDMDL
MODEL 8
REMARK VINA RESULT:    -4.541      1.748      3.155
REMARK INTER + INTRA:          -8.477
REMARK INTER:                  -6.747
REMARK INTRA:                  -1.730
REMARK UNBOUND:                -1.548
REMARK SMILES OC[C@@H]1O[C@@H](O[C@]2(CO)O[C@@H](CO)[C@@H](O)[C@@H]2O)[C@@H](O)[C@@H](O)[C@H]1O
REMARK SMILES IDX 6 1 5 2 3 3 22 4 4 5 20 6 18 7 2 8 1 9 23 11 21 13 19 15
REMARK SMILES IDX 7 17 16 18 10 19 14 20 11 21 8 22 9 23 17 25 15 27 12 29
REMARK SMILES IDX 13 30
REMARK H PARENT 1 10 23 12 21 14 19 16 9 24 17 26 15 28 13 31
REMARK Flexibility Score: inf
ROOT
ATOM      1  O   UNL     1    -142.808  58.421  -0.593  1.00  0.00    -0.313 OA
ENDROOT
BRANCH   1   2
ATOM      2  C   UNL     1    -143.135  58.218  -1.966  1.00  0.00     0.285 C 
ATOM      3  C   UNL     1    -142.657  60.463  -2.488  1.00  0.00     0.178 C 
ATOM      4  C   UNL     1    -144.130  60.819  -2.790  1.00  0.00     0.177 C 
ATOM      5  O   UNL     1    -142.398  59.102  -2.796  1.00  0.00    -0.341 OA
ATOM      6  C   UNL     1    -145.094  59.865  -2.049  1.00  0.00     0.179 C 
ATOM      7  C   UNL     1    -144.652  58.397  -2.206  1.00  0.00     0.202 C 
BRANCH   3   8
ATOM      8  C   UNL     1    -141.710  61.335  -3.328  1.00  0.00     0.191 C 
BRANCH   8   9
ATOM      9  O   UNL     1    -141.517  62.581  -2.714  1.00  0.00    -0.394 OA
ATOM     10  H   UNL     1    -142.028  62.561  -1.863  1.00  0.00     0.210 HD
ENDBRANCH   8   9
ENDBRANCH   3   8
BRANCH   4  11
ATOM     11  O   UNL     1    -144.389  62.149  -2.421  1.00  0.00    -0.387 OA
ATOM     12  H   UNL     1    -144.011  62.272  -1.511  1.00  0.00     0.211 HD
ENDBRANCH   4  11
BRANCH   6  13
ATOM     13  O   UNL     1    -145.266  60.219  -0.696  1.00  0.00    -0.387 OA
ATOM     14  H   UNL     1    -144.410  60.571  -0.349  1.00  0.00     0.211 HD
ENDBRANCH   6  13
BRANCH   7  15
ATOM     15  O   UNL     1    -145.395  57.583  -1.336  1.00  0.00    -0.385 OA
ATOM     16  H   UNL     1    -146.286  58.008  -1.236  1.00  0.00     0.211 HD
ENDBRANCH   7  15
ENDBRANCH   1   2
BRANCH   1  17
ATOM     17  C   UNL     1    -141.963  57.433  -0.003  1.00  0.00     0.224 C 
ATOM     18  C   UNL     1    -140.461  57.605  -0.362  1.00  0.00     0.208 C 
ATOM     19  O   UNL     1    -142.064  57.602   1.399  1.00  0.00    -0.337 OA
ATOM     20  C   UNL     1    -139.756  57.143   0.889  1.00  0.00     0.180 C 
ATOM     21  C   UNL     1    -140.774  57.503   1.974  1.00  0.00     0.179 C 
BRANCH  17  22
ATOM     22  C   UNL     1    -142.503  56.001  -0.292  1.00  0.00     0.225 C 
BRANCH  22  23
ATOM     23  O   UNL     1    -143.599  55.655   0.513  1.00  0.00    -0.391 OA
ATOM     24  H   UNL     1    -143.251  55.104   1.262  1.00  0.00     0.210 HD
ENDBRANCH  22  23
ENDBRANCH  17  22
BRANCH  18  25
ATOM     25  O   UNL     1    -140.122  58.946  -0.637  1.00  0.00    -0.385 OA
ATOM     26  H   UNL     1    -139.136  59.008  -0.734  1.00  0.00     0.211 HD
ENDBRANCH  18  25
BRANCH  20  27
ATOM     27  O   UNL     1    -139.527  55.756   0.834  1.00  0.00    -0.387 OA
ATOM     28  H   UNL     1    -138.590  55.635   0.526  1.00  0.00     0.211 HD
ENDBRANCH  20  27
BRANCH  21  29
ATOM     29  C   UNL     1    -140.794  56.524   3.157  1.00  0.00     0.191 C 
BRANCH  29  30
ATOM     30  O   UNL     1    -141.498  55.361   2.816  1.00  0.00    -0.394 OA
ATOM     31  H   UNL     1    -141.667  55.406   1.839  1.00  0.00     0.210 HD
ENDBRANCH  29  30
ENDBRANCH  21  29
ENDBRANCH   1  17
TORSDOF 13
ENDMDL
MODEL 9
REMARK VINA RESULT:    -4.429      7.851      9.301
REMARK INTER + INTRA:          -8.307
REMARK INTER:                  -6.413
REMARK INTRA:                  -1.894
REMARK UNBOUND:                -1.548
REMARK SMILES OC[C@@H]1O[C@@H](O[C@]2(CO)O[C@@H](CO)[C@@H](O)[C@@H]2O)[C@@H](O)[C@@H](O)[C@H]1O
REMARK SMILES IDX 6 1 5 2 3 3 22 4 4 5 20 6 18 7 2 8 1 9 23 11 21 13 19 15
REMARK SMILES IDX 7 17 16 18 10 19 14 20 11 21 8 22 9 23 17 25 15 27 12 29
REMARK SMILES IDX 13 30
REMARK H PARENT 1 10 23 12 21 14 19 16 9 24 17 26 15 28 13 31
REMARK Flexibility Score: inf
ROOT
ATOM      1  O   UNL     1    -139.178  63.315   4.573  1.00  0.00    -0.313 OA
ENDROOT
BRANCH   1   2
ATOM      2  C   UNL     1    -140.004  63.695   3.475  1.00  0.00     0.285 C 
ATOM      3  C   UNL     1    -138.977  65.809   3.340  1.00  0.00     0.178 C 
ATOM      4  C   UNL     1    -140.238  66.572   3.802  1.00  0.00     0.177 C 
ATOM      5  O   UNL     1    -139.335  64.627   2.640  1.00  0.00    -0.341 OA
ATOM      6  C   UNL     1    -141.160  65.659   4.643  1.00  0.00     0.179 C 
ATOM      7  C   UNL     1    -141.345  64.285   3.970  1.00  0.00     0.202 C 
BRANCH   3   8
ATOM      8  C   UNL     1    -138.133  66.686   2.401  1.00  0.00     0.191 C 
BRANCH   8   9
ATOM      9  O   UNL     1    -138.939  67.637   1.762  1.00  0.00    -0.394 OA
ATOM     10  H   UNL     1    -139.570  67.982   2.447  1.00  0.00     0.210 HD
ENDBRANCH   8   9
ENDBRANCH   3   8
BRANCH   4  11
ATOM     11  O   UNL     1    -139.870  67.704   4.548  1.00  0.00    -0.387 OA
ATOM     12  H   UNL     1    -139.075  67.447   5.084  1.00  0.00     0.211 HD
ENDBRANCH   4  11
BRANCH   6  13
ATOM     13  O   UNL     1    -140.722  65.535   5.977  1.00  0.00    -0.387 OA
ATOM     14  H   UNL     1    -139.734  65.514   5.985  1.00  0.00     0.211 HD
ENDBRANCH   6  13
BRANCH   7  15
ATOM     15  O   UNL     1    -141.980  63.403   4.859  1.00  0.00    -0.385 OA
ATOM     16  H   UNL     1    -141.283  62.783   5.196  1.00  0.00     0.211 HD
ENDBRANCH   7  15
ENDBRANCH   1   2
BRANCH   1  17
ATOM     17  C   UNL     1    -139.072  61.911   4.814  1.00  0.00     0.224 C 
ATOM     18  C   UNL     1    -139.351  61.511   6.289  1.00  0.00     0.208 C 
ATOM     19  O   UNL     1    -140.076  61.291   4.032  1.00  0.00    -0.337 OA
ATOM     20  C   UNL     1    -140.013  60.161   6.157  1.00  0.00     0.180 C 
ATOM     21  C   UNL     1    -140.711  60.287   4.800  1.00  0.00     0.179 C 
BRANCH  17  22
ATOM     22  C   UNL     1    -137.719  61.360   4.274  1.00  0.00     0.225 C 
BRANCH  22  23
ATOM     23  O   UNL     1    -137.786  60.963   2.930  1.00  0.00    -0.391 OA
ATOM     24  H   UNL     1    -138.434  61.564   2.477  1.00  0.00     0.210 HD
ENDBRANCH  22  23
ENDBRANCH  17  22
BRANCH  18  25
ATOM     25  O   UNL     1    -140.221  62.411   6.938  1.00  0.00    -0.385 OA
ATOM     26  H   UNL     1    -140.451  62.040   7.829  1.00  0.00     0.211 HD
ENDBRANCH  18  25
BRANCH  20  27
ATOM     27  O   UNL     1    -139.044  59.142   6.148  1.00  0.00    -0.387 OA
ATOM     28  H   UNL     1    -138.183  59.571   5.898  1.00  0.00     0.211 HD
ENDBRANCH  20  27
BRANCH  21  29
ATOM     29  C   UNL     1    -140.771  58.971   4.009  1.00  0.00     0.191 C 
BRANCH  29  30
ATOM     30  O   UNL     1    -139.592  58.790   3.273  1.00  0.00    -0.394 OA
ATOM     31  H   UNL     1    -139.801  59.040   2.335  1.00  0.00     0.210 HD
ENDBRANCH  29  30
ENDBRANCH  21  29
ENDBRANCH   1  17
TORSDOF 13
ENDMDL
