MODEL 1
REMARK VINA RESULT:    -5.032      0.000      0.000
REMARK INTER + INTRA:          -5.569
REMARK INTER:                  -5.473
REMARK INTRA:                  -0.096
REMARK UNBOUND:                -0.096
REMARK SMILES C=C(C)[C@@H]1CC=C(C)[C@@H](O)C1
REMARK SMILES IDX 8 1 7 2 6 3 5 4 4 5 11 6 9 7 10 8 2 10 1 11 3 12
REMARK H PARENT 10 9
REMARK Flexibility Score: inf
ROOT
ATOM      1  C   UNL     1       3.769  47.859  47.725  1.00  0.00     0.042 C 
ATOM      2  C   UNL     1       2.787  46.939  48.398  1.00  0.00    -0.049 C 
ATOM      3  C   UNL     1       1.710  46.512  47.702  1.00  0.00    -0.025 C 
ATOM      4  C   UNL     1       0.702  45.537  48.257  1.00  0.00     0.035 C 
ATOM      5  C   UNL     1       0.700  45.513  49.796  1.00  0.00     0.021 C 
ATOM      6  C   UNL     1       2.142  45.401  50.317  1.00  0.00     0.044 C 
ATOM      7  C   UNL     1       2.973  46.619  49.871  1.00  0.00     0.140 C 
ENDROOT
BRANCH   7   8
ATOM      8  O   UNL     1       2.615  47.748  50.624  1.00  0.00    -0.389 OA
ATOM      9  H   UNL     1       2.697  47.495  51.581  1.00  0.00     0.211 HD
ENDBRANCH   7   8
BRANCH   5  10
ATOM     10  C   UNL     1      -0.177  44.391  50.331  1.00  0.00    -0.077 C 
ATOM     11  C   UNL     1      -1.125  43.847  49.550  1.00  0.00     0.008 C 
ATOM     12  C   UNL     1      -0.006  43.857  51.732  1.00  0.00     0.039 C 
ENDBRANCH   5  10
TORSDOF 2
ENDMDL
MODEL 2
REMARK VINA RESULT:    -4.780      1.411      2.057
REMARK INTER + INTRA:          -5.295
REMARK INTER:                  -5.199
REMARK INTRA:                  -0.095
REMARK UNBOUND:                -0.096
REMARK SMILES C=C(C)[C@@H]1CC=C(C)[C@@H](O)C1
REMARK SMILES IDX 8 1 7 2 6 3 5 4 4 5 11 6 9 7 10 8 2 10 1 11 3 12
REMARK H PARENT 10 9
REMARK Flexibility Score: inf
ROOT
ATOM      1  C   UNL     1       3.785  47.826  48.041  1.00  0.00     0.042 C 
ATOM      2  C   UNL     1       2.763  46.870  48.594  1.00  0.00    -0.049 C 
ATOM      3  C   UNL     1       2.749  46.629  49.924  1.00  0.00    -0.025 C 
ATOM      4  C   UNL     1       1.726  45.742  50.590  1.00  0.00     0.035 C 
ATOM      5  C   UNL     1       1.088  44.746  49.606  1.00  0.00     0.021 C 
ATOM      6  C   UNL     1       0.649  45.483  48.330  1.00  0.00     0.044 C 
ATOM      7  C   UNL     1       1.864  46.118  47.628  1.00  0.00     0.140 C 
ENDROOT
BRANCH   7   8
ATOM      8  O   UNL     1       2.624  45.125  46.990  1.00  0.00    -0.389 OA
ATOM      9  H   UNL     1       3.558  45.225  47.312  1.00  0.00     0.211 HD
ENDBRANCH   7   8
BRANCH   5  10
ATOM     10  C   UNL     1      -0.072  43.999  50.248  1.00  0.00    -0.077 C 
ATOM     11  C   UNL     1      -1.124  43.620  49.503  1.00  0.00     0.008 C 
ATOM     12  C   UNL     1      -0.072  43.658  51.718  1.00  0.00     0.039 C 
ENDBRANCH   5  10
TORSDOF 2
ENDMDL
MODEL 3
REMARK VINA RESULT:    -4.525      1.699      4.307
REMARK INTER + INTRA:          -5.017
REMARK INTER:                  -4.922
REMARK INTRA:                  -0.095
REMARK UNBOUND:                -0.096
REMARK SMILES C=C(C)[C@@H]1CC=C(C)[C@@H](O)C1
REMARK SMILES IDX 8 1 7 2 6 3 5 4 4 5 11 6 9 7 10 8 2 10 1 11 3 12
REMARK H PARENT 10 9
REMARK Flexibility Score: inf
ROOT
ATOM      1  C   UNL     1      -0.375  43.552  51.823  1.00  0.00     0.042 C 
ATOM      2  C   UNL     1       0.227  44.510  50.829  1.00  0.00    -0.049 C 
ATOM      3  C   UNL     1      -0.585  45.375  50.184  1.00  0.00    -0.025 C 
ATOM      4  C   UNL     1      -0.078  46.419  49.220  1.00  0.00     0.035 C 
ATOM      5  C   UNL     1       1.302  46.059  48.642  1.00  0.00     0.021 C 
ATOM      6  C   UNL     1       2.248  45.637  49.778  1.00  0.00     0.044 C 
ATOM      7  C   UNL     1       1.704  44.389  50.498  1.00  0.00     0.140 C 
ENDROOT
BRANCH   7   8
ATOM      8  O   UNL     1       1.891  43.251  49.697  1.00  0.00    -0.389 OA
ATOM      9  H   UNL     1       0.997  42.838  49.569  1.00  0.00     0.211 HD
ENDBRANCH   7   8
BRANCH   5  10
ATOM     10  C   UNL     1       1.880  47.209  47.830  1.00  0.00    -0.077 C 
ATOM     11  C   UNL     1       1.063  48.125  47.284  1.00  0.00     0.008 C 
ATOM     12  C   UNL     1       3.367  47.358  47.624  1.00  0.00     0.039 C 
ENDBRANCH   5  10
TORSDOF 2
ENDMDL
MODEL 4
REMARK VINA RESULT:    -4.516     25.140     25.543
REMARK INTER + INTRA:          -5.008
REMARK INTER:                  -4.913
REMARK INTRA:                  -0.095
REMARK UNBOUND:                -0.096
REMARK SMILES C=C(C)[C@@H]1CC=C(C)[C@@H](O)C1
REMARK SMILES IDX 8 1 7 2 6 3 5 4 4 5 11 6 9 7 10 8 2 10 1 11 3 12
REMARK H PARENT 10 9
REMARK Flexibility Score: inf
ROOT
ATOM      1  C   UNL     1      18.910  28.117  37.165  1.00  0.00     0.042 C 
ATOM      2  C   UNL     1      17.425  28.344  37.255  1.00  0.00    -0.049 C 
ATOM      3  C   UNL     1      16.763  27.910  38.350  1.00  0.00    -0.025 C 
ATOM      4  C   UNL     1      15.289  28.145  38.570  1.00  0.00     0.035 C 
ATOM      5  C   UNL     1      14.538  28.410  37.254  1.00  0.00     0.021 C 
ATOM      6  C   UNL     1      15.295  29.458  36.423  1.00  0.00     0.044 C 
ATOM      7  C   UNL     1      16.702  28.944  36.061  1.00  0.00     0.140 C 
ENDROOT
BRANCH   7   8
ATOM      8  O   UNL     1      16.614  27.969  35.055  1.00  0.00    -0.389 OA
ATOM      9  H   UNL     1      16.952  27.120  35.445  1.00  0.00     0.211 HD
ENDBRANCH   7   8
BRANCH   5  10
ATOM     10  C   UNL     1      13.100  28.836  37.514  1.00  0.00    -0.077 C 
ATOM     11  C   UNL     1      12.841  29.865  38.337  1.00  0.00     0.008 C 
ATOM     12  C   UNL     1      11.938  28.130  36.857  1.00  0.00     0.039 C 
ENDBRANCH   5  10
TORSDOF 2
ENDMDL
MODEL 5
REMARK VINA RESULT:    -4.430     25.061     25.601
REMARK INTER + INTRA:          -4.914
REMARK INTER:                  -4.817
REMARK INTRA:                  -0.097
REMARK UNBOUND:                -0.096
REMARK SMILES C=C(C)[C@@H]1CC=C(C)[C@@H](O)C1
REMARK SMILES IDX 8 1 7 2 6 3 5 4 4 5 11 6 9 7 10 8 2 10 1 11 3 12
REMARK H PARENT 10 9
REMARK Flexibility Score: inf
ROOT
ATOM      1  C   UNL     1      11.591  28.807  37.868  1.00  0.00     0.042 C 
ATOM      2  C   UNL     1      13.052  28.617  37.560  1.00  0.00    -0.049 C 
ATOM      3  C   UNL     1      13.404  28.091  36.366  1.00  0.00    -0.025 C 
ATOM      4  C   UNL     1      14.838  27.921  35.930  1.00  0.00     0.035 C 
ATOM      5  C   UNL     1      15.808  27.876  37.123  1.00  0.00     0.021 C 
ATOM      6  C   UNL     1      15.504  29.034  38.086  1.00  0.00     0.044 C 
ATOM      7  C   UNL     1      14.074  28.909  38.645  1.00  0.00     0.140 C 
ENDROOT
BRANCH   7   8
ATOM      8  O   UNL     1      14.018  27.883  39.601  1.00  0.00    -0.389 OA
ATOM      9  H   UNL     1      14.302  28.278  40.466  1.00  0.00     0.211 HD
ENDBRANCH   7   8
BRANCH   5  10
ATOM     10  C   UNL     1      17.258  27.901  36.659  1.00  0.00    -0.077 C 
ATOM     11  C   UNL     1      17.545  27.875  35.347  1.00  0.00     0.008 C 
ATOM     12  C   UNL     1      18.399  27.965  37.644  1.00  0.00     0.039 C 
ENDBRANCH   5  10
TORSDOF 2
ENDMDL
MODEL 6
REMARK VINA RESULT:    -4.418      1.549      4.310
REMARK INTER + INTRA:          -4.901
REMARK INTER:                  -4.805
REMARK INTRA:                  -0.096
REMARK UNBOUND:                -0.096
REMARK SMILES C=C(C)[C@@H]1CC=C(C)[C@@H](O)C1
REMARK SMILES IDX 8 1 7 2 6 3 5 4 4 5 11 6 9 7 10 8 2 10 1 11 3 12
REMARK H PARENT 10 9
REMARK Flexibility Score: inf
ROOT
ATOM      1  C   UNL     1      -0.001  43.250  51.750  1.00  0.00     0.042 C 
ATOM      2  C   UNL     1       0.463  44.304  50.781  1.00  0.00    -0.049 C 
ATOM      3  C   UNL     1       1.661  44.153  50.176  1.00  0.00    -0.025 C 
ATOM      4  C   UNL     1       2.190  45.114  49.141  1.00  0.00     0.035 C 
ATOM      5  C   UNL     1       1.534  46.502  49.245  1.00  0.00     0.021 C 
ATOM      6  C   UNL     1       0.007  46.351  49.343  1.00  0.00     0.044 C 
ATOM      7  C   UNL     1      -0.376  45.559  50.608  1.00  0.00     0.140 C 
ENDROOT
BRANCH   7   8
ATOM      8  O   UNL     1      -0.217  46.365  51.747  1.00  0.00    -0.389 OA
ATOM      9  H   UNL     1      -0.661  45.892  52.499  1.00  0.00     0.211 HD
ENDBRANCH   7   8
BRANCH   5  10
ATOM     10  C   UNL     1       1.933  47.393  48.077  1.00  0.00    -0.077 C 
ATOM     11  C   UNL     1       1.003  48.120  47.436  1.00  0.00     0.008 C 
ATOM     12  C   UNL     1       3.367  47.491  47.616  1.00  0.00     0.039 C 
ENDBRANCH   5  10
TORSDOF 2
ENDMDL
MODEL 7
REMARK VINA RESULT:    -4.383     25.261     25.870
REMARK INTER + INTRA:          -4.863
REMARK INTER:                  -4.769
REMARK INTRA:                  -0.094
REMARK UNBOUND:                -0.096
REMARK SMILES C=C(C)[C@@H]1CC=C(C)[C@@H](O)C1
REMARK SMILES IDX 8 1 7 2 6 3 5 4 4 5 11 6 9 7 10 8 2 10 1 11 3 12
REMARK H PARENT 10 9
REMARK Flexibility Score: inf
ROOT
ATOM      1  C   UNL     1      12.187  28.816  37.931  1.00  0.00     0.042 C 
ATOM      2  C   UNL     1      13.658  28.600  37.698  1.00  0.00    -0.049 C 
ATOM      3  C   UNL     1      14.458  28.357  38.760  1.00  0.00    -0.025 C 
ATOM      4  C   UNL     1      15.931  28.060  38.632  1.00  0.00     0.035 C 
ATOM      5  C   UNL     1      16.520  28.587  37.312  1.00  0.00     0.021 C 
ATOM      6  C   UNL     1      15.620  28.173  36.138  1.00  0.00     0.044 C 
ATOM      7  C   UNL     1      14.213  28.781  36.296  1.00  0.00     0.140 C 
ENDROOT
BRANCH   7   8
ATOM      8  O   UNL     1      14.245  30.153  36.001  1.00  0.00    -0.389 OA
ATOM      9  H   UNL     1      13.425  30.355  35.479  1.00  0.00     0.211 HD
ENDBRANCH   7   8
BRANCH   5  10
ATOM     10  C   UNL     1      17.952  28.110  37.115  1.00  0.00    -0.077 C 
ATOM     11  C   UNL     1      18.736  27.875  38.180  1.00  0.00     0.008 C 
ATOM     12  C   UNL     1      18.523  27.881  35.737  1.00  0.00     0.039 C 
ENDBRANCH   5  10
TORSDOF 2
ENDMDL
MODEL 8
REMARK VINA RESULT:    -3.986      1.477      1.689
REMARK INTER + INTRA:          -4.431
REMARK INTER:                  -4.336
REMARK INTRA:                  -0.095
REMARK UNBOUND:                -0.096
REMARK SMILES C=C(C)[C@@H]1CC=C(C)[C@@H](O)C1
REMARK SMILES IDX 8 1 7 2 6 3 5 4 4 5 11 6 9 7 10 8 2 10 1 11 3 12
REMARK H PARENT 10 9
REMARK Flexibility Score: inf
ROOT
ATOM      1  C   UNL     1       3.195  47.208  47.261  1.00  0.00     0.042 C 
ATOM      2  C   UNL     1       2.324  46.593  48.323  1.00  0.00    -0.049 C 
ATOM      3  C   UNL     1       2.134  45.255  48.318  1.00  0.00    -0.025 C 
ATOM      4  C   UNL     1       1.336  44.531  49.373  1.00  0.00     0.035 C 
ATOM      5  C   UNL     1       0.345  45.461  50.095  1.00  0.00     0.021 C 
ATOM      6  C   UNL     1       1.058  46.753  50.523  1.00  0.00     0.044 C 
ATOM      7  C   UNL     1       1.592  47.508  49.290  1.00  0.00     0.140 C 
ENDROOT
BRANCH   7   8
ATOM      8  O   UNL     1       0.532  48.124  48.607  1.00  0.00    -0.389 OA
ATOM      9  H   UNL     1       0.665  49.105  48.693  1.00  0.00     0.211 HD
ENDBRANCH   7   8
BRANCH   5  10
ATOM     10  C   UNL     1      -0.306  44.763  51.280  1.00  0.00    -0.077 C 
ATOM     11  C   UNL     1      -1.125  45.446  52.097  1.00  0.00     0.008 C 
ATOM     12  C   UNL     1      -0.062  43.301  51.565  1.00  0.00     0.039 C 
ENDBRANCH   5  10
TORSDOF 2
ENDMDL
MODEL 9
REMARK VINA RESULT:    -3.492      1.728      2.658
REMARK INTER + INTRA:          -3.893
REMARK INTER:                  -3.797
REMARK INTRA:                  -0.096
REMARK UNBOUND:                -0.096
REMARK SMILES C=C(C)[C@@H]1CC=C(C)[C@@H](O)C1
REMARK SMILES IDX 8 1 7 2 6 3 5 4 4 5 11 6 9 7 10 8 2 10 1 11 3 12
REMARK H PARENT 10 9
REMARK Flexibility Score: inf
ROOT
ATOM      1  C   UNL     1      -0.753  48.103  46.810  1.00  0.00     0.042 C 
ATOM      2  C   UNL     1      -0.284  47.027  47.752  1.00  0.00    -0.049 C 
ATOM      3  C   UNL     1      -1.123  46.596  48.719  1.00  0.00    -0.025 C 
ATOM      4  C   UNL     1      -0.779  45.477  49.672  1.00  0.00     0.035 C 
ATOM      5  C   UNL     1       0.740  45.269  49.802  1.00  0.00     0.021 C 
ATOM      6  C   UNL     1       1.381  45.219  48.406  1.00  0.00     0.044 C 
ATOM      7  C   UNL     1       1.155  46.549  47.661  1.00  0.00     0.140 C 
ENDROOT
BRANCH   7   8
ATOM      8  O   UNL     1       1.992  47.544  48.190  1.00  0.00    -0.389 OA
ATOM      9  H   UNL     1       1.528  48.412  48.057  1.00  0.00     0.211 HD
ENDBRANCH   7   8
BRANCH   5  10
ATOM     10  C   UNL     1       1.060  44.019  50.609  1.00  0.00    -0.077 C 
ATOM     11  C   UNL     1       2.248  43.410  50.464  1.00  0.00     0.008 C 
ATOM     12  C   UNL     1       0.069  43.439  51.589  1.00  0.00     0.039 C 
ENDBRANCH   5  10
TORSDOF 2
ENDMDL
