MODEL 1
REMARK VINA RESULT:    -4.545      0.000      0.000
REMARK INTER + INTRA:         -13.241
REMARK INTER:                 -10.391
REMARK INTRA:                  -2.849
REMARK UNBOUND:                -2.849
REMARK SMILES CCCCCCCCCCCCCCCCCCCCCCCC(=O)[O-]
REMARK SMILES IDX 13 1 14 2 15 3 16 4 17 5 18 6 19 7 20 8 21 9 22 10 23 11
REMARK SMILES IDX 24 12 25 13 26 14 12 15 11 16 10 17 9 18 8 19 7 20 6 21 5 22
REMARK SMILES IDX 4 23 3 24 2 25 1 26
REMARK H PARENT
REMARK Flexibility Score: inf
ROOT
ATOM      1  C   UNL     1      -8.298  26.506 -13.312  1.00  0.00     0.000 C 
ENDROOT
BRANCH   1   2
ATOM      2  C   UNL     1      -8.780  25.218 -12.614  1.00  0.00     0.000 C 
BRANCH   2   3
ATOM      3  C   UNL     1      -8.995  25.344 -11.096  1.00  0.00     0.000 C 
BRANCH   3   4
ATOM      4  C   UNL     1      -8.584  26.717 -10.546  1.00  0.00     0.000 C 
BRANCH   4   5
ATOM      5  C   UNL     1      -7.264  26.624  -9.765  1.00  0.00     0.000 C 
BRANCH   5   6
ATOM      6  C   UNL     1      -6.578  27.999  -9.614  1.00  0.00     0.000 C 
BRANCH   6   7
ATOM      7  C   UNL     1      -7.570  29.166  -9.462  1.00  0.00     0.000 C 
BRANCH   7   8
ATOM      8  C   UNL     1      -7.022  30.304  -8.590  1.00  0.00     0.000 C 
BRANCH   8   9
ATOM      9  C   UNL     1      -5.574  30.645  -8.972  1.00  0.00     0.000 C 
BRANCH   9  10
ATOM     10  C   UNL     1      -4.639  30.715  -7.754  1.00  0.00     0.006 C 
BRANCH  10  11
ATOM     11  C   UNL     1      -5.036  31.814  -6.759  1.00  0.00     0.053 C 
BRANCH  11  12
ATOM     12  C   UNL     1      -5.097  31.268  -5.366  1.00  0.00     0.041 C 
ATOM     13  O   UNL     1      -4.830  32.006  -4.382  1.00  0.00    -0.550 OA
ATOM     14  O   UNL     1      -5.470  29.945  -5.155  1.00  0.00    -0.550 OA
ENDBRANCH  11  12
ENDBRANCH  10  11
ENDBRANCH   9  10
ENDBRANCH   8   9
ENDBRANCH   7   8
ENDBRANCH   6   7
ENDBRANCH   5   6
ENDBRANCH   4   5
ENDBRANCH   3   4
ENDBRANCH   2   3
ENDBRANCH   1   2
BRANCH   1  15
ATOM     15  C   UNL     1      -6.910  26.409 -13.974  1.00  0.00     0.000 C 
BRANCH  15  16
ATOM     16  C   UNL     1      -5.721  26.726 -13.046  1.00  0.00     0.000 C 
BRANCH  16  17
ATOM     17  C   UNL     1      -4.682  25.598 -12.902  1.00  0.00     0.000 C 
BRANCH  17  18
ATOM     18  C   UNL     1      -4.896  24.665 -11.698  1.00  0.00    -0.000 C 
BRANCH  18  19
ATOM     19  C   UNL     1      -5.697  23.400 -12.052  1.00  0.00    -0.000 C 
BRANCH  19  20
ATOM     20  C   UNL     1      -6.311  22.727 -10.805  1.00  0.00    -0.000 C 
BRANCH  20  21
ATOM     21  C   UNL     1      -7.517  21.822 -11.114  1.00  0.00    -0.000 C 
BRANCH  21  22
ATOM     22  C   UNL     1      -7.413  20.439 -10.451  1.00  0.00    -0.000 C 
BRANCH  22  23
ATOM     23  C   UNL     1      -6.044  20.198  -9.788  1.00  0.00    -0.000 C 
BRANCH  23  24
ATOM     24  C   UNL     1      -5.994  18.985  -8.839  1.00  0.00    -0.000 C 
BRANCH  24  25
ATOM     25  C   UNL     1      -7.382  18.565  -8.332  1.00  0.00    -0.003 C 
ATOM     26  C   UNL     1      -7.714  19.252  -7.009  1.00  0.00     0.004 C 
ENDBRANCH  24  25
ENDBRANCH  23  24
ENDBRANCH  22  23
ENDBRANCH  21  22
ENDBRANCH  20  21
ENDBRANCH  19  20
ENDBRANCH  18  19
ENDBRANCH  17  18
ENDBRANCH  16  17
ENDBRANCH  15  16
ENDBRANCH   1  15
TORSDOF 22
ENDMDL
MODEL 2
REMARK VINA RESULT:    -4.423      2.626      3.314
REMARK INTER + INTRA:         -12.960
REMARK INTER:                  -9.160
REMARK INTRA:                  -3.800
REMARK UNBOUND:                -2.849
REMARK SMILES CCCCCCCCCCCCCCCCCCCCCCCC(=O)[O-]
REMARK SMILES IDX 13 1 14 2 15 3 16 4 17 5 18 6 19 7 20 8 21 9 22 10 23 11
REMARK SMILES IDX 24 12 25 13 26 14 12 15 11 16 10 17 9 18 8 19 7 20 6 21 5 22
REMARK SMILES IDX 4 23 3 24 2 25 1 26
REMARK H PARENT
REMARK Flexibility Score: inf
ROOT
ATOM      1  C   UNL     1      -6.822  25.742 -14.373  1.00  0.00     0.000 C 
ENDROOT
BRANCH   1   2
ATOM      2  C   UNL     1      -7.539  26.864 -13.596  1.00  0.00     0.000 C 
BRANCH   2   3
ATOM      3  C   UNL     1      -8.781  26.417 -12.805  1.00  0.00     0.000 C 
BRANCH   3   4
ATOM      4  C   UNL     1      -8.745  24.930 -12.429  1.00  0.00     0.000 C 
BRANCH   4   5
ATOM      5  C   UNL     1      -8.362  24.745 -10.953  1.00  0.00     0.000 C 
BRANCH   5   6
ATOM      6  C   UNL     1      -9.112  25.728 -10.028  1.00  0.00     0.000 C 
BRANCH   6   7
ATOM      7  C   UNL     1      -8.250  26.256  -8.866  1.00  0.00     0.000 C 
BRANCH   7   8
ATOM      8  C   UNL     1      -6.833  26.644  -9.306  1.00  0.00     0.000 C 
BRANCH   8   9
ATOM      9  C   UNL     1      -6.833  27.983 -10.060  1.00  0.00     0.000 C 
BRANCH   9  10
ATOM     10  C   UNL     1      -7.654  29.067  -9.345  1.00  0.00     0.006 C 
BRANCH  10  11
ATOM     11  C   UNL     1      -8.826  29.584 -10.191  1.00  0.00     0.053 C 
BRANCH  11  12
ATOM     12  C   UNL     1     -10.035  29.806  -9.337  1.00  0.00     0.041 C 
ATOM     13  O   UNL     1     -10.721  28.828  -8.940  1.00  0.00    -0.550 OA
ATOM     14  O   UNL     1     -10.394  31.097  -8.964  1.00  0.00    -0.550 OA
ENDBRANCH  11  12
ENDBRANCH  10  11
ENDBRANCH   9  10
ENDBRANCH   8   9
ENDBRANCH   7   8
ENDBRANCH   6   7
ENDBRANCH   5   6
ENDBRANCH   4   5
ENDBRANCH   3   4
ENDBRANCH   2   3
ENDBRANCH   1   2
BRANCH   1  15
ATOM     15  C   UNL     1      -5.345  25.525 -13.991  1.00  0.00     0.000 C 
BRANCH  15  16
ATOM     16  C   UNL     1      -5.009  25.789 -12.510  1.00  0.00     0.000 C 
BRANCH  16  17
ATOM     17  C   UNL     1      -4.833  24.528 -11.642  1.00  0.00     0.000 C 
BRANCH  17  18
ATOM     18  C   UNL     1      -3.920  23.445 -12.243  1.00  0.00    -0.000 C 
BRANCH  18  19
ATOM     19  C   UNL     1      -4.653  22.117 -12.503  1.00  0.00    -0.000 C 
BRANCH  19  20
ATOM     20  C   UNL     1      -6.184  22.299 -12.582  1.00  0.00    -0.000 C 
BRANCH  20  21
ATOM     21  C   UNL     1      -6.973  21.377 -11.635  1.00  0.00    -0.000 C 
BRANCH  21  22
ATOM     22  C   UNL     1      -6.560  21.537 -10.163  1.00  0.00    -0.000 C 
BRANCH  22  23
ATOM     23  C   UNL     1      -5.947  20.254  -9.573  1.00  0.00    -0.000 C 
BRANCH  23  24
ATOM     24  C   UNL     1      -6.953  19.110  -9.338  1.00  0.00    -0.000 C 
BRANCH  24  25
ATOM     25  C   UNL     1      -6.892  18.544  -7.911  1.00  0.00    -0.003 C 
ATOM     26  C   UNL     1      -7.955  19.182  -7.021  1.00  0.00     0.004 C 
ENDBRANCH  24  25
ENDBRANCH  23  24
ENDBRANCH  22  23
ENDBRANCH  21  22
ENDBRANCH  20  21
ENDBRANCH  19  20
ENDBRANCH  18  19
ENDBRANCH  17  18
ENDBRANCH  16  17
ENDBRANCH  15  16
ENDBRANCH   1  15
TORSDOF 22
ENDMDL
MODEL 3
REMARK VINA RESULT:    -4.380      2.952      3.798
REMARK INTER + INTRA:         -12.862
REMARK INTER:                  -9.551
REMARK INTRA:                  -3.311
REMARK UNBOUND:                -2.849
REMARK SMILES CCCCCCCCCCCCCCCCCCCCCCCC(=O)[O-]
REMARK SMILES IDX 13 1 14 2 15 3 16 4 17 5 18 6 19 7 20 8 21 9 22 10 23 11
REMARK SMILES IDX 24 12 25 13 26 14 12 15 11 16 10 17 9 18 8 19 7 20 6 21 5 22
REMARK SMILES IDX 4 23 3 24 2 25 1 26
REMARK H PARENT
REMARK Flexibility Score: inf
ROOT
ATOM      1  C   UNL     1      -6.525  26.440 -13.724  1.00  0.00     0.000 C 
ENDROOT
BRANCH   1   2
ATOM      2  C   UNL     1      -7.916  26.533 -13.065  1.00  0.00     0.000 C 
BRANCH   2   3
ATOM      3  C   UNL     1      -7.942  27.243 -11.700  1.00  0.00     0.000 C 
BRANCH   3   4
ATOM      4  C   UNL     1      -8.745  26.474 -10.643  1.00  0.00     0.000 C 
BRANCH   4   5
ATOM      5  C   UNL     1      -8.221  26.773  -9.230  1.00  0.00     0.000 C 
BRANCH   5   6
ATOM      6  C   UNL     1      -7.138  27.874  -9.230  1.00  0.00     0.000 C 
BRANCH   6   7
ATOM      7  C   UNL     1      -7.609  29.196  -8.598  1.00  0.00     0.000 C 
BRANCH   7   8
ATOM      8  C   UNL     1      -8.212  30.164  -9.624  1.00  0.00     0.000 C 
BRANCH   8   9
ATOM      9  C   UNL     1      -9.746  30.090  -9.621  1.00  0.00     0.000 C 
BRANCH   9  10
ATOM     10  C   UNL     1     -10.338  30.085  -8.203  1.00  0.00     0.006 C 
BRANCH  10  11
ATOM     11  C   UNL     1     -11.183  28.836  -7.914  1.00  0.00     0.053 C 
BRANCH  11  12
ATOM     12  C   UNL     1     -12.632  29.108  -8.170  1.00  0.00     0.041 C 
ATOM     13  O   UNL     1     -13.301  29.802  -7.361  1.00  0.00    -0.550 OA
ATOM     14  O   UNL     1     -13.240  28.610  -9.318  1.00  0.00    -0.550 OA
ENDBRANCH  11  12
ENDBRANCH  10  11
ENDBRANCH   9  10
ENDBRANCH   8   9
ENDBRANCH   7   8
ENDBRANCH   6   7
ENDBRANCH   5   6
ENDBRANCH   4   5
ENDBRANCH   3   4
ENDBRANCH   2   3
ENDBRANCH   1   2
BRANCH   1  15
ATOM     15  C   UNL     1      -5.336  26.461 -12.744  1.00  0.00     0.000 C 
BRANCH  15  16
ATOM     16  C   UNL     1      -4.429  25.215 -12.792  1.00  0.00     0.000 C 
BRANCH  16  17
ATOM     17  C   UNL     1      -4.255  24.478 -11.450  1.00  0.00     0.000 C 
BRANCH  17  18
ATOM     18  C   UNL     1      -5.300  24.822 -10.376  1.00  0.00    -0.000 C 
BRANCH  18  19
ATOM     19  C   UNL     1      -6.186  23.624  -9.993  1.00  0.00    -0.000 C 
BRANCH  19  20
ATOM     20  C   UNL     1      -7.098  23.174 -11.155  1.00  0.00    -0.000 C 
BRANCH  20  21
ATOM     21  C   UNL     1      -7.199  21.647 -11.315  1.00  0.00    -0.000 C 
BRANCH  21  22
ATOM     22  C   UNL     1      -5.902  20.917 -10.930  1.00  0.00    -0.000 C 
BRANCH  22  23
ATOM     23  C   UNL     1      -6.137  19.443 -10.551  1.00  0.00    -0.000 C 
BRANCH  23  24
ATOM     24  C   UNL     1      -5.928  19.122  -9.059  1.00  0.00    -0.000 C 
BRANCH  24  25
ATOM     25  C   UNL     1      -6.871  19.913  -8.140  1.00  0.00    -0.003 C 
ATOM     26  C   UNL     1      -7.795  18.977  -7.363  1.00  0.00     0.004 C 
ENDBRANCH  24  25
ENDBRANCH  23  24
ENDBRANCH  22  23
ENDBRANCH  21  22
ENDBRANCH  20  21
ENDBRANCH  19  20
ENDBRANCH  18  19
ENDBRANCH  17  18
ENDBRANCH  16  17
ENDBRANCH  15  16
ENDBRANCH   1  15
TORSDOF 22
ENDMDL
MODEL 4
REMARK VINA RESULT:    -4.335      3.921      8.038
REMARK INTER + INTRA:         -12.759
REMARK INTER:                  -9.086
REMARK INTRA:                  -3.673
REMARK UNBOUND:                -2.849
REMARK SMILES CCCCCCCCCCCCCCCCCCCCCCCC(=O)[O-]
REMARK SMILES IDX 13 1 14 2 15 3 16 4 17 5 18 6 19 7 20 8 21 9 22 10 23 11
REMARK SMILES IDX 24 12 25 13 26 14 12 15 11 16 10 17 9 18 8 19 7 20 6 21 5 22
REMARK SMILES IDX 4 23 3 24 2 25 1 26
REMARK H PARENT
REMARK Flexibility Score: inf
ROOT
ATOM      1  C   UNL     1      -7.626  26.051  -8.708  1.00  0.00     0.000 C 
ENDROOT
BRANCH   1   2
ATOM      2  C   UNL     1      -8.888  26.124  -9.592  1.00  0.00     0.000 C 
BRANCH   2   3
ATOM      3  C   UNL     1      -8.904  25.150 -10.783  1.00  0.00     0.000 C 
BRANCH   3   4
ATOM      4  C   UNL     1      -9.033  25.862 -12.136  1.00  0.00     0.000 C 
BRANCH   4   5
ATOM      5  C   UNL     1      -7.968  26.960 -12.283  1.00  0.00     0.000 C 
BRANCH   5   6
ATOM      6  C   UNL     1      -6.824  26.539 -13.230  1.00  0.00     0.000 C 
BRANCH   6   7
ATOM      7  C   UNL     1      -5.424  26.701 -12.610  1.00  0.00     0.000 C 
BRANCH   7   8
ATOM      8  C   UNL     1      -4.698  25.363 -12.422  1.00  0.00     0.000 C 
BRANCH   8   9
ATOM      9  C   UNL     1      -5.172  24.650 -11.147  1.00  0.00     0.000 C 
BRANCH   9  10
ATOM     10  C   UNL     1      -5.749  23.253 -11.426  1.00  0.00     0.006 C 
BRANCH  10  11
ATOM     11  C   UNL     1      -6.430  22.632 -10.198  1.00  0.00     0.053 C 
BRANCH  11  12
ATOM     12  C   UNL     1      -6.491  21.142 -10.327  1.00  0.00     0.041 C 
ATOM     13  O   UNL     1      -7.170  20.611 -11.244  1.00  0.00    -0.550 OA
ATOM     14  O   UNL     1      -5.781  20.339  -9.441  1.00  0.00    -0.550 OA
ENDBRANCH  11  12
ENDBRANCH  10  11
ENDBRANCH   9  10
ENDBRANCH   8   9
ENDBRANCH   7   8
ENDBRANCH   6   7
ENDBRANCH   5   6
ENDBRANCH   4   5
ENDBRANCH   3   4
ENDBRANCH   2   3
ENDBRANCH   1   2
BRANCH   1  15
ATOM     15  C   UNL     1      -6.634  27.215  -8.891  1.00  0.00     0.000 C 
BRANCH  15  16
ATOM     16  C   UNL     1      -6.669  28.283  -7.780  1.00  0.00     0.000 C 
BRANCH  16  17
ATOM     17  C   UNL     1      -7.675  29.429  -8.003  1.00  0.00     0.000 C 
BRANCH  17  18
ATOM     18  C   UNL     1      -7.634  30.070  -9.400  1.00  0.00    -0.000 C 
BRANCH  18  19
ATOM     19  C   UNL     1      -8.934  29.861 -10.196  1.00  0.00    -0.000 C 
BRANCH  19  20
ATOM     20  C   UNL     1     -10.192  30.155  -9.351  1.00  0.00    -0.000 C 
BRANCH  20  21
ATOM     21  C   UNL     1     -11.170  28.970  -9.253  1.00  0.00    -0.000 C 
BRANCH  21  22
ATOM     22  C   UNL     1     -12.629  29.376  -9.519  1.00  0.00    -0.000 C 
BRANCH  22  23
ATOM     23  C   UNL     1     -13.595  28.177  -9.490  1.00  0.00    -0.000 C 
BRANCH  23  24
ATOM     24  C   UNL     1     -14.263  27.857 -10.841  1.00  0.00    -0.000 C 
BRANCH  24  25
ATOM     25  C   UNL     1     -13.389  26.979 -11.748  1.00  0.00    -0.003 C 
ATOM     26  C   UNL     1     -12.619  25.942 -10.934  1.00  0.00     0.004 C 
ENDBRANCH  24  25
ENDBRANCH  23  24
ENDBRANCH  22  23
ENDBRANCH  21  22
ENDBRANCH  20  21
ENDBRANCH  19  20
ENDBRANCH  18  19
ENDBRANCH  17  18
ENDBRANCH  16  17
ENDBRANCH  15  16
ENDBRANCH   1  15
TORSDOF 22
ENDMDL
MODEL 5
REMARK VINA RESULT:    -4.320      3.718      8.329
REMARK INTER + INTRA:         -12.725
REMARK INTER:                  -9.274
REMARK INTRA:                  -3.451
REMARK UNBOUND:                -2.849
REMARK SMILES CCCCCCCCCCCCCCCCCCCCCCCC(=O)[O-]
REMARK SMILES IDX 13 1 14 2 15 3 16 4 17 5 18 6 19 7 20 8 21 9 22 10 23 11
REMARK SMILES IDX 24 12 25 13 26 14 12 15 11 16 10 17 9 18 8 19 7 20 6 21 5 22
REMARK SMILES IDX 4 23 3 24 2 25 1 26
REMARK H PARENT
REMARK Flexibility Score: inf
ROOT
ATOM      1  C   UNL     1      -4.674  26.036 -12.749  1.00  0.00     0.000 C 
ENDROOT
BRANCH   1   2
ATOM      2  C   UNL     1      -4.508  24.625 -13.348  1.00  0.00     0.000 C 
BRANCH   2   3
ATOM      3  C   UNL     1      -4.526  23.478 -12.323  1.00  0.00     0.000 C 
BRANCH   3   4
ATOM      4  C   UNL     1      -4.737  22.102 -12.969  1.00  0.00     0.000 C 
BRANCH   4   5
ATOM      5  C   UNL     1      -6.180  21.947 -13.472  1.00  0.00     0.000 C 
BRANCH   5   6
ATOM      6  C   UNL     1      -6.844  20.655 -12.948  1.00  0.00     0.000 C 
BRANCH   6   7
ATOM      7  C   UNL     1      -8.161  20.907 -12.192  1.00  0.00     0.000 C 
BRANCH   7   8
ATOM      8  C   UNL     1      -8.006  20.784 -10.670  1.00  0.00     0.000 C 
BRANCH   8   9
ATOM      9  C   UNL     1      -6.526  20.792 -10.261  1.00  0.00     0.000 C 
BRANCH   9  10
ATOM     10  C   UNL     1      -6.044  19.425  -9.749  1.00  0.00     0.006 C 
BRANCH  10  11
ATOM     11  C   UNL     1      -7.183  18.560  -9.192  1.00  0.00     0.053 C 
BRANCH  11  12
ATOM     12  C   UNL     1      -7.256  18.679  -7.702  1.00  0.00     0.041 C 
ATOM     13  O   UNL     1      -6.615  17.881  -6.969  1.00  0.00    -0.550 OA
ATOM     14  O   UNL     1      -8.019  19.688  -7.122  1.00  0.00    -0.550 OA
ENDBRANCH  11  12
ENDBRANCH  10  11
ENDBRANCH   9  10
ENDBRANCH   8   9
ENDBRANCH   7   8
ENDBRANCH   6   7
ENDBRANCH   5   6
ENDBRANCH   4   5
ENDBRANCH   3   4
ENDBRANCH   2   3
ENDBRANCH   1   2
BRANCH   1  15
ATOM     15  C   UNL     1      -5.833  26.862 -13.338  1.00  0.00     0.000 C 
BRANCH  15  16
ATOM     16  C   UNL     1      -6.913  26.041 -14.070  1.00  0.00     0.000 C 
BRANCH  16  17
ATOM     17  C   UNL     1      -8.367  26.455 -13.771  1.00  0.00     0.000 C 
BRANCH  17  18
ATOM     18  C   UNL     1      -8.887  26.055 -12.380  1.00  0.00    -0.000 C 
BRANCH  18  19
ATOM     19  C   UNL     1      -8.453  24.639 -11.961  1.00  0.00    -0.000 C 
BRANCH  19  20
ATOM     20  C   UNL     1      -7.561  24.649 -10.701  1.00  0.00    -0.000 C 
BRANCH  20  21
ATOM     21  C   UNL     1      -7.990  25.677  -9.640  1.00  0.00    -0.000 C 
BRANCH  21  22
ATOM     22  C   UNL     1      -6.821  26.543  -9.139  1.00  0.00    -0.000 C 
BRANCH  22  23
ATOM     23  C   UNL     1      -6.603  27.803  -9.996  1.00  0.00    -0.000 C 
BRANCH  23  24
ATOM     24  C   UNL     1      -6.859  29.132  -9.261  1.00  0.00    -0.000 C 
BRANCH  24  25
ATOM     25  C   UNL     1      -8.345  29.367  -8.949  1.00  0.00    -0.003 C 
ATOM     26  C   UNL     1      -9.052  30.045 -10.120  1.00  0.00     0.004 C 
ENDBRANCH  24  25
ENDBRANCH  23  24
ENDBRANCH  22  23
ENDBRANCH  21  22
ENDBRANCH  20  21
ENDBRANCH  19  20
ENDBRANCH  18  19
ENDBRANCH  17  18
ENDBRANCH  16  17
ENDBRANCH  15  16
ENDBRANCH   1  15
TORSDOF 22
ENDMDL
MODEL 6
REMARK VINA RESULT:    -4.307      4.814      6.753
REMARK INTER + INTRA:         -12.697
REMARK INTER:                  -9.027
REMARK INTRA:                  -3.670
REMARK UNBOUND:                -2.849
REMARK SMILES CCCCCCCCCCCCCCCCCCCCCCCC(=O)[O-]
REMARK SMILES IDX 13 1 14 2 15 3 16 4 17 5 18 6 19 7 20 8 21 9 22 10 23 11
REMARK SMILES IDX 24 12 25 13 26 14 12 15 11 16 10 17 9 18 8 19 7 20 6 21 5 22
REMARK SMILES IDX 4 23 3 24 2 25 1 26
REMARK H PARENT
REMARK Flexibility Score: inf
ROOT
ATOM      1  C   UNL     1      -4.355  24.543 -10.610  1.00  0.00     0.000 C 
ENDROOT
BRANCH   1   2
ATOM      2  C   UNL     1      -4.354  24.187 -12.110  1.00  0.00     0.000 C 
BRANCH   2   3
ATOM      3  C   UNL     1      -4.055  25.362 -13.057  1.00  0.00     0.000 C 
BRANCH   3   4
ATOM      4  C   UNL     1      -5.222  25.680 -14.001  1.00  0.00     0.000 C 
BRANCH   4   5
ATOM      5  C   UNL     1      -6.177  26.704 -13.370  1.00  0.00     0.000 C 
BRANCH   5   6
ATOM      6  C   UNL     1      -7.515  26.804 -14.134  1.00  0.00     0.000 C 
BRANCH   6   7
ATOM      7  C   UNL     1      -7.741  25.649 -15.126  1.00  0.00     0.000 C 
BRANCH   7   8
ATOM      8  C   UNL     1      -9.144  25.663 -15.747  1.00  0.00     0.000 C 
BRANCH   8   9
ATOM      9  C   UNL     1     -10.197  26.120 -14.727  1.00  0.00     0.000 C 
BRANCH   9  10
ATOM     10  C   UNL     1     -11.240  25.033 -14.422  1.00  0.00     0.006 C 
BRANCH  10  11
ATOM     11  C   UNL     1     -11.941  25.240 -13.072  1.00  0.00     0.053 C 
BRANCH  11  12
ATOM     12  C   UNL     1     -13.345  25.718 -13.274  1.00  0.00     0.041 C 
ATOM     13  O   UNL     1     -13.582  26.943 -13.434  1.00  0.00    -0.550 OA
ATOM     14  O   UNL     1     -14.391  24.802 -13.307  1.00  0.00    -0.550 OA
ENDBRANCH  11  12
ENDBRANCH  10  11
ENDBRANCH   9  10
ENDBRANCH   8   9
ENDBRANCH   7   8
ENDBRANCH   6   7
ENDBRANCH   5   6
ENDBRANCH   4   5
ENDBRANCH   3   4
ENDBRANCH   2   3
ENDBRANCH   1   2
BRANCH   1  15
ATOM     15  C   UNL     1      -5.700  25.056 -10.061  1.00  0.00     0.000 C 
BRANCH  15  16
ATOM     16  C   UNL     1      -6.888  24.091 -10.242  1.00  0.00     0.000 C 
BRANCH  16  17
ATOM     17  C   UNL     1      -8.123  24.693 -10.940  1.00  0.00     0.000 C 
BRANCH  17  18
ATOM     18  C   UNL     1      -8.706  23.844 -12.082  1.00  0.00    -0.000 C 
BRANCH  18  19
ATOM     19  C   UNL     1      -7.670  22.903 -12.721  1.00  0.00    -0.000 C 
BRANCH  19  20
ATOM     20  C   UNL     1      -8.133  21.430 -12.713  1.00  0.00    -0.000 C 
BRANCH  20  21
ATOM     21  C   UNL     1      -7.993  20.739 -11.345  1.00  0.00    -0.000 C 
BRANCH  21  22
ATOM     22  C   UNL     1      -6.529  20.486 -10.949  1.00  0.00    -0.000 C 
BRANCH  22  23
ATOM     23  C   UNL     1      -6.330  20.410  -9.424  1.00  0.00    -0.000 C 
BRANCH  23  24
ATOM     24  C   UNL     1      -5.980  19.007  -8.891  1.00  0.00    -0.000 C 
BRANCH  24  25
ATOM     25  C   UNL     1      -7.127  18.367  -8.095  1.00  0.00    -0.003 C 
ATOM     26  C   UNL     1      -7.755  19.370  -7.131  1.00  0.00     0.004 C 
ENDBRANCH  24  25
ENDBRANCH  23  24
ENDBRANCH  22  23
ENDBRANCH  21  22
ENDBRANCH  20  21
ENDBRANCH  19  20
ENDBRANCH  18  19
ENDBRANCH  17  18
ENDBRANCH  16  17
ENDBRANCH  15  16
ENDBRANCH   1  15
TORSDOF 22
ENDMDL
MODEL 7
REMARK VINA RESULT:    -4.307      3.277      4.491
REMARK INTER + INTRA:         -12.697
REMARK INTER:                  -9.787
REMARK INTRA:                  -2.909
REMARK UNBOUND:                -2.849
REMARK SMILES CCCCCCCCCCCCCCCCCCCCCCCC(=O)[O-]
REMARK SMILES IDX 13 1 14 2 15 3 16 4 17 5 18 6 19 7 20 8 21 9 22 10 23 11
REMARK SMILES IDX 24 12 25 13 26 14 12 15 11 16 10 17 9 18 8 19 7 20 6 21 5 22
REMARK SMILES IDX 4 23 3 24 2 25 1 26
REMARK H PARENT
REMARK Flexibility Score: inf
ROOT
ATOM      1  C   UNL     1      -7.839  25.257 -12.147  1.00  0.00     0.000 C 
ENDROOT
BRANCH   1   2
ATOM      2  C   UNL     1      -8.167  25.622 -10.685  1.00  0.00     0.000 C 
BRANCH   2   3
ATOM      3  C   UNL     1      -7.031  25.364  -9.681  1.00  0.00     0.000 C 
BRANCH   3   4
ATOM      4  C   UNL     1      -6.574  26.638  -8.956  1.00  0.00     0.000 C 
BRANCH   4   5
ATOM      5  C   UNL     1      -6.640  27.856  -9.890  1.00  0.00     0.000 C 
BRANCH   5   6
ATOM      6  C   UNL     1      -7.043  29.144  -9.141  1.00  0.00     0.000 C 
BRANCH   6   7
ATOM      7  C   UNL     1      -8.343  29.779  -9.669  1.00  0.00     0.000 C 
BRANCH   7   8
ATOM      8  C   UNL     1      -9.514  28.788  -9.711  1.00  0.00     0.000 C 
BRANCH   8   9
ATOM      9  C   UNL     1     -10.192  28.673  -8.338  1.00  0.00     0.000 C 
BRANCH   9  10
ATOM     10  C   UNL     1     -11.039  27.398  -8.198  1.00  0.00     0.006 C 
BRANCH  10  11
ATOM     11  C   UNL     1     -12.543  27.660  -8.362  1.00  0.00     0.053 C 
BRANCH  11  12
ATOM     12  C   UNL     1     -12.927  27.647  -9.808  1.00  0.00     0.041 C 
ATOM     13  O   UNL     1     -13.297  28.708 -10.377  1.00  0.00    -0.550 OA
ATOM     14  O   UNL     1     -12.857  26.464 -10.535  1.00  0.00    -0.550 OA
ENDBRANCH  11  12
ENDBRANCH  10  11
ENDBRANCH   9  10
ENDBRANCH   8   9
ENDBRANCH   7   8
ENDBRANCH   6   7
ENDBRANCH   5   6
ENDBRANCH   4   5
ENDBRANCH   3   4
ENDBRANCH   2   3
ENDBRANCH   1   2
BRANCH   1  15
ATOM     15  C   UNL     1      -7.688  26.457 -13.101  1.00  0.00     0.000 C 
BRANCH  15  16
ATOM     16  C   UNL     1      -6.270  26.664 -13.669  1.00  0.00     0.000 C 
BRANCH  16  17
ATOM     17  C   UNL     1      -5.120  26.278 -12.719  1.00  0.00     0.000 C 
BRANCH  17  18
ATOM     18  C   UNL     1      -4.018  25.409 -13.349  1.00  0.00    -0.000 C 
BRANCH  18  19
ATOM     19  C   UNL     1      -4.382  23.914 -13.390  1.00  0.00    -0.000 C 
BRANCH  19  20
ATOM     20  C   UNL     1      -4.661  23.341 -11.984  1.00  0.00    -0.000 C 
BRANCH  20  21
ATOM     21  C   UNL     1      -5.472  22.033 -11.992  1.00  0.00    -0.000 C 
BRANCH  21  22
ATOM     22  C   UNL     1      -6.549  21.990 -10.895  1.00  0.00    -0.000 C 
BRANCH  22  23
ATOM     23  C   UNL     1      -6.824  20.563 -10.386  1.00  0.00    -0.000 C 
BRANCH  23  24
ATOM     24  C   UNL     1      -6.313  20.281  -8.960  1.00  0.00    -0.000 C 
BRANCH  24  25
ATOM     25  C   UNL     1      -6.445  18.803  -8.559  1.00  0.00    -0.003 C 
ATOM     26  C   UNL     1      -7.405  18.636  -7.384  1.00  0.00     0.004 C 
ENDBRANCH  24  25
ENDBRANCH  23  24
ENDBRANCH  22  23
ENDBRANCH  21  22
ENDBRANCH  20  21
ENDBRANCH  19  20
ENDBRANCH  18  19
ENDBRANCH  17  18
ENDBRANCH  16  17
ENDBRANCH  15  16
ENDBRANCH   1  15
TORSDOF 22
ENDMDL
MODEL 8
REMARK VINA RESULT:    -4.285      2.678      5.027
REMARK INTER + INTRA:         -12.645
REMARK INTER:                  -8.318
REMARK INTRA:                  -4.327
REMARK UNBOUND:                -2.849
REMARK SMILES CCCCCCCCCCCCCCCCCCCCCCCC(=O)[O-]
REMARK SMILES IDX 13 1 14 2 15 3 16 4 17 5 18 6 19 7 20 8 21 9 22 10 23 11
REMARK SMILES IDX 24 12 25 13 26 14 12 15 11 16 10 17 9 18 8 19 7 20 6 21 5 22
REMARK SMILES IDX 4 23 3 24 2 25 1 26
REMARK H PARENT
REMARK Flexibility Score: inf
ROOT
ATOM      1  C   UNL     1      -9.967  26.095  -9.605  1.00  0.00     0.000 C 
ENDROOT
BRANCH   1   2
ATOM      2  C   UNL     1     -11.048  26.904  -8.861  1.00  0.00     0.000 C 
BRANCH   2   3
ATOM      3  C   UNL     1     -12.374  27.070  -9.622  1.00  0.00     0.000 C 
BRANCH   3   4
ATOM      4  C   UNL     1     -13.068  28.407  -9.329  1.00  0.00     0.000 C 
BRANCH   4   5
ATOM      5  C   UNL     1     -12.763  28.883  -7.900  1.00  0.00     0.000 C 
BRANCH   5   6
ATOM      6  C   UNL     1     -12.594  30.416  -7.820  1.00  0.00     0.000 C 
BRANCH   6   7
ATOM      7  C   UNL     1     -11.602  30.978  -8.854  1.00  0.00     0.000 C 
BRANCH   7   8
ATOM      8  C   UNL     1     -10.164  30.495  -8.623  1.00  0.00     0.000 C 
BRANCH   8   9
ATOM      9  C   UNL     1      -9.447  30.235  -9.956  1.00  0.00     0.000 C 
BRANCH   9  10
ATOM     10  C   UNL     1      -8.197  29.354  -9.796  1.00  0.00     0.006 C 
BRANCH  10  11
ATOM     11  C   UNL     1      -7.790  29.156  -8.330  1.00  0.00     0.053 C 
BRANCH  11  12
ATOM     12  C   UNL     1      -6.449  29.766  -8.067  1.00  0.00     0.041 C 
ATOM     13  O   UNL     1      -5.951  30.582  -8.886  1.00  0.00    -0.550 OA
ATOM     14  O   UNL     1      -5.756  29.447  -6.904  1.00  0.00    -0.550 OA
ENDBRANCH  11  12
ENDBRANCH  10  11
ENDBRANCH   9  10
ENDBRANCH   8   9
ENDBRANCH   7   8
ENDBRANCH   6   7
ENDBRANCH   5   6
ENDBRANCH   4   5
ENDBRANCH   3   4
ENDBRANCH   2   3
ENDBRANCH   1   2
BRANCH   1  15
ATOM     15  C   UNL     1      -9.878  26.364 -11.120  1.00  0.00     0.000 C 
BRANCH  15  16
ATOM     16  C   UNL     1      -9.854  25.103 -12.006  1.00  0.00     0.000 C 
BRANCH  16  17
ATOM     17  C   UNL     1      -9.052  25.235 -13.315  1.00  0.00     0.000 C 
BRANCH  17  18
ATOM     18  C   UNL     1      -8.056  24.096 -13.587  1.00  0.00    -0.000 C 
BRANCH  18  19
ATOM     19  C   UNL     1      -8.072  23.010 -12.497  1.00  0.00    -0.000 C 
BRANCH  19  20
ATOM     20  C   UNL     1      -6.675  22.775 -11.882  1.00  0.00    -0.000 C 
BRANCH  20  21
ATOM     21  C   UNL     1      -6.603  23.053 -10.370  1.00  0.00    -0.000 C 
BRANCH  21  22
ATOM     22  C   UNL     1      -6.730  24.547 -10.029  1.00  0.00    -0.000 C 
BRANCH  22  23
ATOM     23  C   UNL     1      -5.644  25.406 -10.703  1.00  0.00    -0.000 C 
BRANCH  23  24
ATOM     24  C   UNL     1      -6.173  26.656 -11.432  1.00  0.00    -0.000 C 
BRANCH  24  25
ATOM     25  C   UNL     1      -5.613  26.798 -12.856  1.00  0.00    -0.003 C 
ATOM     26  C   UNL     1      -4.583  25.711 -13.154  1.00  0.00     0.004 C 
ENDBRANCH  24  25
ENDBRANCH  23  24
ENDBRANCH  22  23
ENDBRANCH  21  22
ENDBRANCH  20  21
ENDBRANCH  19  20
ENDBRANCH  18  19
ENDBRANCH  17  18
ENDBRANCH  16  17
ENDBRANCH  15  16
ENDBRANCH   1  15
TORSDOF 22
ENDMDL
MODEL 9
REMARK VINA RESULT:    -4.269      1.421      2.763
REMARK INTER + INTRA:         -12.609
REMARK INTER:                  -9.631
REMARK INTRA:                  -2.978
REMARK UNBOUND:                -2.849
REMARK SMILES CCCCCCCCCCCCCCCCCCCCCCCC(=O)[O-]
REMARK SMILES IDX 13 1 14 2 15 3 16 4 17 5 18 6 19 7 20 8 21 9 22 10 23 11
REMARK SMILES IDX 24 12 25 13 26 14 12 15 11 16 10 17 9 18 8 19 7 20 6 21 5 22
REMARK SMILES IDX 4 23 3 24 2 25 1 26
REMARK H PARENT
REMARK Flexibility Score: inf
ROOT
ATOM      1  C   UNL     1      -5.248  26.177 -13.224  1.00  0.00     0.000 C 
ENDROOT
BRANCH   1   2
ATOM      2  C   UNL     1      -5.246  24.741 -12.660  1.00  0.00     0.000 C 
BRANCH   2   3
ATOM      3  C   UNL     1      -4.718  24.609 -11.221  1.00  0.00     0.000 C 
BRANCH   3   4
ATOM      4  C   UNL     1      -5.770  24.066 -10.246  1.00  0.00     0.000 C 
BRANCH   4   5
ATOM      5  C   UNL     1      -6.918  25.070 -10.059  1.00  0.00     0.000 C 
BRANCH   5   6
ATOM      6  C   UNL     1      -6.462  26.348  -9.322  1.00  0.00     0.000 C 
BRANCH   6   7
ATOM      7  C   UNL     1      -6.770  27.644 -10.093  1.00  0.00     0.000 C 
BRANCH   7   8
ATOM      8  C   UNL     1      -8.218  28.118  -9.904  1.00  0.00     0.000 C 
BRANCH   8   9
ATOM      9  C   UNL     1      -8.266  29.586  -9.454  1.00  0.00     0.000 C 
BRANCH   9  10
ATOM     10  C   UNL     1      -6.869  30.210  -9.312  1.00  0.00     0.006 C 
BRANCH  10  11
ATOM     11  C   UNL     1      -6.427  30.356  -7.849  1.00  0.00     0.053 C 
BRANCH  11  12
ATOM     12  C   UNL     1      -5.067  30.976  -7.769  1.00  0.00     0.041 C 
ATOM     13  O   UNL     1      -4.695  31.558  -6.717  1.00  0.00    -0.550 OA
ATOM     14  O   UNL     1      -4.201  30.893  -8.854  1.00  0.00    -0.550 OA
ENDBRANCH  11  12
ENDBRANCH  10  11
ENDBRANCH   9  10
ENDBRANCH   8   9
ENDBRANCH   7   8
ENDBRANCH   6   7
ENDBRANCH   5   6
ENDBRANCH   4   5
ENDBRANCH   3   4
ENDBRANCH   2   3
ENDBRANCH   1   2
BRANCH   1  15
ATOM     15  C   UNL     1      -6.645  26.774 -13.483  1.00  0.00     0.000 C 
BRANCH  15  16
ATOM     16  C   UNL     1      -7.687  25.780 -14.033  1.00  0.00     0.000 C 
BRANCH  16  17
ATOM     17  C   UNL     1      -9.090  25.885 -13.403  1.00  0.00     0.000 C 
BRANCH  17  18
ATOM     18  C   UNL     1      -9.589  24.608 -12.705  1.00  0.00    -0.000 C 
BRANCH  18  19
ATOM     19  C   UNL     1      -8.557  23.466 -12.732  1.00  0.00    -0.000 C 
BRANCH  19  20
ATOM     20  C   UNL     1      -9.216  22.079 -12.576  1.00  0.00    -0.000 C 
BRANCH  20  21
ATOM     21  C   UNL     1      -8.218  20.941 -12.297  1.00  0.00    -0.000 C 
BRANCH  21  22
ATOM     22  C   UNL     1      -7.677  20.959 -10.858  1.00  0.00    -0.000 C 
BRANCH  22  23
ATOM     23  C   UNL     1      -6.295  20.290 -10.733  1.00  0.00    -0.000 C 
BRANCH  23  24
ATOM     24  C   UNL     1      -6.160  19.311  -9.552  1.00  0.00    -0.000 C 
BRANCH  24  25
ATOM     25  C   UNL     1      -7.237  19.519  -8.476  1.00  0.00    -0.003 C 
ATOM     26  C   UNL     1      -7.166  18.430  -7.408  1.00  0.00     0.004 C 
ENDBRANCH  24  25
ENDBRANCH  23  24
ENDBRANCH  22  23
ENDBRANCH  21  22
ENDBRANCH  20  21
ENDBRANCH  19  20
ENDBRANCH  18  19
ENDBRANCH  17  18
ENDBRANCH  16  17
ENDBRANCH  15  16
ENDBRANCH   1  15
TORSDOF 22
ENDMDL
