MODEL 1
REMARK VINA RESULT:    -2.142      0.000      0.000
REMARK INTER + INTRA:          -1.502
REMARK INTER:                  -3.268
REMARK INTRA:                   1.766
REMARK UNBOUND:                 1.766
REMARK SMILES CC1=CCC[C@H](C)C(=O)C[C@H](C(C)C)C(=O)C1
REMARK SMILES IDX 8 1 9 2 6 3 7 4 5 5 4 6 3 7 2 8 1 9 10 11 11 12 15 13 16 14
REMARK SMILES IDX 17 15 12 17 13 18 14 19
REMARK H PARENT
REMARK Flexibility Score: 70.00
ROOT
ATOM      1  C   UNL     1      26.019 -11.206   7.193  1.00  0.00     0.136 C 
ATOM      2  O   UNL     1      26.219 -11.795   8.245  1.00  0.00    -0.299 OA
ENDROOT
BRANCH   1   3
ATOM      3  C   UNL     1      27.010 -11.366   6.055  1.00  0.00     0.053 C 
ATOM      4  C   UNL     1      27.099 -12.845   5.662  1.00  0.00     0.016 C 
BRANCH   3   5
ATOM      5  C   UNL     1      26.636 -10.510   4.826  1.00  0.00     0.015 C 
BRANCH   5   6
ATOM      6  C   UNL     1      27.120 -11.072   3.478  1.00  0.00     0.028 C 
BRANCH   6   7
ATOM      7  C   UNL     1      26.036 -11.736   2.661  1.00  0.00    -0.028 C 
ATOM      8  C   UNL     1      24.701 -11.775   2.909  1.00  0.00    -0.070 CG0
ATOM      9  C   UNL     1      23.864 -12.618   1.974  1.00  0.00     0.039 C 
ATOM     10  G   UNL     1      23.968 -10.974   3.981  1.00  0.00     0.000 G0
ENDBRANCH   6   7
ENDBRANCH   5   6
ENDBRANCH   3   5
ENDBRANCH   1   3
BRANCH   1  11
ATOM     11  C   UNL     1      24.853 -10.249   7.083  1.00  0.00     0.087 C 
BRANCH  11  12
ATOM     12  C   UNL     1      23.515 -10.864   6.573  1.00  0.00     0.066 C 
BRANCH  12  13
ATOM     13  C   UNL     1      23.662 -11.668   5.282  1.00  0.00     0.140 C 
ATOM     14  O   UNL     1      23.401 -12.862   5.252  1.00  0.00    -0.299 OA
BRANCH  13  15
ATOM     15  C   UNL     1      23.966 -10.954   3.990  1.00  0.00     0.106 CG0
ATOM     16  G   UNL     1      24.671 -11.782   2.920  1.00  0.00     0.000 G0
ENDBRANCH  13  15
ENDBRANCH  12  13
BRANCH  12  17
ATOM     17  C   UNL     1      22.671 -11.537   7.707  1.00  0.00    -0.006 C 
ATOM     18  C   UNL     1      22.984 -13.024   7.937  1.00  0.00     0.008 C 
ATOM     19  C   UNL     1      21.159 -11.321   7.512  1.00  0.00     0.008 C 
ENDBRANCH  12  17
ENDBRANCH  11  12
ENDBRANCH   1  11
TORSDOF 1
ENDMDL
MODEL 2
REMARK VINA RESULT:    -1.075      2.444      3.878
REMARK INTER + INTRA:           0.125
REMARK INTER:                  -2.212
REMARK INTRA:                   2.337
REMARK UNBOUND:                 1.766
REMARK SMILES CC1=CCC[C@H](C)C(=O)C[C@H](C(C)C)C(=O)C1
REMARK SMILES IDX 8 1 9 2 6 3 7 4 5 5 4 6 3 7 2 8 1 9 10 11 11 12 15 13 16 14
REMARK SMILES IDX 17 15 12 17 13 18 14 19
REMARK H PARENT
REMARK Flexibility Score: 70.00
ROOT
ATOM      1  C   UNL     1      25.859 -10.161   5.662  1.00  0.00     0.136 C 
ATOM      2  O   UNL     1      26.646  -9.237   5.800  1.00  0.00    -0.299 OA
ENDROOT
BRANCH   1   3
ATOM      3  C   UNL     1      25.974 -11.056   4.442  1.00  0.00     0.053 C 
ATOM      4  C   UNL     1      26.285 -10.198   3.210  1.00  0.00     0.016 C 
BRANCH   3   5
ATOM      5  C   UNL     1      27.049 -12.149   4.615  1.00  0.00     0.015 C 
BRANCH   5   6
ATOM      6  C   UNL     1      26.814 -13.103   5.799  1.00  0.00     0.028 C 
BRANCH   6   7
ATOM      7  C   UNL     1      27.125 -12.499   7.149  1.00  0.00    -0.028 C 
ATOM      8  C   UNL     1      26.306 -12.387   8.228  1.00  0.00    -0.070 CG0
ATOM      9  C   UNL     1      26.854 -11.628   9.415  1.00  0.00     0.039 C 
ATOM     10  G   UNL     1      24.934 -13.036   8.379  1.00  0.00     0.000 G0
ENDBRANCH   6   7
ENDBRANCH   5   6
ENDBRANCH   3   5
ENDBRANCH   1   3
BRANCH   1  11
ATOM     11  C   UNL     1      24.725 -10.330   6.648  1.00  0.00     0.087 C 
BRANCH  11  12
ATOM     12  C   UNL     1      23.874 -11.626   6.490  1.00  0.00     0.066 C 
BRANCH  12  13
ATOM     13  C   UNL     1      23.736 -12.431   7.781  1.00  0.00     0.140 C 
ATOM     14  O   UNL     1      22.636 -12.688   8.248  1.00  0.00    -0.299 OA
BRANCH  13  15
ATOM     15  C   UNL     1      24.956 -13.063   8.399  1.00  0.00     0.106 CG0
ATOM     16  G   UNL     1      26.272 -12.319   8.188  1.00  0.00     0.000 G0
ENDBRANCH  13  15
ENDBRANCH  12  13
BRANCH  12  17
ATOM     17  C   UNL     1      22.554 -11.404   5.677  1.00  0.00    -0.006 C 
ATOM     18  C   UNL     1      22.679 -10.404   4.517  1.00  0.00     0.008 C 
ATOM     19  C   UNL     1      21.367 -11.036   6.587  1.00  0.00     0.008 C 
ENDBRANCH  12  17
ENDBRANCH  11  12
ENDBRANCH   1  11
TORSDOF 1
ENDMDL
MODEL 3
REMARK VINA RESULT:    -1.012      1.698      2.282
REMARK INTER + INTRA:           0.222
REMARK INTER:                  -1.301
REMARK INTRA:                   1.524
REMARK UNBOUND:                 1.766
REMARK SMILES CC1=CCC[C@H](C)C(=O)C[C@H](C(C)C)C(=O)C1
REMARK SMILES IDX 8 1 9 2 6 3 7 4 5 5 4 6 3 7 2 8 1 9 10 11 11 12 15 13 16 14
REMARK SMILES IDX 17 15 12 17 13 18 14 19
REMARK H PARENT
REMARK Flexibility Score: 70.00
ROOT
ATOM      1  C   UNL     1      24.868  -9.304   7.056  1.00  0.00     0.136 C 
ATOM      2  O   UNL     1      24.259  -8.375   6.546  1.00  0.00    -0.299 OA
ENDROOT
BRANCH   1   3
ATOM      3  C   UNL     1      26.372  -9.393   6.870  1.00  0.00     0.053 C 
ATOM      4  C   UNL     1      27.041  -9.604   8.233  1.00  0.00     0.016 C 
BRANCH   3   5
ATOM      5  C   UNL     1      26.776 -10.522   5.898  1.00  0.00     0.015 C 
BRANCH   5   6
ATOM      6  C   UNL     1      26.577 -10.192   4.408  1.00  0.00     0.028 C 
BRANCH   6   7
ATOM      7  C   UNL     1      25.333 -10.799   3.803  1.00  0.00    -0.028 C 
ATOM      8  C   UNL     1      24.771 -12.007   4.071  1.00  0.00    -0.070 CG0
ATOM      9  C   UNL     1      23.584 -12.404   3.223  1.00  0.00     0.039 C 
ATOM     10  G   UNL     1      25.170 -12.946   5.206  1.00  0.00     0.000 G0
ENDBRANCH   6   7
ENDBRANCH   5   6
ENDBRANCH   3   5
ENDBRANCH   1   3
BRANCH   1  11
ATOM     11  C   UNL     1      24.104 -10.398   7.768  1.00  0.00     0.087 C 
BRANCH  11  12
ATOM     12  C   UNL     1      23.726 -11.637   6.901  1.00  0.00     0.066 C 
BRANCH  12  13
ATOM     13  C   UNL     1      24.905 -12.565   6.610  1.00  0.00     0.140 C 
ATOM     14  O   UNL     1      25.540 -13.080   7.518  1.00  0.00    -0.299 OA
BRANCH  13  15
ATOM     15  C   UNL     1      25.185 -12.989   5.191  1.00  0.00     0.106 CG0
ATOM     16  G   UNL     1      24.762 -12.005   4.104  1.00  0.00     0.000 G0
ENDBRANCH  13  15
ENDBRANCH  12  13
BRANCH  12  17
ATOM     17  C   UNL     1      22.403 -12.336   7.365  1.00  0.00    -0.006 C 
ATOM     18  C   UNL     1      21.187 -11.401   7.458  1.00  0.00     0.008 C 
ATOM     19  C   UNL     1      22.590 -13.118   8.678  1.00  0.00     0.008 C 
ENDBRANCH  12  17
ENDBRANCH  11  12
ENDBRANCH   1  11
TORSDOF 1
ENDMDL
MODEL 4
REMARK VINA RESULT:    -0.711      1.739      3.646
REMARK INTER + INTRA:           0.682
REMARK INTER:                  -2.888
REMARK INTRA:                   3.570
REMARK UNBOUND:                 1.766
REMARK SMILES CC1=CCC[C@H](C)C(=O)C[C@H](C(C)C)C(=O)C1
REMARK SMILES IDX 8 1 9 2 6 3 7 4 5 5 4 6 3 7 2 8 1 9 10 11 11 12 15 13 16 14
REMARK SMILES IDX 17 15 12 17 13 18 14 19
REMARK H PARENT
REMARK Flexibility Score: 70.00
ROOT
ATOM      1  C   UNL     1      24.084 -12.150   4.606  1.00  0.00     0.136 C 
ATOM      2  O   UNL     1      23.371 -11.174   4.778  1.00  0.00    -0.299 OA
ENDROOT
BRANCH   1   3
ATOM      3  C   UNL     1      24.643 -12.424   3.221  1.00  0.00     0.053 C 
ATOM      4  C   UNL     1      23.687 -11.855   2.166  1.00  0.00     0.016 C 
BRANCH   3   5
ATOM      5  C   UNL     1      26.057 -11.835   3.032  1.00  0.00     0.015 C 
BRANCH   5   6
ATOM      6  C   UNL     1      26.894 -11.742   4.320  1.00  0.00     0.028 C 
BRANCH   6   7
ATOM      7  C   UNL     1      27.125 -10.329   4.805  1.00  0.00    -0.028 C 
ATOM      8  C   UNL     1      26.796  -9.789   6.008  1.00  0.00    -0.070 CG0
ATOM      9  C   UNL     1      27.045  -8.308   6.175  1.00  0.00     0.039 C 
ATOM     10  G   UNL     1      26.290 -10.559   7.225  1.00  0.00     0.000 G0
ENDBRANCH   6   7
ENDBRANCH   5   6
ENDBRANCH   3   5
ENDBRANCH   1   3
BRANCH   1  11
ATOM     11  C   UNL     1      24.308 -13.123   5.742  1.00  0.00     0.087 C 
BRANCH  11  12
ATOM     12  C   UNL     1      24.620 -12.487   7.130  1.00  0.00     0.066 C 
BRANCH  12  13
ATOM     13  C   UNL     1      26.056 -11.982   7.265  1.00  0.00     0.140 C 
ATOM     14  O   UNL     1      27.003 -12.751   7.190  1.00  0.00    -0.299 OA
BRANCH  13  15
ATOM     15  C   UNL     1      26.322 -10.500   7.320  1.00  0.00     0.106 CG0
ATOM     16  G   UNL     1      26.803  -9.859   6.021  1.00  0.00     0.000 G0
ENDBRANCH  13  15
ENDBRANCH  12  13
BRANCH  12  17
ATOM     17  C   UNL     1      23.502 -11.511   7.629  1.00  0.00    -0.006 C 
ATOM     18  C   UNL     1      22.069 -12.031   7.435  1.00  0.00     0.008 C 
ATOM     19  C   UNL     1      23.655 -10.100   7.034  1.00  0.00     0.008 C 
ENDBRANCH  12  17
ENDBRANCH  11  12
ENDBRANCH   1  11
TORSDOF 1
ENDMDL
