MODEL 1
REMARK VINA RESULT:    -3.411      0.000      0.000
REMARK INTER + INTRA:          -5.903
REMARK INTER:                  -5.406
REMARK INTRA:                  -0.498
REMARK UNBOUND:                -0.498
REMARK SMILES CCCCCCCCCCCC(=O)[O-]
REMARK SMILES IDX 7 1 8 2 9 3 10 4 11 5 12 6 13 7 14 8 6 9 5 10 4 11 3 12 2 13
REMARK SMILES IDX 1 14
REMARK H PARENT
REMARK Flexibility Score: inf
ROOT
ATOM      1  C   UNL     1       5.661  43.933   9.945  1.00  0.00     0.000 C 
ENDROOT
BRANCH   1   2
ATOM      2  C   UNL     1       7.103  44.467   9.895  1.00  0.00     0.000 C 
BRANCH   2   3
ATOM      3  C   UNL     1       8.107  43.553  10.619  1.00  0.00     0.000 C 
BRANCH   3   4
ATOM      4  C   UNL     1       7.489  42.365  11.380  1.00  0.00     0.006 C 
BRANCH   4   5
ATOM      5  C   UNL     1       7.568  42.491  12.913  1.00  0.00     0.053 C 
BRANCH   5   6
ATOM      6  C   UNL     1       6.319  43.072  13.505  1.00  0.00     0.041 C 
ATOM      7  O   UNL     1       5.698  42.453  14.409  1.00  0.00    -0.550 OA
ATOM      8  O   UNL     1       5.863  44.317  13.090  1.00  0.00    -0.550 OA
ENDBRANCH   5   6
ENDBRANCH   4   5
ENDBRANCH   3   4
ENDBRANCH   2   3
ENDBRANCH   1   2
BRANCH   1   9
ATOM      9  C   UNL     1       4.614  45.056   9.875  1.00  0.00     0.000 C 
BRANCH   9  10
ATOM     10  C   UNL     1       3.180  44.541  10.094  1.00  0.00    -0.000 C 
BRANCH  10  11
ATOM     11  C   UNL     1       2.960  43.997  11.514  1.00  0.00    -0.000 C 
BRANCH  11  12
ATOM     12  C   UNL     1       1.566  43.374  11.703  1.00  0.00    -0.000 C 
BRANCH  12  13
ATOM     13  C   UNL     1       0.972  42.852  10.386  1.00  0.00    -0.003 C 
ATOM     14  C   UNL     1      -0.114  41.798  10.605  1.00  0.00     0.004 C 
ENDBRANCH  12  13
ENDBRANCH  11  12
ENDBRANCH  10  11
ENDBRANCH   9  10
ENDBRANCH   1   9
TORSDOF 10
ENDMDL
MODEL 2
REMARK VINA RESULT:    -3.364      2.499      5.417
REMARK INTER + INTRA:          -5.828
REMARK INTER:                  -4.959
REMARK INTRA:                  -0.869
REMARK UNBOUND:                -0.498
REMARK SMILES CCCCCCCCCCCC(=O)[O-]
REMARK SMILES IDX 7 1 8 2 9 3 10 4 11 5 12 6 13 7 14 8 6 9 5 10 4 11 3 12 2 13
REMARK SMILES IDX 1 14
REMARK H PARENT
REMARK Flexibility Score: inf
ROOT
ATOM      1  C   UNL     1       5.614  44.968  12.528  1.00  0.00     0.000 C 
ENDROOT
BRANCH   1   2
ATOM      2  C   UNL     1       4.435  44.199  11.907  1.00  0.00     0.000 C 
BRANCH   2   3
ATOM      3  C   UNL     1       3.593  45.062  10.952  1.00  0.00     0.000 C 
BRANCH   3   4
ATOM      4  C   UNL     1       2.799  44.283   9.885  1.00  0.00     0.006 C 
BRANCH   4   5
ATOM      5  C   UNL     1       2.390  42.863  10.319  1.00  0.00     0.053 C 
BRANCH   5   6
ATOM      6  C   UNL     1       1.088  42.846  11.061  1.00  0.00     0.041 C 
ATOM      7  O   UNL     1       0.141  42.115  10.664  1.00  0.00    -0.550 OA
ATOM      8  O   UNL     1       0.932  43.601  12.217  1.00  0.00    -0.550 OA
ENDBRANCH   5   6
ENDBRANCH   4   5
ENDBRANCH   3   4
ENDBRANCH   2   3
ENDBRANCH   1   2
BRANCH   1   9
ATOM      9  C   UNL     1       6.794  45.125  11.555  1.00  0.00     0.000 C 
BRANCH   9  10
ATOM     10  C   UNL     1       6.779  44.071  10.433  1.00  0.00    -0.000 C 
BRANCH  10  11
ATOM     11  C   UNL     1       7.840  42.979  10.636  1.00  0.00    -0.000 C 
BRANCH  11  12
ATOM     12  C   UNL     1       7.325  41.798  11.477  1.00  0.00    -0.000 C 
BRANCH  12  13
ATOM     13  C   UNL     1       8.035  41.690  12.836  1.00  0.00    -0.003 C 
ATOM     14  C   UNL     1       7.127  42.065  14.007  1.00  0.00     0.004 C 
ENDBRANCH  12  13
ENDBRANCH  11  12
ENDBRANCH  10  11
ENDBRANCH   9  10
ENDBRANCH   1   9
TORSDOF 10
ENDMDL
MODEL 3
REMARK VINA RESULT:    -3.212      1.058      1.520
REMARK INTER + INTRA:          -5.587
REMARK INTER:                  -5.106
REMARK INTRA:                  -0.481
REMARK UNBOUND:                -0.498
REMARK SMILES CCCCCCCCCCCC(=O)[O-]
REMARK SMILES IDX 7 1 8 2 9 3 10 4 11 5 12 6 13 7 14 8 6 9 5 10 4 11 3 12 2 13
REMARK SMILES IDX 1 14
REMARK H PARENT
REMARK Flexibility Score: inf
ROOT
ATOM      1  C   UNL     1       5.552  44.368  10.655  1.00  0.00     0.000 C 
ENDROOT
BRANCH   1   2
ATOM      2  C   UNL     1       6.926  45.046  10.508  1.00  0.00     0.000 C 
BRANCH   2   3
ATOM      3  C   UNL     1       8.080  44.038  10.366  1.00  0.00     0.000 C 
BRANCH   3   4
ATOM      4  C   UNL     1       8.563  43.398  11.682  1.00  0.00     0.006 C 
BRANCH   4   5
ATOM      5  C   UNL     1       7.817  42.106  12.062  1.00  0.00     0.053 C 
BRANCH   5   6
ATOM      6  C   UNL     1       7.128  42.213  13.389  1.00  0.00     0.041 C 
ATOM      7  O   UNL     1       6.310  43.147  13.605  1.00  0.00    -0.550 OA
ATOM      8  O   UNL     1       7.354  41.259  14.373  1.00  0.00    -0.550 OA
ENDBRANCH   5   6
ENDBRANCH   4   5
ENDBRANCH   3   4
ENDBRANCH   2   3
ENDBRANCH   1   2
BRANCH   1   9
ATOM      9  C   UNL     1       4.623  45.123  11.620  1.00  0.00     0.000 C 
BRANCH   9  10
ATOM     10  C   UNL     1       3.138  44.785  11.396  1.00  0.00    -0.000 C 
BRANCH  10  11
ATOM     11  C   UNL     1       2.854  44.299   9.966  1.00  0.00    -0.000 C 
BRANCH  11  12
ATOM     12  C   UNL     1       2.122  42.946   9.933  1.00  0.00    -0.000 C 
BRANCH  12  13
ATOM     13  C   UNL     1       0.965  42.879  10.942  1.00  0.00    -0.003 C 
ATOM     14  C   UNL     1      -0.091  41.842  10.561  1.00  0.00     0.004 C 
ENDBRANCH  12  13
ENDBRANCH  11  12
ENDBRANCH  10  11
ENDBRANCH   9  10
ENDBRANCH   1   9
TORSDOF 10
ENDMDL
MODEL 4
REMARK VINA RESULT:    -3.104      2.378      5.510
REMARK INTER + INTRA:          -5.416
REMARK INTER:                  -4.337
REMARK INTRA:                  -1.079
REMARK UNBOUND:                -0.498
REMARK SMILES CCCCCCCCCCCC(=O)[O-]
REMARK SMILES IDX 7 1 8 2 9 3 10 4 11 5 12 6 13 7 14 8 6 9 5 10 4 11 3 12 2 13
REMARK SMILES IDX 1 14
REMARK H PARENT
REMARK Flexibility Score: inf
ROOT
ATOM      1  C   UNL     1       4.767  43.585  12.809  1.00  0.00     0.000 C 
ENDROOT
BRANCH   1   2
ATOM      2  C   UNL     1       4.577  44.727  11.796  1.00  0.00     0.000 C 
BRANCH   2   3
ATOM      3  C   UNL     1       4.408  44.226  10.351  1.00  0.00     0.000 C 
BRANCH   3   4
ATOM      4  C   UNL     1       3.485  43.004  10.180  1.00  0.00     0.006 C 
BRANCH   4   5
ATOM      5  C   UNL     1       2.019  43.362   9.875  1.00  0.00     0.053 C 
BRANCH   5   6
ATOM      6  C   UNL     1       1.103  43.046  11.019  1.00  0.00     0.041 C 
ATOM      7  O   UNL     1       0.209  42.168  10.892  1.00  0.00    -0.550 OA
ATOM      8  O   UNL     1       1.264  43.688  12.241  1.00  0.00    -0.550 OA
ENDBRANCH   5   6
ENDBRANCH   4   5
ENDBRANCH   3   4
ENDBRANCH   2   3
ENDBRANCH   1   2
BRANCH   1   9
ATOM      9  C   UNL     1       6.120  43.661  13.536  1.00  0.00     0.000 C 
BRANCH   9  10
ATOM     10  C   UNL     1       6.919  42.349  13.437  1.00  0.00    -0.000 C 
BRANCH  10  11
ATOM     11  C   UNL     1       8.082  42.442  12.437  1.00  0.00    -0.000 C 
BRANCH  11  12
ATOM     12  C   UNL     1       7.681  42.004  11.017  1.00  0.00    -0.000 C 
BRANCH  12  13
ATOM     13  C   UNL     1       7.406  43.197  10.089  1.00  0.00    -0.003 C 
ATOM     14  C   UNL     1       8.209  44.440  10.472  1.00  0.00     0.004 C 
ENDBRANCH  12  13
ENDBRANCH  11  12
ENDBRANCH  10  11
ENDBRANCH   9  10
ENDBRANCH   1   9
TORSDOF 10
ENDMDL
MODEL 5
REMARK VINA RESULT:    -2.623      2.440      3.242
REMARK INTER + INTRA:          -4.654
REMARK INTER:                  -4.479
REMARK INTRA:                  -0.175
REMARK UNBOUND:                -0.498
REMARK SMILES CCCCCCCCCCCC(=O)[O-]
REMARK SMILES IDX 7 1 8 2 9 3 10 4 11 5 12 6 13 7 14 8 6 9 5 10 4 11 3 12 2 13
REMARK SMILES IDX 1 14
REMARK H PARENT
REMARK Flexibility Score: inf
ROOT
ATOM      1  C   UNL     1       3.280  44.122   9.923  1.00  0.00     0.000 C 
ENDROOT
BRANCH   1   2
ATOM      2  C   UNL     1       4.769  43.827  10.173  1.00  0.00     0.000 C 
BRANCH   2   3
ATOM      3  C   UNL     1       5.271  44.373  11.521  1.00  0.00     0.000 C 
BRANCH   3   4
ATOM      4  C   UNL     1       6.760  44.767  11.561  1.00  0.00     0.006 C 
BRANCH   4   5
ATOM      5  C   UNL     1       7.696  43.753  10.877  1.00  0.00     0.053 C 
BRANCH   5   6
ATOM      6  C   UNL     1       7.725  42.433  11.587  1.00  0.00     0.041 C 
ATOM      7  O   UNL     1       7.727  42.390  12.846  1.00  0.00    -0.550 OA
ATOM      8  O   UNL     1       7.707  41.249  10.861  1.00  0.00    -0.550 OA
ENDBRANCH   5   6
ENDBRANCH   4   5
ENDBRANCH   3   4
ENDBRANCH   2   3
ENDBRANCH   1   2
BRANCH   1   9
ATOM      9  C   UNL     1       2.352  43.198  10.728  1.00  0.00     0.000 C 
BRANCH   9  10
ATOM     10  C   UNL     1       2.019  43.763  12.121  1.00  0.00    -0.000 C 
BRANCH  10  11
ATOM     11  C   UNL     1       0.531  43.617  12.475  1.00  0.00    -0.000 C 
BRANCH  11  12
ATOM     12  C   UNL     1       0.089  44.578  13.593  1.00  0.00    -0.000 C 
BRANCH  12  13
ATOM     13  C   UNL     1      -1.107  44.039  14.393  1.00  0.00    -0.003 C 
ATOM     14  C   UNL     1      -2.129  45.125  14.731  1.00  0.00     0.004 C 
ENDBRANCH  12  13
ENDBRANCH  11  12
ENDBRANCH  10  11
ENDBRANCH   9  10
ENDBRANCH   1   9
TORSDOF 10
ENDMDL
MODEL 6
REMARK VINA RESULT:    -2.421      2.584      3.596
REMARK INTER + INTRA:          -4.334
REMARK INTER:                  -3.926
REMARK INTRA:                  -0.407
REMARK UNBOUND:                -0.498
REMARK SMILES CCCCCCCCCCCC(=O)[O-]
REMARK SMILES IDX 7 1 8 2 9 3 10 4 11 5 12 6 13 7 14 8 6 9 5 10 4 11 3 12 2 13
REMARK SMILES IDX 1 14
REMARK H PARENT
REMARK Flexibility Score: inf
ROOT
ATOM      1  C   UNL     1       3.063  43.306  10.865  1.00  0.00     0.000 C 
ENDROOT
BRANCH   1   2
ATOM      2  C   UNL     1       3.791  44.576  11.339  1.00  0.00     0.000 C 
BRANCH   2   3
ATOM      3  C   UNL     1       4.813  45.099  10.315  1.00  0.00     0.000 C 
BRANCH   3   4
ATOM      4  C   UNL     1       6.243  44.544  10.466  1.00  0.00     0.006 C 
BRANCH   4   5
ATOM      5  C   UNL     1       6.619  44.160  11.910  1.00  0.00     0.053 C 
BRANCH   5   6
ATOM      6  C   UNL     1       7.580  43.012  11.964  1.00  0.00     0.041 C 
ATOM      7  O   UNL     1       8.350  42.783  10.994  1.00  0.00    -0.550 OA
ATOM      8  O   UNL     1       7.658  42.219  13.103  1.00  0.00    -0.550 OA
ENDBRANCH   5   6
ENDBRANCH   4   5
ENDBRANCH   3   4
ENDBRANCH   2   3
ENDBRANCH   1   2
BRANCH   1   9
ATOM      9  C   UNL     1       1.590  43.273  11.304  1.00  0.00     0.000 C 
BRANCH   9  10
ATOM     10  C   UNL     1       1.341  44.066  12.600  1.00  0.00    -0.000 C 
BRANCH  10  11
ATOM     11  C   UNL     1      -0.097  43.911  13.118  1.00  0.00    -0.000 C 
BRANCH  11  12
ATOM     12  C   UNL     1      -0.445  44.928  14.219  1.00  0.00    -0.000 C 
BRANCH  12  13
ATOM     13  C   UNL     1      -1.893  44.788  14.712  1.00  0.00    -0.003 C 
ATOM     14  C   UNL     1      -2.354  43.332  14.786  1.00  0.00     0.004 C 
ENDBRANCH  12  13
ENDBRANCH  11  12
ENDBRANCH  10  11
ENDBRANCH   9  10
ENDBRANCH   1   9
TORSDOF 10
ENDMDL
MODEL 7
REMARK VINA RESULT:    -2.312      3.610      6.363
REMARK INTER + INTRA:          -4.161
REMARK INTER:                  -3.533
REMARK INTRA:                  -0.628
REMARK UNBOUND:                -0.498
REMARK SMILES CCCCCCCCCCCC(=O)[O-]
REMARK SMILES IDX 7 1 8 2 9 3 10 4 11 5 12 6 13 7 14 8 6 9 5 10 4 11 3 12 2 13
REMARK SMILES IDX 1 14
REMARK H PARENT
REMARK Flexibility Score: inf
ROOT
ATOM      1  C   UNL     1       2.902  43.311  10.438  1.00  0.00     0.000 C 
ENDROOT
BRANCH   1   2
ATOM      2  C   UNL     1       2.547  43.273  11.934  1.00  0.00     0.000 C 
BRANCH   2   3
ATOM      3  C   UNL     1       1.525  44.350  12.336  1.00  0.00     0.000 C 
BRANCH   3   4
ATOM      4  C   UNL     1       0.222  43.822  12.967  1.00  0.00     0.006 C 
BRANCH   4   5
ATOM      5  C   UNL     1      -0.347  44.723  14.080  1.00  0.00     0.053 C 
BRANCH   5   6
ATOM      6  C   UNL     1      -1.702  44.278  14.540  1.00  0.00     0.041 C 
ATOM      7  O   UNL     1      -2.550  45.124  14.928  1.00  0.00    -0.550 OA
ATOM      8  O   UNL     1      -2.046  42.933  14.499  1.00  0.00    -0.550 OA
ENDBRANCH   5   6
ENDBRANCH   4   5
ENDBRANCH   3   4
ENDBRANCH   2   3
ENDBRANCH   1   2
BRANCH   1   9
ATOM      9  C   UNL     1       4.336  43.802  10.184  1.00  0.00     0.000 C 
BRANCH   9  10
ATOM     10  C   UNL     1       4.686  45.055  11.008  1.00  0.00    -0.000 C 
BRANCH  10  11
ATOM     11  C   UNL     1       6.053  44.941  11.700  1.00  0.00    -0.000 C 
BRANCH  11  12
ATOM     12  C   UNL     1       6.129  43.750  12.672  1.00  0.00    -0.000 C 
BRANCH  12  13
ATOM     13  C   UNL     1       7.268  42.779  12.323  1.00  0.00    -0.003 C 
ATOM     14  C   UNL     1       8.065  43.220  11.096  1.00  0.00     0.004 C 
ENDBRANCH  12  13
ENDBRANCH  11  12
ENDBRANCH  10  11
ENDBRANCH   9  10
ENDBRANCH   1   9
TORSDOF 10
ENDMDL
MODEL 8
REMARK VINA RESULT:    -2.306      1.885      2.593
REMARK INTER + INTRA:          -4.152
REMARK INTER:                  -3.430
REMARK INTRA:                  -0.722
REMARK UNBOUND:                -0.498
REMARK SMILES CCCCCCCCCCCC(=O)[O-]
REMARK SMILES IDX 7 1 8 2 9 3 10 4 11 5 12 6 13 7 14 8 6 9 5 10 4 11 3 12 2 13
REMARK SMILES IDX 1 14
REMARK H PARENT
REMARK Flexibility Score: inf
ROOT
ATOM      1  C   UNL     1       4.401  43.392  11.757  1.00  0.00     0.000 C 
ENDROOT
BRANCH   1   2
ATOM      2  C   UNL     1       5.166  44.676  12.120  1.00  0.00     0.000 C 
BRANCH   2   3
ATOM      3  C   UNL     1       6.209  45.073  11.061  1.00  0.00     0.000 C 
BRANCH   3   4
ATOM      4  C   UNL     1       7.670  44.726  11.409  1.00  0.00     0.006 C 
BRANCH   4   5
ATOM      5  C   UNL     1       8.205  43.471  10.695  1.00  0.00     0.053 C 
BRANCH   5   6
ATOM      6  C   UNL     1       7.829  42.205  11.404  1.00  0.00     0.041 C 
ATOM      7  O   UNL     1       7.698  42.195  12.657  1.00  0.00    -0.550 OA
ATOM      8  O   UNL     1       7.580  41.046  10.680  1.00  0.00    -0.550 OA
ENDBRANCH   5   6
ENDBRANCH   4   5
ENDBRANCH   3   4
ENDBRANCH   2   3
ENDBRANCH   1   2
BRANCH   1   9
ATOM      9  C   UNL     1       4.119  43.279  10.250  1.00  0.00     0.000 C 
BRANCH   9  10
ATOM     10  C   UNL     1       2.697  43.737   9.878  1.00  0.00    -0.000 C 
BRANCH  10  11
ATOM     11  C   UNL     1       1.671  42.597   9.963  1.00  0.00    -0.000 C 
BRANCH  11  12
ATOM     12  C   UNL     1       0.609  42.833  11.052  1.00  0.00    -0.000 C 
BRANCH  12  13
ATOM     13  C   UNL     1       1.145  43.670  12.224  1.00  0.00    -0.003 C 
ATOM     14  C   UNL     1       0.056  44.042  13.230  1.00  0.00     0.004 C 
ENDBRANCH  12  13
ENDBRANCH  11  12
ENDBRANCH  10  11
ENDBRANCH   9  10
ENDBRANCH   1   9
TORSDOF 10
ENDMDL
