MODEL 1
REMARK VINA RESULT:    -4.009      0.000      0.000
REMARK INTER + INTRA:          -5.977
REMARK INTER:                  -5.650
REMARK INTRA:                  -0.327
REMARK UNBOUND:                -0.327
REMARK SMILES CCCCCCCCC(=O)[O-]
REMARK SMILES IDX 6 1 7 2 8 3 9 4 10 5 11 6 5 7 4 8 3 9 2 10 1 11
REMARK H PARENT
REMARK Flexibility Score: inf
ROOT
ATOM      1  C   UNL     1      -4.182  -2.265   5.660  1.00  0.00     0.000 C 
ENDROOT
BRANCH   1   2
ATOM      2  C   UNL     1      -3.808  -0.795   5.416  1.00  0.00     0.006 C 
BRANCH   2   3
ATOM      3  C   UNL     1      -2.586  -0.363   6.237  1.00  0.00     0.053 C 
BRANCH   3   4
ATOM      4  C   UNL     1      -1.570   0.344   5.392  1.00  0.00     0.041 C 
ATOM      5  O   UNL     1      -0.481  -0.220   5.106  1.00  0.00    -0.550 OA
ATOM      6  O   UNL     1      -1.812   1.638   4.950  1.00  0.00    -0.550 OA
ENDBRANCH   3   4
ENDBRANCH   2   3
ENDBRANCH   1   2
BRANCH   1   7
ATOM      7  C   UNL     1      -4.733  -2.912   4.382  1.00  0.00     0.000 C 
BRANCH   7   8
ATOM      8  C   UNL     1      -4.674  -1.975   3.163  1.00  0.00    -0.000 C 
BRANCH   8   9
ATOM      9  C   UNL     1      -4.943  -2.686   1.820  1.00  0.00    -0.000 C 
BRANCH   9  10
ATOM     10  C   UNL     1      -5.278  -4.173   2.008  1.00  0.00    -0.003 C 
ATOM     11  C   UNL     1      -4.917  -4.981   0.765  1.00  0.00     0.004 C 
ENDBRANCH   9  10
ENDBRANCH   8   9
ENDBRANCH   7   8
ENDBRANCH   1   7
TORSDOF 7
ENDMDL
MODEL 2
REMARK VINA RESULT:    -3.999      3.469      5.829
REMARK INTER + INTRA:          -5.963
REMARK INTER:                  -5.695
REMARK INTRA:                  -0.268
REMARK UNBOUND:                -0.327
REMARK SMILES CCCCCCCCC(=O)[O-]
REMARK SMILES IDX 6 1 7 2 8 3 9 4 10 5 11 6 5 7 4 8 3 9 2 10 1 11
REMARK H PARENT
REMARK Flexibility Score: inf
ROOT
ATOM      1  C   UNL     1      -4.925  -3.249   4.510  1.00  0.00     0.000 C 
ENDROOT
BRANCH   1   2
ATOM      2  C   UNL     1      -5.218  -3.970   3.184  1.00  0.00     0.006 C 
BRANCH   2   3
ATOM      3  C   UNL     1      -4.912  -3.090   1.966  1.00  0.00     0.053 C 
BRANCH   3   4
ATOM      4  C   UNL     1      -4.867  -3.890   0.699  1.00  0.00     0.041 C 
ATOM      5  O   UNL     1      -5.133  -3.345  -0.404  1.00  0.00    -0.550 OA
ATOM      6  O   UNL     1      -4.565  -5.245   0.743  1.00  0.00    -0.550 OA
ENDBRANCH   3   4
ENDBRANCH   2   3
ENDBRANCH   1   2
BRANCH   1   7
ATOM      7  C   UNL     1      -4.377  -1.838   4.259  1.00  0.00     0.000 C 
BRANCH   7   8
ATOM      8  C   UNL     1      -4.329  -0.979   5.534  1.00  0.00    -0.000 C 
BRANCH   8   9
ATOM      9  C   UNL     1      -2.900  -0.725   6.058  1.00  0.00    -0.000 C 
BRANCH   9  10
ATOM     10  C   UNL     1      -2.037   0.040   5.043  1.00  0.00    -0.003 C 
ATOM     11  C   UNL     1      -0.569   0.039   5.456  1.00  0.00     0.004 C 
ENDBRANCH   9  10
ENDBRANCH   8   9
ENDBRANCH   7   8
ENDBRANCH   1   7
TORSDOF 7
ENDMDL
MODEL 3
REMARK VINA RESULT:    -3.870      4.304      6.725
REMARK INTER + INTRA:          -5.781
REMARK INTER:                  -5.615
REMARK INTRA:                  -0.166
REMARK UNBOUND:                -0.327
REMARK SMILES CCCCCCCCC(=O)[O-]
REMARK SMILES IDX 6 1 7 2 8 3 9 4 10 5 11 6 5 7 4 8 3 9 2 10 1 11
REMARK H PARENT
REMARK Flexibility Score: inf
ROOT
ATOM      1  C   UNL     1      -5.325  -3.305   2.493  1.00  0.00     0.000 C 
ENDROOT
BRANCH   1   2
ATOM      2  C   UNL     1      -5.256  -4.779   2.063  1.00  0.00     0.006 C 
BRANCH   2   3
ATOM      3  C   UNL     1      -4.737  -4.941   0.628  1.00  0.00     0.053 C 
BRANCH   3   4
ATOM      4  C   UNL     1      -5.811  -5.422  -0.300  1.00  0.00     0.041 C 
ATOM      5  O   UNL     1      -6.980  -5.610   0.127  1.00  0.00    -0.550 OA
ATOM      6  O   UNL     1      -5.512  -5.694  -1.629  1.00  0.00    -0.550 OA
ENDBRANCH   3   4
ENDBRANCH   2   3
ENDBRANCH   1   2
BRANCH   1   7
ATOM      7  C   UNL     1      -4.844  -3.132   3.940  1.00  0.00     0.000 C 
BRANCH   7   8
ATOM      8  C   UNL     1      -4.417  -1.689   4.260  1.00  0.00    -0.000 C 
BRANCH   8   9
ATOM      9  C   UNL     1      -3.639  -1.553   5.586  1.00  0.00    -0.000 C 
BRANCH   9  10
ATOM     10  C   UNL     1      -3.121  -0.124   5.811  1.00  0.00    -0.003 C 
ATOM     11  C   UNL     1      -1.813   0.112   5.063  1.00  0.00     0.004 C 
ENDBRANCH   9  10
ENDBRANCH   8   9
ENDBRANCH   7   8
ENDBRANCH   1   7
TORSDOF 7
ENDMDL
MODEL 4
REMARK VINA RESULT:    -3.798      1.832      3.000
REMARK INTER + INTRA:          -5.680
REMARK INTER:                  -5.269
REMARK INTRA:                  -0.410
REMARK UNBOUND:                -0.327
REMARK SMILES CCCCCCCCC(=O)[O-]
REMARK SMILES IDX 6 1 7 2 8 3 9 4 10 5 11 6 5 7 4 8 3 9 2 10 1 11
REMARK H PARENT
REMARK Flexibility Score: inf
ROOT
ATOM      1  C   UNL     1      -5.198  -3.895   3.099  1.00  0.00     0.000 C 
ENDROOT
BRANCH   1   2
ATOM      2  C   UNL     1      -4.832  -3.286   4.461  1.00  0.00     0.006 C 
BRANCH   2   3
ATOM      3  C   UNL     1      -4.371  -1.828   4.340  1.00  0.00     0.053 C 
BRANCH   3   4
ATOM      4  C   UNL     1      -3.735  -1.340   5.607  1.00  0.00     0.041 C 
ATOM      5  O   UNL     1      -3.105  -0.250   5.619  1.00  0.00    -0.550 OA
ATOM      6  O   UNL     1      -3.811  -2.105   6.763  1.00  0.00    -0.550 OA
ENDBRANCH   3   4
ENDBRANCH   2   3
ENDBRANCH   1   2
BRANCH   1   7
ATOM      7  C   UNL     1      -5.143  -2.835   1.990  1.00  0.00     0.000 C 
BRANCH   7   8
ATOM      8  C   UNL     1      -4.713  -3.411   0.631  1.00  0.00    -0.000 C 
BRANCH   8   9
ATOM      9  C   UNL     1      -4.776  -4.952   0.563  1.00  0.00    -0.000 C 
BRANCH   9  10
ATOM     10  C   UNL     1      -5.661  -5.447  -0.590  1.00  0.00    -0.003 C 
ATOM     11  C   UNL     1      -7.115  -5.582  -0.150  1.00  0.00     0.004 C 
ENDBRANCH   9  10
ENDBRANCH   8   9
ENDBRANCH   7   8
ENDBRANCH   1   7
TORSDOF 7
ENDMDL
MODEL 5
REMARK VINA RESULT:    -3.761      1.537      2.489
REMARK INTER + INTRA:          -5.628
REMARK INTER:                  -5.363
REMARK INTRA:                  -0.265
REMARK UNBOUND:                -0.327
REMARK SMILES CCCCCCCCC(=O)[O-]
REMARK SMILES IDX 6 1 7 2 8 3 9 4 10 5 11 6 5 7 4 8 3 9 2 10 1 11
REMARK H PARENT
REMARK Flexibility Score: inf
ROOT
ATOM      1  C   UNL     1      -5.114  -4.068   4.480  1.00  0.00     0.000 C 
ENDROOT
BRANCH   1   2
ATOM      2  C   UNL     1      -4.678  -2.868   5.337  1.00  0.00     0.006 C 
BRANCH   2   3
ATOM      3  C   UNL     1      -4.162  -1.703   4.483  1.00  0.00     0.053 C 
BRANCH   3   4
ATOM      4  C   UNL     1      -3.302  -0.769   5.279  1.00  0.00     0.041 C 
ATOM      5  O   UNL     1      -3.641  -0.435   6.445  1.00  0.00    -0.550 OA
ATOM      6  O   UNL     1      -2.146  -0.240   4.720  1.00  0.00    -0.550 OA
ENDBRANCH   3   4
ENDBRANCH   2   3
ENDBRANCH   1   2
BRANCH   1   7
ATOM      7  C   UNL     1      -5.293  -3.659   3.012  1.00  0.00     0.000 C 
BRANCH   7   8
ATOM      8  C   UNL     1      -5.385  -4.865   2.061  1.00  0.00    -0.000 C 
BRANCH   8   9
ATOM      9  C   UNL     1      -4.718  -4.626   0.690  1.00  0.00    -0.000 C 
BRANCH   9  10
ATOM     10  C   UNL     1      -5.493  -5.291  -0.456  1.00  0.00    -0.003 C 
ATOM     11  C   UNL     1      -6.956  -5.508  -0.081  1.00  0.00     0.004 C 
ENDBRANCH   9  10
ENDBRANCH   8   9
ENDBRANCH   7   8
ENDBRANCH   1   7
TORSDOF 7
ENDMDL
MODEL 6
REMARK VINA RESULT:    -3.738      5.013      7.421
REMARK INTER + INTRA:          -5.595
REMARK INTER:                  -5.306
REMARK INTRA:                  -0.289
REMARK UNBOUND:                -0.327
REMARK SMILES CCCCCCCCC(=O)[O-]
REMARK SMILES IDX 6 1 7 2 8 3 9 4 10 5 11 6 5 7 4 8 3 9 2 10 1 11
REMARK H PARENT
REMARK Flexibility Score: inf
ROOT
ATOM      1  C   UNL     1      -5.108  -4.534   1.354  1.00  0.00     0.000 C 
ENDROOT
BRANCH   1   2
ATOM      2  C   UNL     1      -5.045  -5.231  -0.014  1.00  0.00     0.006 C 
BRANCH   2   3
ATOM      3  C   UNL     1      -6.437  -5.436  -0.625  1.00  0.00     0.053 C 
BRANCH   3   4
ATOM      4  C   UNL     1      -6.363  -5.719  -2.095  1.00  0.00     0.041 C 
ATOM      5  O   UNL     1      -7.366  -5.522  -2.830  1.00  0.00    -0.550 OA
ATOM      6  O   UNL     1      -5.196  -6.233  -2.647  1.00  0.00    -0.550 OA
ENDBRANCH   3   4
ENDBRANCH   2   3
ENDBRANCH   1   2
BRANCH   1   7
ATOM      7  C   UNL     1      -4.931  -3.017   1.208  1.00  0.00     0.000 C 
BRANCH   7   8
ATOM      8  C   UNL     1      -4.960  -2.277   2.556  1.00  0.00    -0.000 C 
BRANCH   8   9
ATOM      9  C   UNL     1      -5.381  -3.170   3.743  1.00  0.00    -0.000 C 
BRANCH   9  10
ATOM     10  C   UNL     1      -4.547  -2.893   5.002  1.00  0.00    -0.003 C 
ATOM     11  C   UNL     1      -4.076  -1.442   5.044  1.00  0.00     0.004 C 
ENDBRANCH   9  10
ENDBRANCH   8   9
ENDBRANCH   7   8
ENDBRANCH   1   7
TORSDOF 7
ENDMDL
MODEL 7
REMARK VINA RESULT:    -3.708      4.423      5.610
REMARK INTER + INTRA:          -5.553
REMARK INTER:                  -5.073
REMARK INTRA:                  -0.480
REMARK UNBOUND:                -0.327
REMARK SMILES CCCCCCCCC(=O)[O-]
REMARK SMILES IDX 6 1 7 2 8 3 9 4 10 5 11 6 5 7 4 8 3 9 2 10 1 11
REMARK H PARENT
REMARK Flexibility Score: inf
ROOT
ATOM      1  C   UNL     1      -6.134  -1.607   1.415  1.00  0.00     0.000 C 
ENDROOT
BRANCH   1   2
ATOM      2  C   UNL     1      -6.038  -1.454  -0.110  1.00  0.00     0.006 C 
BRANCH   2   3
ATOM      3  C   UNL     1      -6.274  -0.008  -0.564  1.00  0.00     0.053 C 
BRANCH   3   4
ATOM      4  C   UNL     1      -5.500   0.318  -1.806  1.00  0.00     0.041 C 
ATOM      5  O   UNL     1      -5.436  -0.513  -2.749  1.00  0.00    -0.550 OA
ATOM      6  O   UNL     1      -4.821   1.526  -1.905  1.00  0.00    -0.550 OA
ENDBRANCH   3   4
ENDBRANCH   2   3
ENDBRANCH   1   2
BRANCH   1   7
ATOM      7  C   UNL     1      -4.885  -2.299   1.979  1.00  0.00     0.000 C 
BRANCH   7   8
ATOM      8  C   UNL     1      -5.218  -3.538   2.828  1.00  0.00    -0.000 C 
BRANCH   8   9
ATOM      9  C   UNL     1      -5.522  -4.799   1.993  1.00  0.00    -0.000 C 
BRANCH   9  10
ATOM     10  C   UNL     1      -4.641  -4.891   0.738  1.00  0.00    -0.003 C 
ATOM     11  C   UNL     1      -5.459  -5.302  -0.482  1.00  0.00     0.004 C 
ENDBRANCH   9  10
ENDBRANCH   8   9
ENDBRANCH   7   8
ENDBRANCH   1   7
TORSDOF 7
ENDMDL
MODEL 8
REMARK VINA RESULT:    -3.694      3.036      5.221
REMARK INTER + INTRA:          -5.532
REMARK INTER:                  -5.010
REMARK INTRA:                  -0.522
REMARK UNBOUND:                -0.327
REMARK SMILES CCCCCCCCC(=O)[O-]
REMARK SMILES IDX 6 1 7 2 8 3 9 4 10 5 11 6 5 7 4 8 3 9 2 10 1 11
REMARK H PARENT
REMARK Flexibility Score: inf
ROOT
ATOM      1  C   UNL     1      -4.486  -2.522   5.561  1.00  0.00     0.000 C 
ENDROOT
BRANCH   1   2
ATOM      2  C   UNL     1      -4.882  -2.946   4.138  1.00  0.00     0.006 C 
BRANCH   2   3
ATOM      3  C   UNL     1      -4.474  -1.905   3.088  1.00  0.00     0.053 C 
BRANCH   3   4
ATOM      4  C   UNL     1      -5.302  -2.017   1.844  1.00  0.00     0.041 C 
ATOM      5  O   UNL     1      -5.007  -2.864   0.960  1.00  0.00    -0.550 OA
ATOM      6  O   UNL     1      -6.378  -1.162   1.645  1.00  0.00    -0.550 OA
ENDBRANCH   3   4
ENDBRANCH   2   3
ENDBRANCH   1   2
BRANCH   1   7
ATOM      7  C   UNL     1      -5.086  -1.154   5.914  1.00  0.00     0.000 C 
BRANCH   7   8
ATOM      8  C   UNL     1      -4.016  -0.087   6.202  1.00  0.00    -0.000 C 
BRANCH   8   9
ATOM      9  C   UNL     1      -2.583  -0.654   6.289  1.00  0.00    -0.000 C 
BRANCH   9  10
ATOM     10  C   UNL     1      -1.671  -0.101   5.184  1.00  0.00    -0.003 C 
ATOM     11  C   UNL     1      -1.607   1.422   5.233  1.00  0.00     0.004 C 
ENDBRANCH   9  10
ENDBRANCH   8   9
ENDBRANCH   7   8
ENDBRANCH   1   7
TORSDOF 7
ENDMDL
MODEL 9
REMARK VINA RESULT:    -3.619      4.131      6.132
REMARK INTER + INTRA:          -5.427
REMARK INTER:                  -4.885
REMARK INTRA:                  -0.542
REMARK UNBOUND:                -0.327
REMARK SMILES CCCCCCCCC(=O)[O-]
REMARK SMILES IDX 6 1 7 2 8 3 9 4 10 5 11 6 5 7 4 8 3 9 2 10 1 11
REMARK H PARENT
REMARK Flexibility Score: inf
ROOT
ATOM      1  C   UNL     1      -6.041  -5.145   1.812  1.00  0.00     0.000 C 
ENDROOT
BRANCH   1   2
ATOM      2  C   UNL     1      -4.823  -4.877   0.913  1.00  0.00     0.006 C 
BRANCH   2   3
ATOM      3  C   UNL     1      -4.870  -3.484   0.273  1.00  0.00     0.053 C 
BRANCH   3   4
ATOM      4  C   UNL     1      -5.863  -3.420  -0.848  1.00  0.00     0.041 C 
ATOM      5  O   UNL     1      -5.999  -4.397  -1.631  1.00  0.00    -0.550 OA
ATOM      6  O   UNL     1      -6.614  -2.269  -1.048  1.00  0.00    -0.550 OA
ENDBRANCH   3   4
ENDBRANCH   2   3
ENDBRANCH   1   2
BRANCH   1   7
ATOM      7  C   UNL     1      -5.608  -5.405   3.261  1.00  0.00     0.000 C 
BRANCH   7   8
ATOM      8  C   UNL     1      -5.963  -4.247   4.209  1.00  0.00    -0.000 C 
BRANCH   8   9
ATOM      9  C   UNL     1      -4.812  -3.845   5.156  1.00  0.00    -0.000 C 
BRANCH   9  10
ATOM     10  C   UNL     1      -4.456  -2.356   5.038  1.00  0.00    -0.003 C 
ATOM     11  C   UNL     1      -4.523  -1.886   3.588  1.00  0.00     0.004 C 
ENDBRANCH   9  10
ENDBRANCH   8   9
ENDBRANCH   7   8
ENDBRANCH   1   7
TORSDOF 7
ENDMDL
