MODEL 1
REMARK VINA RESULT:    -5.575      0.000      0.000
REMARK INTER + INTRA:          -7.056
REMARK INTER:                  -6.879
REMARK INTRA:                  -0.177
REMARK UNBOUND:                -0.177
REMARK SMILES C=CC[C@@H](C)C(=O)CC
REMARK SMILES IDX 4 1 5 2 6 3 7 4 8 5 9 6 3 7 2 8 1 9
REMARK H PARENT
REMARK Flexibility Score: inf
ROOT
ATOM      1  C   UNL     1      -1.822  27.674  28.286  1.00  0.00     0.057 C 
ATOM      2  C   UNL     1      -2.640  28.691  27.477  1.00  0.00     0.016 C 
ENDROOT
BRANCH   1   3
ATOM      3  C   UNL     1      -2.150  27.778  29.762  1.00  0.00     0.135 C 
ATOM      4  O   UNL     1      -1.292  27.490  30.583  1.00  0.00    -0.299 OA
BRANCH   3   5
ATOM      5  C   UNL     1      -3.514  28.201  30.250  1.00  0.00     0.072 C 
ATOM      6  C   UNL     1      -4.536  27.087  30.044  1.00  0.00     0.012 C 
ENDBRANCH   3   5
ENDBRANCH   1   3
BRANCH   1   7
ATOM      7  C   UNL     1      -2.032  26.232  27.782  1.00  0.00     0.038 C 
BRANCH   7   8
ATOM      8  C   UNL     1      -0.736  25.613  27.328  1.00  0.00    -0.034 C 
ATOM      9  C   UNL     1       0.339  25.565  28.120  1.00  0.00     0.004 C 
ENDBRANCH   7   8
ENDBRANCH   1   7
TORSDOF 4
ENDMDL
MODEL 2
REMARK VINA RESULT:    -5.476      1.791      2.089
REMARK INTER + INTRA:          -6.934
REMARK INTER:                  -6.832
REMARK INTRA:                  -0.102
REMARK UNBOUND:                -0.177
REMARK SMILES C=CC[C@@H](C)C(=O)CC
REMARK SMILES IDX 4 1 5 2 6 3 7 4 8 5 9 6 3 7 2 8 1 9
REMARK H PARENT
REMARK Flexibility Score: inf
ROOT
ATOM      1  C   UNL     1      -2.549  27.216  28.975  1.00  0.00     0.057 C 
ATOM      2  C   UNL     1      -1.620  27.660  30.114  1.00  0.00     0.016 C 
ENDROOT
BRANCH   1   3
ATOM      3  C   UNL     1      -3.692  28.197  28.806  1.00  0.00     0.135 C 
ATOM      4  O   UNL     1      -3.695  28.944  27.839  1.00  0.00    -0.299 OA
BRANCH   3   5
ATOM      5  C   UNL     1      -4.813  28.300  29.811  1.00  0.00     0.072 C 
ATOM      6  C   UNL     1      -5.846  29.333  29.372  1.00  0.00     0.012 C 
ENDBRANCH   3   5
ENDBRANCH   1   3
BRANCH   1   7
ATOM      7  C   UNL     1      -1.789  27.032  27.648  1.00  0.00     0.038 C 
BRANCH   7   8
ATOM      8  C   UNL     1      -1.114  25.687  27.580  1.00  0.00    -0.034 C 
ATOM      9  C   UNL     1       0.175  25.527  27.895  1.00  0.00     0.004 C 
ENDBRANCH   7   8
ENDBRANCH   1   7
TORSDOF 4
ENDMDL
MODEL 3
REMARK VINA RESULT:    -5.394      1.260      4.013
REMARK INTER + INTRA:          -6.833
REMARK INTER:                  -6.490
REMARK INTRA:                  -0.343
REMARK UNBOUND:                -0.177
REMARK SMILES C=CC[C@@H](C)C(=O)CC
REMARK SMILES IDX 4 1 5 2 6 3 7 4 8 5 9 6 3 7 2 8 1 9
REMARK H PARENT
REMARK Flexibility Score: inf
ROOT
ATOM      1  C   UNL     1      -3.388  27.562  30.302  1.00  0.00     0.057 C 
ATOM      2  C   UNL     1      -4.456  26.602  29.759  1.00  0.00     0.016 C 
ENDROOT
BRANCH   1   3
ATOM      3  C   UNL     1      -2.112  27.454  29.492  1.00  0.00     0.135 C 
ATOM      4  O   UNL     1      -1.037  27.458  30.074  1.00  0.00    -0.299 OA
BRANCH   3   5
ATOM      5  C   UNL     1      -2.126  27.369  27.986  1.00  0.00     0.072 C 
ATOM      6  C   UNL     1      -1.501  26.061  27.508  1.00  0.00     0.012 C 
ENDBRANCH   3   5
ENDBRANCH   1   3
BRANCH   1   7
ATOM      7  C   UNL     1      -3.887  29.019  30.341  1.00  0.00     0.038 C 
BRANCH   7   8
ATOM      8  C   UNL     1      -5.044  29.231  29.400  1.00  0.00    -0.034 C 
ATOM      9  C   UNL     1      -4.921  29.948  28.279  1.00  0.00     0.004 C 
ENDBRANCH   7   8
ENDBRANCH   1   7
TORSDOF 4
ENDMDL
MODEL 4
REMARK VINA RESULT:    -5.379      1.718      2.085
REMARK INTER + INTRA:          -6.814
REMARK INTER:                  -6.634
REMARK INTRA:                  -0.179
REMARK UNBOUND:                -0.177
REMARK SMILES C=CC[C@@H](C)C(=O)CC
REMARK SMILES IDX 4 1 5 2 6 3 7 4 8 5 9 6 3 7 2 8 1 9
REMARK H PARENT
REMARK Flexibility Score: inf
ROOT
ATOM      1  C   UNL     1      -2.496  27.067  29.295  1.00  0.00     0.057 C 
ATOM      2  C   UNL     1      -1.594  27.851  30.258  1.00  0.00     0.016 C 
ENDROOT
BRANCH   1   3
ATOM      3  C   UNL     1      -3.926  27.564  29.379  1.00  0.00     0.135 C 
ATOM      4  O   UNL     1      -4.793  26.809  29.794  1.00  0.00    -0.299 OA
BRANCH   3   5
ATOM      5  C   UNL     1      -4.316  28.954  28.941  1.00  0.00     0.072 C 
ATOM      6  C   UNL     1      -5.726  29.298  29.413  1.00  0.00     0.012 C 
ENDBRANCH   3   5
ENDBRANCH   1   3
BRANCH   1   7
ATOM      7  C   UNL     1      -1.984  27.128  27.843  1.00  0.00     0.038 C 
BRANCH   7   8
ATOM      8  C   UNL     1      -1.287  25.852  27.450  1.00  0.00    -0.034 C 
ATOM      9  C   UNL     1      -0.024  25.599  27.804  1.00  0.00     0.004 C 
ENDBRANCH   7   8
ENDBRANCH   1   7
TORSDOF 4
ENDMDL
MODEL 5
REMARK VINA RESULT:    -5.285      1.142      4.022
REMARK INTER + INTRA:          -6.698
REMARK INTER:                  -6.601
REMARK INTRA:                  -0.097
REMARK UNBOUND:                -0.177
REMARK SMILES C=CC[C@@H](C)C(=O)CC
REMARK SMILES IDX 4 1 5 2 6 3 7 4 8 5 9 6 3 7 2 8 1 9
REMARK H PARENT
REMARK Flexibility Score: inf
ROOT
ATOM      1  C   UNL     1      -2.939  27.782  28.465  1.00  0.00     0.057 C 
ATOM      2  C   UNL     1      -2.879  28.925  27.441  1.00  0.00     0.016 C 
ENDROOT
BRANCH   1   3
ATOM      3  C   UNL     1      -1.597  27.084  28.565  1.00  0.00     0.135 C 
ATOM      4  O   UNL     1      -0.793  27.461  29.404  1.00  0.00    -0.299 OA
BRANCH   3   5
ATOM      5  C   UNL     1      -1.213  25.955  27.640  1.00  0.00     0.072 C 
ATOM      6  C   UNL     1       0.224  25.509  27.894  1.00  0.00     0.012 C 
ENDBRANCH   3   5
ENDBRANCH   1   3
BRANCH   1   7
ATOM      7  C   UNL     1      -3.403  28.271  29.851  1.00  0.00     0.038 C 
BRANCH   7   8
ATOM      8  C   UNL     1      -4.903  28.217  29.981  1.00  0.00    -0.034 C 
ATOM      9  C   UNL     1      -5.682  29.232  29.599  1.00  0.00     0.004 C 
ENDBRANCH   7   8
ENDBRANCH   1   7
TORSDOF 4
ENDMDL
MODEL 6
REMARK VINA RESULT:    -4.716      2.380      4.447
REMARK INTER + INTRA:          -5.996
REMARK INTER:                  -5.780
REMARK INTRA:                  -0.216
REMARK UNBOUND:                -0.177
REMARK SMILES C=CC[C@@H](C)C(=O)CC
REMARK SMILES IDX 4 1 5 2 6 3 7 4 8 5 9 6 3 7 2 8 1 9
REMARK H PARENT
REMARK Flexibility Score: inf
ROOT
ATOM      1  C   UNL     1      -4.393  29.186  29.221  1.00  0.00     0.057 C 
ATOM      2  C   UNL     1      -5.914  29.263  29.416  1.00  0.00     0.016 C 
ENDROOT
BRANCH   1   3
ATOM      3  C   UNL     1      -3.907  27.759  29.380  1.00  0.00     0.135 C 
ATOM      4  O   UNL     1      -4.578  26.972  30.031  1.00  0.00    -0.299 OA
BRANCH   3   5
ATOM      5  C   UNL     1      -2.604  27.288  28.782  1.00  0.00     0.072 C 
ATOM      6  C   UNL     1      -1.438  27.569  29.724  1.00  0.00     0.012 C 
ENDBRANCH   3   5
ENDBRANCH   1   3
BRANCH   1   7
ATOM      7  C   UNL     1      -3.955  29.763  27.861  1.00  0.00     0.038 C 
BRANCH   7   8
ATOM      8  C   UNL     1      -4.674  31.050  27.550  1.00  0.00    -0.034 C 
ATOM      9  C   UNL     1      -4.032  32.220  27.494  1.00  0.00     0.004 C 
ENDBRANCH   7   8
ENDBRANCH   1   7
TORSDOF 4
ENDMDL
MODEL 7
REMARK VINA RESULT:    -4.528      3.571      5.001
REMARK INTER + INTRA:          -5.764
REMARK INTER:                  -5.680
REMARK INTRA:                  -0.084
REMARK UNBOUND:                -0.177
REMARK SMILES C=CC[C@@H](C)C(=O)CC
REMARK SMILES IDX 4 1 5 2 6 3 7 4 8 5 9 6 3 7 2 8 1 9
REMARK H PARENT
REMARK Flexibility Score: inf
ROOT
ATOM      1  C   UNL     1      -4.261  29.859  28.610  1.00  0.00     0.057 C 
ATOM      2  C   UNL     1      -3.484  29.136  27.501  1.00  0.00     0.016 C 
ENDROOT
BRANCH   1   3
ATOM      3  C   UNL     1      -4.905  31.122  28.074  1.00  0.00     0.135 C 
ATOM      4  O   UNL     1      -6.125  31.205  28.057  1.00  0.00    -0.299 OA
BRANCH   3   5
ATOM      5  C   UNL     1      -4.088  32.269  27.533  1.00  0.00     0.072 C 
ATOM      6  C   UNL     1      -4.782  32.919  26.340  1.00  0.00     0.012 C 
ENDBRANCH   3   5
ENDBRANCH   1   3
BRANCH   1   7
ATOM      7  C   UNL     1      -5.316  28.947  29.267  1.00  0.00     0.038 C 
BRANCH   7   8
ATOM      8  C   UNL     1      -4.676  27.930  30.176  1.00  0.00    -0.034 C 
ATOM      9  C   UNL     1      -4.434  26.679  29.775  1.00  0.00     0.004 C 
ENDBRANCH   7   8
ENDBRANCH   1   7
TORSDOF 4
ENDMDL
MODEL 8
REMARK VINA RESULT:    -4.314      3.098      4.997
REMARK INTER + INTRA:          -5.500
REMARK INTER:                  -5.383
REMARK INTRA:                  -0.117
REMARK UNBOUND:                -0.177
REMARK SMILES C=CC[C@@H](C)C(=O)CC
REMARK SMILES IDX 4 1 5 2 6 3 7 4 8 5 9 6 3 7 2 8 1 9
REMARK H PARENT
REMARK Flexibility Score: inf
ROOT
ATOM      1  C   UNL     1      -4.444  29.617  27.803  1.00  0.00     0.057 C 
ATOM      2  C   UNL     1      -3.134  28.902  27.444  1.00  0.00     0.016 C 
ENDROOT
BRANCH   1   3
ATOM      3  C   UNL     1      -5.018  29.064  29.092  1.00  0.00     0.135 C 
ATOM      4  O   UNL     1      -5.976  29.624  29.604  1.00  0.00    -0.299 OA
BRANCH   3   5
ATOM      5  C   UNL     1      -4.425  27.859  29.779  1.00  0.00     0.072 C 
ATOM      6  C   UNL     1      -3.430  28.280  30.856  1.00  0.00     0.012 C 
ENDBRANCH   3   5
ENDBRANCH   1   3
BRANCH   1   7
ATOM      7  C   UNL     1      -4.262  31.145  27.899  1.00  0.00     0.038 C 
BRANCH   7   8
ATOM      8  C   UNL     1      -5.308  31.876  27.098  1.00  0.00    -0.034 C 
ATOM      9  C   UNL     1      -4.999  32.561  25.993  1.00  0.00     0.004 C 
ENDBRANCH   7   8
ENDBRANCH   1   7
TORSDOF 4
ENDMDL
MODEL 9
REMARK VINA RESULT:    -4.167      2.399      3.859
REMARK INTER + INTRA:          -5.318
REMARK INTER:                  -4.892
REMARK INTRA:                  -0.426
REMARK UNBOUND:                -0.177
REMARK SMILES C=CC[C@@H](C)C(=O)CC
REMARK SMILES IDX 4 1 5 2 6 3 7 4 8 5 9 6 3 7 2 8 1 9
REMARK H PARENT
REMARK Flexibility Score: inf
ROOT
ATOM      1  C   UNL     1      -3.284  27.442  29.058  1.00  0.00     0.057 C 
ATOM      2  C   UNL     1      -4.657  27.208  29.704  1.00  0.00     0.016 C 
ENDROOT
BRANCH   1   3
ATOM      3  C   UNL     1      -3.362  28.550  28.027  1.00  0.00     0.135 C 
ATOM      4  O   UNL     1      -2.390  28.772  27.320  1.00  0.00    -0.299 OA
BRANCH   3   5
ATOM      5  C   UNL     1      -4.593  29.407  27.866  1.00  0.00     0.072 C 
ATOM      6  C   UNL     1      -4.230  30.889  27.871  1.00  0.00     0.012 C 
ENDBRANCH   3   5
ENDBRANCH   1   3
BRANCH   1   7
ATOM      7  C   UNL     1      -2.196  27.749  30.106  1.00  0.00     0.038 C 
BRANCH   7   8
ATOM      8  C   UNL     1      -2.782  28.387  31.339  1.00  0.00    -0.034 C 
ATOM      9  C   UNL     1      -2.699  29.702  31.560  1.00  0.00     0.004 C 
ENDBRANCH   7   8
ENDBRANCH   1   7
TORSDOF 4
ENDMDL
