MODEL 1
REMARK VINA RESULT:    -3.742      0.000      0.000
REMARK INTER + INTRA:          -9.504
REMARK INTER:                  -7.241
REMARK INTRA:                  -2.263
REMARK UNBOUND:                -2.263
REMARK SMILES CCCCCCCCCCCCCCCCCC(=O)[O-]
REMARK SMILES IDX 10 1 11 2 12 3 13 4 14 5 15 6 16 7 17 8 18 9 19 10 20 11
REMARK SMILES IDX 9 12 8 13 7 14 6 15 5 16 4 17 3 18 2 19 1 20
REMARK H PARENT
REMARK Flexibility Score: inf
ROOT
ATOM      1  C   UNL     1       2.842   0.121  -3.956  1.00  0.00     0.000 C 
ENDROOT
BRANCH   1   2
ATOM      2  C   UNL     1       2.513   1.158  -5.040  1.00  0.00     0.000 C 
BRANCH   2   3
ATOM      3  C   UNL     1       3.734   1.998  -5.447  1.00  0.00     0.000 C 
BRANCH   3   4
ATOM      4  C   UNL     1       3.350   3.271  -6.218  1.00  0.00     0.000 C 
BRANCH   4   5
ATOM      5  C   UNL     1       1.834   3.509  -6.159  1.00  0.00     0.000 C 
BRANCH   5   6
ATOM      6  C   UNL     1       1.468   4.970  -5.839  1.00  0.00     0.000 C 
BRANCH   6   7
ATOM      7  C   UNL     1       0.252   5.518  -6.606  1.00  0.00     0.006 C 
BRANCH   7   8
ATOM      8  C   UNL     1      -0.559   4.420  -7.306  1.00  0.00     0.053 C 
BRANCH   8   9
ATOM      9  C   UNL     1      -2.014   4.561  -6.985  1.00  0.00     0.041 C 
ATOM     10  O   UNL     1      -2.394   4.634  -5.786  1.00  0.00    -0.550 OA
ATOM     11  O   UNL     1      -2.955   4.561  -8.007  1.00  0.00    -0.550 OA
ENDBRANCH   8   9
ENDBRANCH   7   8
ENDBRANCH   6   7
ENDBRANCH   5   6
ENDBRANCH   4   5
ENDBRANCH   3   4
ENDBRANCH   2   3
ENDBRANCH   1   2
BRANCH   1  12
ATOM     12  C   UNL     1       4.357   0.004  -3.749  1.00  0.00     0.000 C 
BRANCH  12  13
ATOM     13  C   UNL     1       4.841  -1.426  -4.026  1.00  0.00    -0.000 C 
BRANCH  13  14
ATOM     14  C   UNL     1       3.749  -2.309  -4.651  1.00  0.00    -0.000 C 
BRANCH  14  15
ATOM     15  C   UNL     1       3.894  -2.433  -6.178  1.00  0.00    -0.000 C 
BRANCH  15  16
ATOM     16  C   UNL     1       2.537  -2.520  -6.898  1.00  0.00    -0.000 C 
BRANCH  16  17
ATOM     17  C   UNL     1       2.559  -1.846  -8.281  1.00  0.00    -0.000 C 
BRANCH  17  18
ATOM     18  C   UNL     1       3.333  -0.516  -8.286  1.00  0.00    -0.000 C 
BRANCH  18  19
ATOM     19  C   UNL     1       2.516   0.712  -8.729  1.00  0.00    -0.003 C 
ATOM     20  C   UNL     1       1.018   0.559  -8.469  1.00  0.00     0.004 C 
ENDBRANCH  18  19
ENDBRANCH  17  18
ENDBRANCH  16  17
ENDBRANCH  15  16
ENDBRANCH  14  15
ENDBRANCH  13  14
ENDBRANCH  12  13
ENDBRANCH   1  12
TORSDOF 16
ENDMDL
MODEL 2
REMARK VINA RESULT:    -3.709     17.794     20.177
REMARK INTER + INTRA:          -9.441
REMARK INTER:                  -8.605
REMARK INTRA:                  -0.836
REMARK UNBOUND:                -2.263
REMARK SMILES CCCCCCCCCCCCCCCCCC(=O)[O-]
REMARK SMILES IDX 10 1 11 2 12 3 13 4 14 5 15 6 16 7 17 8 18 9 19 10 20 11
REMARK SMILES IDX 9 12 8 13 7 14 6 15 5 16 4 17 3 18 2 19 1 20
REMARK H PARENT
REMARK Flexibility Score: inf
ROOT
ATOM      1  C   UNL     1     -11.251 -13.189  -1.062  1.00  0.00     0.000 C 
ENDROOT
BRANCH   1   2
ATOM      2  C   UNL     1     -10.165 -13.848  -1.927  1.00  0.00     0.000 C 
BRANCH   2   3
ATOM      3  C   UNL     1      -9.055 -12.867  -2.334  1.00  0.00     0.000 C 
BRANCH   3   4
ATOM      4  C   UNL     1      -8.214 -13.378  -3.514  1.00  0.00     0.000 C 
BRANCH   4   5
ATOM      5  C   UNL     1      -6.844 -12.684  -3.551  1.00  0.00     0.000 C 
BRANCH   5   6
ATOM      6  C   UNL     1      -5.734 -13.579  -4.133  1.00  0.00     0.000 C 
BRANCH   6   7
ATOM      7  C   UNL     1      -5.165 -13.113  -5.484  1.00  0.00     0.006 C 
BRANCH   7   8
ATOM      8  C   UNL     1      -5.860 -11.857  -6.026  1.00  0.00     0.053 C 
BRANCH   8   9
ATOM      9  C   UNL     1      -6.794 -12.217  -7.138  1.00  0.00     0.041 C 
ATOM     10  O   UNL     1      -6.338 -12.575  -8.257  1.00  0.00    -0.550 OA
ATOM     11  O   UNL     1      -8.167 -12.108  -6.957  1.00  0.00    -0.550 OA
ENDBRANCH   8   9
ENDBRANCH   7   8
ENDBRANCH   6   7
ENDBRANCH   5   6
ENDBRANCH   4   5
ENDBRANCH   3   4
ENDBRANCH   2   3
ENDBRANCH   1   2
BRANCH   1  12
ATOM     12  C   UNL     1     -12.445 -12.751  -1.920  1.00  0.00     0.000 C 
BRANCH  12  13
ATOM     13  C   UNL     1     -13.362 -11.800  -1.139  1.00  0.00    -0.000 C 
BRANCH  13  14
ATOM     14  C   UNL     1     -13.024 -11.750   0.360  1.00  0.00    -0.000 C 
BRANCH  14  15
ATOM     15  C   UNL     1     -14.064 -12.486   1.223  1.00  0.00    -0.000 C 
BRANCH  15  16
ATOM     16  C   UNL     1     -13.641 -12.594   2.698  1.00  0.00    -0.000 C 
BRANCH  16  17
ATOM     17  C   UNL     1     -12.826 -11.376   3.168  1.00  0.00    -0.000 C 
BRANCH  17  18
ATOM     18  C   UNL     1     -12.213 -11.570   4.566  1.00  0.00    -0.000 C 
BRANCH  18  19
ATOM     19  C   UNL     1     -11.316 -10.416   5.050  1.00  0.00    -0.003 C 
ATOM     20  C   UNL     1     -11.884  -9.687   6.267  1.00  0.00     0.004 C 
ENDBRANCH  18  19
ENDBRANCH  17  18
ENDBRANCH  16  17
ENDBRANCH  15  16
ENDBRANCH  14  15
ENDBRANCH  13  14
ENDBRANCH  12  13
ENDBRANCH   1  12
TORSDOF 16
ENDMDL
MODEL 3
REMARK VINA RESULT:    -3.684     17.538     19.895
REMARK INTER + INTRA:          -9.393
REMARK INTER:                  -8.394
REMARK INTRA:                  -0.999
REMARK UNBOUND:                -2.263
REMARK SMILES CCCCCCCCCCCCCCCCCC(=O)[O-]
REMARK SMILES IDX 10 1 11 2 12 3 13 4 14 5 15 6 16 7 17 8 18 9 19 10 20 11
REMARK SMILES IDX 9 12 8 13 7 14 6 15 5 16 4 17 3 18 2 19 1 20
REMARK H PARENT
REMARK Flexibility Score: inf
ROOT
ATOM      1  C   UNL     1     -10.297 -13.526  -1.624  1.00  0.00     0.000 C 
ENDROOT
BRANCH   1   2
ATOM      2  C   UNL     1      -9.190 -12.682  -2.274  1.00  0.00     0.000 C 
BRANCH   2   3
ATOM      3  C   UNL     1      -8.312 -13.496  -3.238  1.00  0.00     0.000 C 
BRANCH   3   4
ATOM      4  C   UNL     1      -7.061 -12.729  -3.694  1.00  0.00     0.000 C 
BRANCH   4   5
ATOM      5  C   UNL     1      -5.980 -13.696  -4.200  1.00  0.00     0.000 C 
BRANCH   5   6
ATOM      6  C   UNL     1      -5.121 -13.098  -5.329  1.00  0.00     0.000 C 
BRANCH   6   7
ATOM      7  C   UNL     1      -5.797 -11.977  -6.137  1.00  0.00     0.006 C 
BRANCH   7   8
ATOM      8  C   UNL     1      -6.237 -12.429  -7.535  1.00  0.00     0.053 C 
BRANCH   8   9
ATOM      9  C   UNL     1      -7.661 -12.042  -7.784  1.00  0.00     0.041 C 
ATOM     10  O   UNL     1      -8.537 -12.251  -6.904  1.00  0.00    -0.550 OA
ATOM     11  O   UNL     1      -8.030 -11.497  -9.008  1.00  0.00    -0.550 OA
ENDBRANCH   8   9
ENDBRANCH   7   8
ENDBRANCH   6   7
ENDBRANCH   5   6
ENDBRANCH   4   5
ENDBRANCH   3   4
ENDBRANCH   2   3
ENDBRANCH   1   2
BRANCH   1  12
ATOM     12  C   UNL     1     -11.666 -13.196  -2.232  1.00  0.00     0.000 C 
BRANCH  12  13
ATOM     13  C   UNL     1     -12.763 -13.215  -1.157  1.00  0.00    -0.000 C 
BRANCH  13  14
ATOM     14  C   UNL     1     -13.275 -11.807  -0.812  1.00  0.00    -0.000 C 
BRANCH  14  15
ATOM     15  C   UNL     1     -13.164 -11.491   0.690  1.00  0.00    -0.000 C 
BRANCH  15  16
ATOM     16  C   UNL     1     -13.336 -12.739   1.573  1.00  0.00    -0.000 C 
BRANCH  16  17
ATOM     17  C   UNL     1     -12.935 -12.485   3.037  1.00  0.00    -0.000 C 
BRANCH  17  18
ATOM     18  C   UNL     1     -13.804 -11.412   3.717  1.00  0.00    -0.000 C 
BRANCH  18  19
ATOM     19  C   UNL     1     -13.061 -10.119   4.100  1.00  0.00    -0.003 C 
ATOM     20  C   UNL     1     -11.651 -10.375   4.631  1.00  0.00     0.004 C 
ENDBRANCH  18  19
ENDBRANCH  17  18
ENDBRANCH  16  17
ENDBRANCH  15  16
ENDBRANCH  14  15
ENDBRANCH  13  14
ENDBRANCH  12  13
ENDBRANCH   1  12
TORSDOF 16
ENDMDL
MODEL 4
REMARK VINA RESULT:    -3.653     18.178     20.020
REMARK INTER + INTRA:          -9.333
REMARK INTER:                  -8.342
REMARK INTRA:                  -0.991
REMARK UNBOUND:                -2.263
REMARK SMILES CCCCCCCCCCCCCCCCCC(=O)[O-]
REMARK SMILES IDX 10 1 11 2 12 3 13 4 14 5 15 6 16 7 17 8 18 9 19 10 20 11
REMARK SMILES IDX 9 12 8 13 7 14 6 15 5 16 4 17 3 18 2 19 1 20
REMARK H PARENT
REMARK Flexibility Score: inf
ROOT
ATOM      1  C   UNL     1     -11.455 -13.108  -1.117  1.00  0.00     0.000 C 
ENDROOT
BRANCH   1   2
ATOM      2  C   UNL     1     -12.813 -12.465  -0.795  1.00  0.00     0.000 C 
BRANCH   2   3
ATOM      3  C   UNL     1     -12.861 -11.855   0.614  1.00  0.00     0.000 C 
BRANCH   3   4
ATOM      4  C   UNL     1     -12.885 -12.919   1.722  1.00  0.00     0.000 C 
BRANCH   4   5
ATOM      5  C   UNL     1     -13.593 -12.387   2.977  1.00  0.00     0.000 C 
BRANCH   5   6
ATOM      6  C   UNL     1     -13.686 -10.851   3.009  1.00  0.00     0.000 C 
BRANCH   6   7
ATOM      7  C   UNL     1     -13.327 -10.206   4.360  1.00  0.00     0.006 C 
BRANCH   7   8
ATOM      8  C   UNL     1     -11.815 -10.048   4.565  1.00  0.00     0.053 C 
BRANCH   8   9
ATOM      9  C   UNL     1     -11.323 -11.027   5.585  1.00  0.00     0.041 C 
ATOM     10  O   UNL     1     -11.361 -10.738   6.810  1.00  0.00    -0.550 OA
ATOM     11  O   UNL     1     -10.775 -12.237   5.179  1.00  0.00    -0.550 OA
ENDBRANCH   8   9
ENDBRANCH   7   8
ENDBRANCH   6   7
ENDBRANCH   5   6
ENDBRANCH   4   5
ENDBRANCH   3   4
ENDBRANCH   2   3
ENDBRANCH   1   2
BRANCH   1  12
ATOM     12  C   UNL     1     -11.381 -13.526  -2.591  1.00  0.00     0.000 C 
BRANCH  12  13
ATOM     13  C   UNL     1     -10.044 -13.101  -3.216  1.00  0.00    -0.000 C 
BRANCH  13  14
ATOM     14  C   UNL     1      -8.992 -12.725  -2.160  1.00  0.00    -0.000 C 
BRANCH  14  15
ATOM     15  C   UNL     1      -7.621 -12.406  -2.782  1.00  0.00    -0.000 C 
BRANCH  15  16
ATOM     16  C   UNL     1      -7.264 -13.346  -3.946  1.00  0.00    -0.000 C 
BRANCH  16  17
ATOM     17  C   UNL     1      -5.745 -13.505  -4.132  1.00  0.00    -0.000 C 
BRANCH  17  18
ATOM     18  C   UNL     1      -5.255 -13.009  -5.504  1.00  0.00    -0.000 C 
BRANCH  18  19
ATOM     19  C   UNL     1      -6.058 -11.837  -6.097  1.00  0.00    -0.003 C 
ATOM     20  C   UNL     1      -6.796 -12.208  -7.383  1.00  0.00     0.004 C 
ENDBRANCH  18  19
ENDBRANCH  17  18
ENDBRANCH  16  17
ENDBRANCH  15  16
ENDBRANCH  14  15
ENDBRANCH  13  14
ENDBRANCH  12  13
ENDBRANCH   1  12
TORSDOF 16
ENDMDL
MODEL 5
REMARK VINA RESULT:    -3.633     18.329     20.667
REMARK INTER + INTRA:          -9.293
REMARK INTER:                  -8.468
REMARK INTRA:                  -0.826
REMARK UNBOUND:                -2.263
REMARK SMILES CCCCCCCCCCCCCCCCCC(=O)[O-]
REMARK SMILES IDX 10 1 11 2 12 3 13 4 14 5 15 6 16 7 17 8 18 9 19 10 20 11
REMARK SMILES IDX 9 12 8 13 7 14 6 15 5 16 4 17 3 18 2 19 1 20
REMARK H PARENT
REMARK Flexibility Score: inf
ROOT
ATOM      1  C   UNL     1     -13.358 -12.886  -2.303  1.00  0.00     0.000 C 
ENDROOT
BRANCH   1   2
ATOM      2  C   UNL     1     -12.857 -12.529  -3.710  1.00  0.00     0.000 C 
BRANCH   2   3
ATOM      3  C   UNL     1     -11.387 -12.918  -3.932  1.00  0.00     0.000 C 
BRANCH   3   4
ATOM      4  C   UNL     1     -10.765 -13.614  -2.712  1.00  0.00     0.000 C 
BRANCH   4   5
ATOM      5  C   UNL     1      -9.400 -13.000  -2.367  1.00  0.00     0.000 C 
BRANCH   5   6
ATOM      6  C   UNL     1      -8.281 -13.452  -3.323  1.00  0.00     0.000 C 
BRANCH   6   7
ATOM      7  C   UNL     1      -7.043 -12.538  -3.351  1.00  0.00     0.006 C 
BRANCH   7   8
ATOM      8  C   UNL     1      -5.861 -13.154  -4.112  1.00  0.00     0.053 C 
BRANCH   8   9
ATOM      9  C   UNL     1      -5.623 -12.415  -5.391  1.00  0.00     0.041 C 
ATOM     10  O   UNL     1      -6.264 -11.360  -5.642  1.00  0.00    -0.550 OA
ATOM     11  O   UNL     1      -4.731 -12.918  -6.330  1.00  0.00    -0.550 OA
ENDBRANCH   8   9
ENDBRANCH   7   8
ENDBRANCH   6   7
ENDBRANCH   5   6
ENDBRANCH   4   5
ENDBRANCH   3   4
ENDBRANCH   2   3
ENDBRANCH   1   2
BRANCH   1  12
ATOM     12  C   UNL     1     -13.672 -11.620  -1.494  1.00  0.00     0.000 C 
BRANCH  12  13
ATOM     13  C   UNL     1     -12.906 -11.615  -0.163  1.00  0.00    -0.000 C 
BRANCH  13  14
ATOM     14  C   UNL     1     -13.644 -12.383   0.945  1.00  0.00    -0.000 C 
BRANCH  14  15
ATOM     15  C   UNL     1     -13.982 -11.493   2.154  1.00  0.00    -0.000 C 
BRANCH  15  16
ATOM     16  C   UNL     1     -12.862 -11.473   3.208  1.00  0.00    -0.000 C 
BRANCH  16  17
ATOM     17  C   UNL     1     -12.921 -10.226   4.108  1.00  0.00    -0.000 C 
BRANCH  17  18
ATOM     18  C   UNL     1     -11.624 -10.003   4.906  1.00  0.00    -0.000 C 
BRANCH  18  19
ATOM     19  C   UNL     1     -11.703 -10.385   6.396  1.00  0.00    -0.003 C 
ATOM     20  C   UNL     1     -12.440  -9.347   7.242  1.00  0.00     0.004 C 
ENDBRANCH  18  19
ENDBRANCH  17  18
ENDBRANCH  16  17
ENDBRANCH  15  16
ENDBRANCH  14  15
ENDBRANCH  13  14
ENDBRANCH  12  13
ENDBRANCH   1  12
TORSDOF 16
ENDMDL
MODEL 6
REMARK VINA RESULT:    -3.502      3.168      6.166
REMARK INTER + INTRA:          -9.040
REMARK INTER:                  -6.081
REMARK INTRA:                  -2.959
REMARK UNBOUND:                -2.263
REMARK SMILES CCCCCCCCCCCCCCCCCC(=O)[O-]
REMARK SMILES IDX 10 1 11 2 12 3 13 4 14 5 15 6 16 7 17 8 18 9 19 10 20 11
REMARK SMILES IDX 9 12 8 13 7 14 6 15 5 16 4 17 3 18 2 19 1 20
REMARK H PARENT
REMARK Flexibility Score: inf
ROOT
ATOM      1  C   UNL     1       2.572   1.096  -5.216  1.00  0.00     0.000 C 
ENDROOT
BRANCH   1   2
ATOM      2  C   UNL     1       2.886   0.153  -4.045  1.00  0.00     0.000 C 
BRANCH   2   3
ATOM      3  C   UNL     1       4.393   0.031  -3.770  1.00  0.00     0.000 C 
BRANCH   3   4
ATOM      4  C   UNL     1       4.853  -1.427  -3.616  1.00  0.00     0.000 C 
BRANCH   4   5
ATOM      5  C   UNL     1       4.094  -2.346  -4.584  1.00  0.00     0.000 C 
BRANCH   5   6
ATOM      6  C   UNL     1       4.814  -2.524  -5.933  1.00  0.00     0.000 C 
BRANCH   6   7
ATOM      7  C   UNL     1       4.057  -1.971  -7.153  1.00  0.00     0.006 C 
BRANCH   7   8
ATOM      8  C   UNL     1       2.535  -2.120  -7.031  1.00  0.00     0.053 C 
BRANCH   8   9
ATOM      9  C   UNL     1       1.991  -2.887  -8.195  1.00  0.00     0.041 C 
ATOM     10  O   UNL     1       0.874  -2.580  -8.690  1.00  0.00    -0.550 OA
ATOM     11  O   UNL     1       2.693  -3.974  -8.701  1.00  0.00    -0.550 OA
ENDBRANCH   8   9
ENDBRANCH   7   8
ENDBRANCH   6   7
ENDBRANCH   5   6
ENDBRANCH   4   5
ENDBRANCH   3   4
ENDBRANCH   2   3
ENDBRANCH   1   2
BRANCH   1  12
ATOM     12  C   UNL     1       3.820   1.883  -5.638  1.00  0.00     0.000 C 
BRANCH  12  13
ATOM     13  C   UNL     1       4.139   1.652  -7.122  1.00  0.00    -0.000 C 
BRANCH  13  14
ATOM     14  C   UNL     1       4.657   2.921  -7.819  1.00  0.00    -0.000 C 
BRANCH  14  15
ATOM     15  C   UNL     1       3.945   4.195  -7.328  1.00  0.00    -0.000 C 
BRANCH  15  16
ATOM     16  C   UNL     1       2.745   4.580  -8.210  1.00  0.00    -0.000 C 
BRANCH  16  17
ATOM     17  C   UNL     1       1.426   4.637  -7.419  1.00  0.00    -0.000 C 
BRANCH  17  18
ATOM     18  C   UNL     1       0.633   3.321  -7.484  1.00  0.00    -0.000 C 
BRANCH  18  19
ATOM     19  C   UNL     1       0.851   2.491  -8.762  1.00  0.00    -0.003 C 
ATOM     20  C   UNL     1       0.821   0.984  -8.509  1.00  0.00     0.004 C 
ENDBRANCH  18  19
ENDBRANCH  17  18
ENDBRANCH  16  17
ENDBRANCH  15  16
ENDBRANCH  14  15
ENDBRANCH  13  14
ENDBRANCH  12  13
ENDBRANCH   1  12
TORSDOF 16
ENDMDL
MODEL 7
REMARK VINA RESULT:    -3.475      2.259      5.469
REMARK INTER + INTRA:          -8.988
REMARK INTER:                  -6.361
REMARK INTRA:                  -2.628
REMARK UNBOUND:                -2.263
REMARK SMILES CCCCCCCCCCCCCCCCCC(=O)[O-]
REMARK SMILES IDX 10 1 11 2 12 3 13 4 14 5 15 6 16 7 17 8 18 9 19 10 20 11
REMARK SMILES IDX 9 12 8 13 7 14 6 15 5 16 4 17 3 18 2 19 1 20
REMARK H PARENT
REMARK Flexibility Score: inf
ROOT
ATOM      1  C   UNL     1       2.515   0.332  -4.361  1.00  0.00     0.000 C 
ENDROOT
BRANCH   1   2
ATOM      2  C   UNL     1       3.617  -0.732  -4.262  1.00  0.00     0.000 C 
BRANCH   2   3
ATOM      3  C   UNL     1       3.235  -2.048  -4.957  1.00  0.00     0.000 C 
BRANCH   3   4
ATOM      4  C   UNL     1       4.282  -2.502  -5.986  1.00  0.00     0.000 C 
BRANCH   4   5
ATOM      5  C   UNL     1       3.844  -2.136  -7.411  1.00  0.00     0.000 C 
BRANCH   5   6
ATOM      6  C   UNL     1       2.810  -3.118  -7.993  1.00  0.00     0.000 C 
BRANCH   6   7
ATOM      7  C   UNL     1       1.551  -2.460  -8.585  1.00  0.00     0.006 C 
BRANCH   7   8
ATOM      8  C   UNL     1       1.517  -0.940  -8.381  1.00  0.00     0.053 C 
BRANCH   8   9
ATOM      9  C   UNL     1       0.183  -0.391  -8.777  1.00  0.00     0.041 C 
ATOM     10  O   UNL     1      -0.022   0.852  -8.758  1.00  0.00    -0.550 OA
ATOM     11  O   UNL     1      -0.851  -1.253  -9.118  1.00  0.00    -0.550 OA
ENDBRANCH   8   9
ENDBRANCH   7   8
ENDBRANCH   6   7
ENDBRANCH   5   6
ENDBRANCH   4   5
ENDBRANCH   3   4
ENDBRANCH   2   3
ENDBRANCH   1   2
BRANCH   1  12
ATOM     12  C   UNL     1       2.885   1.413  -5.384  1.00  0.00     0.000 C 
BRANCH  12  13
ATOM     13  C   UNL     1       4.409   1.535  -5.527  1.00  0.00    -0.000 C 
BRANCH  13  14
ATOM     14  C   UNL     1       4.867   1.534  -6.995  1.00  0.00    -0.000 C 
BRANCH  14  15
ATOM     15  C   UNL     1       3.728   1.890  -7.967  1.00  0.00    -0.000 C 
BRANCH  15  16
ATOM     16  C   UNL     1       4.015   3.167  -8.774  1.00  0.00    -0.000 C 
BRANCH  16  17
ATOM     17  C   UNL     1       3.214   4.378  -8.265  1.00  0.00    -0.000 C 
BRANCH  17  18
ATOM     18  C   UNL     1       3.952   5.165  -7.168  1.00  0.00    -0.000 C 
BRANCH  18  19
ATOM     19  C   UNL     1       3.283   5.132  -5.781  1.00  0.00    -0.003 C 
ATOM     20  C   UNL     1       1.771   4.916  -5.852  1.00  0.00     0.004 C 
ENDBRANCH  18  19
ENDBRANCH  17  18
ENDBRANCH  16  17
ENDBRANCH  15  16
ENDBRANCH  14  15
ENDBRANCH  13  14
ENDBRANCH  12  13
ENDBRANCH   1  12
TORSDOF 16
ENDMDL
MODEL 8
REMARK VINA RESULT:    -3.471      1.833      5.430
REMARK INTER + INTRA:          -8.981
REMARK INTER:                  -6.899
REMARK INTRA:                  -2.082
REMARK UNBOUND:                -2.263
REMARK SMILES CCCCCCCCCCCCCCCCCC(=O)[O-]
REMARK SMILES IDX 10 1 11 2 12 3 13 4 14 5 15 6 16 7 17 8 18 9 19 10 20 11
REMARK SMILES IDX 9 12 8 13 7 14 6 15 5 16 4 17 3 18 2 19 1 20
REMARK H PARENT
REMARK Flexibility Score: inf
ROOT
ATOM      1  C   UNL     1       3.755  -0.003  -3.959  1.00  0.00     0.000 C 
ENDROOT
BRANCH   1   2
ATOM      2  C   UNL     1       4.321  -1.407  -4.218  1.00  0.00     0.000 C 
BRANCH   2   3
ATOM      3  C   UNL     1       3.251  -2.398  -4.700  1.00  0.00     0.000 C 
BRANCH   3   4
ATOM      4  C   UNL     1       2.917  -2.233  -6.191  1.00  0.00     0.000 C 
BRANCH   4   5
ATOM      5  C   UNL     1       4.171  -1.860  -6.995  1.00  0.00     0.000 C 
BRANCH   5   6
ATOM      6  C   UNL     1       3.870  -0.912  -8.171  1.00  0.00     0.000 C 
BRANCH   6   7
ATOM      7  C   UNL     1       2.470  -1.068  -8.790  1.00  0.00     0.006 C 
BRANCH   7   8
ATOM      8  C   UNL     1       1.810   0.276  -9.125  1.00  0.00     0.053 C 
BRANCH   8   9
ATOM      9  C   UNL     1       0.331   0.198  -8.913  1.00  0.00     0.041 C 
ATOM     10  O   UNL     1      -0.231  -0.921  -8.779  1.00  0.00    -0.550 OA
ATOM     11  O   UNL     1      -0.434   1.357  -8.915  1.00  0.00    -0.550 OA
ENDBRANCH   8   9
ENDBRANCH   7   8
ENDBRANCH   6   7
ENDBRANCH   5   6
ENDBRANCH   4   5
ENDBRANCH   3   4
ENDBRANCH   2   3
ENDBRANCH   1   2
BRANCH   1  12
ATOM     12  C   UNL     1       4.714   1.079  -4.473  1.00  0.00     0.000 C 
BRANCH  12  13
ATOM     13  C   UNL     1       4.045   1.936  -5.557  1.00  0.00    -0.000 C 
BRANCH  13  14
ATOM     14  C   UNL     1       2.550   1.620  -5.721  1.00  0.00    -0.000 C 
BRANCH  14  15
ATOM     15  C   UNL     1       1.797   2.717  -6.494  1.00  0.00    -0.000 C 
BRANCH  15  16
ATOM     16  C   UNL     1       2.050   4.123  -5.925  1.00  0.00    -0.000 C 
BRANCH  16  17
ATOM     17  C   UNL     1       0.908   5.104  -6.244  1.00  0.00    -0.000 C 
BRANCH  17  18
ATOM     18  C   UNL     1      -0.291   4.423  -6.927  1.00  0.00    -0.000 C 
BRANCH  18  19
ATOM     19  C   UNL     1      -1.670   4.977  -6.526  1.00  0.00    -0.003 C 
ATOM     20  C   UNL     1      -2.763   4.659  -7.546  1.00  0.00     0.004 C 
ENDBRANCH  18  19
ENDBRANCH  17  18
ENDBRANCH  16  17
ENDBRANCH  15  16
ENDBRANCH  14  15
ENDBRANCH  13  14
ENDBRANCH  12  13
ENDBRANCH   1  12
TORSDOF 16
ENDMDL
MODEL 9
REMARK VINA RESULT:    -3.459      1.533      2.588
REMARK INTER + INTRA:          -8.958
REMARK INTER:                  -6.498
REMARK INTRA:                  -2.460
REMARK UNBOUND:                -2.263
REMARK SMILES CCCCCCCCCCCCCCCCCC(=O)[O-]
REMARK SMILES IDX 10 1 11 2 12 3 13 4 14 5 15 6 16 7 17 8 18 9 19 10 20 11
REMARK SMILES IDX 9 12 8 13 7 14 6 15 5 16 4 17 3 18 2 19 1 20
REMARK H PARENT
REMARK Flexibility Score: inf
ROOT
ATOM      1  C   UNL     1       2.444   0.953  -5.092  1.00  0.00     0.000 C 
ENDROOT
BRANCH   1   2
ATOM      2  C   UNL     1       3.646   1.654  -5.742  1.00  0.00     0.000 C 
BRANCH   2   3
ATOM      3  C   UNL     1       3.528   1.737  -7.272  1.00  0.00     0.000 C 
BRANCH   3   4
ATOM      4  C   UNL     1       2.264   1.047  -7.809  1.00  0.00     0.000 C 
BRANCH   4   5
ATOM      5  C   UNL     1       1.600   1.896  -8.903  1.00  0.00     0.000 C 
BRANCH   5   6
ATOM      6  C   UNL     1       0.068   1.743  -8.935  1.00  0.00     0.000 C 
BRANCH   6   7
ATOM      7  C   UNL     1      -0.720   2.988  -8.489  1.00  0.00     0.006 C 
BRANCH   7   8
ATOM      8  C   UNL     1       0.185   4.182  -8.158  1.00  0.00     0.053 C 
BRANCH   8   9
ATOM      9  C   UNL     1       0.184   4.443  -6.685  1.00  0.00     0.041 C 
ATOM     10  O   UNL     1       1.193   4.150  -5.989  1.00  0.00    -0.550 OA
ATOM     11  O   UNL     1      -0.948   4.962  -6.071  1.00  0.00    -0.550 OA
ENDBRANCH   8   9
ENDBRANCH   7   8
ENDBRANCH   6   7
ENDBRANCH   5   6
ENDBRANCH   4   5
ENDBRANCH   3   4
ENDBRANCH   2   3
ENDBRANCH   1   2
BRANCH   1  12
ATOM     12  C   UNL     1       2.882   0.126  -3.876  1.00  0.00     0.000 C 
BRANCH  12  13
ATOM     13  C   UNL     1       3.920  -0.932  -4.277  1.00  0.00    -0.000 C 
BRANCH  13  14
ATOM     14  C   UNL     1       3.316  -2.058  -5.131  1.00  0.00    -0.000 C 
BRANCH  14  15
ATOM     15  C   UNL     1       4.335  -2.665  -6.112  1.00  0.00    -0.000 C 
BRANCH  15  16
ATOM     16  C   UNL     1       4.721  -1.695  -7.242  1.00  0.00    -0.000 C 
BRANCH  16  17
ATOM     17  C   UNL     1       4.073  -2.069  -8.587  1.00  0.00    -0.000 C 
BRANCH  17  18
ATOM     18  C   UNL     1       3.362  -3.434  -8.549  1.00  0.00    -0.000 C 
BRANCH  18  19
ATOM     19  C   UNL     1       1.934  -3.440  -9.125  1.00  0.00    -0.003 C 
ATOM     20  C   UNL     1       1.013  -2.423  -8.451  1.00  0.00     0.004 C 
ENDBRANCH  18  19
ENDBRANCH  17  18
ENDBRANCH  16  17
ENDBRANCH  15  16
ENDBRANCH  14  15
ENDBRANCH  13  14
ENDBRANCH  12  13
ENDBRANCH   1  12
TORSDOF 16
ENDMDL
