MODEL 1
REMARK VINA RESULT:    -4.447      0.000      0.000
REMARK INTER + INTRA:          -7.606
REMARK INTER:                  -6.787
REMARK INTRA:                  -0.819
REMARK UNBOUND:                -0.819
REMARK SMILES O=C([O-])CCCCCCCCC(=O)[O-]
REMARK SMILES IDX 7 1 6 2 5 3 4 4 2 5 1 6 3 7 8 8 9 9 10 10 11 11 12 12 13 13
REMARK SMILES IDX 14 14
REMARK H PARENT
REMARK Flexibility Score: inf
ROOT
ATOM      1  C   UNL     1     -35.872  18.975 -27.451  1.00  0.00     0.000 C 
ENDROOT
BRANCH   1   2
ATOM      2  C   UNL     1     -34.795  18.565 -28.463  1.00  0.00     0.000 C 
BRANCH   2   3
ATOM      3  C   UNL     1     -35.406  18.314 -29.846  1.00  0.00     0.006 C 
BRANCH   3   4
ATOM      4  C   UNL     1     -35.554  16.813 -30.118  1.00  0.00     0.053 C 
BRANCH   4   5
ATOM      5  C   UNL     1     -36.978  16.389 -29.951  1.00  0.00     0.041 C 
ATOM      6  O   UNL     1     -37.904  17.052 -30.490  1.00  0.00    -0.550 OA
ATOM      7  O   UNL     1     -37.281  15.233 -29.243  1.00  0.00    -0.550 OA
ENDBRANCH   4   5
ENDBRANCH   3   4
ENDBRANCH   2   3
ENDBRANCH   1   2
BRANCH   1   8
ATOM      8  C   UNL     1     -37.048  19.674 -28.153  1.00  0.00     0.000 C 
BRANCH   8   9
ATOM      9  C   UNL     1     -38.410  19.075 -27.766  1.00  0.00     0.000 C 
BRANCH   9  10
ATOM     10  C   UNL     1     -39.555  19.585 -28.658  1.00  0.00     0.006 C 
BRANCH  10  11
ATOM     11  C   UNL     1     -39.101  20.708 -29.599  1.00  0.00     0.053 C 
BRANCH  11  12
ATOM     12  C   UNL     1     -39.760  22.011 -29.268  1.00  0.00     0.041 C 
ATOM     13  O   UNL     1     -39.231  22.798 -28.439  1.00  0.00    -0.550 OA
ATOM     14  O   UNL     1     -40.946  22.370 -29.897  1.00  0.00    -0.550 OA
ENDBRANCH  11  12
ENDBRANCH  10  11
ENDBRANCH   9  10
ENDBRANCH   8   9
ENDBRANCH   1   8
TORSDOF 9
ENDMDL
MODEL 2
REMARK VINA RESULT:    -4.408      1.865      5.127
REMARK INTER + INTRA:          -7.547
REMARK INTER:                  -6.766
REMARK INTRA:                  -0.780
REMARK UNBOUND:                -0.819
REMARK SMILES O=C([O-])CCCCCCCCC(=O)[O-]
REMARK SMILES IDX 7 1 6 2 5 3 4 4 2 5 1 6 3 7 8 8 9 9 10 10 11 11 12 12 13 13
REMARK SMILES IDX 14 14
REMARK H PARENT
REMARK Flexibility Score: inf
ROOT
ATOM      1  C   UNL     1     -36.820  20.862 -31.541  1.00  0.00     0.000 C 
ENDROOT
BRANCH   1   2
ATOM      2  C   UNL     1     -38.294  20.844 -31.120  1.00  0.00     0.000 C 
BRANCH   2   3
ATOM      3  C   UNL     1     -38.464  21.350 -29.683  1.00  0.00     0.006 C 
BRANCH   3   4
ATOM      4  C   UNL     1     -39.900  21.139 -29.192  1.00  0.00     0.053 C 
BRANCH   4   5
ATOM      5  C   UNL     1     -39.996  19.888 -28.377  1.00  0.00     0.041 C 
ATOM      6  O   UNL     1     -38.950  19.285 -28.016  1.00  0.00    -0.550 OA
ATOM      7  O   UNL     1     -41.238  19.416 -27.973  1.00  0.00    -0.550 OA
ENDBRANCH   4   5
ENDBRANCH   3   4
ENDBRANCH   2   3
ENDBRANCH   1   2
BRANCH   1   8
ATOM      8  C   UNL     1     -35.898  20.881 -30.311  1.00  0.00     0.000 C 
BRANCH   8   9
ATOM      9  C   UNL     1     -34.980  19.650 -30.238  1.00  0.00     0.000 C 
BRANCH   9  10
ATOM     10  C   UNL     1     -35.533  18.553 -29.311  1.00  0.00     0.006 C 
BRANCH  10  11
ATOM     11  C   UNL     1     -35.658  17.201 -30.024  1.00  0.00     0.053 C 
BRANCH  11  12
ATOM     12  C   UNL     1     -37.050  16.655 -29.941  1.00  0.00     0.041 C 
ATOM     13  O   UNL     1     -37.277  15.591 -29.305  1.00  0.00    -0.550 OA
ATOM     14  O   UNL     1     -38.101  17.335 -30.542  1.00  0.00    -0.550 OA
ENDBRANCH  11  12
ENDBRANCH  10  11
ENDBRANCH   9  10
ENDBRANCH   8   9
ENDBRANCH   1   8
TORSDOF 9
ENDMDL
MODEL 3
REMARK VINA RESULT:    -4.325      2.404      4.238
REMARK INTER + INTRA:          -7.420
REMARK INTER:                  -6.411
REMARK INTRA:                  -1.009
REMARK UNBOUND:                -0.819
REMARK SMILES O=C([O-])CCCCCCCCC(=O)[O-]
REMARK SMILES IDX 7 1 6 2 5 3 4 4 2 5 1 6 3 7 8 8 9 9 10 10 11 11 12 12 13 13
REMARK SMILES IDX 14 14
REMARK H PARENT
REMARK Flexibility Score: inf
ROOT
ATOM      1  C   UNL     1     -36.961  16.909 -29.333  1.00  0.00     0.000 C 
ENDROOT
BRANCH   1   2
ATOM      2  C   UNL     1     -38.096  17.073 -30.350  1.00  0.00     0.000 C 
BRANCH   2   3
ATOM      3  C   UNL     1     -38.714  18.473 -30.266  1.00  0.00     0.006 C 
BRANCH   3   4
ATOM      4  C   UNL     1     -38.758  18.969 -28.817  1.00  0.00     0.053 C 
BRANCH   4   5
ATOM      5  C   UNL     1     -39.922  19.886 -28.613  1.00  0.00     0.041 C 
ATOM      6  O   UNL     1     -40.977  19.461 -28.073  1.00  0.00    -0.550 OA
ATOM      7  O   UNL     1     -39.824  21.224 -28.973  1.00  0.00    -0.550 OA
ENDBRANCH   4   5
ENDBRANCH   3   4
ENDBRANCH   2   3
ENDBRANCH   1   2
BRANCH   1   8
ATOM      8  C   UNL     1     -35.589  17.023 -30.017  1.00  0.00     0.000 C 
BRANCH   8   9
ATOM      9  C   UNL     1     -34.755  18.198 -29.483  1.00  0.00     0.000 C 
BRANCH   9  10
ATOM     10  C   UNL     1     -35.093  19.528 -30.180  1.00  0.00     0.006 C 
BRANCH  10  11
ATOM     11  C   UNL     1     -35.546  20.604 -29.185  1.00  0.00     0.053 C 
BRANCH  11  12
ATOM     12  C   UNL     1     -36.320  21.695 -29.859  1.00  0.00     0.041 C 
ATOM     13  O   UNL     1     -36.935  21.466 -30.934  1.00  0.00    -0.550 OA
ATOM     14  O   UNL     1     -36.385  22.959 -29.285  1.00  0.00    -0.550 OA
ENDBRANCH  11  12
ENDBRANCH  10  11
ENDBRANCH   9  10
ENDBRANCH   8   9
ENDBRANCH   1   8
TORSDOF 9
ENDMDL
MODEL 4
REMARK VINA RESULT:    -4.325      1.681      4.770
REMARK INTER + INTRA:          -7.419
REMARK INTER:                  -6.680
REMARK INTRA:                  -0.738
REMARK UNBOUND:                -0.819
REMARK SMILES O=C([O-])CCCCCCCCC(=O)[O-]
REMARK SMILES IDX 7 1 6 2 5 3 4 4 2 5 1 6 3 7 8 8 9 9 10 10 11 11 12 12 13 13
REMARK SMILES IDX 14 14
REMARK H PARENT
REMARK Flexibility Score: inf
ROOT
ATOM      1  C   UNL     1     -35.543  20.432 -28.285  1.00  0.00     0.000 C 
ENDROOT
BRANCH   1   2
ATOM      2  C   UNL     1     -36.166  21.810 -28.535  1.00  0.00     0.000 C 
BRANCH   2   3
ATOM      3  C   UNL     1     -37.410  21.700 -29.423  1.00  0.00     0.006 C 
BRANCH   3   4
ATOM      4  C   UNL     1     -38.624  22.351 -28.753  1.00  0.00     0.053 C 
BRANCH   4   5
ATOM      5  C   UNL     1     -39.884  21.654 -29.160  1.00  0.00     0.041 C 
ATOM      6  O   UNL     1     -40.099  20.469 -28.793  1.00  0.00    -0.550 OA
ATOM      7  O   UNL     1     -40.844  22.330 -29.903  1.00  0.00    -0.550 OA
ENDBRANCH   4   5
ENDBRANCH   3   4
ENDBRANCH   2   3
ENDBRANCH   1   2
BRANCH   1   8
ATOM      8  C   UNL     1     -35.417  19.640 -29.597  1.00  0.00     0.000 C 
BRANCH   8   9
ATOM      9  C   UNL     1     -35.127  18.149 -29.364  1.00  0.00     0.000 C 
BRANCH   9  10
ATOM     10  C   UNL     1     -36.237  17.237 -29.917  1.00  0.00     0.006 C 
BRANCH  10  11
ATOM     11  C   UNL     1     -37.638  17.745 -29.556  1.00  0.00     0.053 C 
BRANCH  11  12
ATOM     12  C   UNL     1     -38.485  17.952 -30.773  1.00  0.00     0.041 C 
ATOM     13  O   UNL     1     -38.471  19.057 -31.377  1.00  0.00    -0.550 OA
ATOM     14  O   UNL     1     -39.271  16.914 -31.258  1.00  0.00    -0.550 OA
ENDBRANCH  11  12
ENDBRANCH  10  11
ENDBRANCH   9  10
ENDBRANCH   8   9
ENDBRANCH   1   8
TORSDOF 9
ENDMDL
MODEL 5
REMARK VINA RESULT:    -4.320      1.639      2.087
REMARK INTER + INTRA:          -7.412
REMARK INTER:                  -6.711
REMARK INTRA:                  -0.700
REMARK UNBOUND:                -0.819
REMARK SMILES O=C([O-])CCCCCCCCC(=O)[O-]
REMARK SMILES IDX 7 1 6 2 5 3 4 4 2 5 1 6 3 7 8 8 9 9 10 10 11 11 12 12 13 13
REMARK SMILES IDX 14 14
REMARK H PARENT
REMARK Flexibility Score: inf
ROOT
ATOM      1  C   UNL     1     -35.403  18.628 -28.665  1.00  0.00     0.000 C 
ENDROOT
BRANCH   1   2
ATOM      2  C   UNL     1     -35.073  17.734 -29.866  1.00  0.00     0.000 C 
BRANCH   2   3
ATOM      3  C   UNL     1     -36.179  16.699 -30.103  1.00  0.00     0.006 C 
BRANCH   3   4
ATOM      4  C   UNL     1     -37.523  17.196 -29.559  1.00  0.00     0.053 C 
BRANCH   4   5
ATOM      5  C   UNL     1     -38.386  17.697 -30.673  1.00  0.00     0.041 C 
ATOM      6  O   UNL     1     -38.210  18.854 -31.140  1.00  0.00    -0.550 OA
ATOM      7  O   UNL     1     -39.352  16.869 -31.231  1.00  0.00    -0.550 OA
ENDBRANCH   4   5
ENDBRANCH   3   4
ENDBRANCH   2   3
ENDBRANCH   1   2
BRANCH   1   8
ATOM      8  C   UNL     1     -35.488  20.104 -29.086  1.00  0.00     0.000 C 
BRANCH   8   9
ATOM      9  C   UNL     1     -36.671  20.839 -28.436  1.00  0.00     0.000 C 
BRANCH   9  10
ATOM     10  C   UNL     1     -37.425  21.741 -29.428  1.00  0.00     0.006 C 
BRANCH  10  11
ATOM     11  C   UNL     1     -38.664  22.389 -28.795  1.00  0.00     0.053 C 
BRANCH  11  12
ATOM     12  C   UNL     1     -39.925  21.691 -29.202  1.00  0.00     0.041 C 
ATOM     13  O   UNL     1     -40.132  20.499 -28.854  1.00  0.00    -0.550 OA
ATOM     14  O   UNL     1     -40.885  22.368 -29.944  1.00  0.00    -0.550 OA
ENDBRANCH  11  12
ENDBRANCH  10  11
ENDBRANCH   9  10
ENDBRANCH   8   9
ENDBRANCH   1   8
TORSDOF 9
ENDMDL
MODEL 6
REMARK VINA RESULT:    -4.290      1.902      2.463
REMARK INTER + INTRA:          -7.366
REMARK INTER:                  -6.290
REMARK INTRA:                  -1.076
REMARK UNBOUND:                -0.819
REMARK SMILES O=C([O-])CCCCCCCCC(=O)[O-]
REMARK SMILES IDX 7 1 6 2 5 3 4 4 2 5 1 6 3 7 8 8 9 9 10 10 11 11 12 12 13 13
REMARK SMILES IDX 14 14
REMARK H PARENT
REMARK Flexibility Score: inf
ROOT
ATOM      1  C   UNL     1     -35.520  20.609 -30.049  1.00  0.00     0.000 C 
ENDROOT
BRANCH   1   2
ATOM      2  C   UNL     1     -35.536  19.966 -28.657  1.00  0.00     0.000 C 
BRANCH   2   3
ATOM      3  C   UNL     1     -35.534  18.436 -28.757  1.00  0.00     0.006 C 
BRANCH   3   4
ATOM      4  C   UNL     1     -36.086  17.972 -30.108  1.00  0.00     0.053 C 
BRANCH   4   5
ATOM      5  C   UNL     1     -37.248  17.051 -29.911  1.00  0.00     0.041 C 
ATOM      6  O   UNL     1     -37.213  16.172 -29.009  1.00  0.00    -0.550 OA
ATOM      7  O   UNL     1     -38.389  17.194 -30.689  1.00  0.00    -0.550 OA
ENDBRANCH   4   5
ENDBRANCH   3   4
ENDBRANCH   2   3
ENDBRANCH   1   2
BRANCH   1   8
ATOM      8  C   UNL     1     -36.523  21.771 -30.130  1.00  0.00     0.000 C 
BRANCH   8   9
ATOM      9  C   UNL     1     -37.252  22.018 -28.800  1.00  0.00     0.000 C 
BRANCH   9  10
ATOM     10  C   UNL     1     -38.781  21.906 -28.933  1.00  0.00     0.006 C 
BRANCH  10  11
ATOM     11  C   UNL     1     -39.217  20.532 -29.457  1.00  0.00     0.053 C 
BRANCH  11  12
ATOM     12  C   UNL     1     -39.672  19.633 -28.348  1.00  0.00     0.041 C 
ATOM     13  O   UNL     1     -38.828  19.038 -27.627  1.00  0.00    -0.550 OA
ATOM     14  O   UNL     1     -41.028  19.474 -28.094  1.00  0.00    -0.550 OA
ENDBRANCH  11  12
ENDBRANCH  10  11
ENDBRANCH   9  10
ENDBRANCH   8   9
ENDBRANCH   1   8
TORSDOF 9
ENDMDL
MODEL 7
REMARK VINA RESULT:    -4.285      2.134      2.962
REMARK INTER + INTRA:          -7.358
REMARK INTER:                  -6.465
REMARK INTRA:                  -0.893
REMARK UNBOUND:                -0.819
REMARK SMILES O=C([O-])CCCCCCCCC(=O)[O-]
REMARK SMILES IDX 7 1 6 2 5 3 4 4 2 5 1 6 3 7 8 8 9 9 10 10 11 11 12 12 13 13
REMARK SMILES IDX 14 14
REMARK H PARENT
REMARK Flexibility Score: inf
ROOT
ATOM      1  C   UNL     1     -38.370  19.357 -31.227  1.00  0.00     0.000 C 
ENDROOT
BRANCH   1   2
ATOM      2  C   UNL     1     -38.528  17.980 -30.572  1.00  0.00     0.000 C 
BRANCH   2   3
ATOM      3  C   UNL     1     -37.163  17.326 -30.329  1.00  0.00     0.006 C 
BRANCH   3   4
ATOM      4  C   UNL     1     -37.041  16.831 -28.884  1.00  0.00     0.053 C 
BRANCH   4   5
ATOM      5  C   UNL     1     -36.744  17.971 -27.962  1.00  0.00     0.041 C 
ATOM      6  O   UNL     1     -35.595  18.487 -27.943  1.00  0.00    -0.550 OA
ATOM      7  O   UNL     1     -37.749  18.497 -27.161  1.00  0.00    -0.550 OA
ENDBRANCH   4   5
ENDBRANCH   3   4
ENDBRANCH   2   3
ENDBRANCH   1   2
BRANCH   1   8
ATOM      8  C   UNL     1     -36.957  19.918 -30.996  1.00  0.00     0.000 C 
BRANCH   8   9
ATOM      9  C   UNL     1     -36.971  21.351 -30.443  1.00  0.00     0.000 C 
BRANCH   9  10
ATOM     10  C   UNL     1     -37.521  21.427 -29.008  1.00  0.00     0.006 C 
BRANCH  10  11
ATOM     11  C   UNL     1     -38.691  22.412 -28.888  1.00  0.00     0.053 C 
BRANCH  11  12
ATOM     12  C   UNL     1     -40.006  21.751 -29.163  1.00  0.00     0.041 C 
ATOM     13  O   UNL     1     -40.251  20.607 -28.695  1.00  0.00    -0.550 OA
ATOM     14  O   UNL     1     -40.973  22.409 -29.912  1.00  0.00    -0.550 OA
ENDBRANCH  11  12
ENDBRANCH  10  11
ENDBRANCH   9  10
ENDBRANCH   8   9
ENDBRANCH   1   8
TORSDOF 9
ENDMDL
MODEL 8
REMARK VINA RESULT:    -4.149      1.444      1.910
REMARK INTER + INTRA:          -7.151
REMARK INTER:                  -6.174
REMARK INTRA:                  -0.977
REMARK UNBOUND:                -0.819
REMARK SMILES O=C([O-])CCCCCCCCC(=O)[O-]
REMARK SMILES IDX 7 1 6 2 5 3 4 4 2 5 1 6 3 7 8 8 9 9 10 10 11 11 12 12 13 13
REMARK SMILES IDX 14 14
REMARK H PARENT
REMARK Flexibility Score: inf
ROOT
ATOM      1  C   UNL     1     -34.813  20.375 -29.136  1.00  0.00     0.000 C 
ENDROOT
BRANCH   1   2
ATOM      2  C   UNL     1     -34.535  19.242 -30.131  1.00  0.00     0.000 C 
BRANCH   2   3
ATOM      3  C   UNL     1     -34.593  17.876 -29.440  1.00  0.00     0.006 C 
BRANCH   3   4
ATOM      4  C   UNL     1     -35.639  16.970 -30.100  1.00  0.00     0.053 C 
BRANCH   4   5
ATOM      5  C   UNL     1     -36.978  17.167 -29.463  1.00  0.00     0.041 C 
ATOM      6  O   UNL     1     -37.061  17.486 -28.247  1.00  0.00    -0.550 OA
ATOM      7  O   UNL     1     -38.134  17.048 -30.223  1.00  0.00    -0.550 OA
ENDBRANCH   4   5
ENDBRANCH   3   4
ENDBRANCH   2   3
ENDBRANCH   1   2
BRANCH   1   8
ATOM      8  C   UNL     1     -36.031  21.205 -29.575  1.00  0.00     0.000 C 
BRANCH   8   9
ATOM      9  C   UNL     1     -36.654  20.697 -30.885  1.00  0.00     0.000 C 
BRANCH   9  10
ATOM     10  C   UNL     1     -38.192  20.664 -30.836  1.00  0.00     0.006 C 
BRANCH  10  11
ATOM     11  C   UNL     1     -38.726  20.706 -29.398  1.00  0.00     0.053 C 
BRANCH  11  12
ATOM     12  C   UNL     1     -39.514  21.951 -29.134  1.00  0.00     0.041 C 
ATOM     13  O   UNL     1     -39.060  22.839 -28.364  1.00  0.00    -0.550 OA
ATOM     14  O   UNL     1     -40.740  22.144 -29.759  1.00  0.00    -0.550 OA
ENDBRANCH  11  12
ENDBRANCH  10  11
ENDBRANCH   9  10
ENDBRANCH   8   9
ENDBRANCH   1   8
TORSDOF 9
ENDMDL
MODEL 9
REMARK VINA RESULT:    -4.032      2.189      5.355
REMARK INTER + INTRA:          -6.972
REMARK INTER:                  -6.131
REMARK INTRA:                  -0.840
REMARK UNBOUND:                -0.819
REMARK SMILES O=C([O-])CCCCCCCCC(=O)[O-]
REMARK SMILES IDX 7 1 6 2 5 3 4 4 2 5 1 6 3 7 8 8 9 9 10 10 11 11 12 12 13 13
REMARK SMILES IDX 14 14
REMARK H PARENT
REMARK Flexibility Score: inf
ROOT
ATOM      1  C   UNL     1     -38.735  17.979 -30.735  1.00  0.00     0.000 C 
ENDROOT
BRANCH   1   2
ATOM      2  C   UNL     1     -38.766  19.038 -29.627  1.00  0.00     0.000 C 
BRANCH   2   3
ATOM      3  C   UNL     1     -38.476  20.434 -30.190  1.00  0.00     0.006 C 
BRANCH   3   4
ATOM      4  C   UNL     1     -38.295  21.456 -29.063  1.00  0.00     0.053 C 
BRANCH   4   5
ATOM      5  C   UNL     1     -39.500  22.337 -28.957  1.00  0.00     0.041 C 
ATOM      6  O   UNL     1     -40.516  22.109 -29.665  1.00  0.00    -0.550 OA
ATOM      7  O   UNL     1     -39.520  23.379 -28.039  1.00  0.00    -0.550 OA
ENDBRANCH   4   5
ENDBRANCH   3   4
ENDBRANCH   2   3
ENDBRANCH   1   2
BRANCH   1   8
ATOM      8  C   UNL     1     -37.879  16.772 -30.318  1.00  0.00     0.000 C 
BRANCH   8   9
ATOM      9  C   UNL     1     -36.781  17.144 -29.308  1.00  0.00     0.000 C 
BRANCH   9  10
ATOM     10  C   UNL     1     -35.411  17.356 -29.975  1.00  0.00     0.006 C 
BRANCH  10  11
ATOM     11  C   UNL     1     -34.456  18.168 -29.091  1.00  0.00     0.053 C 
BRANCH  11  12
ATOM     12  C   UNL     1     -34.951  19.565 -28.875  1.00  0.00     0.041 C 
ATOM     13  O   UNL     1     -34.956  20.391 -29.826  1.00  0.00    -0.550 OA
ATOM     14  O   UNL     1     -35.434  19.947 -27.630  1.00  0.00    -0.550 OA
ENDBRANCH  11  12
ENDBRANCH  10  11
ENDBRANCH   9  10
ENDBRANCH   8   9
ENDBRANCH   1   8
TORSDOF 9
ENDMDL
