MODEL 1
REMARK VINA RESULT:    -4.603      0.000      0.000
REMARK INTER + INTRA:          -5.868
REMARK INTER:                  -5.545
REMARK INTRA:                  -0.323
REMARK UNBOUND:                -0.323
REMARK SMILES CCCCc1oc(O)c2ccccc12
REMARK SMILES IDX 4 1 5 2 7 3 6 4 9 5 14 6 10 7 13 8 11 9 12 10 8 11 3 13 2 14
REMARK SMILES IDX 1 15
REMARK H PARENT 8 12
REMARK Flexibility Score: inf
ROOT
ATOM      1  C   UNL     1      48.452  27.035   8.017  1.00  0.00     0.076 C 
ENDROOT
BRANCH   1   2
ATOM      2  C   UNL     1      47.695  26.186   7.039  1.00  0.00     0.116 A 
ATOM      3  C   UNL     1      47.007  24.432   6.012  1.00  0.00     0.290 A 
ATOM      4  O   UNL     1      47.768  24.867   6.997  1.00  0.00    -0.430 OA
ATOM      5  C   UNL     1      46.412  25.501   5.378  1.00  0.00     0.066 A 
ATOM      6  C   UNL     1      46.851  26.623   6.031  1.00  0.00     0.027 A 
ATOM      7  C   UNL     1      45.541  25.574   4.291  1.00  0.00     0.016 A 
ATOM      8  C   UNL     1      46.453  27.902   5.639  1.00  0.00     0.012 A 
ATOM      9  C   UNL     1      45.119  26.850   3.875  1.00  0.00     0.001 A 
ATOM     10  C   UNL     1      45.573  28.009   4.546  1.00  0.00     0.001 A 
BRANCH   3  11
ATOM     11  O   UNL     1      46.853  23.087   5.688  1.00  0.00    -0.480 OA
ATOM     12  H   UNL     1      47.097  22.357   6.345  1.00  0.00     0.297 HD
ENDBRANCH   3  11
ENDBRANCH   1   2
BRANCH   1  13
ATOM     13  C   UNL     1      49.716  27.635   7.388  1.00  0.00     0.008 C 
BRANCH  13  14
ATOM     14  C   UNL     1      50.850  26.606   7.264  1.00  0.00    -0.003 C 
ATOM     15  C   UNL     1      52.119  27.251   6.714  1.00  0.00     0.004 C 
ENDBRANCH  13  14
ENDBRANCH   1  13
TORSDOF 4
ENDMDL
MODEL 2
REMARK VINA RESULT:    -4.561      2.128      4.979
REMARK INTER + INTRA:          -5.817
REMARK INTER:                  -5.594
REMARK INTRA:                  -0.223
REMARK UNBOUND:                -0.323
REMARK SMILES CCCCc1oc(O)c2ccccc12
REMARK SMILES IDX 4 1 5 2 7 3 6 4 9 5 14 6 10 7 13 8 11 9 12 10 8 11 3 13 2 14
REMARK SMILES IDX 1 15
REMARK H PARENT 8 12
REMARK Flexibility Score: inf
ROOT
ATOM      1  C   UNL     1      47.554  24.248   6.871  1.00  0.00     0.076 C 
ENDROOT
BRANCH   1   2
ATOM      2  C   UNL     1      47.629  25.730   7.097  1.00  0.00     0.116 A 
ATOM      3  C   UNL     1      46.980  27.761   7.334  1.00  0.00     0.290 A 
ATOM      4  O   UNL     1      46.571  26.520   7.150  1.00  0.00    -0.430 OA
ATOM      5  C   UNL     1      48.356  27.791   7.401  1.00  0.00     0.066 A 
ATOM      6  C   UNL     1      48.773  26.495   7.248  1.00  0.00     0.027 A 
ATOM      7  C   UNL     1      49.258  28.841   7.573  1.00  0.00     0.016 A 
ATOM      8  C   UNL     1      50.126  26.155   7.252  1.00  0.00     0.012 A 
ATOM      9  C   UNL     1      50.630  28.529   7.584  1.00  0.00     0.001 A 
ATOM     10  C   UNL     1      51.062  27.193   7.424  1.00  0.00     0.001 A 
BRANCH   3  11
ATOM     11  O   UNL     1      46.121  28.851   7.437  1.00  0.00    -0.480 OA
ATOM     12  H   UNL     1      45.608  29.038   8.289  1.00  0.00     0.297 HD
ENDBRANCH   3  11
ENDBRANCH   1   2
BRANCH   1  13
ATOM     13  C   UNL     1      47.057  23.915   5.458  1.00  0.00     0.008 C 
BRANCH  13  14
ATOM     14  C   UNL     1      47.629  22.587   4.938  1.00  0.00    -0.003 C 
ATOM     15  C   UNL     1      46.512  21.601   4.604  1.00  0.00     0.004 C 
ENDBRANCH  13  14
ENDBRANCH   1  13
TORSDOF 4
ENDMDL
MODEL 3
REMARK VINA RESULT:    -4.218      2.700      3.355
REMARK INTER + INTRA:          -5.404
REMARK INTER:                  -4.920
REMARK INTRA:                  -0.484
REMARK UNBOUND:                -0.323
REMARK SMILES CCCCc1oc(O)c2ccccc12
REMARK SMILES IDX 4 1 5 2 7 3 6 4 9 5 14 6 10 7 13 8 11 9 12 10 8 11 3 13 2 14
REMARK SMILES IDX 1 15
REMARK H PARENT 8 12
REMARK Flexibility Score: inf
ROOT
ATOM      1  C   UNL     1      49.502  28.697   7.729  1.00  0.00     0.076 C 
ENDROOT
BRANCH   1   2
ATOM      2  C   UNL     1      48.068  28.266   7.626  1.00  0.00     0.116 A 
ATOM      3  C   UNL     1      45.927  28.376   7.701  1.00  0.00     0.290 A 
ATOM      4  O   UNL     1      47.041  29.066   7.849  1.00  0.00    -0.430 OA
ATOM      5  C   UNL     1      46.229  27.073   7.372  1.00  0.00     0.066 A 
ATOM      6  C   UNL     1      47.597  26.999   7.325  1.00  0.00     0.027 A 
ATOM      7  C   UNL     1      45.422  25.963   7.123  1.00  0.00     0.016 A 
ATOM      8  C   UNL     1      48.257  25.806   7.029  1.00  0.00     0.012 A 
ATOM      9  C   UNL     1      46.059  24.746   6.818  1.00  0.00     0.001 A 
ATOM     10  C   UNL     1      47.470  24.668   6.772  1.00  0.00     0.001 A 
BRANCH   3  11
ATOM     11  O   UNL     1      44.654  28.915   7.863  1.00  0.00    -0.480 OA
ATOM     12  H   UNL     1      43.995  28.947   7.096  1.00  0.00     0.297 HD
ENDBRANCH   3  11
ENDBRANCH   1   2
BRANCH   1  13
ATOM     13  C   UNL     1      50.161  28.810   6.349  1.00  0.00     0.008 C 
BRANCH  13  14
ATOM     14  C   UNL     1      51.385  27.892   6.211  1.00  0.00    -0.003 C 
ATOM     15  C   UNL     1      51.709  27.205   7.535  1.00  0.00     0.004 C 
ENDBRANCH  13  14
ENDBRANCH   1  13
TORSDOF 4
ENDMDL
MODEL 4
REMARK VINA RESULT:    -4.156      1.497      4.398
REMARK INTER + INTRA:          -5.329
REMARK INTER:                  -4.819
REMARK INTRA:                  -0.510
REMARK UNBOUND:                -0.323
REMARK SMILES CCCCc1oc(O)c2ccccc12
REMARK SMILES IDX 4 1 5 2 7 3 6 4 9 5 14 6 10 7 13 8 11 9 12 10 8 11 3 13 2 14
REMARK SMILES IDX 1 15
REMARK H PARENT 8 12
REMARK Flexibility Score: inf
ROOT
ATOM      1  C   UNL     1      44.597  26.503   6.270  1.00  0.00     0.076 C 
ENDROOT
BRANCH   1   2
ATOM      2  C   UNL     1      45.972  25.941   6.487  1.00  0.00     0.116 A 
ATOM      3  C   UNL     1      47.544  24.493   6.672  1.00  0.00     0.290 A 
ATOM      4  O   UNL     1      46.264  24.655   6.402  1.00  0.00    -0.430 OA
ATOM      5  C   UNL     1      48.118  25.715   6.950  1.00  0.00     0.066 A 
ATOM      6  C   UNL     1      47.115  26.642   6.834  1.00  0.00     0.027 A 
ATOM      7  C   UNL     1      49.419  26.076   7.298  1.00  0.00     0.016 A 
ATOM      8  C   UNL     1      47.341  27.999   7.064  1.00  0.00     0.012 A 
ATOM      9  C   UNL     1      49.679  27.439   7.533  1.00  0.00     0.001 A 
ATOM     10  C   UNL     1      48.645  28.396   7.416  1.00  0.00     0.001 A 
BRANCH   3  11
ATOM     11  O   UNL     1      48.186  23.259   6.671  1.00  0.00    -0.480 OA
ATOM     12  H   UNL     1      47.897  22.517   6.046  1.00  0.00     0.297 HD
ENDBRANCH   3  11
ENDBRANCH   1   2
BRANCH   1  13
ATOM     13  C   UNL     1      44.451  27.120   4.873  1.00  0.00     0.008 C 
BRANCH  13  14
ATOM     14  C   UNL     1      44.331  28.651   4.923  1.00  0.00    -0.003 C 
ATOM     15  C   UNL     1      43.911  29.124   6.312  1.00  0.00     0.004 C 
ENDBRANCH  13  14
ENDBRANCH   1  13
TORSDOF 4
ENDMDL
MODEL 5
REMARK VINA RESULT:    -4.094      2.193      4.585
REMARK INTER + INTRA:          -5.255
REMARK INTER:                  -5.086
REMARK INTRA:                  -0.169
REMARK UNBOUND:                -0.323
REMARK SMILES CCCCc1oc(O)c2ccccc12
REMARK SMILES IDX 4 1 5 2 7 3 6 4 9 5 14 6 10 7 13 8 11 9 12 10 8 11 3 13 2 14
REMARK SMILES IDX 1 15
REMARK H PARENT 8 12
REMARK Flexibility Score: inf
ROOT
ATOM      1  C   UNL     1      47.652  24.118   6.193  1.00  0.00     0.076 C 
ENDROOT
BRANCH   1   2
ATOM      2  C   UNL     1      46.978  25.436   6.440  1.00  0.00     0.116 A 
ATOM      3  C   UNL     1      45.446  26.938   6.451  1.00  0.00     0.290 A 
ATOM      4  O   UNL     1      45.719  25.688   6.131  1.00  0.00    -0.430 OA
ATOM      5  C   UNL     1      46.567  27.534   6.986  1.00  0.00     0.066 A 
ATOM      6  C   UNL     1      47.548  26.578   6.979  1.00  0.00     0.027 A 
ATOM      7  C   UNL     1      46.799  28.824   7.463  1.00  0.00     0.016 A 
ATOM      8  C   UNL     1      48.836  26.845   7.445  1.00  0.00     0.012 A 
ATOM      9  C   UNL     1      48.088  29.123   7.943  1.00  0.00     0.001 A 
ATOM     10  C   UNL     1      49.101  28.138   7.934  1.00  0.00     0.001 A 
BRANCH   3  11
ATOM     11  O   UNL     1      44.203  27.533   6.259  1.00  0.00    -0.480 OA
ATOM     12  H   UNL     1      43.345  27.014   6.396  1.00  0.00     0.297 HD
ENDBRANCH   3  11
ENDBRANCH   1   2
BRANCH   1  13
ATOM     13  C   UNL     1      46.916  23.296   5.128  1.00  0.00     0.008 C 
BRANCH  13  14
ATOM     14  C   UNL     1      47.688  22.027   4.735  1.00  0.00    -0.003 C 
ATOM     15  C   UNL     1      46.736  20.863   4.475  1.00  0.00     0.004 C 
ENDBRANCH  13  14
ENDBRANCH   1  13
TORSDOF 4
ENDMDL
MODEL 6
REMARK VINA RESULT:    -4.004      2.485      2.911
REMARK INTER + INTRA:          -5.147
REMARK INTER:                  -4.870
REMARK INTRA:                  -0.276
REMARK UNBOUND:                -0.323
REMARK SMILES CCCCc1oc(O)c2ccccc12
REMARK SMILES IDX 4 1 5 2 7 3 6 4 9 5 14 6 10 7 13 8 11 9 12 10 8 11 3 13 2 14
REMARK SMILES IDX 1 15
REMARK H PARENT 8 12
REMARK Flexibility Score: inf
ROOT
ATOM      1  C   UNL     1      49.355  28.939   6.418  1.00  0.00     0.076 C 
ENDROOT
BRANCH   1   2
ATOM      2  C   UNL     1      47.997  28.534   6.911  1.00  0.00     0.116 A 
ATOM      3  C   UNL     1      46.380  28.176   8.274  1.00  0.00     0.290 A 
ATOM      4  O   UNL     1      47.610  28.639   8.170  1.00  0.00    -0.430 OA
ATOM      5  C   UNL     1      45.940  27.745   7.041  1.00  0.00     0.066 A 
ATOM      6  C   UNL     1      46.972  27.971   6.169  1.00  0.00     0.027 A 
ATOM      7  C   UNL     1      44.737  27.174   6.628  1.00  0.00     0.016 A 
ATOM      8  C   UNL     1      46.876  27.637   4.817  1.00  0.00     0.012 A 
ATOM      9  C   UNL     1      44.609  26.830   5.269  1.00  0.00     0.001 A 
ATOM     10  C   UNL     1      45.673  27.060   4.368  1.00  0.00     0.001 A 
BRANCH   3  11
ATOM     11  O   UNL     1      45.664  28.139   9.467  1.00  0.00    -0.480 OA
ATOM     12  H   UNL     1      46.035  28.548  10.315  1.00  0.00     0.297 HD
ENDBRANCH   3  11
ENDBRANCH   1   2
BRANCH   1  13
ATOM     13  C   UNL     1      50.388  28.957   7.552  1.00  0.00     0.008 C 
BRANCH  13  14
ATOM     14  C   UNL     1      51.487  27.902   7.355  1.00  0.00    -0.003 C 
ATOM     15  C   UNL     1      50.946  26.494   7.590  1.00  0.00     0.004 C 
ENDBRANCH  13  14
ENDBRANCH   1  13
TORSDOF 4
ENDMDL
MODEL 7
REMARK VINA RESULT:    -3.781      2.418      4.207
REMARK INTER + INTRA:          -4.878
REMARK INTER:                  -4.702
REMARK INTRA:                  -0.176
REMARK UNBOUND:                -0.323
REMARK SMILES CCCCc1oc(O)c2ccccc12
REMARK SMILES IDX 4 1 5 2 7 3 6 4 9 5 14 6 10 7 13 8 11 9 12 10 8 11 3 13 2 14
REMARK SMILES IDX 1 15
REMARK H PARENT 8 12
REMARK Flexibility Score: inf
ROOT
ATOM      1  C   UNL     1      46.577  24.678   4.985  1.00  0.00     0.076 C 
ENDROOT
BRANCH   1   2
ATOM      2  C   UNL     1      46.444  25.833   5.934  1.00  0.00     0.116 A 
ATOM      3  C   UNL     1      46.860  27.127   7.594  1.00  0.00     0.290 A 
ATOM      4  O   UNL     1      47.266  26.053   6.945  1.00  0.00    -0.430 OA
ATOM      5  C   UNL     1      45.728  27.632   6.993  1.00  0.00     0.066 A 
ATOM      6  C   UNL     1      45.459  26.807   5.933  1.00  0.00     0.027 A 
ATOM      7  C   UNL     1      44.922  28.729   7.296  1.00  0.00     0.016 A 
ATOM      8  C   UNL     1      44.360  27.017   5.101  1.00  0.00     0.012 A 
ATOM      9  C   UNL     1      43.807  28.970   6.472  1.00  0.00     0.001 A 
ATOM     10  C   UNL     1      43.527  28.118   5.380  1.00  0.00     0.001 A 
BRANCH   3  11
ATOM     11  O   UNL     1      47.502  27.642   8.717  1.00  0.00    -0.480 OA
ATOM     12  H   UNL     1      47.205  28.514   9.138  1.00  0.00     0.297 HD
ENDBRANCH   3  11
ENDBRANCH   1   2
BRANCH   1  13
ATOM     13  C   UNL     1      47.181  23.447   5.672  1.00  0.00     0.008 C 
BRANCH  13  14
ATOM     14  C   UNL     1      47.650  22.388   4.662  1.00  0.00    -0.003 C 
ATOM     15  C   UNL     1      46.622  21.269   4.522  1.00  0.00     0.004 C 
ENDBRANCH  13  14
ENDBRANCH   1  13
TORSDOF 4
ENDMDL
MODEL 8
REMARK VINA RESULT:    -3.734      1.732      4.975
REMARK INTER + INTRA:          -4.821
REMARK INTER:                  -4.698
REMARK INTRA:                  -0.122
REMARK UNBOUND:                -0.323
REMARK SMILES CCCCc1oc(O)c2ccccc12
REMARK SMILES IDX 4 1 5 2 7 3 6 4 9 5 14 6 10 7 13 8 11 9 12 10 8 11 3 13 2 14
REMARK SMILES IDX 1 15
REMARK H PARENT 8 12
REMARK Flexibility Score: inf
ROOT
ATOM      1  C   UNL     1      47.179  24.741   6.717  1.00  0.00     0.076 C 
ENDROOT
BRANCH   1   2
ATOM      2  C   UNL     1      47.467  26.112   7.255  1.00  0.00     0.116 A 
ATOM      3  C   UNL     1      47.116  28.050   8.105  1.00  0.00     0.290 A 
ATOM      4  O   UNL     1      46.542  26.920   7.743  1.00  0.00    -0.430 OA
ATOM      5  C   UNL     1      48.467  27.989   7.844  1.00  0.00     0.066 A 
ATOM      6  C   UNL     1      48.694  26.752   7.299  1.00  0.00     0.027 A 
ATOM      7  C   UNL     1      49.496  28.912   8.031  1.00  0.00     0.016 A 
ATOM      8  C   UNL     1      49.968  26.351   6.897  1.00  0.00     0.012 A 
ATOM      9  C   UNL     1      50.793  28.534   7.638  1.00  0.00     0.001 A 
ATOM     10  C   UNL     1      51.028  27.260   7.074  1.00  0.00     0.001 A 
BRANCH   3  11
ATOM     11  O   UNL     1      46.428  29.125   8.662  1.00  0.00    -0.480 OA
ATOM     12  H   UNL     1      45.416  29.149   8.679  1.00  0.00     0.297 HD
ENDBRANCH   3  11
ENDBRANCH   1   2
BRANCH   1  13
ATOM     13  C   UNL     1      46.748  24.789   5.245  1.00  0.00     0.008 C 
BRANCH  13  14
ATOM     14  C   UNL     1      46.430  26.217   4.777  1.00  0.00    -0.003 C 
ATOM     15  C   UNL     1      44.925  26.426   4.633  1.00  0.00     0.004 C 
ENDBRANCH  13  14
ENDBRANCH   1  13
TORSDOF 4
ENDMDL
MODEL 9
REMARK VINA RESULT:    -3.266      2.159      4.544
REMARK INTER + INTRA:          -4.257
REMARK INTER:                  -4.090
REMARK INTRA:                  -0.167
REMARK UNBOUND:                -0.323
REMARK SMILES CCCCc1oc(O)c2ccccc12
REMARK SMILES IDX 4 1 5 2 7 3 6 4 9 5 14 6 10 7 13 8 11 9 12 10 8 11 3 13 2 14
REMARK SMILES IDX 1 15
REMARK H PARENT 8 12
REMARK Flexibility Score: inf
ROOT
ATOM      1  C   UNL     1      46.541  24.335   6.237  1.00  0.00     0.076 C 
ENDROOT
BRANCH   1   2
ATOM      2  C   UNL     1      47.391  25.439   6.793  1.00  0.00     0.116 A 
ATOM      3  C   UNL     1      49.146  26.502   7.420  1.00  0.00     0.290 A 
ATOM      4  O   UNL     1      48.710  25.391   6.859  1.00  0.00    -0.430 OA
ATOM      5  C   UNL     1      48.078  27.311   7.739  1.00  0.00     0.066 A 
ATOM      6  C   UNL     1      46.955  26.634   7.341  1.00  0.00     0.027 A 
ATOM      7  C   UNL     1      48.006  28.565   8.345  1.00  0.00     0.016 A 
ATOM      8  C   UNL     1      45.677  27.162   7.526  1.00  0.00     0.012 A 
ATOM      9  C   UNL     1      46.730  29.125   8.542  1.00  0.00     0.001 A 
ATOM     10  C   UNL     1      45.571  28.427   8.135  1.00  0.00     0.001 A 
BRANCH   3  11
ATOM     11  O   UNL     1      50.491  26.780   7.643  1.00  0.00    -0.480 OA
ATOM     12  H   UNL     1      51.032  27.324   6.982  1.00  0.00     0.297 HD
ENDBRANCH   3  11
ENDBRANCH   1   2
BRANCH   1  13
ATOM     13  C   UNL     1      47.339  23.425   5.294  1.00  0.00     0.008 C 
BRANCH  13  14
ATOM     14  C   UNL     1      46.471  22.313   4.685  1.00  0.00    -0.003 C 
ATOM     15  C   UNL     1      47.233  20.992   4.628  1.00  0.00     0.004 C 
ENDBRANCH  13  14
ENDBRANCH   1  13
TORSDOF 4
ENDMDL
