MODEL 1
REMARK VINA RESULT:    -6.647      0.000      0.000
REMARK INTER + INTRA:          -6.647
REMARK INTER:                  -6.647
REMARK INTRA:                   0.000
REMARK UNBOUND:                 0.000
REMARK SMILES C=C1CCC[C@@]2(C)CC(=O)C(=C(C)C)C[C@@H]12
REMARK SMILES IDX 13 1 12 2 11 3 15 4 16 5 2 6 1 7 3 8 4 9 5 10 6 11 8 12 9 13
REMARK SMILES IDX 10 14 7 15 14 16
REMARK H PARENT
REMARK Flexibility Score: inf
ROOT
ATOM      1  C   UNL     1     -13.274 -39.039  29.429  1.00  0.00     0.039 C 
ATOM      2  C   UNL     1     -12.915 -38.028  30.494  1.00  0.00    -0.070 C 
ATOM      3  C   UNL     1     -12.749 -36.708  30.190  1.00  0.00    -0.006 C 
ATOM      4  C   UNL     1     -12.917 -36.178  28.780  1.00  0.00     0.047 C 
ATOM      5  C   UNL     1     -11.960 -35.005  28.445  1.00  0.00     0.025 C 
ATOM      6  C   UNL     1     -12.377 -34.402  27.114  1.00  0.00    -0.073 C 
ATOM      7  C   UNL     1     -11.747 -34.747  25.980  1.00  0.00     0.008 C 
ATOM      8  C   UNL     1     -13.614 -33.529  27.067  1.00  0.00     0.031 C 
ATOM      9  C   UNL     1     -13.622 -32.495  28.202  1.00  0.00     0.005 C 
ATOM     10  C   UNL     1     -13.260 -33.108  29.567  1.00  0.00     0.008 C 
ATOM     11  C   UNL     1     -11.914 -33.893  29.541  1.00  0.00    -0.018 C 
ATOM     12  C   UNL     1     -11.635 -34.519  30.933  1.00  0.00     0.088 C 
ATOM     13  C   UNL     1     -12.529 -35.679  31.232  1.00  0.00     0.159 C 
ATOM     14  O   UNL     1     -13.081 -35.761  32.362  1.00  0.00    -0.295 OA
ATOM     15  C   UNL     1     -10.743 -32.917  29.245  1.00  0.00     0.012 C 
ATOM     16  C   UNL     1     -12.709 -38.545  31.899  1.00  0.00     0.039 C 
ENDROOT
TORSDOF 0
ENDMDL
MODEL 2
REMARK VINA RESULT:    -6.488      2.344      3.951
REMARK INTER + INTRA:          -6.488
REMARK INTER:                  -6.488
REMARK INTRA:                   0.000
REMARK UNBOUND:                 0.000
REMARK SMILES C=C1CCC[C@@]2(C)CC(=O)C(=C(C)C)C[C@@H]12
REMARK SMILES IDX 13 1 12 2 11 3 15 4 16 5 2 6 1 7 3 8 4 9 5 10 6 11 8 12 9 13
REMARK SMILES IDX 10 14 7 15 14 16
REMARK H PARENT
REMARK Flexibility Score: inf
ROOT
ATOM      1  C   UNL     1     -15.695 -32.554  32.370  1.00  0.00     0.039 C 
ATOM      2  C   UNL     1     -14.375 -32.940  32.998  1.00  0.00    -0.070 C 
ATOM      3  C   UNL     1     -13.406 -33.574  32.277  1.00  0.00    -0.006 C 
ATOM      4  C   UNL     1     -13.589 -33.925  30.814  1.00  0.00     0.047 C 
ATOM      5  C   UNL     1     -12.893 -35.249  30.406  1.00  0.00     0.025 C 
ATOM      6  C   UNL     1     -12.934 -35.374  28.892  1.00  0.00    -0.073 C 
ATOM      7  C   UNL     1     -13.875 -36.121  28.293  1.00  0.00     0.008 C 
ATOM      8  C   UNL     1     -11.995 -34.518  28.066  1.00  0.00     0.031 C 
ATOM      9  C   UNL     1     -10.563 -34.557  28.615  1.00  0.00     0.005 C 
ATOM     10  C   UNL     1     -10.504 -34.370  30.142  1.00  0.00     0.008 C 
ATOM     11  C   UNL     1     -11.419 -35.372  30.910  1.00  0.00    -0.018 C 
ATOM     12  C   UNL     1     -11.347 -35.098  32.435  1.00  0.00     0.088 C 
ATOM     13  C   UNL     1     -12.059 -33.844  32.830  1.00  0.00     0.159 C 
ATOM     14  O   UNL     1     -11.502 -33.038  33.622  1.00  0.00    -0.295 OA
ATOM     15  C   UNL     1     -10.911 -36.821  30.689  1.00  0.00     0.012 C 
ATOM     16  C   UNL     1     -14.190 -32.630  34.465  1.00  0.00     0.039 C 
ENDROOT
TORSDOF 0
ENDMDL
MODEL 3
REMARK VINA RESULT:    -6.028      2.343      4.693
REMARK INTER + INTRA:          -6.028
REMARK INTER:                  -6.028
REMARK INTRA:                   0.000
REMARK UNBOUND:                 0.000
REMARK SMILES C=C1CCC[C@@]2(C)CC(=O)C(=C(C)C)C[C@@H]12
REMARK SMILES IDX 13 1 12 2 11 3 15 4 16 5 2 6 1 7 3 8 4 9 5 10 6 11 8 12 9 13
REMARK SMILES IDX 10 14 7 15 14 16
REMARK H PARENT
REMARK Flexibility Score: inf
ROOT
ATOM      1  C   UNL     1     -15.933 -34.258  33.901  1.00  0.00     0.039 C 
ATOM      2  C   UNL     1     -15.143 -33.509  32.853  1.00  0.00    -0.070 C 
ATOM      3  C   UNL     1     -14.349 -34.167  31.960  1.00  0.00    -0.006 C 
ATOM      4  C   UNL     1     -14.214 -35.677  31.960  1.00  0.00     0.047 C 
ATOM      5  C   UNL     1     -12.801 -36.169  31.555  1.00  0.00     0.025 C 
ATOM      6  C   UNL     1     -12.849 -37.675  31.355  1.00  0.00    -0.073 C 
ATOM      7  C   UNL     1     -12.448 -38.506  32.330  1.00  0.00     0.008 C 
ATOM      8  C   UNL     1     -13.501 -38.222  30.102  1.00  0.00     0.031 C 
ATOM      9  C   UNL     1     -13.021 -37.484  28.845  1.00  0.00     0.005 C 
ATOM     10  C   UNL     1     -13.027 -35.953  29.015  1.00  0.00     0.008 C 
ATOM     11  C   UNL     1     -12.235 -35.481  30.271  1.00  0.00    -0.018 C 
ATOM     12  C   UNL     1     -12.320 -33.937  30.405  1.00  0.00     0.088 C 
ATOM     13  C   UNL     1     -13.671 -33.471  30.842  1.00  0.00     0.159 C 
ATOM     14  O   UNL     1     -14.211 -32.497  30.252  1.00  0.00    -0.295 OA
ATOM     15  C   UNL     1     -10.733 -35.835  30.109  1.00  0.00     0.012 C 
ATOM     16  C   UNL     1     -15.239 -32.001  32.860  1.00  0.00     0.039 C 
ENDROOT
TORSDOF 0
ENDMDL
MODEL 4
REMARK VINA RESULT:    -5.900      1.927      4.050
REMARK INTER + INTRA:          -5.900
REMARK INTER:                  -5.900
REMARK INTRA:                   0.000
REMARK UNBOUND:                 0.000
REMARK SMILES C=C1CCC[C@@]2(C)CC(=O)C(=C(C)C)C[C@@H]12
REMARK SMILES IDX 13 1 12 2 11 3 15 4 16 5 2 6 1 7 3 8 4 9 5 10 6 11 8 12 9 13
REMARK SMILES IDX 10 14 7 15 14 16
REMARK H PARENT
REMARK Flexibility Score: inf
ROOT
ATOM      1  C   UNL     1     -15.590 -31.475  30.345  1.00  0.00     0.039 C 
ATOM      2  C   UNL     1     -15.122 -32.414  31.433  1.00  0.00    -0.070 C 
ATOM      3  C   UNL     1     -14.093 -33.285  31.223  1.00  0.00    -0.006 C 
ATOM      4  C   UNL     1     -13.359 -33.362  29.899  1.00  0.00     0.047 C 
ATOM      5  C   UNL     1     -12.888 -34.794  29.539  1.00  0.00     0.025 C 
ATOM      6  C   UNL     1     -11.966 -34.714  28.332  1.00  0.00    -0.073 C 
ATOM      7  C   UNL     1     -12.434 -34.961  27.099  1.00  0.00     0.008 C 
ATOM      8  C   UNL     1     -10.556 -34.198  28.528  1.00  0.00     0.031 C 
ATOM      9  C   UNL     1      -9.875 -34.854  29.737  1.00  0.00     0.005 C 
ATOM     10  C   UNL     1     -10.778 -34.886  30.984  1.00  0.00     0.008 C 
ATOM     11  C   UNL     1     -12.167 -35.537  30.709  1.00  0.00    -0.018 C 
ATOM     12  C   UNL     1     -13.039 -35.495  31.992  1.00  0.00     0.088 C 
ATOM     13  C   UNL     1     -13.530 -34.119  32.309  1.00  0.00     0.159 C 
ATOM     14  O   UNL     1     -13.454 -33.692  33.492  1.00  0.00    -0.295 OA
ATOM     15  C   UNL     1     -11.982 -37.034  30.341  1.00  0.00     0.012 C 
ATOM     16  C   UNL     1     -15.865 -32.375  32.748  1.00  0.00     0.039 C 
ENDROOT
TORSDOF 0
ENDMDL
MODEL 5
REMARK VINA RESULT:    -5.747      2.234      4.719
REMARK INTER + INTRA:          -5.747
REMARK INTER:                  -5.747
REMARK INTRA:                   0.000
REMARK UNBOUND:                 0.000
REMARK SMILES C=C1CCC[C@@]2(C)CC(=O)C(=C(C)C)C[C@@H]12
REMARK SMILES IDX 13 1 12 2 11 3 15 4 16 5 2 6 1 7 3 8 4 9 5 10 6 11 8 12 9 13
REMARK SMILES IDX 10 14 7 15 14 16
REMARK H PARENT
REMARK Flexibility Score: inf
ROOT
ATOM      1  C   UNL     1     -14.026 -34.103  26.448  1.00  0.00     0.039 C 
ATOM      2  C   UNL     1     -12.561 -34.359  26.718  1.00  0.00    -0.070 C 
ATOM      3  C   UNL     1     -12.119 -34.695  27.964  1.00  0.00    -0.006 C 
ATOM      4  C   UNL     1     -13.060 -34.833  29.144  1.00  0.00     0.047 C 
ATOM      5  C   UNL     1     -12.430 -34.392  30.489  1.00  0.00     0.025 C 
ATOM      6  C   UNL     1     -13.362 -34.797  31.620  1.00  0.00    -0.073 C 
ATOM      7  C   UNL     1     -14.212 -33.908  32.156  1.00  0.00     0.008 C 
ATOM      8  C   UNL     1     -13.426 -36.256  32.021  1.00  0.00     0.031 C 
ATOM      9  C   UNL     1     -12.025 -36.863  32.177  1.00  0.00     0.005 C 
ATOM     10  C   UNL     1     -11.089 -36.509  31.007  1.00  0.00     0.008 C 
ATOM     11  C   UNL     1     -11.003 -34.975  30.743  1.00  0.00    -0.018 C 
ATOM     12  C   UNL     1     -10.082 -34.695  29.526  1.00  0.00     0.088 C 
ATOM     13  C   UNL     1     -10.713 -35.079  28.226  1.00  0.00     0.159 C 
ATOM     14  O   UNL     1     -10.040 -35.725  27.379  1.00  0.00    -0.295 OA
ATOM     15  C   UNL     1     -10.359 -34.268  31.965  1.00  0.00     0.012 C 
ATOM     16  C   UNL     1     -11.604 -34.191  25.560  1.00  0.00     0.039 C 
ENDROOT
TORSDOF 0
ENDMDL
MODEL 6
REMARK VINA RESULT:    -5.406      2.074      5.151
REMARK INTER + INTRA:          -5.406
REMARK INTER:                  -5.406
REMARK INTRA:                   0.000
REMARK UNBOUND:                 0.000
REMARK SMILES C=C1CCC[C@@]2(C)CC(=O)C(=C(C)C)C[C@@H]12
REMARK SMILES IDX 13 1 12 2 11 3 15 4 16 5 2 6 1 7 3 8 4 9 5 10 6 11 8 12 9 13
REMARK SMILES IDX 10 14 7 15 14 16
REMARK H PARENT
REMARK Flexibility Score: inf
ROOT
ATOM      1  C   UNL     1     -15.496 -31.383  30.427  1.00  0.00     0.039 C 
ATOM      2  C   UNL     1     -14.791 -31.896  29.194  1.00  0.00    -0.070 C 
ATOM      3  C   UNL     1     -13.839 -32.871  29.276  1.00  0.00    -0.006 C 
ATOM      4  C   UNL     1     -13.436 -33.495  30.596  1.00  0.00     0.047 C 
ATOM      5  C   UNL     1     -11.936 -33.880  30.663  1.00  0.00     0.025 C 
ATOM      6  C   UNL     1     -11.701 -34.707  31.917  1.00  0.00    -0.073 C 
ATOM      7  C   UNL     1     -11.219 -34.136  33.032  1.00  0.00     0.008 C 
ATOM      8  C   UNL     1     -12.167 -36.148  31.935  1.00  0.00     0.031 C 
ATOM      9  C   UNL     1     -11.752 -36.894  30.660  1.00  0.00     0.005 C 
ATOM     10  C   UNL     1     -12.041 -36.091  29.379  1.00  0.00     0.008 C 
ATOM     11  C   UNL     1     -11.425 -34.660  29.410  1.00  0.00    -0.018 C 
ATOM     12  C   UNL     1     -11.793 -33.893  28.112  1.00  0.00     0.088 C 
ATOM     13  C   UNL     1     -13.230 -33.483  28.072  1.00  0.00     0.159 C 
ATOM     14  O   UNL     1     -13.898 -33.668  27.020  1.00  0.00    -0.295 OA
ATOM     15  C   UNL     1      -9.876 -34.756  29.450  1.00  0.00     0.012 C 
ATOM     16  C   UNL     1     -15.155 -31.260  27.872  1.00  0.00     0.039 C 
ENDROOT
TORSDOF 0
ENDMDL
MODEL 7
REMARK VINA RESULT:    -5.116      2.855      4.952
REMARK INTER + INTRA:          -5.116
REMARK INTER:                  -5.116
REMARK INTRA:                   0.000
REMARK UNBOUND:                 0.000
REMARK SMILES C=C1CCC[C@@]2(C)CC(=O)C(=C(C)C)C[C@@H]12
REMARK SMILES IDX 13 1 12 2 11 3 15 4 16 5 2 6 1 7 3 8 4 9 5 10 6 11 8 12 9 13
REMARK SMILES IDX 10 14 7 15 14 16
REMARK H PARENT
REMARK Flexibility Score: inf
ROOT
ATOM      1  C   UNL     1     -10.556 -32.417  35.161  1.00  0.00     0.039 C 
ATOM      2  C   UNL     1     -12.010 -32.431  34.749  1.00  0.00    -0.070 C 
ATOM      3  C   UNL     1     -12.426 -33.112  33.642  1.00  0.00    -0.006 C 
ATOM      4  C   UNL     1     -11.466 -33.893  32.767  1.00  0.00     0.047 C 
ATOM      5  C   UNL     1     -11.848 -33.873  31.264  1.00  0.00     0.025 C 
ATOM      6  C   UNL     1     -10.971 -34.872  30.527  1.00  0.00    -0.073 C 
ATOM      7  C   UNL     1      -9.875 -34.463  29.869  1.00  0.00     0.008 C 
ATOM      8  C   UNL     1     -11.267 -36.350  30.678  1.00  0.00     0.031 C 
ATOM      9  C   UNL     1     -12.762 -36.649  30.505  1.00  0.00     0.005 C 
ATOM     10  C   UNL     1     -13.659 -35.680  31.297  1.00  0.00     0.008 C 
ATOM     11  C   UNL     1     -13.354 -34.183  30.989  1.00  0.00    -0.018 C 
ATOM     12  C   UNL     1     -14.259 -33.265  31.852  1.00  0.00     0.088 C 
ATOM     13  C   UNL     1     -13.859 -33.251  33.292  1.00  0.00     0.159 C 
ATOM     14  O   UNL     1     -14.744 -33.361  34.183  1.00  0.00    -0.295 OA
ATOM     15  C   UNL     1     -13.687 -33.874  29.505  1.00  0.00     0.012 C 
ATOM     16  C   UNL     1     -12.976 -31.629  35.590  1.00  0.00     0.039 C 
ENDROOT
TORSDOF 0
ENDMDL
MODEL 8
REMARK VINA RESULT:    -3.968      1.956      4.640
REMARK INTER + INTRA:          -3.968
REMARK INTER:                  -3.968
REMARK INTRA:                   0.000
REMARK UNBOUND:                 0.000
REMARK SMILES C=C1CCC[C@@]2(C)CC(=O)C(=C(C)C)C[C@@H]12
REMARK SMILES IDX 13 1 12 2 11 3 15 4 16 5 2 6 1 7 3 8 4 9 5 10 6 11 8 12 9 13
REMARK SMILES IDX 10 14 7 15 14 16
REMARK H PARENT
REMARK Flexibility Score: inf
ROOT
ATOM      1  C   UNL     1     -12.362 -35.316  26.371  1.00  0.00     0.039 C 
ATOM      2  C   UNL     1     -13.098 -34.254  27.155  1.00  0.00    -0.070 C 
ATOM      3  C   UNL     1     -12.990 -34.174  28.513  1.00  0.00    -0.006 C 
ATOM      4  C   UNL     1     -12.130 -35.133  29.311  1.00  0.00     0.047 C 
ATOM      5  C   UNL     1     -12.714 -35.465  30.709  1.00  0.00     0.025 C 
ATOM      6  C   UNL     1     -11.667 -36.228  31.505  1.00  0.00    -0.073 C 
ATOM      7  C   UNL     1     -11.710 -37.567  31.582  1.00  0.00     0.008 C 
ATOM      8  C   UNL     1     -10.489 -35.465  32.074  1.00  0.00     0.031 C 
ATOM      9  C   UNL     1     -10.935 -34.179  32.783  1.00  0.00     0.005 C 
ATOM     10  C   UNL     1     -11.951 -33.367  31.959  1.00  0.00     0.008 C 
ATOM     11  C   UNL     1     -13.183 -34.211  31.514  1.00  0.00    -0.018 C 
ATOM     12  C   UNL     1     -14.139 -33.345  30.652  1.00  0.00     0.088 C 
ATOM     13  C   UNL     1     -13.593 -33.066  29.289  1.00  0.00     0.159 C 
ATOM     14  O   UNL     1     -13.652 -31.896  28.825  1.00  0.00    -0.295 OA
ATOM     15  C   UNL     1     -13.988 -34.663  32.762  1.00  0.00     0.012 C 
ATOM     16  C   UNL     1     -13.987 -33.312  26.378  1.00  0.00     0.039 C 
ENDROOT
TORSDOF 0
ENDMDL
