MODEL 1
REMARK VINA RESULT:    -3.703      0.000      0.000
REMARK INTER + INTRA:          -3.703
REMARK INTER:                  -3.703
REMARK INTRA:                   0.000
REMARK UNBOUND:                 0.000
REMARK SMILES CC1(C)O[C@]2(C)CC[C@H]1CC2
REMARK SMILES IDX 1 1 2 2 9 3 10 4 11 5 5 6 4 7 7 8 8 9 6 10 3 11
REMARK H PARENT
REMARK Flexibility Score: inf
ROOT
ATOM      1  C   UNL     1       8.597   1.287  -2.363  1.00  0.00     0.042 C 
ATOM      2  C   UNL     1       7.803   2.417  -1.673  1.00  0.00     0.066 C 
ATOM      3  C   UNL     1       6.253   2.229  -1.902  1.00  0.00     0.021 C 
ATOM      4  C   UNL     1       5.816   0.905  -1.232  1.00  0.00     0.009 C 
ATOM      5  C   UNL     1       6.314   0.886   0.233  1.00  0.00     0.035 C 
ATOM      6  C   UNL     1       7.005   2.240   0.572  1.00  0.00     0.066 C 
ATOM      7  O   UNL     1       8.140   2.412  -0.278  1.00  0.00    -0.369 OA
ATOM      8  C   UNL     1       5.998   3.398   0.319  1.00  0.00     0.035 C 
ATOM      9  C   UNL     1       5.507   3.357  -1.148  1.00  0.00     0.009 C 
ATOM     10  C   UNL     1       7.473   2.248   2.030  1.00  0.00     0.042 C 
ATOM     11  C   UNL     1       8.286   3.753  -2.278  1.00  0.00     0.042 C 
ENDROOT
TORSDOF 0
ENDMDL
MODEL 2
REMARK VINA RESULT:    -3.620      1.332      3.139
REMARK INTER + INTRA:          -3.620
REMARK INTER:                  -3.620
REMARK INTRA:                   0.000
REMARK UNBOUND:                 0.000
REMARK SMILES CC1(C)O[C@]2(C)CC[C@H]1CC2
REMARK SMILES IDX 1 1 2 2 9 3 10 4 11 5 5 6 4 7 7 8 8 9 6 10 3 11
REMARK H PARENT
REMARK Flexibility Score: inf
ROOT
ATOM      1  C   UNL     1       7.496   0.093  -1.942  1.00  0.00     0.042 C 
ATOM      2  C   UNL     1       6.663   1.033  -1.043  1.00  0.00     0.066 C 
ATOM      3  C   UNL     1       7.581   1.737   0.029  1.00  0.00     0.021 C 
ATOM      4  C   UNL     1       8.609   2.624  -0.711  1.00  0.00     0.009 C 
ATOM      5  C   UNL     1       7.863   3.546  -1.706  1.00  0.00     0.035 C 
ATOM      6  C   UNL     1       6.327   3.341  -1.563  1.00  0.00     0.066 C 
ATOM      7  O   UNL     1       6.003   1.987  -1.888  1.00  0.00    -0.369 OA
ATOM      8  C   UNL     1       5.913   3.625  -0.091  1.00  0.00     0.035 C 
ATOM      9  C   UNL     1       6.706   2.701   0.865  1.00  0.00     0.009 C 
ATOM     10  C   UNL     1       5.574   4.272  -2.519  1.00  0.00     0.042 C 
ATOM     11  C   UNL     1       5.582   0.172  -0.356  1.00  0.00     0.042 C 
ENDROOT
TORSDOF 0
ENDMDL
MODEL 3
REMARK VINA RESULT:    -3.616      1.258      2.394
REMARK INTER + INTRA:          -3.616
REMARK INTER:                  -3.616
REMARK INTRA:                   0.000
REMARK UNBOUND:                 0.000
REMARK SMILES CC1(C)O[C@]2(C)CC[C@H]1CC2
REMARK SMILES IDX 1 1 2 2 9 3 10 4 11 5 5 6 4 7 7 8 8 9 6 10 3 11
REMARK H PARENT
REMARK Flexibility Score: inf
ROOT
ATOM      1  C   UNL     1       6.973   3.343  -2.365  1.00  0.00     0.042 C 
ATOM      2  C   UNL     1       7.537   2.721  -1.069  1.00  0.00     0.066 C 
ATOM      3  C   UNL     1       6.713   3.205   0.186  1.00  0.00     0.021 C 
ATOM      4  C   UNL     1       5.259   2.697   0.044  1.00  0.00     0.009 C 
ATOM      5  C   UNL     1       5.276   1.175  -0.236  1.00  0.00     0.035 C 
ATOM      6  C   UNL     1       6.740   0.647  -0.189  1.00  0.00     0.066 C 
ATOM      7  O   UNL     1       7.504   1.292  -1.210  1.00  0.00    -0.369 OA
ATOM      8  C   UNL     1       7.355   0.986   1.199  1.00  0.00     0.035 C 
ATOM      9  C   UNL     1       7.287   2.513   1.445  1.00  0.00     0.009 C 
ATOM     10  C   UNL     1       6.769  -0.865  -0.431  1.00  0.00     0.042 C 
ATOM     11  C   UNL     1       9.013   3.157  -0.956  1.00  0.00     0.042 C 
ENDROOT
TORSDOF 0
ENDMDL
MODEL 4
REMARK VINA RESULT:    -3.598      0.890      3.166
REMARK INTER + INTRA:          -3.598
REMARK INTER:                  -3.598
REMARK INTRA:                   0.000
REMARK UNBOUND:                 0.000
REMARK SMILES CC1(C)O[C@]2(C)CC[C@H]1CC2
REMARK SMILES IDX 1 1 2 2 9 3 10 4 11 5 5 6 4 7 7 8 8 9 6 10 3 11
REMARK H PARENT
REMARK Flexibility Score: inf
ROOT
ATOM      1  C   UNL     1       7.458   2.182   1.831  1.00  0.00     0.042 C 
ATOM      2  C   UNL     1       7.306   1.546   0.432  1.00  0.00     0.066 C 
ATOM      3  C   UNL     1       5.783   1.363   0.065  1.00  0.00     0.021 C 
ATOM      4  C   UNL     1       5.125   2.761  -0.008  1.00  0.00     0.009 C 
ATOM      5  C   UNL     1       5.964   3.671  -0.937  1.00  0.00     0.035 C 
ATOM      6  C   UNL     1       7.132   2.854  -1.561  1.00  0.00     0.066 C 
ATOM      7  O   UNL     1       7.986   2.384  -0.515  1.00  0.00    -0.369 OA
ATOM      8  C   UNL     1       6.544   1.633  -2.325  1.00  0.00     0.035 C 
ATOM      9  C   UNL     1       5.691   0.772  -1.363  1.00  0.00     0.009 C 
ATOM     10  C   UNL     1       7.951   3.734  -2.510  1.00  0.00     0.042 C 
ATOM     11  C   UNL     1       8.028   0.182   0.467  1.00  0.00     0.042 C 
ENDROOT
TORSDOF 0
ENDMDL
MODEL 5
REMARK VINA RESULT:    -3.445      1.160      3.072
REMARK INTER + INTRA:          -3.445
REMARK INTER:                  -3.445
REMARK INTRA:                   0.000
REMARK UNBOUND:                 0.000
REMARK SMILES CC1(C)O[C@]2(C)CC[C@H]1CC2
REMARK SMILES IDX 1 1 2 2 9 3 10 4 11 5 5 6 4 7 7 8 8 9 6 10 3 11
REMARK H PARENT
REMARK Flexibility Score: inf
ROOT
ATOM      1  C   UNL     1       9.039   3.412  -1.044  1.00  0.00     0.042 C 
ATOM      2  C   UNL     1       8.189   2.137  -0.859  1.00  0.00     0.066 C 
ATOM      3  C   UNL     1       7.156   2.321   0.319  1.00  0.00     0.021 C 
ATOM      4  C   UNL     1       6.178   3.458  -0.061  1.00  0.00     0.009 C 
ATOM      5  C   UNL     1       5.593   3.179  -1.466  1.00  0.00     0.035 C 
ATOM      6  C   UNL     1       6.109   1.807  -1.988  1.00  0.00     0.066 C 
ATOM      7  O   UNL     1       7.532   1.854  -2.104  1.00  0.00    -0.369 OA
ATOM      8  C   UNL     1       5.717   0.698  -0.970  1.00  0.00     0.035 C 
ATOM      9  C   UNL     1       6.299   1.037   0.424  1.00  0.00     0.009 C 
ATOM     10  C   UNL     1       5.511   1.502  -3.365  1.00  0.00     0.042 C 
ATOM     11  C   UNL     1       9.161   0.976  -0.557  1.00  0.00     0.042 C 
ENDROOT
TORSDOF 0
ENDMDL
MODEL 6
REMARK VINA RESULT:    -3.433      1.322      2.590
REMARK INTER + INTRA:          -3.433
REMARK INTER:                  -3.433
REMARK INTRA:                   0.000
REMARK UNBOUND:                 0.000
REMARK SMILES CC1(C)O[C@]2(C)CC[C@H]1CC2
REMARK SMILES IDX 1 1 2 2 9 3 10 4 11 5 5 6 4 7 7 8 8 9 6 10 3 11
REMARK H PARENT
REMARK Flexibility Score: inf
ROOT
ATOM      1  C   UNL     1       7.301  -0.783  -1.172  1.00  0.00     0.042 C 
ATOM      2  C   UNL     1       6.639   0.606  -1.302  1.00  0.00     0.066 C 
ATOM      3  C   UNL     1       6.016   1.057   0.075  1.00  0.00     0.021 C 
ATOM      4  C   UNL     1       7.159   1.204   1.106  1.00  0.00     0.009 C 
ATOM      5  C   UNL     1       8.269   2.105   0.512  1.00  0.00     0.035 C 
ATOM      6  C   UNL     1       7.825   2.637  -0.881  1.00  0.00     0.066 C 
ATOM      7  O   UNL     1       7.633   1.532  -1.766  1.00  0.00    -0.369 OA
ATOM      8  C   UNL     1       6.480   3.404  -0.725  1.00  0.00     0.035 C 
ATOM      9  C   UNL     1       5.413   2.472  -0.101  1.00  0.00     0.009 C 
ATOM     10  C   UNL     1       8.900   3.558  -1.467  1.00  0.00     0.042 C 
ATOM     11  C   UNL     1       5.546   0.493  -2.386  1.00  0.00     0.042 C 
ENDROOT
TORSDOF 0
ENDMDL
MODEL 7
REMARK VINA RESULT:    -3.403      1.454      2.969
REMARK INTER + INTRA:          -3.403
REMARK INTER:                  -3.403
REMARK INTRA:                   0.000
REMARK UNBOUND:                 0.000
REMARK SMILES CC1(C)O[C@]2(C)CC[C@H]1CC2
REMARK SMILES IDX 1 1 2 2 9 3 10 4 11 5 5 6 4 7 7 8 8 9 6 10 3 11
REMARK H PARENT
REMARK Flexibility Score: inf
ROOT
ATOM      1  C   UNL     1       9.236   0.753   0.904  1.00  0.00     0.042 C 
ATOM      2  C   UNL     1       7.846   1.418   1.010  1.00  0.00     0.066 C 
ATOM      3  C   UNL     1       7.741   2.649   0.028  1.00  0.00     0.021 C 
ATOM      4  C   UNL     1       7.878   2.132  -1.423  1.00  0.00     0.009 C 
ATOM      5  C   UNL     1       6.878   0.971  -1.647  1.00  0.00     0.035 C 
ATOM      6  C   UNL     1       6.007   0.774  -0.372  1.00  0.00     0.066 C 
ATOM      7  O   UNL     1       6.853   0.422   0.724  1.00  0.00    -0.369 OA
ATOM      8  C   UNL     1       5.278   2.109  -0.046  1.00  0.00     0.035 C 
ATOM      9  C   UNL     1       6.316   3.242   0.139  1.00  0.00     0.009 C 
ATOM     10  C   UNL     1       4.989  -0.350  -0.592  1.00  0.00     0.042 C 
ATOM     11  C   UNL     1       7.664   1.870   2.475  1.00  0.00     0.042 C 
ENDROOT
TORSDOF 0
ENDMDL
MODEL 8
REMARK VINA RESULT:    -3.342      0.996      2.201
REMARK INTER + INTRA:          -3.342
REMARK INTER:                  -3.342
REMARK INTRA:                   0.000
REMARK UNBOUND:                 0.000
REMARK SMILES CC1(C)O[C@]2(C)CC[C@H]1CC2
REMARK SMILES IDX 1 1 2 2 9 3 10 4 11 5 5 6 4 7 7 8 8 9 6 10 3 11
REMARK H PARENT
REMARK Flexibility Score: inf
ROOT
ATOM      1  C   UNL     1       5.442   0.218  -1.975  1.00  0.00     0.042 C 
ATOM      2  C   UNL     1       6.755   1.005  -1.770  1.00  0.00     0.066 C 
ATOM      3  C   UNL     1       6.595   2.493  -2.267  1.00  0.00     0.021 C 
ATOM      4  C   UNL     1       5.520   3.188  -1.399  1.00  0.00     0.009 C 
ATOM      5  C   UNL     1       5.861   2.983   0.096  1.00  0.00     0.035 C 
ATOM      6  C   UNL     1       7.218   2.231   0.228  1.00  0.00     0.066 C 
ATOM      7  O   UNL     1       7.100   0.942  -0.378  1.00  0.00    -0.369 OA
ATOM      8  C   UNL     1       8.320   3.042  -0.510  1.00  0.00     0.035 C 
ATOM      9  C   UNL     1       7.919   3.246  -1.991  1.00  0.00     0.009 C 
ATOM     10  C   UNL     1       7.585   2.051   1.704  1.00  0.00     0.042 C 
ATOM     11  C   UNL     1       7.856   0.276  -2.569  1.00  0.00     0.042 C 
ENDROOT
TORSDOF 0
ENDMDL
MODEL 9
REMARK VINA RESULT:    -3.288      1.133      3.372
REMARK INTER + INTRA:          -3.288
REMARK INTER:                  -3.288
REMARK INTRA:                   0.000
REMARK UNBOUND:                 0.000
REMARK SMILES CC1(C)O[C@]2(C)CC[C@H]1CC2
REMARK SMILES IDX 1 1 2 2 9 3 10 4 11 5 5 6 4 7 7 8 8 9 6 10 3 11
REMARK H PARENT
REMARK Flexibility Score: inf
ROOT
ATOM      1  C   UNL     1       5.273   3.047  -0.016  1.00  0.00     0.042 C 
ATOM      2  C   UNL     1       6.395   2.197  -0.652  1.00  0.00     0.066 C 
ATOM      3  C   UNL     1       6.023   1.803  -2.134  1.00  0.00     0.021 C 
ATOM      4  C   UNL     1       5.915   3.098  -2.973  1.00  0.00     0.009 C 
ATOM      5  C   UNL     1       7.197   3.943  -2.774  1.00  0.00     0.035 C 
ATOM      6  C   UNL     1       8.204   3.168  -1.874  1.00  0.00     0.066 C 
ATOM      7  O   UNL     1       7.614   2.952  -0.591  1.00  0.00    -0.369 OA
ATOM      8  C   UNL     1       8.515   1.793  -2.531  1.00  0.00     0.035 C 
ATOM      9  C   UNL     1       7.201   1.000  -2.736  1.00  0.00     0.009 C 
ATOM     10  C   UNL     1       9.491   3.978  -1.697  1.00  0.00     0.042 C 
ATOM     11  C   UNL     1       6.567   0.937   0.222  1.00  0.00     0.042 C 
ENDROOT
TORSDOF 0
ENDMDL
