MODEL 1
REMARK VINA RESULT:    -2.800      0.000      0.000
REMARK INTER + INTRA:          -3.664
REMARK INTER:                  -3.536
REMARK INTRA:                  -0.128
REMARK UNBOUND:                -0.128
REMARK SMILES CCCCC[C@H](C)O
REMARK SMILES IDX 4 1 3 2 2 3 1 4 5 5 6 6 7 7 8 8
REMARK H PARENT 8 9
REMARK Flexibility Score: inf
ROOT
ATOM      1  C   UNL     1     118.654 111.910 117.460  1.00  0.00     0.003 C 
ENDROOT
BRANCH   1   2
ATOM      2  C   UNL     1     120.098 111.477 117.158  1.00  0.00    -0.000 C 
BRANCH   2   3
ATOM      3  C   UNL     1     120.300 109.960 117.286  1.00  0.00    -0.003 C 
ATOM      4  C   UNL     1     119.156 109.196 116.624  1.00  0.00     0.004 C 
ENDBRANCH   2   3
ENDBRANCH   1   2
BRANCH   1   5
ATOM      5  C   UNL     1     118.578 113.302 118.109  1.00  0.00     0.031 C 
BRANCH   5   6
ATOM      6  C   UNL     1     117.833 113.258 119.458  1.00  0.00     0.111 C 
ATOM      7  C   UNL     1     118.238 114.435 120.352  1.00  0.00     0.038 C 
BRANCH   6   8
ATOM      8  O   UNL     1     118.059 112.041 120.125  1.00  0.00    -0.393 OA
ATOM      9  H   UNL     1     119.041 111.925 120.213  1.00  0.00     0.210 HD
ENDBRANCH   6   8
ENDBRANCH   5   6
ENDBRANCH   1   5
TORSDOF 5
ENDMDL
MODEL 2
REMARK VINA RESULT:    -2.798      5.789      7.372
REMARK INTER + INTRA:          -3.661
REMARK INTER:                  -3.459
REMARK INTRA:                  -0.203
REMARK UNBOUND:                -0.128
REMARK SMILES CCCCC[C@H](C)O
REMARK SMILES IDX 4 1 3 2 2 3 1 4 5 5 6 6 7 7 8 8
REMARK H PARENT 8 9
REMARK Flexibility Score: inf
ROOT
ATOM      1  C   UNL     1     115.058 117.067 120.659  1.00  0.00     0.003 C 
ENDROOT
BRANCH   1   2
ATOM      2  C   UNL     1     114.016 116.419 119.733  1.00  0.00    -0.000 C 
BRANCH   2   3
ATOM      3  C   UNL     1     114.432 115.018 119.262  1.00  0.00    -0.003 C 
ATOM      4  C   UNL     1     115.744 114.588 119.910  1.00  0.00     0.004 C 
ENDBRANCH   2   3
ENDBRANCH   1   2
BRANCH   1   5
ATOM      5  C   UNL     1     114.796 118.565 120.886  1.00  0.00     0.031 C 
BRANCH   5   6
ATOM      6  C   UNL     1     115.381 119.423 119.746  1.00  0.00     0.111 C 
ATOM      7  C   UNL     1     116.817 119.002 119.419  1.00  0.00     0.038 C 
BRANCH   6   8
ATOM      8  O   UNL     1     115.335 120.792 120.065  1.00  0.00    -0.393 OA
ATOM      9  H   UNL     1     114.795 121.245 119.366  1.00  0.00     0.210 HD
ENDBRANCH   6   8
ENDBRANCH   5   6
ENDBRANCH   1   5
TORSDOF 5
ENDMDL
MODEL 3
REMARK VINA RESULT:    -2.795      4.170      5.551
REMARK INTER + INTRA:          -3.657
REMARK INTER:                  -3.456
REMARK INTRA:                  -0.201
REMARK UNBOUND:                -0.128
REMARK SMILES CCCCC[C@H](C)O
REMARK SMILES IDX 4 1 3 2 2 3 1 4 5 5 6 6 7 7 8 8
REMARK H PARENT 8 9
REMARK Flexibility Score: inf
ROOT
ATOM      1  C   UNL     1     116.101 115.088 120.607  1.00  0.00     0.003 C 
ENDROOT
BRANCH   1   2
ATOM      2  C   UNL     1     116.745 114.029 119.698  1.00  0.00    -0.000 C 
BRANCH   2   3
ATOM      3  C   UNL     1     118.131 114.449 119.188  1.00  0.00    -0.003 C 
ATOM      4  C   UNL     1     118.590 115.745 119.850  1.00  0.00     0.004 C 
ENDBRANCH   2   3
ENDBRANCH   1   2
BRANCH   1   5
ATOM      5  C   UNL     1     114.613 114.812 120.876  1.00  0.00     0.031 C 
BRANCH   5   6
ATOM      6  C   UNL     1     113.721 115.358 119.743  1.00  0.00     0.111 C 
ATOM      7  C   UNL     1     114.131 116.782 119.354  1.00  0.00     0.038 C 
BRANCH   6   8
ATOM      8  O   UNL     1     112.362 115.325 120.105  1.00  0.00    -0.393 OA
ATOM      9  H   UNL     1     112.210 116.050 120.767  1.00  0.00     0.210 HD
ENDBRANCH   6   8
ENDBRANCH   5   6
ENDBRANCH   1   5
TORSDOF 5
ENDMDL
MODEL 4
REMARK VINA RESULT:    -2.794      6.731      7.918
REMARK INTER + INTRA:          -3.657
REMARK INTER:                  -3.360
REMARK INTRA:                  -0.297
REMARK UNBOUND:                -0.128
REMARK SMILES CCCCC[C@H](C)O
REMARK SMILES IDX 4 1 3 2 2 3 1 4 5 5 6 6 7 7 8 8
REMARK H PARENT 8 9
REMARK Flexibility Score: inf
ROOT
ATOM      1  C   UNL     1     116.070 116.800 120.979  1.00  0.00     0.003 C 
ENDROOT
BRANCH   1   2
ATOM      2  C   UNL     1     115.266 118.105 121.097  1.00  0.00    -0.000 C 
BRANCH   2   3
ATOM      3  C   UNL     1     114.803 118.640 119.734  1.00  0.00    -0.003 C 
ATOM      4  C   UNL     1     115.193 120.104 119.557  1.00  0.00     0.004 C 
ENDBRANCH   2   3
ENDBRANCH   1   2
BRANCH   1   5
ATOM      5  C   UNL     1     117.478 116.916 121.588  1.00  0.00     0.031 C 
BRANCH   5   6
ATOM      6  C   UNL     1     118.120 118.283 121.275  1.00  0.00     0.111 C 
ATOM      7  C   UNL     1     119.043 118.193 120.054  1.00  0.00     0.038 C 
BRANCH   6   8
ATOM      8  O   UNL     1     118.829 118.778 122.384  1.00  0.00    -0.393 OA
ATOM      9  H   UNL     1     119.501 119.426 122.047  1.00  0.00     0.210 HD
ENDBRANCH   6   8
ENDBRANCH   5   6
ENDBRANCH   1   5
TORSDOF 5
ENDMDL
MODEL 5
REMARK VINA RESULT:    -2.779      6.231      7.134
REMARK INTER + INTRA:          -3.637
REMARK INTER:                  -3.335
REMARK INTRA:                  -0.302
REMARK UNBOUND:                -0.128
REMARK SMILES CCCCC[C@H](C)O
REMARK SMILES IDX 4 1 3 2 2 3 1 4 5 5 6 6 7 7 8 8
REMARK H PARENT 8 9
REMARK Flexibility Score: inf
ROOT
ATOM      1  C   UNL     1     116.418 116.072 121.299  1.00  0.00     0.003 C 
ENDROOT
BRANCH   1   2
ATOM      2  C   UNL     1     115.083 115.312 121.320  1.00  0.00    -0.000 C 
BRANCH   2   3
ATOM      3  C   UNL     1     114.657 114.823 119.927  1.00  0.00    -0.003 C 
ATOM      4  C   UNL     1     113.223 115.238 119.615  1.00  0.00     0.004 C 
ENDBRANCH   2   3
ENDBRANCH   1   2
BRANCH   1   5
ATOM      5  C   UNL     1     116.285 117.517 121.809  1.00  0.00     0.031 C 
BRANCH   5   6
ATOM      6  C   UNL     1     114.918 118.125 121.439  1.00  0.00     0.111 C 
ATOM      7  C   UNL     1     115.027 119.014 120.195  1.00  0.00     0.038 C 
BRANCH   6   8
ATOM      8  O   UNL     1     114.379 118.856 122.513  1.00  0.00    -0.393 OA
ATOM      9  H   UNL     1     114.165 118.211 123.237  1.00  0.00     0.210 HD
ENDBRANCH   6   8
ENDBRANCH   5   6
ENDBRANCH   1   5
TORSDOF 5
ENDMDL
MODEL 6
REMARK VINA RESULT:    -2.763      3.908      4.976
REMARK INTER + INTRA:          -3.618
REMARK INTER:                  -3.272
REMARK INTRA:                  -0.346
REMARK UNBOUND:                -0.128
REMARK SMILES CCCCC[C@H](C)O
REMARK SMILES IDX 4 1 3 2 2 3 1 4 5 5 6 6 7 7 8 8
REMARK H PARENT 8 9
REMARK Flexibility Score: inf
ROOT
ATOM      1  C   UNL     1     117.931 114.724 119.284  1.00  0.00     0.003 C 
ENDROOT
BRANCH   1   2
ATOM      2  C   UNL     1     116.618 114.013 119.650  1.00  0.00    -0.000 C 
BRANCH   2   3
ATOM      3  C   UNL     1     115.382 114.714 119.069  1.00  0.00    -0.003 C 
ATOM      4  C   UNL     1     114.399 115.098 120.171  1.00  0.00     0.004 C 
ENDBRANCH   2   3
ENDBRANCH   1   2
BRANCH   1   5
ATOM      5  C   UNL     1     118.481 115.580 120.436  1.00  0.00     0.031 C 
BRANCH   5   6
ATOM      6  C   UNL     1     117.866 115.172 121.790  1.00  0.00     0.111 C 
ATOM      7  C   UNL     1     117.364 116.398 122.561  1.00  0.00     0.038 C 
BRANCH   6   8
ATOM      8  O   UNL     1     118.788 114.451 122.570  1.00  0.00    -0.393 OA
ATOM      9  H   UNL     1     119.671 114.897 122.482  1.00  0.00     0.210 HD
ENDBRANCH   6   8
ENDBRANCH   5   6
ENDBRANCH   1   5
TORSDOF 5
ENDMDL
MODEL 7
REMARK VINA RESULT:    -2.757      5.265      7.398
REMARK INTER + INTRA:          -3.611
REMARK INTER:                  -3.423
REMARK INTRA:                  -0.187
REMARK UNBOUND:                -0.128
REMARK SMILES CCCCC[C@H](C)O
REMARK SMILES IDX 4 1 3 2 2 3 1 4 5 5 6 6 7 7 8 8
REMARK H PARENT 8 9
REMARK Flexibility Score: inf
ROOT
ATOM      1  C   UNL     1     116.978 118.053 120.492  1.00  0.00     0.003 C 
ENDROOT
BRANCH   1   2
ATOM      2  C   UNL     1     116.208 119.146 119.734  1.00  0.00    -0.000 C 
BRANCH   2   3
ATOM      3  C   UNL     1     114.828 118.674 119.252  1.00  0.00    -0.003 C 
ATOM      4  C   UNL     1     114.471 117.319 119.855  1.00  0.00     0.004 C 
ENDBRANCH   2   3
ENDBRANCH   1   2
BRANCH   1   5
ATOM      5  C   UNL     1     118.457 118.413 120.707  1.00  0.00     0.031 C 
BRANCH   5   6
ATOM      6  C   UNL     1     119.368 117.706 119.684  1.00  0.00     0.111 C 
ATOM      7  C   UNL     1     118.937 116.250 119.474  1.00  0.00     0.038 C 
BRANCH   6   8
ATOM      8  O   UNL     1     120.716 117.761 120.080  1.00  0.00    -0.393 OA
ATOM      9  H   UNL     1     120.738 118.026 121.037  1.00  0.00     0.210 HD
ENDBRANCH   6   8
ENDBRANCH   5   6
ENDBRANCH   1   5
TORSDOF 5
ENDMDL
MODEL 8
REMARK VINA RESULT:    -2.752      2.659      5.096
REMARK INTER + INTRA:          -3.603
REMARK INTER:                  -3.198
REMARK INTRA:                  -0.405
REMARK UNBOUND:                -0.128
REMARK SMILES CCCCC[C@H](C)O
REMARK SMILES IDX 4 1 3 2 2 3 1 4 5 5 6 6 7 7 8 8
REMARK H PARENT 8 9
REMARK Flexibility Score: inf
ROOT
ATOM      1  C   UNL     1     117.823 115.009 120.902  1.00  0.00     0.003 C 
ENDROOT
BRANCH   1   2
ATOM      2  C   UNL     1     116.539 115.848 120.803  1.00  0.00    -0.000 C 
BRANCH   2   3
ATOM      3  C   UNL     1     115.267 115.009 120.989  1.00  0.00    -0.003 C 
ATOM      4  C   UNL     1     114.524 114.838 119.668  1.00  0.00     0.004 C 
ENDBRANCH   2   3
ENDBRANCH   1   2
BRANCH   1   5
ATOM      5  C   UNL     1     118.486 114.779 119.534  1.00  0.00     0.031 C 
BRANCH   5   6
ATOM      6  C   UNL     1     118.276 113.335 119.037  1.00  0.00     0.111 C 
ATOM      7  C   UNL     1     117.355 113.300 117.813  1.00  0.00     0.038 C 
BRANCH   6   8
ATOM      8  O   UNL     1     117.759 112.516 120.058  1.00  0.00    -0.393 OA
ATOM      9  H   UNL     1     118.425 112.498 120.794  1.00  0.00     0.210 HD
ENDBRANCH   6   8
ENDBRANCH   5   6
ENDBRANCH   1   5
TORSDOF 5
ENDMDL
MODEL 9
REMARK VINA RESULT:    -2.739      4.282      5.953
REMARK INTER + INTRA:          -3.587
REMARK INTER:                  -3.227
REMARK INTRA:                  -0.360
REMARK UNBOUND:                -0.128
REMARK SMILES CCCCC[C@H](C)O
REMARK SMILES IDX 4 1 3 2 2 3 1 4 5 5 6 6 7 7 8 8
REMARK H PARENT 8 9
REMARK Flexibility Score: inf
ROOT
ATOM      1  C   UNL     1     115.347 116.231 120.032  1.00  0.00     0.003 C 
ENDROOT
BRANCH   1   2
ATOM      2  C   UNL     1     115.646 114.772 120.410  1.00  0.00    -0.000 C 
BRANCH   2   3
ATOM      3  C   UNL     1     116.900 114.225 119.712  1.00  0.00    -0.003 C 
ATOM      4  C   UNL     1     116.664 114.052 118.215  1.00  0.00     0.004 C 
ENDBRANCH   2   3
ENDBRANCH   1   2
BRANCH   1   5
ATOM      5  C   UNL     1     113.967 116.400 119.374  1.00  0.00     0.031 C 
BRANCH   5   6
ATOM      6  C   UNL     1     113.204 115.063 119.306  1.00  0.00     0.111 C 
ATOM      7  C   UNL     1     112.862 114.694 117.858  1.00  0.00     0.038 C 
BRANCH   6   8
ATOM      8  O   UNL     1     112.034 115.105 120.085  1.00  0.00    -0.393 OA
ATOM      9  H   UNL     1     112.230 114.650 120.946  1.00  0.00     0.210 HD
ENDBRANCH   6   8
ENDBRANCH   5   6
ENDBRANCH   1   5
TORSDOF 5
ENDMDL
