MODEL 1
REMARK VINA RESULT:    -3.787      0.000      0.000
REMARK INTER + INTRA:          -4.809
REMARK INTER:                  -4.672
REMARK INTRA:                  -0.137
REMARK UNBOUND:                -0.137
REMARK SMILES CCCCCC(=O)[O-]
REMARK SMILES IDX 4 1 5 2 6 3 7 4 8 5 3 6 2 7 1 8
REMARK H PARENT
REMARK Flexibility Score: inf
ROOT
ATOM      1  C   UNL     1       7.135  26.181 109.968  1.00  0.00     0.006 C 
ENDROOT
BRANCH   1   2
ATOM      2  C   UNL     1       7.391  26.253 111.479  1.00  0.00     0.053 C 
BRANCH   2   3
ATOM      3  C   UNL     1       7.876  24.932 111.990  1.00  0.00     0.041 C 
ATOM      4  O   UNL     1       7.164  23.903 111.857  1.00  0.00    -0.550 OA
ATOM      5  O   UNL     1       9.091  24.848 112.657  1.00  0.00    -0.550 OA
ENDBRANCH   2   3
ENDBRANCH   1   2
BRANCH   1   6
ATOM      6  C   UNL     1       8.403  25.847 109.161  1.00  0.00     0.000 C 
BRANCH   6   7
ATOM      7  C   UNL     1       8.158  25.521 107.678  1.00  0.00    -0.003 C 
ATOM      8  C   UNL     1       6.927  26.223 107.107  1.00  0.00     0.004 C 
ENDBRANCH   6   7
ENDBRANCH   1   6
TORSDOF 4
ENDMDL
MODEL 2
REMARK VINA RESULT:    -3.650      1.742      2.190
REMARK INTER + INTRA:          -4.641
REMARK INTER:                  -4.494
REMARK INTRA:                  -0.147
REMARK UNBOUND:                -0.137
REMARK SMILES CCCCCC(=O)[O-]
REMARK SMILES IDX 4 1 5 2 6 3 7 4 8 5 3 6 2 7 1 8
REMARK H PARENT
REMARK Flexibility Score: inf
ROOT
ATOM      1  C   UNL     1       7.743  25.336 109.319  1.00  0.00     0.006 C 
ENDROOT
BRANCH   1   2
ATOM      2  C   UNL     1       8.195  26.279 110.442  1.00  0.00     0.053 C 
BRANCH   2   3
ATOM      3  C   UNL     1       7.027  26.685 111.285  1.00  0.00     0.041 C 
ATOM      4  O   UNL     1       7.095  26.606 112.540  1.00  0.00    -0.550 OA
ATOM      5  O   UNL     1       5.847  27.103 110.684  1.00  0.00    -0.550 OA
ENDBRANCH   2   3
ENDBRANCH   1   2
BRANCH   1   6
ATOM      6  C   UNL     1       8.444  25.622 107.979  1.00  0.00     0.000 C 
BRANCH   6   7
ATOM      7  C   UNL     1       7.499  25.981 106.819  1.00  0.00    -0.003 C 
ATOM      8  C   UNL     1       6.223  26.684 107.283  1.00  0.00     0.004 C 
ENDBRANCH   6   7
ENDBRANCH   1   6
TORSDOF 4
ENDMDL
MODEL 3
REMARK VINA RESULT:    -3.411      2.936      3.290
REMARK INTER + INTRA:          -4.345
REMARK INTER:                  -4.156
REMARK INTRA:                  -0.189
REMARK UNBOUND:                -0.137
REMARK SMILES CCCCCC(=O)[O-]
REMARK SMILES IDX 4 1 5 2 6 3 7 4 8 5 3 6 2 7 1 8
REMARK H PARENT
REMARK Flexibility Score: inf
ROOT
ATOM      1  C   UNL     1       6.954  26.402 110.153  1.00  0.00     0.006 C 
ENDROOT
BRANCH   1   2
ATOM      2  C   UNL     1       5.689  25.878 110.846  1.00  0.00     0.053 C 
BRANCH   2   3
ATOM      3  C   UNL     1       4.465  26.345 110.123  1.00  0.00     0.041 C 
ATOM      4  O   UNL     1       4.566  27.167 109.174  1.00  0.00    -0.550 OA
ATOM      5  O   UNL     1       3.210  25.913 110.529  1.00  0.00    -0.550 OA
ENDBRANCH   2   3
ENDBRANCH   1   2
BRANCH   1   6
ATOM      6  C   UNL     1       7.711  25.307 109.381  1.00  0.00     0.000 C 
BRANCH   6   7
ATOM      7  C   UNL     1       8.230  25.732 107.997  1.00  0.00    -0.003 C 
ATOM      8  C   UNL     1       7.108  25.987 106.991  1.00  0.00     0.004 C 
ENDBRANCH   6   7
ENDBRANCH   1   6
TORSDOF 4
ENDMDL
MODEL 4
REMARK VINA RESULT:    -3.346      2.690      3.753
REMARK INTER + INTRA:          -4.265
REMARK INTER:                  -4.008
REMARK INTRA:                  -0.257
REMARK UNBOUND:                -0.137
REMARK SMILES CCCCCC(=O)[O-]
REMARK SMILES IDX 4 1 5 2 6 3 7 4 8 5 3 6 2 7 1 8
REMARK H PARENT
REMARK Flexibility Score: inf
ROOT
ATOM      1  C   UNL     1       7.563  24.737 112.049  1.00  0.00     0.006 C 
ENDROOT
BRANCH   1   2
ATOM      2  C   UNL     1       8.305  25.631 111.047  1.00  0.00     0.053 C 
BRANCH   2   3
ATOM      3  C   UNL     1       7.443  26.783 110.636  1.00  0.00     0.041 C 
ATOM      4  O   UNL     1       7.039  26.878 109.447  1.00  0.00    -0.550 OA
ATOM      5  O   UNL     1       7.128  27.778 111.552  1.00  0.00    -0.550 OA
ENDBRANCH   2   3
ENDBRANCH   1   2
BRANCH   1   6
ATOM      6  C   UNL     1       6.345  24.028 111.431  1.00  0.00     0.000 C 
BRANCH   6   7
ATOM      7  C   UNL     1       5.006  24.310 112.136  1.00  0.00    -0.003 C 
ATOM      8  C   UNL     1       4.130  25.306 111.377  1.00  0.00     0.004 C 
ENDBRANCH   6   7
ENDBRANCH   1   6
TORSDOF 4
ENDMDL
MODEL 5
REMARK VINA RESULT:    -3.325      2.871      4.236
REMARK INTER + INTRA:          -4.239
REMARK INTER:                  -4.070
REMARK INTRA:                  -0.169
REMARK UNBOUND:                -0.137
REMARK SMILES CCCCCC(=O)[O-]
REMARK SMILES IDX 4 1 5 2 6 3 7 4 8 5 3 6 2 7 1 8
REMARK H PARENT
REMARK Flexibility Score: inf
ROOT
ATOM      1  C   UNL     1       7.877  26.533 110.206  1.00  0.00     0.006 C 
ENDROOT
BRANCH   1   2
ATOM      2  C   UNL     1       7.941  25.669 108.940  1.00  0.00     0.053 C 
BRANCH   2   3
ATOM      3  C   UNL     1       7.041  26.227 107.881  1.00  0.00     0.041 C 
ATOM      4  O   UNL     1       7.409  26.230 106.677  1.00  0.00    -0.550 OA
ATOM      5  O   UNL     1       5.821  26.788 108.231  1.00  0.00    -0.550 OA
ENDBRANCH   2   3
ENDBRANCH   1   2
BRANCH   1   6
ATOM      6  C   UNL     1       7.377  25.756 111.437  1.00  0.00     0.000 C 
BRANCH   6   7
ATOM      7  C   UNL     1       6.876  24.331 111.142  1.00  0.00    -0.003 C 
ATOM      8  C   UNL     1       5.532  24.023 111.801  1.00  0.00     0.004 C 
ENDBRANCH   6   7
ENDBRANCH   1   6
TORSDOF 4
ENDMDL
MODEL 6
REMARK VINA RESULT:    -3.182      3.021      3.513
REMARK INTER + INTRA:          -4.063
REMARK INTER:                  -3.868
REMARK INTRA:                  -0.195
REMARK UNBOUND:                -0.137
REMARK SMILES CCCCCC(=O)[O-]
REMARK SMILES IDX 4 1 5 2 6 3 7 4 8 5 3 6 2 7 1 8
REMARK H PARENT
REMARK Flexibility Score: inf
ROOT
ATOM      1  C   UNL     1       6.296  26.834 111.173  1.00  0.00     0.006 C 
ENDROOT
BRANCH   1   2
ATOM      2  C   UNL     1       5.195  25.768 111.106  1.00  0.00     0.053 C 
BRANCH   2   3
ATOM      3  C   UNL     1       4.015  26.282 110.342  1.00  0.00     0.041 C 
ATOM      4  O   UNL     1       2.921  25.660 110.375  1.00  0.00    -0.550 OA
ATOM      5  O   UNL     1       4.139  27.418 109.554  1.00  0.00    -0.550 OA
ENDBRANCH   2   3
ENDBRANCH   1   2
BRANCH   1   6
ATOM      6  C   UNL     1       7.656  26.323 110.665  1.00  0.00     0.000 C 
BRANCH   6   7
ATOM      7  C   UNL     1       7.588  25.459 109.394  1.00  0.00    -0.003 C 
ATOM      8  C   UNL     1       7.193  26.256 108.151  1.00  0.00     0.004 C 
ENDBRANCH   6   7
ENDBRANCH   1   6
TORSDOF 4
ENDMDL
MODEL 7
REMARK VINA RESULT:    -3.119      3.620      4.802
REMARK INTER + INTRA:          -3.986
REMARK INTER:                  -3.731
REMARK INTRA:                  -0.255
REMARK UNBOUND:                -0.137
REMARK SMILES CCCCCC(=O)[O-]
REMARK SMILES IDX 4 1 5 2 6 3 7 4 8 5 3 6 2 7 1 8
REMARK H PARENT
REMARK Flexibility Score: inf
ROOT
ATOM      1  C   UNL     1       4.146  25.414 111.961  1.00  0.00     0.006 C 
ENDROOT
BRANCH   1   2
ATOM      2  C   UNL     1       3.404  25.729 110.656  1.00  0.00     0.053 C 
BRANCH   2   3
ATOM      3  C   UNL     1       4.015  26.917 109.981  1.00  0.00     0.041 C 
ATOM      4  O   UNL     1       3.483  28.053 110.097  1.00  0.00    -0.550 OA
ATOM      5  O   UNL     1       5.141  26.762 109.185  1.00  0.00    -0.550 OA
ENDBRANCH   2   3
ENDBRANCH   1   2
BRANCH   1   6
ATOM      6  C   UNL     1       5.016  24.148 111.865  1.00  0.00     0.000 C 
BRANCH   6   7
ATOM      7  C   UNL     1       6.502  24.407 111.562  1.00  0.00    -0.003 C 
ATOM      8  C   UNL     1       7.002  25.741 112.117  1.00  0.00     0.004 C 
ENDBRANCH   6   7
ENDBRANCH   1   6
TORSDOF 4
ENDMDL
MODEL 8
REMARK VINA RESULT:    -3.107      2.316      2.976
REMARK INTER + INTRA:          -3.971
REMARK INTER:                  -3.849
REMARK INTRA:                  -0.121
REMARK UNBOUND:                -0.137
REMARK SMILES CCCCCC(=O)[O-]
REMARK SMILES IDX 4 1 5 2 6 3 7 4 8 5 3 6 2 7 1 8
REMARK H PARENT
REMARK Flexibility Score: inf
ROOT
ATOM      1  C   UNL     1       6.499  26.687 111.555  1.00  0.00     0.006 C 
ENDROOT
BRANCH   1   2
ATOM      2  C   UNL     1       6.764  25.564 112.566  1.00  0.00     0.053 C 
BRANCH   2   3
ATOM      3  C   UNL     1       8.093  24.929 112.306  1.00  0.00     0.041 C 
ATOM      4  O   UNL     1       8.448  23.913 112.959  1.00  0.00    -0.550 OA
ATOM      5  O   UNL     1       8.962  25.488 111.378  1.00  0.00    -0.550 OA
ENDBRANCH   2   3
ENDBRANCH   1   2
BRANCH   1   6
ATOM      6  C   UNL     1       5.656  26.224 110.353  1.00  0.00     0.000 C 
BRANCH   6   7
ATOM      7  C   UNL     1       4.230  26.800 110.304  1.00  0.00    -0.003 C 
ATOM      8  C   UNL     1       3.163  25.791 110.729  1.00  0.00     0.004 C 
ENDBRANCH   6   7
ENDBRANCH   1   6
TORSDOF 4
ENDMDL
MODEL 9
REMARK VINA RESULT:    -3.103      2.611      3.430
REMARK INTER + INTRA:          -3.966
REMARK INTER:                  -3.829
REMARK INTRA:                  -0.137
REMARK UNBOUND:                -0.137
REMARK SMILES CCCCCC(=O)[O-]
REMARK SMILES IDX 4 1 5 2 6 3 7 4 8 5 3 6 2 7 1 8
REMARK H PARENT
REMARK Flexibility Score: inf
ROOT
ATOM      1  C   UNL     1       5.409  24.050 111.930  1.00  0.00     0.006 C 
ENDROOT
BRANCH   1   2
ATOM      2  C   UNL     1       6.700  24.427 111.191  1.00  0.00     0.053 C 
BRANCH   2   3
ATOM      3  C   UNL     1       7.759  24.837 112.165  1.00  0.00     0.041 C 
ATOM      4  O   UNL     1       8.146  26.034 112.212  1.00  0.00    -0.550 OA
ATOM      5  O   UNL     1       8.354  23.889 112.985  1.00  0.00    -0.550 OA
ENDBRANCH   2   3
ENDBRANCH   1   2
BRANCH   1   6
ATOM      6  C   UNL     1       4.306  25.115 111.791  1.00  0.00     0.000 C 
BRANCH   6   7
ATOM      7  C   UNL     1       4.436  26.023 110.556  1.00  0.00    -0.003 C 
ATOM      8  C   UNL     1       3.326  27.069 110.464  1.00  0.00     0.004 C 
ENDBRANCH   6   7
ENDBRANCH   1   6
TORSDOF 4
ENDMDL
