MODEL 1
REMARK VINA RESULT:    -2.891      0.000      0.000
REMARK INTER + INTRA:          -3.269
REMARK INTER:                  -3.229
REMARK INTRA:                  -0.039
REMARK UNBOUND:                -0.039
REMARK SMILES CCCC(=O)[O-]
REMARK SMILES IDX 3 1 4 2 5 3 6 4 2 5 1 6
REMARK H PARENT
REMARK Flexibility Score: inf
ROOT
ATOM      1  C   UNL     1      25.395  27.630 -17.144  1.00  0.00     0.052 C 
ENDROOT
BRANCH   1   2
ATOM      2  C   UNL     1      25.138  28.375 -15.871  1.00  0.00     0.041 C 
ATOM      3  O   UNL     1      24.900  27.746 -14.806  1.00  0.00    -0.550 OA
ATOM      4  O   UNL     1      25.195  29.762 -15.852  1.00  0.00    -0.550 OA
ENDBRANCH   1   2
BRANCH   1   5
ATOM      5  C   UNL     1      26.894  27.536 -17.456  1.00  0.00     0.003 C 
ATOM      6  C   UNL     1      27.342  28.576 -18.482  1.00  0.00     0.004 C 
ENDBRANCH   1   5
TORSDOF 2
ENDMDL
MODEL 2
REMARK VINA RESULT:    -2.869      0.130      1.328
REMARK INTER + INTRA:          -3.243
REMARK INTER:                  -3.204
REMARK INTRA:                  -0.039
REMARK UNBOUND:                -0.039
REMARK SMILES CCCC(=O)[O-]
REMARK SMILES IDX 3 1 4 2 5 3 6 4 2 5 1 6
REMARK H PARENT
REMARK Flexibility Score: inf
ROOT
ATOM      1  C   UNL     1      25.385  27.772 -17.182  1.00  0.00     0.052 C 
ENDROOT
BRANCH   1   2
ATOM      2  C   UNL     1      25.131  28.484 -15.890  1.00  0.00     0.041 C 
ATOM      3  O   UNL     1      25.112  29.742 -15.852  1.00  0.00    -0.550 OA
ATOM      4  O   UNL     1      24.880  27.757 -14.733  1.00  0.00    -0.550 OA
ENDBRANCH   1   2
BRANCH   1   5
ATOM      5  C   UNL     1      26.884  27.561 -17.431  1.00  0.00     0.003 C 
ATOM      6  C   UNL     1      27.486  28.648 -18.320  1.00  0.00     0.004 C 
ENDBRANCH   1   5
TORSDOF 2
ENDMDL
MODEL 3
REMARK VINA RESULT:    -2.765     21.242     21.797
REMARK INTER + INTRA:          -3.127
REMARK INTER:                  -3.111
REMARK INTRA:                  -0.016
REMARK UNBOUND:                -0.039
REMARK SMILES CCCC(=O)[O-]
REMARK SMILES IDX 3 1 4 2 5 3 6 4 2 5 1 6
REMARK H PARENT
REMARK Flexibility Score: inf
ROOT
ATOM      1  C   UNL     1      33.130  13.608  -1.792  1.00  0.00     0.052 C 
ENDROOT
BRANCH   1   2
ATOM      2  C   UNL     1      31.977  14.069  -0.954  1.00  0.00     0.041 C 
ATOM      3  O   UNL     1      31.097  13.250  -0.580  1.00  0.00    -0.550 OA
ATOM      4  O   UNL     1      31.894  15.397  -0.556  1.00  0.00    -0.550 OA
ENDBRANCH   1   2
BRANCH   1   5
ATOM      5  C   UNL     1      34.247  14.657  -1.851  1.00  0.00     0.003 C 
ATOM      6  C   UNL     1      34.963  14.669  -3.201  1.00  0.00     0.004 C 
ENDBRANCH   1   5
TORSDOF 2
ENDMDL
MODEL 4
REMARK VINA RESULT:    -2.655      2.190      3.372
REMARK INTER + INTRA:          -3.004
REMARK INTER:                  -2.968
REMARK INTRA:                  -0.036
REMARK UNBOUND:                -0.039
REMARK SMILES CCCC(=O)[O-]
REMARK SMILES IDX 3 1 4 2 5 3 6 4 2 5 1 6
REMARK H PARENT
REMARK Flexibility Score: inf
ROOT
ATOM      1  C   UNL     1      26.442  27.495 -17.188  1.00  0.00     0.052 C 
ENDROOT
BRANCH   1   2
ATOM      2  C   UNL     1      26.957  28.529 -18.140  1.00  0.00     0.041 C 
ATOM      3  O   UNL     1      26.843  29.753 -17.868  1.00  0.00    -0.550 OA
ATOM      4  O   UNL     1      27.596  28.141 -19.311  1.00  0.00    -0.550 OA
ENDBRANCH   1   2
BRANCH   1   5
ATOM      5  C   UNL     1      25.044  27.848 -16.665  1.00  0.00     0.003 C 
ATOM      6  C   UNL     1      25.010  27.985 -15.144  1.00  0.00     0.004 C 
ENDBRANCH   1   5
TORSDOF 2
ENDMDL
MODEL 5
REMARK VINA RESULT:    -2.619      2.592      3.566
REMARK INTER + INTRA:          -2.964
REMARK INTER:                  -2.956
REMARK INTRA:                  -0.009
REMARK UNBOUND:                -0.039
REMARK SMILES CCCC(=O)[O-]
REMARK SMILES IDX 3 1 4 2 5 3 6 4 2 5 1 6
REMARK H PARENT
REMARK Flexibility Score: inf
ROOT
ATOM      1  C   UNL     1      26.751  27.498 -17.465  1.00  0.00     0.052 C 
ENDROOT
BRANCH   1   2
ATOM      2  C   UNL     1      27.459  28.238 -18.557  1.00  0.00     0.041 C 
ATOM      3  O   UNL     1      27.457  27.786 -19.732  1.00  0.00    -0.550 OA
ATOM      4  O   UNL     1      28.090  29.445 -18.285  1.00  0.00    -0.550 OA
ENDBRANCH   1   2
BRANCH   1   5
ATOM      5  C   UNL     1      25.444  28.192 -17.060  1.00  0.00     0.003 C 
ATOM      6  C   UNL     1      25.079  27.940 -15.598  1.00  0.00     0.004 C 
ENDBRANCH   1   5
TORSDOF 2
ENDMDL
MODEL 6
REMARK VINA RESULT:    -2.612     20.681     21.350
REMARK INTER + INTRA:          -2.956
REMARK INTER:                  -2.946
REMARK INTRA:                  -0.010
REMARK UNBOUND:                -0.039
REMARK SMILES CCCC(=O)[O-]
REMARK SMILES IDX 3 1 4 2 5 3 6 4 2 5 1 6
REMARK H PARENT
REMARK Flexibility Score: inf
ROOT
ATOM      1  C   UNL     1      34.878  13.656  -3.987  1.00  0.00     0.052 C 
ENDROOT
BRANCH   1   2
ATOM      2  C   UNL     1      35.737  13.924  -5.184  1.00  0.00     0.041 C 
ATOM      3  O   UNL     1      36.126  15.094  -5.436  1.00  0.00    -0.550 OA
ATOM      4  O   UNL     1      36.137  12.875  -6.002  1.00  0.00    -0.550 OA
ENDBRANCH   1   2
BRANCH   1   5
ATOM      5  C   UNL     1      35.011  14.761  -2.932  1.00  0.00     0.003 C 
ATOM      6  C   UNL     1      34.130  14.507  -1.709  1.00  0.00     0.004 C 
ENDBRANCH   1   5
TORSDOF 2
ENDMDL
MODEL 7
REMARK VINA RESULT:    -2.602     13.381     14.166
REMARK INTER + INTRA:          -2.945
REMARK INTER:                  -2.940
REMARK INTRA:                  -0.005
REMARK UNBOUND:                -0.039
REMARK SMILES CCCC(=O)[O-]
REMARK SMILES IDX 3 1 4 2 5 3 6 4 2 5 1 6
REMARK H PARENT
REMARK Flexibility Score: inf
ROOT
ATOM      1  C   UNL     1      34.652  17.138 -17.922  1.00  0.00     0.052 C 
ENDROOT
BRANCH   1   2
ATOM      2  C   UNL     1      33.838  18.064 -18.772  1.00  0.00     0.041 C 
ATOM      3  O   UNL     1      33.705  17.840 -20.004  1.00  0.00    -0.550 OA
ATOM      4  O   UNL     1      33.197  19.154 -18.198  1.00  0.00    -0.550 OA
ENDBRANCH   1   2
BRANCH   1   5
ATOM      5  C   UNL     1      34.040  15.732 -17.864  1.00  0.00     0.003 C 
ATOM      6  C   UNL     1      34.566  14.916 -16.685  1.00  0.00     0.004 C 
ENDBRANCH   1   5
TORSDOF 2
ENDMDL
MODEL 8
REMARK VINA RESULT:    -2.529     21.237     21.693
REMARK INTER + INTRA:          -2.864
REMARK INTER:                  -2.851
REMARK INTRA:                  -0.013
REMARK UNBOUND:                -0.039
REMARK SMILES CCCC(=O)[O-]
REMARK SMILES IDX 3 1 4 2 5 3 6 4 2 5 1 6
REMARK H PARENT
REMARK Flexibility Score: inf
ROOT
ATOM      1  C   UNL     1      34.272  14.731  -1.697  1.00  0.00     0.052 C 
ENDROOT
BRANCH   1   2
ATOM      2  C   UNL     1      34.620  14.301  -3.088  1.00  0.00     0.041 C 
ATOM      3  O   UNL     1      34.096  13.269  -3.582  1.00  0.00    -0.550 OA
ATOM      4  O   UNL     1      35.496  15.061  -3.853  1.00  0.00    -0.550 OA
ENDBRANCH   1   2
BRANCH   1   5
ATOM      5  C   UNL     1      32.913  14.176  -1.252  1.00  0.00     0.003 C 
ATOM      6  C   UNL     1      32.083  15.209  -0.491  1.00  0.00     0.004 C 
ENDBRANCH   1   5
TORSDOF 2
ENDMDL
MODEL 9
REMARK VINA RESULT:    -2.512     21.566     22.090
REMARK INTER + INTRA:          -2.845
REMARK INTER:                  -2.797
REMARK INTRA:                  -0.049
REMARK UNBOUND:                -0.039
REMARK SMILES CCCC(=O)[O-]
REMARK SMILES IDX 3 1 4 2 5 3 6 4 2 5 1 6
REMARK H PARENT
REMARK Flexibility Score: inf
ROOT
ATOM      1  C   UNL     1      36.182  15.098  -4.132  1.00  0.00     0.052 C 
ENDROOT
BRANCH   1   2
ATOM      2  C   UNL     1      37.450  14.401  -3.748  1.00  0.00     0.041 C 
ATOM      3  O   UNL     1      38.398  15.049  -3.231  1.00  0.00    -0.550 OA
ATOM      4  O   UNL     1      37.572  13.029  -3.928  1.00  0.00    -0.550 OA
ENDBRANCH   1   2
BRANCH   1   5
ATOM      5  C   UNL     1      34.943  14.308  -3.693  1.00  0.00     0.003 C 
ATOM      6  C   UNL     1      34.525  14.630  -2.259  1.00  0.00     0.004 C 
ENDBRANCH   1   5
TORSDOF 2
ENDMDL
