MODEL 1
REMARK VINA RESULT:    -4.804      0.000      0.000
REMARK INTER + INTRA:          -5.085
REMARK INTER:                  -5.085
REMARK INTRA:                   0.000
REMARK UNBOUND:                 0.000
REMARK SMILES Cc1cc(O)c(C)c(C)c1O
REMARK SMILES IDX 1 1 2 2 3 3 4 4 6 5 8 6 10 7 9 8 7 9 11 10 5 12
REMARK H PARENT 11 11 5 13
REMARK Flexibility Score: inf
ROOT
ATOM      1  C   UNL     1     -11.377   4.914  31.060  1.00  0.00     0.048 C 
ATOM      2  C   UNL     1     -11.833   3.480  31.079  1.00  0.00    -0.005 A 
ATOM      3  C   UNL     1     -11.460   2.656  32.147  1.00  0.00     0.053 A 
ATOM      4  C   UNL     1     -11.877   1.324  32.208  1.00  0.00     0.119 A 
ATOM      5  C   UNL     1     -12.687   0.788  31.188  1.00  0.00    -0.003 A 
ATOM      6  C   UNL     1     -13.030   1.596  30.073  1.00  0.00    -0.002 A 
ATOM      7  C   UNL     1     -12.625   2.950  30.037  1.00  0.00     0.121 A 
ATOM      8  C   UNL     1     -13.872   1.037  28.948  1.00  0.00     0.049 C 
ATOM      9  C   UNL     1     -13.137  -0.652  31.269  1.00  0.00     0.049 C 
ENDROOT
BRANCH   7  10
ATOM     10  O   UNL     1     -13.023   3.750  28.960  1.00  0.00    -0.507 OA
ATOM     11  H   UNL     1     -12.753   4.719  28.856  1.00  0.00     0.293 HD
ENDBRANCH   7  10
BRANCH   4  12
ATOM     12  O   UNL     1     -11.483   0.530  33.287  1.00  0.00    -0.508 OA
ATOM     13  H   UNL     1     -11.731   0.765  34.241  1.00  0.00     0.293 HD
ENDBRANCH   4  12
TORSDOF 2
ENDMDL
MODEL 2
REMARK VINA RESULT:    -4.797      1.266      2.920
REMARK INTER + INTRA:          -5.077
REMARK INTER:                  -5.077
REMARK INTRA:                   0.000
REMARK UNBOUND:                 0.000
REMARK SMILES Cc1cc(O)c(C)c(C)c1O
REMARK SMILES IDX 1 1 2 2 3 3 4 4 6 5 8 6 10 7 9 8 7 9 11 10 5 12
REMARK H PARENT 11 11 5 13
REMARK Flexibility Score: inf
ROOT
ATOM      1  C   UNL     1     -14.040   2.172  27.902  1.00  0.00     0.048 C 
ATOM      2  C   UNL     1     -13.399   1.836  29.222  1.00  0.00    -0.005 A 
ATOM      3  C   UNL     1     -13.564   0.552  29.757  1.00  0.00     0.053 A 
ATOM      4  C   UNL     1     -12.972   0.197  30.971  1.00  0.00     0.119 A 
ATOM      5  C   UNL     1     -12.191   1.133  31.678  1.00  0.00    -0.003 A 
ATOM      6  C   UNL     1     -12.058   2.453  31.175  1.00  0.00    -0.002 A 
ATOM      7  C   UNL     1     -12.639   2.791  29.932  1.00  0.00     0.121 A 
ATOM      8  C   UNL     1     -11.252   3.486  31.930  1.00  0.00     0.049 C 
ATOM      9  C   UNL     1     -11.551   0.734  32.987  1.00  0.00     0.049 C 
ENDROOT
BRANCH   7  10
ATOM     10  O   UNL     1     -12.447   4.079  29.419  1.00  0.00    -0.507 OA
ATOM     11  H   UNL     1     -11.784   4.295  28.687  1.00  0.00     0.293 HD
ENDBRANCH   7  10
BRANCH   4  12
ATOM     12  O   UNL     1     -13.160  -1.090  31.476  1.00  0.00    -0.508 OA
ATOM     13  H   UNL     1     -13.647  -1.804  30.948  1.00  0.00     0.293 HD
ENDBRANCH   4  12
TORSDOF 2
ENDMDL
MODEL 3
REMARK VINA RESULT:    -4.742      1.762      2.747
REMARK INTER + INTRA:          -5.019
REMARK INTER:                  -5.019
REMARK INTRA:                   0.000
REMARK UNBOUND:                 0.000
REMARK SMILES Cc1cc(O)c(C)c(C)c1O
REMARK SMILES IDX 1 1 2 2 3 3 4 4 6 5 8 6 10 7 9 8 7 9 11 10 5 12
REMARK H PARENT 11 11 5 13
REMARK Flexibility Score: inf
ROOT
ATOM      1  C   UNL     1     -13.765   3.147  27.943  1.00  0.00     0.048 C 
ATOM      2  C   UNL     1     -13.188   2.601  29.222  1.00  0.00    -0.005 A 
ATOM      3  C   UNL     1     -12.385   3.426  30.018  1.00  0.00     0.053 A 
ATOM      4  C   UNL     1     -11.845   2.961  31.220  1.00  0.00     0.119 A 
ATOM      5  C   UNL     1     -12.106   1.646  31.651  1.00  0.00    -0.003 A 
ATOM      6  C   UNL     1     -12.876   0.782  30.830  1.00  0.00    -0.002 A 
ATOM      7  C   UNL     1     -13.439   1.273  29.631  1.00  0.00     0.121 A 
ATOM      8  C   UNL     1     -13.145  -0.644  31.255  1.00  0.00     0.049 C 
ATOM      9  C   UNL     1     -11.521   1.158  32.957  1.00  0.00     0.049 C 
ENDROOT
BRANCH   7  10
ATOM     10  O   UNL     1     -14.247   0.427  28.862  1.00  0.00    -0.507 OA
ATOM     11  H   UNL     1     -13.893  -0.375  28.357  1.00  0.00     0.293 HD
ENDBRANCH   7  10
BRANCH   4  12
ATOM     12  O   UNL     1     -11.045   3.810  31.987  1.00  0.00    -0.508 OA
ATOM     13  H   UNL     1     -11.125   3.850  32.996  1.00  0.00     0.293 HD
ENDBRANCH   4  12
TORSDOF 2
ENDMDL
MODEL 4
REMARK VINA RESULT:    -4.612      1.672      2.901
REMARK INTER + INTRA:          -4.881
REMARK INTER:                  -4.881
REMARK INTRA:                   0.000
REMARK UNBOUND:                 0.000
REMARK SMILES Cc1cc(O)c(C)c(C)c1O
REMARK SMILES IDX 1 1 2 2 3 3 4 4 6 5 8 6 10 7 9 8 7 9 11 10 5 12
REMARK H PARENT 11 11 5 13
REMARK Flexibility Score: inf
ROOT
ATOM      1  C   UNL     1     -12.204   4.839  29.627  1.00  0.00     0.048 C 
ATOM      2  C   UNL     1     -12.444   3.424  30.080  1.00  0.00    -0.005 A 
ATOM      3  C   UNL     1     -13.213   2.570  29.281  1.00  0.00     0.053 A 
ATOM      4  C   UNL     1     -13.444   1.245  29.659  1.00  0.00     0.119 A 
ATOM      5  C   UNL     1     -12.899   0.746  30.858  1.00  0.00    -0.003 A 
ATOM      6  C   UNL     1     -12.160   1.614  31.703  1.00  0.00    -0.002 A 
ATOM      7  C   UNL     1     -11.910   2.943  31.296  1.00  0.00     0.121 A 
ATOM      8  C   UNL     1     -11.590   1.112  33.011  1.00  0.00     0.049 C 
ATOM      9  C   UNL     1     -13.152  -0.691  31.252  1.00  0.00     0.049 C 
ENDROOT
BRANCH   7  10
ATOM     10  O   UNL     1     -11.128   3.769  32.111  1.00  0.00    -0.507 OA
ATOM     11  H   UNL     1     -10.314   4.271  31.781  1.00  0.00     0.293 HD
ENDBRANCH   7  10
BRANCH   4  12
ATOM     12  O   UNL     1     -14.220   0.423  28.840  1.00  0.00    -0.508 OA
ATOM     13  H   UNL     1     -14.659  -0.420  29.193  1.00  0.00     0.293 HD
ENDBRANCH   4  12
TORSDOF 2
ENDMDL
MODEL 5
REMARK VINA RESULT:    -4.539      1.768      3.563
REMARK INTER + INTRA:          -4.805
REMARK INTER:                  -4.805
REMARK INTRA:                   0.000
REMARK UNBOUND:                 0.000
REMARK SMILES Cc1cc(O)c(C)c(C)c1O
REMARK SMILES IDX 1 1 2 2 3 3 4 4 6 5 8 6 10 7 9 8 7 9 11 10 5 12
REMARK H PARENT 11 11 5 13
REMARK Flexibility Score: inf
ROOT
ATOM      1  C   UNL     1     -11.712   0.678  33.002  1.00  0.00     0.048 C 
ATOM      2  C   UNL     1     -12.204   1.292  31.719  1.00  0.00    -0.005 A 
ATOM      3  C   UNL     1     -12.952   0.512  30.829  1.00  0.00     0.053 A 
ATOM      4  C   UNL     1     -13.441   1.050  29.636  1.00  0.00     0.119 A 
ATOM      5  C   UNL     1     -13.188   2.397  29.311  1.00  0.00    -0.003 A 
ATOM      6  C   UNL     1     -12.388   3.185  30.179  1.00  0.00    -0.002 A 
ATOM      7  C   UNL     1     -11.923   2.637  31.395  1.00  0.00     0.121 A 
ATOM      8  C   UNL     1     -12.075   4.626  29.838  1.00  0.00     0.049 C 
ATOM      9  C   UNL     1     -13.728   2.969  28.021  1.00  0.00     0.049 C 
ENDROOT
BRANCH   7  10
ATOM     10  O   UNL     1     -11.187   3.446  32.269  1.00  0.00    -0.507 OA
ATOM     11  H   UNL     1     -10.281   3.189  32.638  1.00  0.00     0.293 HD
ENDBRANCH   7  10
BRANCH   4  12
ATOM     12  O   UNL     1     -14.179   0.242  28.771  1.00  0.00    -0.508 OA
ATOM     13  H   UNL     1     -13.739  -0.468  28.197  1.00  0.00     0.293 HD
ENDBRANCH   4  12
TORSDOF 2
ENDMDL
MODEL 6
REMARK VINA RESULT:    -4.506      0.823      3.158
REMARK INTER + INTRA:          -4.769
REMARK INTER:                  -4.769
REMARK INTRA:                   0.000
REMARK UNBOUND:                 0.000
REMARK SMILES Cc1cc(O)c(C)c(C)c1O
REMARK SMILES IDX 1 1 2 2 3 3 4 4 6 5 8 6 10 7 9 8 7 9 11 10 5 12
REMARK H PARENT 11 11 5 13
REMARK Flexibility Score: inf
ROOT
ATOM      1  C   UNL     1     -10.807   4.085  32.264  1.00  0.00     0.048 C 
ATOM      2  C   UNL     1     -11.626   3.210  31.353  1.00  0.00    -0.005 A 
ATOM      3  C   UNL     1     -12.046   3.712  30.116  1.00  0.00     0.053 A 
ATOM      4  C   UNL     1     -12.793   2.926  29.237  1.00  0.00     0.119 A 
ATOM      5  C   UNL     1     -13.135   1.604  29.585  1.00  0.00    -0.003 A 
ATOM      6  C   UNL     1     -12.761   1.098  30.856  1.00  0.00    -0.002 A 
ATOM      7  C   UNL     1     -11.981   1.895  31.725  1.00  0.00     0.121 A 
ATOM      8  C   UNL     1     -13.142  -0.306  31.268  1.00  0.00     0.049 C 
ATOM      9  C   UNL     1     -13.939   0.762  28.621  1.00  0.00     0.049 C 
ENDROOT
BRANCH   7  10
ATOM     10  O   UNL     1     -11.568   1.360  32.951  1.00  0.00    -0.507 OA
ATOM     11  H   UNL     1     -12.171   1.286  33.759  1.00  0.00     0.293 HD
ENDBRANCH   7  10
BRANCH   4  12
ATOM     12  O   UNL     1     -13.199   3.460  28.013  1.00  0.00    -0.508 OA
ATOM     13  H   UNL     1     -12.615   4.105  27.493  1.00  0.00     0.293 HD
ENDBRANCH   4  12
TORSDOF 2
ENDMDL
MODEL 7
REMARK VINA RESULT:    -4.449     13.719     14.960
REMARK INTER + INTRA:          -4.710
REMARK INTER:                  -4.710
REMARK INTRA:                   0.000
REMARK UNBOUND:                 0.000
REMARK SMILES Cc1cc(O)c(C)c(C)c1O
REMARK SMILES IDX 1 1 2 2 3 3 4 4 6 5 8 6 10 7 9 8 7 9 11 10 5 12
REMARK H PARENT 11 11 5 13
REMARK Flexibility Score: inf
ROOT
ATOM      1  C   UNL     1      -9.291  13.106  19.081  1.00  0.00     0.048 C 
ATOM      2  C   UNL     1      -9.689  11.665  18.909  1.00  0.00    -0.005 A 
ATOM      3  C   UNL     1      -8.917  10.665  19.512  1.00  0.00     0.053 A 
ATOM      4  C   UNL     1      -9.263   9.317  19.389  1.00  0.00     0.119 A 
ATOM      5  C   UNL     1     -10.403   8.943  18.652  1.00  0.00    -0.003 A 
ATOM      6  C   UNL     1     -11.165   9.941  17.991  1.00  0.00    -0.002 A 
ATOM      7  C   UNL     1     -10.821  11.303  18.147  1.00  0.00     0.121 A 
ATOM      8  C   UNL     1     -12.376   9.564  17.167  1.00  0.00     0.049 C 
ATOM      9  C   UNL     1     -10.769   7.481  18.532  1.00  0.00     0.049 C 
ENDROOT
BRANCH   7  10
ATOM     10  O   UNL     1     -11.619  12.280  17.539  1.00  0.00    -0.507 OA
ATOM     11  H   UNL     1     -12.431  12.690  17.980  1.00  0.00     0.293 HD
ENDBRANCH   7  10
BRANCH   4  12
ATOM     12  O   UNL     1      -8.469   8.346  20.001  1.00  0.00    -0.508 OA
ATOM     13  H   UNL     1      -8.236   7.476  19.536  1.00  0.00     0.293 HD
ENDBRANCH   4  12
TORSDOF 2
ENDMDL
MODEL 8
REMARK VINA RESULT:    -4.411      1.851      3.462
REMARK INTER + INTRA:          -4.669
REMARK INTER:                  -4.669
REMARK INTRA:                   0.000
REMARK UNBOUND:                 0.000
REMARK SMILES Cc1cc(O)c(C)c(C)c1O
REMARK SMILES IDX 1 1 2 2 3 3 4 4 6 5 8 6 10 7 9 8 7 9 11 10 5 12
REMARK H PARENT 11 11 5 13
REMARK Flexibility Score: inf
ROOT
ATOM      1  C   UNL     1     -12.714  -0.351  31.433  1.00  0.00     0.048 C 
ATOM      2  C   UNL     1     -12.709   1.024  30.821  1.00  0.00    -0.005 A 
ATOM      3  C   UNL     1     -11.993   2.051  31.448  1.00  0.00     0.053 A 
ATOM      4  C   UNL     1     -11.950   3.336  30.901  1.00  0.00     0.119 A 
ATOM      5  C   UNL     1     -12.631   3.617  29.700  1.00  0.00    -0.003 A 
ATOM      6  C   UNL     1     -13.403   2.601  29.081  1.00  0.00    -0.002 A 
ATOM      7  C   UNL     1     -13.415   1.298  29.629  1.00  0.00     0.121 A 
ATOM      8  C   UNL     1     -14.169   2.885  27.808  1.00  0.00     0.049 C 
ATOM      9  C   UNL     1     -12.571   5.010  29.117  1.00  0.00     0.049 C 
ENDROOT
BRANCH   7  10
ATOM     10  O   UNL     1     -14.131   0.291  28.972  1.00  0.00    -0.507 OA
ATOM     11  H   UNL     1     -14.563   0.413  28.066  1.00  0.00     0.293 HD
ENDBRANCH   7  10
BRANCH   4  12
ATOM     12  O   UNL     1     -11.230   4.336  31.555  1.00  0.00    -0.508 OA
ATOM     13  H   UNL     1     -11.030   4.288  32.548  1.00  0.00     0.293 HD
ENDBRANCH   4  12
TORSDOF 2
ENDMDL
MODEL 9
REMARK VINA RESULT:    -4.389      1.436      3.955
REMARK INTER + INTRA:          -4.645
REMARK INTER:                  -4.645
REMARK INTRA:                   0.000
REMARK UNBOUND:                 0.000
REMARK SMILES Cc1cc(O)c(C)c(C)c1O
REMARK SMILES IDX 1 1 2 2 3 3 4 4 6 5 8 6 10 7 9 8 7 9 11 10 5 12
REMARK H PARENT 11 11 5 13
REMARK Flexibility Score: inf
ROOT
ATOM      1  C   UNL     1     -14.113   0.767  28.481  1.00  0.00     0.048 C 
ATOM      2  C   UNL     1     -13.258   1.507  29.475  1.00  0.00    -0.005 A 
ATOM      3  C   UNL     1     -12.754   2.769  29.139  1.00  0.00     0.053 A 
ATOM      4  C   UNL     1     -11.970   3.493  30.040  1.00  0.00     0.119 A 
ATOM      5  C   UNL     1     -11.676   2.960  31.311  1.00  0.00    -0.003 A 
ATOM      6  C   UNL     1     -12.137   1.660  31.645  1.00  0.00    -0.002 A 
ATOM      7  C   UNL     1     -12.952   0.950  30.736  1.00  0.00     0.121 A 
ATOM      8  C   UNL     1     -11.809   1.051  32.990  1.00  0.00     0.049 C 
ATOM      9  C   UNL     1     -10.832   3.757  32.278  1.00  0.00     0.049 C 
ENDROOT
BRANCH   7  10
ATOM     10  O   UNL     1     -13.449  -0.305  31.105  1.00  0.00    -0.507 OA
ATOM     11  H   UNL     1     -14.395  -0.457  31.431  1.00  0.00     0.293 HD
ENDBRANCH   7  10
BRANCH   4  12
ATOM     12  O   UNL     1     -11.481   4.747  29.671  1.00  0.00    -0.508 OA
ATOM     13  H   UNL     1     -12.088   5.555  29.593  1.00  0.00     0.293 HD
ENDBRANCH   4  12
TORSDOF 2
ENDMDL
