MODEL 1
REMARK VINA RESULT:    -4.145      0.000      0.000
REMARK INTER + INTRA:          -5.078
REMARK INTER:                  -4.993
REMARK INTRA:                  -0.085
REMARK UNBOUND:                -0.085
REMARK SMILES COC(=O)c1cc(O)c(O)c(O)c1
REMARK SMILES IDX 5 1 13 2 11 3 9 4 7 5 6 6 3 7 4 8 2 9 1 10 12 11 8 13 10 15
REMARK H PARENT 12 12 8 14 10 16
REMARK Flexibility Score: inf
ROOT
ATOM      1  C   UNL     1     -94.886 -17.588 -63.672  1.00  0.00     0.067 A 
ATOM      2  C   UNL     1     -95.326 -16.823 -64.766  1.00  0.00     0.066 A 
ATOM      3  C   UNL     1     -96.519 -16.089 -64.692  1.00  0.00     0.162 A 
ATOM      4  C   UNL     1     -97.284 -16.116 -63.514  1.00  0.00     0.200 A 
ATOM      5  C   UNL     1     -96.853 -16.877 -62.420  1.00  0.00     0.162 A 
ATOM      6  C   UNL     1     -95.661 -17.608 -62.500  1.00  0.00     0.066 A 
ENDROOT
BRANCH   1   7
ATOM      7  C   UNL     1     -93.628 -18.363 -63.749  1.00  0.00     0.338 C 
ATOM      8  O   UNL     1     -93.390 -19.086 -64.757  1.00  0.00    -0.246 OA
BRANCH   7   9
ATOM      9  O   UNL     1     -92.702 -18.295 -62.703  1.00  0.00    -0.465 OA
ATOM     10  C   UNL     1     -91.360 -18.749 -62.835  1.00  0.00     0.282 C 
ENDBRANCH   7   9
ENDBRANCH   1   7
BRANCH   3  11
ATOM     11  O   UNL     1     -96.946 -15.334 -65.783  1.00  0.00    -0.504 OA
ATOM     12  H   UNL     1     -96.287 -14.914 -66.428  1.00  0.00     0.293 HD
ENDBRANCH   3  11
BRANCH   5  13
ATOM     13  O   UNL     1     -97.617 -16.900 -61.253  1.00  0.00    -0.504 OA
ATOM     14  H   UNL     1     -98.130 -16.084 -60.939  1.00  0.00     0.293 HD
ENDBRANCH   5  13
BRANCH   4  15
ATOM     15  O   UNL     1     -98.475 -15.394 -63.415  1.00  0.00    -0.502 OA
ATOM     16  H   UNL     1     -98.494 -14.382 -63.440  1.00  0.00     0.293 HD
ENDBRANCH   4  15
TORSDOF 5
ENDMDL
MODEL 2
REMARK VINA RESULT:    -4.141      0.056      2.327
REMARK INTER + INTRA:          -5.073
REMARK INTER:                  -4.988
REMARK INTRA:                  -0.085
REMARK UNBOUND:                -0.085
REMARK SMILES COC(=O)c1cc(O)c(O)c(O)c1
REMARK SMILES IDX 5 1 13 2 11 3 9 4 7 5 6 6 3 7 4 8 2 9 1 10 12 11 8 13 10 15
REMARK H PARENT 12 12 8 14 10 16
REMARK Flexibility Score: inf
ROOT
ATOM      1  C   UNL     1     -94.866 -17.613 -63.675  1.00  0.00     0.067 A 
ATOM      2  C   UNL     1     -95.634 -17.651 -62.498  1.00  0.00     0.066 A 
ATOM      3  C   UNL     1     -96.838 -16.937 -62.406  1.00  0.00     0.162 A 
ATOM      4  C   UNL     1     -97.284 -16.177 -63.499  1.00  0.00     0.200 A 
ATOM      5  C   UNL     1     -96.525 -16.133 -64.675  1.00  0.00     0.162 A 
ATOM      6  C   UNL     1     -95.323 -16.848 -64.761  1.00  0.00     0.066 A 
ENDROOT
BRANCH   1   7
ATOM      7  C   UNL     1     -93.595 -18.365 -63.773  1.00  0.00     0.338 C 
ATOM      8  O   UNL     1     -93.347 -19.059 -64.798  1.00  0.00    -0.246 OA
BRANCH   7   9
ATOM      9  O   UNL     1     -92.668 -18.307 -62.727  1.00  0.00    -0.465 OA
ATOM     10  C   UNL     1     -91.319 -18.733 -62.871  1.00  0.00     0.282 C 
ENDBRANCH   7   9
ENDBRANCH   1   7
BRANCH   3  11
ATOM     11  O   UNL     1     -97.590 -16.983 -61.234  1.00  0.00    -0.504 OA
ATOM     12  H   UNL     1     -97.151 -17.036 -60.322  1.00  0.00     0.293 HD
ENDBRANCH   3  11
BRANCH   5  13
ATOM     13  O   UNL     1     -96.973 -15.376 -65.757  1.00  0.00    -0.504 OA
ATOM     14  H   UNL     1     -96.431 -15.296 -66.609  1.00  0.00     0.293 HD
ENDBRANCH   5  13
BRANCH   4  15
ATOM     15  O   UNL     1     -98.479 -15.458 -63.432  1.00  0.00    -0.502 OA
ATOM     16  H   UNL     1     -99.178 -15.507 -64.163  1.00  0.00     0.293 HD
ENDBRANCH   4  15
TORSDOF 5
ENDMDL
MODEL 3
REMARK VINA RESULT:    -3.849      2.049      4.819
REMARK INTER + INTRA:          -4.722
REMARK INTER:                  -4.630
REMARK INTRA:                  -0.092
REMARK UNBOUND:                -0.085
REMARK SMILES COC(=O)c1cc(O)c(O)c(O)c1
REMARK SMILES IDX 5 1 13 2 11 3 9 4 7 5 6 6 3 7 4 8 2 9 1 10 12 11 8 13 10 15
REMARK H PARENT 12 12 8 14 10 16
REMARK Flexibility Score: inf
ROOT
ATOM      1  C   UNL     1     -95.458 -18.084 -64.291  1.00  0.00     0.067 A 
ATOM      2  C   UNL     1     -94.464 -18.893 -64.870  1.00  0.00     0.066 A 
ATOM      3  C   UNL     1     -93.173 -18.940 -64.322  1.00  0.00     0.162 A 
ATOM      4  C   UNL     1     -92.867 -18.174 -63.185  1.00  0.00     0.200 A 
ATOM      5  C   UNL     1     -93.852 -17.366 -62.604  1.00  0.00     0.162 A 
ATOM      6  C   UNL     1     -95.140 -17.322 -63.155  1.00  0.00     0.066 A 
ENDROOT
BRANCH   1   7
ATOM      7  C   UNL     1     -96.820 -18.033 -64.868  1.00  0.00     0.338 C 
ATOM      8  O   UNL     1     -97.551 -17.021 -64.678  1.00  0.00    -0.246 OA
BRANCH   7   9
ATOM      9  O   UNL     1     -97.297 -19.107 -65.626  1.00  0.00    -0.465 OA
ATOM     10  C   UNL     1     -98.663 -19.236 -66.002  1.00  0.00     0.282 C 
ENDBRANCH   7   9
ENDBRANCH   1   7
BRANCH   3  11
ATOM     11  O   UNL     1     -92.195 -19.745 -64.904  1.00  0.00    -0.504 OA
ATOM     12  H   UNL     1     -92.235 -20.006 -65.882  1.00  0.00     0.293 HD
ENDBRANCH   3  11
BRANCH   5  13
ATOM     13  O   UNL     1     -93.543 -16.608 -61.475  1.00  0.00    -0.504 OA
ATOM     14  H   UNL     1     -93.910 -16.845 -60.560  1.00  0.00     0.293 HD
ENDBRANCH   5  13
BRANCH   4  15
ATOM     15  O   UNL     1     -91.591 -18.205 -62.622  1.00  0.00    -0.502 OA
ATOM     16  H   UNL     1     -91.028 -17.369 -62.517  1.00  0.00     0.293 HD
ENDBRANCH   4  15
TORSDOF 5
ENDMDL
MODEL 4
REMARK VINA RESULT:    -3.836      1.915      2.356
REMARK INTER + INTRA:          -4.706
REMARK INTER:                  -4.611
REMARK INTRA:                  -0.095
REMARK UNBOUND:                -0.085
REMARK SMILES COC(=O)c1cc(O)c(O)c(O)c1
REMARK SMILES IDX 5 1 13 2 11 3 9 4 7 5 6 6 3 7 4 8 2 9 1 10 12 11 8 13 10 15
REMARK H PARENT 12 12 8 14 10 16
REMARK Flexibility Score: inf
ROOT
ATOM      1  C   UNL     1     -94.995 -18.000 -64.009  1.00  0.00     0.067 A 
ATOM      2  C   UNL     1     -95.693 -18.997 -64.712  1.00  0.00     0.066 A 
ATOM      3  C   UNL     1     -97.001 -18.770 -65.166  1.00  0.00     0.162 A 
ATOM      4  C   UNL     1     -97.621 -17.534 -64.918  1.00  0.00     0.200 A 
ATOM      5  C   UNL     1     -96.933 -16.536 -64.218  1.00  0.00     0.162 A 
ATOM      6  C   UNL     1     -95.627 -16.769 -63.766  1.00  0.00     0.066 A 
ENDROOT
BRANCH   1   7
ATOM      7  C   UNL     1     -93.616 -18.239 -63.528  1.00  0.00     0.338 C 
ATOM      8  O   UNL     1     -93.212 -17.694 -62.463  1.00  0.00    -0.246 OA
BRANCH   7   9
ATOM      9  O   UNL     1     -92.759 -19.071 -64.256  1.00  0.00    -0.465 OA
ATOM     10  C   UNL     1     -91.596 -19.662 -63.688  1.00  0.00     0.282 C 
ENDBRANCH   7   9
ENDBRANCH   1   7
BRANCH   3  11
ATOM     11  O   UNL     1     -97.683 -19.765 -65.862  1.00  0.00    -0.504 OA
ATOM     12  H   UNL     1     -98.693 -19.838 -65.832  1.00  0.00     0.293 HD
ENDBRANCH   3  11
BRANCH   5  13
ATOM     13  O   UNL     1     -97.554 -15.311 -63.975  1.00  0.00    -0.504 OA
ATOM     14  H   UNL     1     -98.146 -14.870 -64.669  1.00  0.00     0.293 HD
ENDBRANCH   5  13
BRANCH   4  15
ATOM     15  O   UNL     1     -98.921 -17.283 -65.360  1.00  0.00    -0.502 OA
ATOM     16  H   UNL     1     -99.674 -17.057 -64.721  1.00  0.00     0.293 HD
ENDBRANCH   4  15
TORSDOF 5
ENDMDL
MODEL 5
REMARK VINA RESULT:    -3.803      1.904      2.393
REMARK INTER + INTRA:          -4.666
REMARK INTER:                  -4.571
REMARK INTRA:                  -0.095
REMARK UNBOUND:                -0.085
REMARK SMILES COC(=O)c1cc(O)c(O)c(O)c1
REMARK SMILES IDX 5 1 13 2 11 3 9 4 7 5 6 6 3 7 4 8 2 9 1 10 12 11 8 13 10 15
REMARK H PARENT 12 12 8 14 10 16
REMARK Flexibility Score: inf
ROOT
ATOM      1  C   UNL     1     -94.859 -18.039 -64.050  1.00  0.00     0.067 A 
ATOM      2  C   UNL     1     -95.427 -16.756 -63.964  1.00  0.00     0.066 A 
ATOM      3  C   UNL     1     -96.722 -16.512 -64.446  1.00  0.00     0.162 A 
ATOM      4  C   UNL     1     -97.461 -17.559 -65.020  1.00  0.00     0.200 A 
ATOM      5  C   UNL     1     -96.903 -18.841 -65.109  1.00  0.00     0.162 A 
ATOM      6  C   UNL     1     -95.610 -19.078 -64.627  1.00  0.00     0.066 A 
ENDROOT
BRANCH   1   7
ATOM      7  C   UNL     1     -93.493 -18.297 -63.543  1.00  0.00     0.338 C 
ATOM      8  O   UNL     1     -93.109 -17.768 -62.463  1.00  0.00    -0.246 OA
BRANCH   7   9
ATOM      9  O   UNL     1     -92.627 -19.127 -64.262  1.00  0.00    -0.465 OA
ATOM     10  C   UNL     1     -91.553 -19.832 -63.650  1.00  0.00     0.282 C 
ENDBRANCH   7   9
ENDBRANCH   1   7
BRANCH   3  11
ATOM     11  O   UNL     1     -97.274 -15.236 -64.356  1.00  0.00    -0.504 OA
ATOM     12  H   UNL     1     -96.764 -14.465 -63.940  1.00  0.00     0.293 HD
ENDBRANCH   3  11
BRANCH   5  13
ATOM     13  O   UNL     1     -97.643 -19.876 -65.680  1.00  0.00    -0.504 OA
ATOM     14  H   UNL     1     -98.651 -19.819 -65.773  1.00  0.00     0.293 HD
ENDBRANCH   5  13
BRANCH   4  15
ATOM     15  O   UNL     1     -98.752 -17.343 -65.506  1.00  0.00    -0.502 OA
ATOM     16  H   UNL     1     -99.514 -17.059 -64.903  1.00  0.00     0.293 HD
ENDBRANCH   4  15
TORSDOF 5
ENDMDL
MODEL 6
REMARK VINA RESULT:    -3.779      1.777      4.988
REMARK INTER + INTRA:          -4.637
REMARK INTER:                  -4.528
REMARK INTRA:                  -0.109
REMARK UNBOUND:                -0.085
REMARK SMILES COC(=O)c1cc(O)c(O)c(O)c1
REMARK SMILES IDX 5 1 13 2 11 3 9 4 7 5 6 6 3 7 4 8 2 9 1 10 12 11 8 13 10 15
REMARK H PARENT 12 12 8 14 10 16
REMARK Flexibility Score: inf
ROOT
ATOM      1  C   UNL     1     -95.492 -18.084 -64.232  1.00  0.00     0.067 A 
ATOM      2  C   UNL     1     -95.167 -17.311 -63.104  1.00  0.00     0.066 A 
ATOM      3  C   UNL     1     -93.871 -17.337 -62.568  1.00  0.00     0.162 A 
ATOM      4  C   UNL     1     -92.885 -18.142 -63.163  1.00  0.00     0.200 A 
ATOM      5  C   UNL     1     -93.201 -18.916 -64.287  1.00  0.00     0.162 A 
ATOM      6  C   UNL     1     -94.498 -18.886 -64.817  1.00  0.00     0.066 A 
ENDROOT
BRANCH   1   7
ATOM      7  C   UNL     1     -96.859 -18.058 -64.797  1.00  0.00     0.338 C 
ATOM      8  O   UNL     1     -97.218 -18.938 -65.629  1.00  0.00    -0.246 OA
BRANCH   7   9
ATOM      9  O   UNL     1     -97.755 -17.056 -64.410  1.00  0.00    -0.465 OA
ATOM     10  C   UNL     1     -98.855 -17.302 -63.542  1.00  0.00     0.282 C 
ENDBRANCH   7   9
ENDBRANCH   1   7
BRANCH   3  11
ATOM     11  O   UNL     1     -93.560 -16.566 -61.450  1.00  0.00    -0.504 OA
ATOM     12  H   UNL     1     -93.171 -16.980 -60.611  1.00  0.00     0.293 HD
ENDBRANCH   3  11
BRANCH   5  13
ATOM     13  O   UNL     1     -92.219 -19.713 -64.873  1.00  0.00    -0.504 OA
ATOM     14  H   UNL     1     -91.878 -19.532 -65.810  1.00  0.00     0.293 HD
ENDBRANCH   5  13
BRANCH   4  15
ATOM     15  O   UNL     1     -91.588 -18.185 -62.649  1.00  0.00    -0.502 OA
ATOM     16  H   UNL     1     -90.812 -18.566 -63.177  1.00  0.00     0.293 HD
ENDBRANCH   4  15
TORSDOF 5
ENDMDL
MODEL 7
REMARK VINA RESULT:    -3.749      1.914      2.584
REMARK INTER + INTRA:          -4.602
REMARK INTER:                  -4.497
REMARK INTRA:                  -0.104
REMARK UNBOUND:                -0.085
REMARK SMILES COC(=O)c1cc(O)c(O)c(O)c1
REMARK SMILES IDX 5 1 13 2 11 3 9 4 7 5 6 6 3 7 4 8 2 9 1 10 12 11 8 13 10 15
REMARK H PARENT 12 12 8 14 10 16
REMARK Flexibility Score: inf
ROOT
ATOM      1  C   UNL     1     -94.515 -19.067 -64.176  1.00  0.00     0.067 A 
ATOM      2  C   UNL     1     -94.254 -17.737 -63.802  1.00  0.00     0.066 A 
ATOM      3  C   UNL     1     -95.145 -16.709 -64.145  1.00  0.00     0.162 A 
ATOM      4  C   UNL     1     -96.312 -17.009 -64.867  1.00  0.00     0.200 A 
ATOM      5  C   UNL     1     -96.579 -18.331 -65.243  1.00  0.00     0.162 A 
ATOM      6  C   UNL     1     -95.685 -19.353 -64.899  1.00  0.00     0.066 A 
ENDROOT
BRANCH   1   7
ATOM      7  C   UNL     1     -93.575 -20.152 -63.816  1.00  0.00     0.338 C 
ATOM      8  O   UNL     1     -93.974 -21.135 -63.131  1.00  0.00    -0.246 OA
BRANCH   7   9
ATOM      9  O   UNL     1     -92.242 -20.087 -64.235  1.00  0.00    -0.465 OA
ATOM     10  C   UNL     1     -91.172 -19.779 -63.350  1.00  0.00     0.282 C 
ENDBRANCH   7   9
ENDBRANCH   1   7
BRANCH   3  11
ATOM     11  O   UNL     1     -94.875 -15.395 -63.769  1.00  0.00    -0.504 OA
ATOM     12  H   UNL     1     -93.948 -14.997 -63.858  1.00  0.00     0.293 HD
ENDBRANCH   3  11
BRANCH   5  13
ATOM     13  O   UNL     1     -97.739 -18.621 -65.961  1.00  0.00    -0.504 OA
ATOM     14  H   UNL     1     -98.579 -18.063 -65.860  1.00  0.00     0.293 HD
ENDBRANCH   5  13
BRANCH   4  15
ATOM     15  O   UNL     1     -97.215 -16.004 -65.219  1.00  0.00    -0.502 OA
ATOM     16  H   UNL     1     -97.103 -15.449 -66.059  1.00  0.00     0.293 HD
ENDBRANCH   4  15
TORSDOF 5
ENDMDL
MODEL 8
REMARK VINA RESULT:    -3.713      2.936      4.384
REMARK INTER + INTRA:          -4.558
REMARK INTER:                  -4.444
REMARK INTRA:                  -0.114
REMARK UNBOUND:                -0.085
REMARK SMILES COC(=O)c1cc(O)c(O)c(O)c1
REMARK SMILES IDX 5 1 13 2 11 3 9 4 7 5 6 6 3 7 4 8 2 9 1 10 12 11 8 13 10 15
REMARK H PARENT 12 12 8 14 10 16
REMARK Flexibility Score: inf
ROOT
ATOM      1  C   UNL     1     -96.694 -18.861 -64.927  1.00  0.00     0.067 A 
ATOM      2  C   UNL     1     -97.297 -17.607 -64.726  1.00  0.00     0.066 A 
ATOM      3  C   UNL     1     -96.542 -16.517 -64.268  1.00  0.00     0.162 A 
ATOM      4  C   UNL     1     -95.171 -16.675 -64.008  1.00  0.00     0.200 A 
ATOM      5  C   UNL     1     -94.563 -17.921 -64.207  1.00  0.00     0.162 A 
ATOM      6  C   UNL     1     -95.322 -19.007 -64.664  1.00  0.00     0.066 A 
ENDROOT
BRANCH   1   7
ATOM      7  C   UNL     1     -97.489 -20.013 -65.410  1.00  0.00     0.338 C 
ATOM      8  O   UNL     1     -96.938 -21.137 -65.577  1.00  0.00    -0.246 OA
BRANCH   7   9
ATOM      9  O   UNL     1     -98.852 -19.854 -65.681  1.00  0.00    -0.465 OA
ATOM     10  C   UNL     1     -99.365 -19.748 -67.003  1.00  0.00     0.282 C 
ENDBRANCH   7   9
ENDBRANCH   1   7
BRANCH   3  11
ATOM     11  O   UNL     1     -97.150 -15.278 -64.072  1.00  0.00    -0.504 OA
ATOM     12  H   UNL     1     -97.775 -15.111 -63.292  1.00  0.00     0.293 HD
ENDBRANCH   3  11
BRANCH   5  13
ATOM     13  O   UNL     1     -93.202 -18.073 -63.947  1.00  0.00    -0.504 OA
ATOM     14  H   UNL     1     -92.502 -17.889 -64.658  1.00  0.00     0.293 HD
ENDBRANCH   5  13
BRANCH   4  15
ATOM     15  O   UNL     1     -94.399 -15.605 -63.553  1.00  0.00    -0.502 OA
ATOM     16  H   UNL     1     -94.674 -14.642 -63.700  1.00  0.00     0.293 HD
ENDBRANCH   4  15
TORSDOF 5
ENDMDL
MODEL 9
REMARK VINA RESULT:    -3.674      2.860      4.401
REMARK INTER + INTRA:          -4.510
REMARK INTER:                  -4.394
REMARK INTRA:                  -0.116
REMARK UNBOUND:                -0.085
REMARK SMILES COC(=O)c1cc(O)c(O)c(O)c1
REMARK SMILES IDX 5 1 13 2 11 3 9 4 7 5 6 6 3 7 4 8 2 9 1 10 12 11 8 13 10 15
REMARK H PARENT 12 12 8 14 10 16
REMARK Flexibility Score: inf
ROOT
ATOM      1  C   UNL     1     -96.544 -18.787 -64.886  1.00  0.00     0.067 A 
ATOM      2  C   UNL     1     -95.201 -18.938 -64.500  1.00  0.00     0.066 A 
ATOM      3  C   UNL     1     -94.464 -17.840 -64.031  1.00  0.00     0.162 A 
ATOM      4  C   UNL     1     -95.072 -16.576 -63.945  1.00  0.00     0.200 A 
ATOM      5  C   UNL     1     -96.410 -16.418 -64.329  1.00  0.00     0.162 A 
ATOM      6  C   UNL     1     -97.140 -17.518 -64.796  1.00  0.00     0.066 A 
ENDROOT
BRANCH   1   7
ATOM      7  C   UNL     1     -97.322 -19.945 -65.381  1.00  0.00     0.338 C 
ATOM      8  O   UNL     1     -96.745 -21.044 -65.611  1.00  0.00    -0.246 OA
BRANCH   7   9
ATOM      9  O   UNL     1     -98.699 -19.820 -65.595  1.00  0.00    -0.465 OA
ATOM     10  C   UNL     1     -99.279 -19.821 -66.893  1.00  0.00     0.282 C 
ENDBRANCH   7   9
ENDBRANCH   1   7
BRANCH   3  11
ATOM     11  O   UNL     1     -93.134 -18.001 -63.651  1.00  0.00    -0.504 OA
ATOM     12  H   UNL     1     -92.371 -17.687 -64.240  1.00  0.00     0.293 HD
ENDBRANCH   3  11
BRANCH   5  13
ATOM     13  O   UNL     1     -97.007 -15.161 -64.241  1.00  0.00    -0.504 OA
ATOM     14  H   UNL     1     -97.938 -15.042 -63.856  1.00  0.00     0.293 HD
ENDBRANCH   5  13
BRANCH   4  15
ATOM     15  O   UNL     1     -94.360 -15.469 -63.482  1.00  0.00    -0.502 OA
ATOM     16  H   UNL     1     -93.348 -15.455 -63.447  1.00  0.00     0.293 HD
ENDBRANCH   4  15
TORSDOF 5
ENDMDL
