MODEL 1
REMARK VINA RESULT:    -4.990      0.000      0.000
REMARK INTER + INTRA:          -6.418
REMARK INTER:                  -6.157
REMARK INTRA:                  -0.261
REMARK UNBOUND:                -0.261
REMARK SMILES CCCCC=CC(C)=O
REMARK SMILES IDX 4 1 3 2 2 3 1 4 5 5 6 6 7 7 9 8 8 9
REMARK H PARENT
REMARK Flexibility Score: inf
ROOT
ATOM      1  C   UNL     1       0.194  29.030  34.329  1.00  0.00     0.027 C 
ENDROOT
BRANCH   1   2
ATOM      2  C   UNL     1       1.692  28.893  34.636  1.00  0.00     0.004 C 
BRANCH   2   3
ATOM      3  C   UNL     1       2.559  29.700  33.661  1.00  0.00    -0.003 C 
ATOM      4  C   UNL     1       1.887  31.018  33.288  1.00  0.00     0.004 C 
ENDBRANCH   2   3
ENDBRANCH   1   2
BRANCH   1   5
ATOM      5  C   UNL     1      -0.280  28.018  33.324  1.00  0.00    -0.023 C 
ATOM      6  C   UNL     1      -0.605  28.370  32.076  1.00  0.00     0.042 C 
BRANCH   6   7
ATOM      7  C   UNL     1      -1.066  27.392  31.074  1.00  0.00     0.152 C 
ATOM      8  O   UNL     1      -0.257  26.877  30.255  1.00  0.00    -0.295 OA
ATOM      9  C   UNL     1      -2.508  26.999  31.031  1.00  0.00     0.093 C 
ENDBRANCH   6   7
ENDBRANCH   1   5
TORSDOF 4
ENDMDL
MODEL 2
REMARK VINA RESULT:    -4.756      2.954      4.043
REMARK INTER + INTRA:          -6.130
REMARK INTER:                  -5.888
REMARK INTRA:                  -0.242
REMARK UNBOUND:                -0.261
REMARK SMILES CCCCC=CC(C)=O
REMARK SMILES IDX 4 1 3 2 2 3 1 4 5 5 6 6 7 7 9 8 8 9
REMARK H PARENT
REMARK Flexibility Score: inf
ROOT
ATOM      1  C   UNL     1       1.355  30.542  33.574  1.00  0.00     0.027 C 
ENDROOT
BRANCH   1   2
ATOM      2  C   UNL     1       1.916  29.305  34.290  1.00  0.00     0.004 C 
BRANCH   2   3
ATOM      3  C   UNL     1       0.810  28.327  34.710  1.00  0.00    -0.003 C 
ATOM      4  C   UNL     1      -0.255  28.202  33.625  1.00  0.00     0.004 C 
ENDBRANCH   2   3
ENDBRANCH   1   2
BRANCH   1   5
ATOM      5  C   UNL     1       2.118  30.875  32.323  1.00  0.00    -0.023 C 
ATOM      6  C   UNL     1       1.658  30.541  31.113  1.00  0.00     0.042 C 
BRANCH   6   7
ATOM      7  C   UNL     1       2.389  30.865  29.874  1.00  0.00     0.152 C 
ATOM      8  O   UNL     1       3.358  31.673  29.888  1.00  0.00    -0.295 OA
ATOM      9  C   UNL     1       1.982  30.224  28.586  1.00  0.00     0.093 C 
ENDBRANCH   6   7
ENDBRANCH   1   5
TORSDOF 4
ENDMDL
MODEL 3
REMARK VINA RESULT:    -4.587      2.266      3.171
REMARK INTER + INTRA:          -5.921
REMARK INTER:                  -5.670
REMARK INTRA:                  -0.250
REMARK UNBOUND:                -0.261
REMARK SMILES CCCCC=CC(C)=O
REMARK SMILES IDX 4 1 3 2 2 3 1 4 5 5 6 6 7 7 9 8 8 9
REMARK H PARENT
REMARK Flexibility Score: inf
ROOT
ATOM      1  C   UNL     1       1.749  30.783  33.321  1.00  0.00     0.027 C 
ENDROOT
BRANCH   1   2
ATOM      2  C   UNL     1       2.483  29.661  34.069  1.00  0.00     0.004 C 
BRANCH   2   3
ATOM      3  C   UNL     1       1.638  28.384  34.170  1.00  0.00    -0.003 C 
ATOM      4  C   UNL     1       0.223  28.696  34.648  1.00  0.00     0.004 C 
ENDBRANCH   2   3
ENDBRANCH   1   2
BRANCH   1   5
ATOM      5  C   UNL     1       1.674  30.531  31.841  1.00  0.00    -0.023 C 
ATOM      6  C   UNL     1       0.506  30.321  31.226  1.00  0.00     0.042 C 
BRANCH   6   7
ATOM      7  C   UNL     1       0.410  30.078  29.774  1.00  0.00     0.152 C 
ATOM      8  O   UNL     1      -0.393  29.221  29.315  1.00  0.00    -0.295 OA
ATOM      9  C   UNL     1       1.270  30.860  28.835  1.00  0.00     0.093 C 
ENDBRANCH   6   7
ENDBRANCH   1   5
TORSDOF 4
ENDMDL
MODEL 4
REMARK VINA RESULT:    -4.450      2.468      3.769
REMARK INTER + INTRA:          -5.751
REMARK INTER:                  -5.513
REMARK INTRA:                  -0.239
REMARK UNBOUND:                -0.261
REMARK SMILES CCCCC=CC(C)=O
REMARK SMILES IDX 4 1 3 2 2 3 1 4 5 5 6 6 7 7 9 8 8 9
REMARK H PARENT
REMARK Flexibility Score: inf
ROOT
ATOM      1  C   UNL     1       2.636  29.799  33.883  1.00  0.00     0.027 C 
ENDROOT
BRANCH   1   2
ATOM      2  C   UNL     1       1.123  30.063  33.850  1.00  0.00     0.004 C 
BRANCH   2   3
ATOM      3  C   UNL     1       0.320  28.904  34.456  1.00  0.00    -0.003 C 
ATOM      4  C   UNL     1      -0.405  28.112  33.372  1.00  0.00     0.004 C 
ENDBRANCH   2   3
ENDBRANCH   1   2
BRANCH   1   5
ATOM      5  C   UNL     1       3.086  28.906  32.760  1.00  0.00    -0.023 C 
ATOM      6  C   UNL     1       2.678  29.104  31.503  1.00  0.00     0.042 C 
BRANCH   6   7
ATOM      7  C   UNL     1       3.113  28.244  30.387  1.00  0.00     0.152 C 
ATOM      8  O   UNL     1       3.008  26.989  30.461  1.00  0.00    -0.295 OA
ATOM      9  C   UNL     1       3.681  28.864  29.151  1.00  0.00     0.093 C 
ENDBRANCH   6   7
ENDBRANCH   1   5
TORSDOF 4
ENDMDL
MODEL 5
REMARK VINA RESULT:    -4.394      2.959      4.218
REMARK INTER + INTRA:          -5.683
REMARK INTER:                  -5.505
REMARK INTRA:                  -0.178
REMARK UNBOUND:                -0.261
REMARK SMILES CCCCC=CC(C)=O
REMARK SMILES IDX 4 1 3 2 2 3 1 4 5 5 6 6 7 7 9 8 8 9
REMARK H PARENT
REMARK Flexibility Score: inf
ROOT
ATOM      1  C   UNL     1       2.986  29.294  33.770  1.00  0.00     0.027 C 
ENDROOT
BRANCH   1   2
ATOM      2  C   UNL     1       1.886  30.354  33.618  1.00  0.00     0.004 C 
BRANCH   2   3
ATOM      3  C   UNL     1       0.481  29.738  33.648  1.00  0.00    -0.003 C 
ATOM      4  C   UNL     1       0.389  28.627  34.689  1.00  0.00     0.004 C 
ENDBRANCH   2   3
ENDBRANCH   1   2
BRANCH   1   5
ATOM      5  C   UNL     1       3.205  28.510  32.506  1.00  0.00    -0.023 C 
ATOM      6  C   UNL     1       3.969  27.414  32.486  1.00  0.00     0.042 C 
BRANCH   6   7
ATOM      7  C   UNL     1       4.190  26.628  31.258  1.00  0.00     0.152 C 
ATOM      8  O   UNL     1       4.344  25.377  31.311  1.00  0.00    -0.295 OA
ATOM      9  C   UNL     1       4.226  27.320  29.933  1.00  0.00     0.093 C 
ENDBRANCH   6   7
ENDBRANCH   1   5
TORSDOF 4
ENDMDL
MODEL 6
REMARK VINA RESULT:    -4.320      3.734      4.959
REMARK INTER + INTRA:          -5.592
REMARK INTER:                  -5.482
REMARK INTRA:                  -0.110
REMARK UNBOUND:                -0.261
REMARK SMILES CCCCC=CC(C)=O
REMARK SMILES IDX 4 1 3 2 2 3 1 4 5 5 6 6 7 7 9 8 8 9
REMARK H PARENT
REMARK Flexibility Score: inf
ROOT
ATOM      1  C   UNL     1       1.175  30.400  31.984  1.00  0.00     0.027 C 
ENDROOT
BRANCH   1   2
ATOM      2  C   UNL     1       1.373  30.596  33.495  1.00  0.00     0.004 C 
BRANCH   2   3
ATOM      3  C   UNL     1       1.496  29.261  34.240  1.00  0.00    -0.003 C 
ATOM      4  C   UNL     1       0.122  28.688  34.574  1.00  0.00     0.004 C 
ENDBRANCH   2   3
ENDBRANCH   1   2
BRANCH   1   5
ATOM      5  C   UNL     1       2.375  30.832  31.189  1.00  0.00    -0.023 C 
ATOM      6  C   UNL     1       2.303  31.038  29.870  1.00  0.00     0.042 C 
BRANCH   6   7
ATOM      7  C   UNL     1       3.467  31.467  29.073  1.00  0.00     0.152 C 
ATOM      8  O   UNL     1       4.124  32.495  29.393  1.00  0.00    -0.295 OA
ATOM      9  C   UNL     1       3.878  30.672  27.876  1.00  0.00     0.093 C 
ENDBRANCH   6   7
ENDBRANCH   1   5
TORSDOF 4
ENDMDL
MODEL 7
REMARK VINA RESULT:    -4.227      1.717      2.532
REMARK INTER + INTRA:          -5.477
REMARK INTER:                  -5.248
REMARK INTRA:                  -0.229
REMARK UNBOUND:                -0.261
REMARK SMILES CCCCC=CC(C)=O
REMARK SMILES IDX 4 1 3 2 2 3 1 4 5 5 6 6 7 7 9 8 8 9
REMARK H PARENT
REMARK Flexibility Score: inf
ROOT
ATOM      1  C   UNL     1       2.006  30.705  32.081  1.00  0.00     0.027 C 
ENDROOT
BRANCH   1   2
ATOM      2  C   UNL     1       1.517  30.659  33.536  1.00  0.00     0.004 C 
BRANCH   2   3
ATOM      3  C   UNL     1       1.899  29.347  34.234  1.00  0.00    -0.003 C 
ATOM      4  C   UNL     1       0.659  28.551  34.627  1.00  0.00     0.004 C 
ENDBRANCH   2   3
ENDBRANCH   1   2
BRANCH   1   5
ATOM      5  C   UNL     1       1.096  29.958  31.147  1.00  0.00    -0.023 C 
ATOM      6  C   UNL     1       1.363  28.706  30.762  1.00  0.00     0.042 C 
BRANCH   6   7
ATOM      7  C   UNL     1       0.479  27.954  29.852  1.00  0.00     0.152 C 
ATOM      8  O   UNL     1       0.576  26.701  29.748  1.00  0.00    -0.295 OA
ATOM      9  C   UNL     1      -0.547  28.684  29.047  1.00  0.00     0.093 C 
ENDBRANCH   6   7
ENDBRANCH   1   5
TORSDOF 4
ENDMDL
MODEL 8
REMARK VINA RESULT:    -4.162      1.634      2.066
REMARK INTER + INTRA:          -5.396
REMARK INTER:                  -5.178
REMARK INTRA:                  -0.218
REMARK UNBOUND:                -0.261
REMARK SMILES CCCCC=CC(C)=O
REMARK SMILES IDX 4 1 3 2 2 3 1 4 5 5 6 6 7 7 9 8 8 9
REMARK H PARENT
REMARK Flexibility Score: inf
ROOT
ATOM      1  C   UNL     1      -0.209  28.098  33.437  1.00  0.00     0.027 C 
ENDROOT
BRANCH   1   2
ATOM      2  C   UNL     1       0.494  29.017  34.447  1.00  0.00     0.004 C 
BRANCH   2   3
ATOM      3  C   UNL     1       1.926  29.362  34.016  1.00  0.00    -0.003 C 
ATOM      4  C   UNL     1       2.010  30.786  33.475  1.00  0.00     0.004 C 
ENDBRANCH   2   3
ENDBRANCH   1   2
BRANCH   1   5
ATOM      5  C   UNL     1      -0.519  28.799  32.144  1.00  0.00    -0.023 C 
ATOM      6  C   UNL     1      -0.033  28.363  30.977  1.00  0.00     0.042 C 
BRANCH   6   7
ATOM      7  C   UNL     1      -0.330  29.032  29.698  1.00  0.00     0.152 C 
ATOM      8  O   UNL     1      -0.867  28.399  28.747  1.00  0.00    -0.295 OA
ATOM      9  C   UNL     1       0.003  30.479  29.525  1.00  0.00     0.093 C 
ENDBRANCH   6   7
ENDBRANCH   1   5
TORSDOF 4
ENDMDL
MODEL 9
REMARK VINA RESULT:    -4.018      0.912      1.540
REMARK INTER + INTRA:          -5.219
REMARK INTER:                  -5.010
REMARK INTRA:                  -0.209
REMARK UNBOUND:                -0.261
REMARK SMILES CCCCC=CC(C)=O
REMARK SMILES IDX 4 1 3 2 2 3 1 4 5 5 6 6 7 7 9 8 8 9
REMARK H PARENT
REMARK Flexibility Score: inf
ROOT
ATOM      1  C   UNL     1       0.178  29.377  32.546  1.00  0.00     0.027 C 
ENDROOT
BRANCH   1   2
ATOM      2  C   UNL     1       0.092  28.794  33.964  1.00  0.00     0.004 C 
BRANCH   2   3
ATOM      3  C   UNL     1       1.472  28.672  34.625  1.00  0.00    -0.003 C 
ATOM      4  C   UNL     1       2.486  29.594  33.955  1.00  0.00     0.004 C 
ENDBRANCH   2   3
ENDBRANCH   1   2
BRANCH   1   5
ATOM      5  C   UNL     1      -0.282  28.403  31.498  1.00  0.00    -0.023 C 
ATOM      6  C   UNL     1      -1.305  27.570  31.717  1.00  0.00     0.042 C 
BRANCH   6   7
ATOM      7  C   UNL     1      -1.774  26.612  30.699  1.00  0.00     0.152 C 
ATOM      8  O   UNL     1      -1.138  26.451  29.621  1.00  0.00    -0.295 OA
ATOM      9  C   UNL     1      -3.015  25.817  30.947  1.00  0.00     0.093 C 
ENDBRANCH   6   7
ENDBRANCH   1   5
TORSDOF 4
ENDMDL
