MODEL 1
REMARK VINA RESULT:    -5.378      0.000      0.000
REMARK INTER + INTRA:          -6.810
REMARK INTER:                  -6.479
REMARK INTRA:                  -0.331
REMARK UNBOUND:                -0.331
REMARK SMILES Oc1cc(O)c2cc(O)c(-c3ccc(O)c(O)c3)[o+]c2c1.[Cl-]
REMARK SMILES IDX 10 1 19 2 20 3 21 4 2 5 3 6 4 7 6 8 7 9 8 10 11 11 12 12
REMARK SMILES IDX 13 13 14 14 18 15 16 16 15 17 17 19 9 21 1 23 5 25
REMARK H PARENT 15 18 17 20 9 22 1 24 5 26
REMARK Flexibility Score: inf
ROOT
ATOM      1  C   UNL     1      -4.289  88.231  -8.412  1.00  0.00     0.402 A 
ATOM      2  O   UNL     1      -4.922  87.260  -9.065  1.00  0.00    -0.202 OA
ATOM      3  C   UNL     1      -4.529  85.990  -9.043  1.00  0.00     0.368 A 
ATOM      4  C   UNL     1      -5.258  85.041  -9.765  1.00  0.00     0.162 A 
ATOM      5  C   UNL     1      -4.868  83.702  -9.763  1.00  0.00     0.128 A 
ATOM      6  C   UNL     1      -3.738  83.306  -9.036  1.00  0.00     0.093 A 
ATOM      7  C   UNL     1      -2.992  84.238  -8.306  1.00  0.00     0.136 A 
ATOM      8  C   UNL     1      -3.387  85.600  -8.303  1.00  0.00     0.125 A 
ATOM      9  C   UNL     1      -2.707  86.601  -7.590  1.00  0.00     0.078 A 
ATOM     10  C   UNL     1      -3.160  87.923  -7.631  1.00  0.00     0.223 A 
ENDROOT
BRANCH   1  11
ATOM     11  C   UNL     1      -4.819  89.610  -8.523  1.00  0.00     0.087 A 
ATOM     12  C   UNL     1      -5.657  90.154  -7.534  1.00  0.00     0.022 A 
ATOM     13  C   UNL     1      -6.126  91.465  -7.649  1.00  0.00     0.051 A 
ATOM     14  C   UNL     1      -5.754  92.256  -8.744  1.00  0.00     0.157 A 
ATOM     15  C   UNL     1      -4.432  90.413  -9.608  1.00  0.00     0.068 A 
ATOM     16  C   UNL     1      -4.900  91.727  -9.727  1.00  0.00     0.158 A 
BRANCH  14  17
ATOM     17  O   UNL     1      -6.225  93.563  -8.857  1.00  0.00    -0.504 OA
ATOM     18  H   UNL     1      -6.234  94.194  -8.064  1.00  0.00     0.293 HD
ENDBRANCH  14  17
BRANCH  16  19
ATOM     19  O   UNL     1      -4.506  92.490 -10.825  1.00  0.00    -0.504 OA
ATOM     20  H   UNL     1      -4.901  93.404 -11.016  1.00  0.00     0.293 HD
ENDBRANCH  16  19
ENDBRANCH   1  11
BRANCH  10  21
ATOM     21  O   UNL     1      -2.515  88.908  -6.883  1.00  0.00    -0.500 OA
ATOM     22  H   UNL     1      -1.986  89.652  -7.326  1.00  0.00     0.294 HD
ENDBRANCH  10  21
BRANCH   5  23
ATOM     23  O   UNL     1      -5.608  82.770 -10.488  1.00  0.00    -0.507 OA
ATOM     24  H   UNL     1      -6.235  82.119 -10.029  1.00  0.00     0.293 HD
ENDBRANCH   5  23
BRANCH   7  25
ATOM     25  O   UNL     1      -1.876  83.764  -7.609  1.00  0.00    -0.507 OA
ATOM     26  H   UNL     1      -1.894  82.991  -6.962  1.00  0.00     0.293 HD
ENDBRANCH   7  25
TORSDOF 6
ENDMDL
MODEL 2
REMARK VINA RESULT:    -5.225      6.624      8.464
REMARK INTER + INTRA:          -6.625
REMARK INTER:                  -6.302
REMARK INTRA:                  -0.323
REMARK UNBOUND:                -0.331
REMARK SMILES Oc1cc(O)c2cc(O)c(-c3ccc(O)c(O)c3)[o+]c2c1.[Cl-]
REMARK SMILES IDX 10 1 19 2 20 3 21 4 2 5 3 6 4 7 6 8 7 9 8 10 11 11 12 12
REMARK SMILES IDX 13 13 14 14 18 15 16 16 15 17 17 19 9 21 1 23 5 25
REMARK H PARENT 15 18 17 20 9 22 1 24 5 26
REMARK Flexibility Score: inf
ROOT
ATOM      1  C   UNL     1      -8.429  91.340 -13.375  1.00  0.00     0.402 A 
ATOM      2  O   UNL     1      -7.788  91.081 -14.511  1.00  0.00    -0.202 OA
ATOM      3  C   UNL     1      -6.464  91.121 -14.628  1.00  0.00     0.368 A 
ATOM      4  C   UNL     1      -5.882  90.835 -15.866  1.00  0.00     0.162 A 
ATOM      5  C   UNL     1      -4.496  90.871 -16.019  1.00  0.00     0.128 A 
ATOM      6  C   UNL     1      -3.683  91.198 -14.927  1.00  0.00     0.093 A 
ATOM      7  C   UNL     1      -4.242  91.488 -13.676  1.00  0.00     0.136 A 
ATOM      8  C   UNL     1      -5.651  91.449 -13.516  1.00  0.00     0.125 A 
ATOM      9  C   UNL     1      -6.298  91.713 -12.298  1.00  0.00     0.078 A 
ATOM     10  C   UNL     1      -7.692  91.649 -12.216  1.00  0.00     0.223 A 
ENDROOT
BRANCH   1  11
ATOM     11  C   UNL     1      -9.908  91.273 -13.374  1.00  0.00     0.087 A 
ATOM     12  C   UNL     1     -10.695  92.438 -13.399  1.00  0.00     0.022 A 
ATOM     13  C   UNL     1     -12.089  92.348 -13.422  1.00  0.00     0.051 A 
ATOM     14  C   UNL     1     -12.717  91.096 -13.433  1.00  0.00     0.157 A 
ATOM     15  C   UNL     1     -10.543  90.020 -13.407  1.00  0.00     0.068 A 
ATOM     16  C   UNL     1     -11.939  89.926 -13.429  1.00  0.00     0.158 A 
BRANCH  14  17
ATOM     17  O   UNL     1     -14.109  91.010 -13.453  1.00  0.00    -0.504 OA
ATOM     18  H   UNL     1     -14.665  91.227 -12.634  1.00  0.00     0.293 HD
ENDBRANCH  14  17
BRANCH  16  19
ATOM     19  O   UNL     1     -12.534  88.666 -13.446  1.00  0.00    -0.504 OA
ATOM     20  H   UNL     1     -13.122  88.337 -12.690  1.00  0.00     0.293 HD
ENDBRANCH  16  19
ENDBRANCH   1  11
BRANCH  10  21
ATOM     21  O   UNL     1      -8.332  91.862 -10.995  1.00  0.00    -0.500 OA
ATOM     22  H   UNL     1      -7.810  92.009 -10.139  1.00  0.00     0.294 HD
ENDBRANCH  10  21
BRANCH   5  23
ATOM     23  O   UNL     1      -3.935  90.583 -17.261  1.00  0.00    -0.507 OA
ATOM     24  H   UNL     1      -3.152  91.115 -17.625  1.00  0.00     0.293 HD
ENDBRANCH   5  23
BRANCH   7  25
ATOM     25  O   UNL     1      -3.363  91.808 -12.637  1.00  0.00    -0.507 OA
ATOM     26  H   UNL     1      -2.397  91.519 -12.598  1.00  0.00     0.293 HD
ENDBRANCH   7  25
TORSDOF 6
ENDMDL
MODEL 3
REMARK VINA RESULT:    -5.094      7.178     10.054
REMARK INTER + INTRA:          -6.468
REMARK INTER:                  -6.120
REMARK INTRA:                  -0.347
REMARK UNBOUND:                -0.331
REMARK SMILES Oc1cc(O)c2cc(O)c(-c3ccc(O)c(O)c3)[o+]c2c1.[Cl-]
REMARK SMILES IDX 10 1 19 2 20 3 21 4 2 5 3 6 4 7 6 8 7 9 8 10 11 11 12 12
REMARK SMILES IDX 13 13 14 14 18 15 16 16 15 17 17 19 9 21 1 23 5 25
REMARK H PARENT 15 18 17 20 9 22 1 24 5 26
REMARK Flexibility Score: inf
ROOT
ATOM      1  C   UNL     1      -3.946  91.997 -15.803  1.00  0.00     0.402 A 
ATOM      2  O   UNL     1      -4.815  92.585 -16.621  1.00  0.00    -0.202 OA
ATOM      3  C   UNL     1      -4.625  92.689 -17.933  1.00  0.00     0.368 A 
ATOM      4  C   UNL     1      -5.595  93.328 -18.711  1.00  0.00     0.162 A 
ATOM      5  C   UNL     1      -5.422  93.455 -20.089  1.00  0.00     0.128 A 
ATOM      6  C   UNL     1      -4.270  92.941 -20.697  1.00  0.00     0.093 A 
ATOM      7  C   UNL     1      -3.284  92.297 -19.939  1.00  0.00     0.136 A 
ATOM      8  C   UNL     1      -3.458  92.164 -18.538  1.00  0.00     0.125 A 
ATOM      9  C   UNL     1      -2.529  91.523 -17.702  1.00  0.00     0.078 A 
ATOM     10  C   UNL     1      -2.773  91.425 -16.328  1.00  0.00     0.223 A 
ENDROOT
BRANCH   1  11
ATOM     11  C   UNL     1      -4.265  91.953 -14.357  1.00  0.00     0.087 A 
ATOM     12  C   UNL     1      -4.948  90.862 -13.791  1.00  0.00     0.022 A 
ATOM     13  C   UNL     1      -5.217  90.832 -12.420  1.00  0.00     0.051 A 
ATOM     14  C   UNL     1      -4.798  91.883 -11.594  1.00  0.00     0.157 A 
ATOM     15  C   UNL     1      -3.829  92.994 -13.521  1.00  0.00     0.068 A 
ATOM     16  C   UNL     1      -4.098  92.968 -12.148  1.00  0.00     0.158 A 
BRANCH  14  17
ATOM     17  O   UNL     1      -5.071  91.852 -10.227  1.00  0.00    -0.504 OA
ATOM     18  H   UNL     1      -5.601  92.589  -9.775  1.00  0.00     0.293 HD
ENDBRANCH  14  17
BRANCH  16  19
ATOM     19  O   UNL     1      -3.663  94.026 -11.352  1.00  0.00    -0.504 OA
ATOM     20  H   UNL     1      -4.040  94.961 -11.445  1.00  0.00     0.293 HD
ENDBRANCH  16  19
ENDBRANCH   1  11
BRANCH  10  21
ATOM     21  O   UNL     1      -1.875  90.745 -15.505  1.00  0.00    -0.500 OA
ATOM     22  H   UNL     1      -2.144  89.907 -15.002  1.00  0.00     0.294 HD
ENDBRANCH  10  21
BRANCH   5  23
ATOM     23  O   UNL     1      -6.400  94.095 -20.847  1.00  0.00    -0.507 OA
ATOM     24  H   UNL     1      -6.806  94.976 -20.554  1.00  0.00     0.293 HD
ENDBRANCH   5  23
BRANCH   7  25
ATOM     25  O   UNL     1      -2.162  91.815 -20.620  1.00  0.00    -0.507 OA
ATOM     26  H   UNL     1      -1.209  91.956 -20.321  1.00  0.00     0.293 HD
ENDBRANCH   7  25
TORSDOF 6
ENDMDL
MODEL 4
REMARK VINA RESULT:    -5.090     10.670     13.372
REMARK INTER + INTRA:          -6.463
REMARK INTER:                  -6.180
REMARK INTRA:                  -0.283
REMARK UNBOUND:                -0.331
REMARK SMILES Oc1cc(O)c2cc(O)c(-c3ccc(O)c(O)c3)[o+]c2c1.[Cl-]
REMARK SMILES IDX 10 1 19 2 20 3 21 4 2 5 3 6 4 7 6 8 7 9 8 10 11 11 12 12
REMARK SMILES IDX 13 13 14 14 18 15 16 16 15 17 17 19 9 21 1 23 5 25
REMARK H PARENT 15 18 17 20 9 22 1 24 5 26
REMARK Flexibility Score: inf
ROOT
ATOM      1  C   UNL     1      -2.892  91.800 -19.645  1.00  0.00     0.402 A 
ATOM      2  O   UNL     1      -3.349  92.943 -20.150  1.00  0.00    -0.202 OA
ATOM      3  C   UNL     1      -3.288  93.245 -21.443  1.00  0.00     0.368 A 
ATOM      4  C   UNL     1      -3.793  94.473 -21.879  1.00  0.00     0.162 A 
ATOM      5  C   UNL     1      -3.741  94.818 -23.229  1.00  0.00     0.128 A 
ATOM      6  C   UNL     1      -3.179  93.930 -24.154  1.00  0.00     0.093 A 
ATOM      7  C   UNL     1      -2.667  92.693 -23.743  1.00  0.00     0.136 A 
ATOM      8  C   UNL     1      -2.721  92.338 -22.370  1.00  0.00     0.125 A 
ATOM      9  C   UNL     1      -2.244  91.115 -21.870  1.00  0.00     0.078 A 
ATOM     10  C   UNL     1      -2.336  90.834 -20.503  1.00  0.00     0.223 A 
ENDROOT
BRANCH   1  11
ATOM     11  C   UNL     1      -3.007  91.585 -18.184  1.00  0.00     0.087 A 
ATOM     12  C   UNL     1      -1.875  91.595 -17.351  1.00  0.00     0.022 A 
ATOM     13  C   UNL     1      -2.011  91.413 -15.972  1.00  0.00     0.051 A 
ATOM     14  C   UNL     1      -3.279  91.231 -15.405  1.00  0.00     0.157 A 
ATOM     15  C   UNL     1      -4.278  91.423 -17.608  1.00  0.00     0.068 A 
ATOM     16  C   UNL     1      -4.418  91.240 -16.227  1.00  0.00     0.158 A 
BRANCH  14  17
ATOM     17  O   UNL     1      -3.412  91.047 -14.029  1.00  0.00    -0.504 OA
ATOM     18  H   UNL     1      -2.603  90.924 -13.430  1.00  0.00     0.293 HD
ENDBRANCH  14  17
BRANCH  16  19
ATOM     19  O   UNL     1      -5.694  91.068 -15.693  1.00  0.00    -0.504 OA
ATOM     20  H   UNL     1      -6.469  91.669 -15.945  1.00  0.00     0.293 HD
ENDBRANCH  16  19
ENDBRANCH   1  11
BRANCH  10  21
ATOM     21  O   UNL     1      -1.909  89.600 -20.013  1.00  0.00    -0.500 OA
ATOM     22  H   UNL     1      -1.133  89.099 -20.433  1.00  0.00     0.294 HD
ENDBRANCH  10  21
BRANCH   5  23
ATOM     23  O   UNL     1      -4.250  96.047 -23.644  1.00  0.00    -0.507 OA
ATOM     24  H   UNL     1      -3.690  96.892 -23.605  1.00  0.00     0.293 HD
ENDBRANCH   5  23
BRANCH   7  25
ATOM     25  O   UNL     1      -2.119  91.864 -24.726  1.00  0.00    -0.507 OA
ATOM     26  H   UNL     1      -2.501  90.970 -24.995  1.00  0.00     0.293 HD
ENDBRANCH   7  25
TORSDOF 6
ENDMDL
MODEL 5
REMARK VINA RESULT:    -5.082      4.578      6.832
REMARK INTER + INTRA:          -6.453
REMARK INTER:                  -6.121
REMARK INTRA:                  -0.332
REMARK UNBOUND:                -0.331
REMARK SMILES Oc1cc(O)c2cc(O)c(-c3ccc(O)c(O)c3)[o+]c2c1.[Cl-]
REMARK SMILES IDX 10 1 19 2 20 3 21 4 2 5 3 6 4 7 6 8 7 9 8 10 11 11 12 12
REMARK SMILES IDX 13 13 14 14 18 15 16 16 15 17 17 19 9 21 1 23 5 25
REMARK H PARENT 15 18 17 20 9 22 1 24 5 26
REMARK Flexibility Score: inf
ROOT
ATOM      1  C   UNL     1      -6.349  90.283 -12.944  1.00  0.00     0.402 A 
ATOM      2  O   UNL     1      -5.479  90.689 -12.022  1.00  0.00    -0.202 OA
ATOM      3  C   UNL     1      -5.488  90.248 -10.768  1.00  0.00     0.368 A 
ATOM      4  C   UNL     1      -4.534  90.737  -9.870  1.00  0.00     0.162 A 
ATOM      5  C   UNL     1      -4.519  90.295  -8.548  1.00  0.00     0.128 A 
ATOM      6  C   UNL     1      -5.466  89.359  -8.115  1.00  0.00     0.093 A 
ATOM      7  C   UNL     1      -6.431  88.855  -8.995  1.00  0.00     0.136 A 
ATOM      8  C   UNL     1      -6.447  89.299 -10.342  1.00  0.00     0.125 A 
ATOM      9  C   UNL     1      -7.370  88.839 -11.296  1.00  0.00     0.078 A 
ATOM     10  C   UNL     1      -7.319  89.321 -12.608  1.00  0.00     0.223 A 
ENDROOT
BRANCH   1  11
ATOM     11  C   UNL     1      -6.244  90.855 -14.306  1.00  0.00     0.087 A 
ATOM     12  C   UNL     1      -7.113  91.870 -14.743  1.00  0.00     0.022 A 
ATOM     13  C   UNL     1      -6.979  92.411 -16.024  1.00  0.00     0.051 A 
ATOM     14  C   UNL     1      -5.969  91.955 -16.882  1.00  0.00     0.157 A 
ATOM     15  C   UNL     1      -5.220  90.417 -15.162  1.00  0.00     0.068 A 
ATOM     16  C   UNL     1      -5.084  90.955 -16.447  1.00  0.00     0.158 A 
BRANCH  14  17
ATOM     17  O   UNL     1      -5.840  92.495 -18.161  1.00  0.00    -0.504 OA
ATOM     18  H   UNL     1      -5.192  92.107 -18.837  1.00  0.00     0.293 HD
ENDBRANCH  14  17
BRANCH  16  19
ATOM     19  O   UNL     1      -4.065  90.485 -17.274  1.00  0.00    -0.504 OA
ATOM     20  H   UNL     1      -4.005  90.740 -18.252  1.00  0.00     0.293 HD
ENDBRANCH  16  19
ENDBRANCH   1  11
BRANCH  10  21
ATOM     21  O   UNL     1      -8.202  88.827 -13.568  1.00  0.00    -0.500 OA
ATOM     22  H   UNL     1      -8.474  89.378 -14.375  1.00  0.00     0.294 HD
ENDBRANCH  10  21
BRANCH   5  23
ATOM     23  O   UNL     1      -3.560  90.794  -7.668  1.00  0.00    -0.507 OA
ATOM     24  H   UNL     1      -3.475  90.440  -6.721  1.00  0.00     0.293 HD
ENDBRANCH   5  23
BRANCH   7  25
ATOM     25  O   UNL     1      -7.344  87.925  -8.485  1.00  0.00    -0.507 OA
ATOM     26  H   UNL     1      -8.300  87.837  -8.794  1.00  0.00     0.293 HD
ENDBRANCH   7  25
TORSDOF 6
ENDMDL
MODEL 6
REMARK VINA RESULT:    -5.077      4.713      7.754
REMARK INTER + INTRA:          -6.446
REMARK INTER:                  -6.178
REMARK INTRA:                  -0.269
REMARK UNBOUND:                -0.331
REMARK SMILES Oc1cc(O)c2cc(O)c(-c3ccc(O)c(O)c3)[o+]c2c1.[Cl-]
REMARK SMILES IDX 10 1 19 2 20 3 21 4 2 5 3 6 4 7 6 8 7 9 8 10 11 11 12 12
REMARK SMILES IDX 13 13 14 14 18 15 16 16 15 17 17 19 9 21 1 23 5 25
REMARK H PARENT 15 18 17 20 9 22 1 24 5 26
REMARK Flexibility Score: inf
ROOT
ATOM      1  C   UNL     1      -7.529  84.025  -8.805  1.00  0.00     0.402 A 
ATOM      2  O   UNL     1      -8.382  83.045  -9.093  1.00  0.00    -0.202 OA
ATOM      3  C   UNL     1      -9.695  83.226  -9.191  1.00  0.00     0.368 A 
ATOM      4  C   UNL     1     -10.511  82.133  -9.497  1.00  0.00     0.162 A 
ATOM      5  C   UNL     1     -11.892  82.292  -9.604  1.00  0.00     0.128 A 
ATOM      6  C   UNL     1     -12.466  83.554  -9.402  1.00  0.00     0.093 A 
ATOM      7  C   UNL     1     -11.670  84.664  -9.095  1.00  0.00     0.136 A 
ATOM      8  C   UNL     1     -10.264  84.506  -8.989  1.00  0.00     0.125 A 
ATOM      9  C   UNL     1      -9.388  85.565  -8.698  1.00  0.00     0.078 A 
ATOM     10  C   UNL     1      -8.012  85.333  -8.615  1.00  0.00     0.223 A 
ENDROOT
BRANCH   1  11
ATOM     11  C   UNL     1      -6.088  83.695  -8.714  1.00  0.00     0.087 A 
ATOM     12  C   UNL     1      -5.406  83.725  -7.485  1.00  0.00     0.022 A 
ATOM     13  C   UNL     1      -4.052  83.387  -7.420  1.00  0.00     0.051 A 
ATOM     14  C   UNL     1      -3.363  83.002  -8.578  1.00  0.00     0.157 A 
ATOM     15  C   UNL     1      -5.399  83.287  -9.868  1.00  0.00     0.068 A 
ATOM     16  C   UNL     1      -4.042  82.948  -9.807  1.00  0.00     0.158 A 
BRANCH  14  17
ATOM     17  O   UNL     1      -2.011  82.667  -8.510  1.00  0.00    -0.504 OA
ATOM     18  H   UNL     1      -1.446  82.906  -7.704  1.00  0.00     0.293 HD
ENDBRANCH  14  17
BRANCH  16  19
ATOM     19  O   UNL     1      -3.386  82.563 -10.975  1.00  0.00    -0.504 OA
ATOM     20  H   UNL     1      -2.685  83.145 -11.417  1.00  0.00     0.293 HD
ENDBRANCH  16  19
ENDBRANCH   1  11
BRANCH  10  21
ATOM     21  O   UNL     1      -7.137  86.392  -8.376  1.00  0.00    -0.500 OA
ATOM     22  H   UNL     1      -6.132  86.258  -8.347  1.00  0.00     0.294 HD
ENDBRANCH  10  21
BRANCH   5  23
ATOM     23  O   UNL     1     -12.689  81.191  -9.909  1.00  0.00    -0.507 OA
ATOM     24  H   UNL     1     -13.519  81.280 -10.484  1.00  0.00     0.293 HD
ENDBRANCH   5  23
BRANCH   7  25
ATOM     25  O   UNL     1     -12.319  85.888  -8.906  1.00  0.00    -0.507 OA
ATOM     26  H   UNL     1     -12.790  86.402  -9.635  1.00  0.00     0.293 HD
ENDBRANCH   7  25
TORSDOF 6
ENDMDL
MODEL 7
REMARK VINA RESULT:    -4.991      5.854      8.027
REMARK INTER + INTRA:          -6.343
REMARK INTER:                  -6.031
REMARK INTRA:                  -0.312
REMARK UNBOUND:                -0.331
REMARK SMILES Oc1cc(O)c2cc(O)c(-c3ccc(O)c(O)c3)[o+]c2c1.[Cl-]
REMARK SMILES IDX 10 1 19 2 20 3 21 4 2 5 3 6 4 7 6 8 7 9 8 10 11 11 12 12
REMARK SMILES IDX 13 13 14 14 18 15 16 16 15 17 17 19 9 21 1 23 5 25
REMARK H PARENT 15 18 17 20 9 22 1 24 5 26
REMARK Flexibility Score: inf
ROOT
ATOM      1  C   UNL     1      -5.664  91.767 -14.795  1.00  0.00     0.402 A 
ATOM      2  O   UNL     1      -6.395  90.759 -14.327  1.00  0.00    -0.202 OA
ATOM      3  C   UNL     1      -6.327  90.331 -13.069  1.00  0.00     0.368 A 
ATOM      4  C   UNL     1      -7.133  89.261 -12.671  1.00  0.00     0.162 A 
ATOM      5  C   UNL     1      -7.083  88.789 -11.360  1.00  0.00     0.128 A 
ATOM      6  C   UNL     1      -6.217  89.389 -10.437  1.00  0.00     0.093 A 
ATOM      7  C   UNL     1      -5.400  90.463 -10.811  1.00  0.00     0.136 A 
ATOM      8  C   UNL     1      -5.451  90.947 -12.143  1.00  0.00     0.125 A 
ATOM      9  C   UNL     1      -4.678  92.025 -12.604  1.00  0.00     0.078 A 
ATOM     10  C   UNL     1      -4.788  92.450 -13.931  1.00  0.00     0.223 A 
ENDROOT
BRANCH   1  11
ATOM     11  C   UNL     1      -5.821  92.144 -16.218  1.00  0.00     0.087 A 
ATOM     12  C   UNL     1      -6.901  92.932 -16.652  1.00  0.00     0.022 A 
ATOM     13  C   UNL     1      -7.015  93.295 -17.997  1.00  0.00     0.051 A 
ATOM     14  C   UNL     1      -6.047  92.886 -18.924  1.00  0.00     0.157 A 
ATOM     15  C   UNL     1      -4.842  91.755 -17.148  1.00  0.00     0.068 A 
ATOM     16  C   UNL     1      -4.954  92.115 -18.496  1.00  0.00     0.158 A 
BRANCH  14  17
ATOM     17  O   UNL     1      -6.165  93.247 -20.266  1.00  0.00    -0.504 OA
ATOM     18  H   UNL     1      -5.605  92.804 -20.985  1.00  0.00     0.293 HD
ENDBRANCH  14  17
BRANCH  16  19
ATOM     19  O   UNL     1      -3.971  91.698 -19.392  1.00  0.00    -0.504 OA
ATOM     20  H   UNL     1      -3.917  92.058 -20.338  1.00  0.00     0.293 HD
ENDBRANCH  16  19
ENDBRANCH   1  11
BRANCH  10  21
ATOM     21  O   UNL     1      -4.057  93.552 -14.376  1.00  0.00    -0.500 OA
ATOM     22  H   UNL     1      -3.140  93.449 -14.796  1.00  0.00     0.294 HD
ENDBRANCH  10  21
BRANCH   5  23
ATOM     23  O   UNL     1      -7.894  87.722 -10.982  1.00  0.00    -0.507 OA
ATOM     24  H   UNL     1      -8.771  87.530 -11.454  1.00  0.00     0.293 HD
ENDBRANCH   5  23
BRANCH   7  25
ATOM     25  O   UNL     1      -4.562  91.005  -9.832  1.00  0.00    -0.507 OA
ATOM     26  H   UNL     1      -3.895  90.473  -9.293  1.00  0.00     0.293 HD
ENDBRANCH   7  25
TORSDOF 6
ENDMDL
MODEL 8
REMARK VINA RESULT:    -4.985      8.880     11.796
REMARK INTER + INTRA:          -6.335
REMARK INTER:                  -6.003
REMARK INTRA:                  -0.333
REMARK UNBOUND:                -0.331
REMARK SMILES Oc1cc(O)c2cc(O)c(-c3ccc(O)c(O)c3)[o+]c2c1.[Cl-]
REMARK SMILES IDX 10 1 19 2 20 3 21 4 2 5 3 6 4 7 6 8 7 9 8 10 11 11 12 12
REMARK SMILES IDX 13 13 14 14 18 15 16 16 15 17 17 19 9 21 1 23 5 25
REMARK H PARENT 15 18 17 20 9 22 1 24 5 26
REMARK Flexibility Score: inf
ROOT
ATOM      1  C   UNL     1      -4.018  91.951 -17.815  1.00  0.00     0.402 A 
ATOM      2  O   UNL     1      -4.863  92.719 -18.498  1.00  0.00    -0.202 OA
ATOM      3  C   UNL     1      -4.630  93.134 -19.740  1.00  0.00     0.368 A 
ATOM      4  C   UNL     1      -5.578  93.942 -20.375  1.00  0.00     0.162 A 
ATOM      5  C   UNL     1      -5.360  94.395 -21.676  1.00  0.00     0.128 A 
ATOM      6  C   UNL     1      -4.185  94.039 -22.350  1.00  0.00     0.093 A 
ATOM      7  C   UNL     1      -3.221  93.231 -21.735  1.00  0.00     0.136 A 
ATOM      8  C   UNL     1      -3.441  92.766 -20.413  1.00  0.00     0.125 A 
ATOM      9  C   UNL     1      -2.536  91.942 -19.724  1.00  0.00     0.078 A 
ATOM     10  C   UNL     1      -2.825  91.519 -18.423  1.00  0.00     0.223 A 
ENDROOT
BRANCH   1  11
ATOM     11  C   UNL     1      -4.385  91.562 -16.434  1.00  0.00     0.087 A 
ATOM     12  C   UNL     1      -5.230  90.468 -16.181  1.00  0.00     0.022 A 
ATOM     13  C   UNL     1      -5.544  90.106 -14.868  1.00  0.00     0.051 A 
ATOM     14  C   UNL     1      -5.008  90.823 -13.790  1.00  0.00     0.157 A 
ATOM     15  C   UNL     1      -3.834  92.265 -15.350  1.00  0.00     0.068 A 
ATOM     16  C   UNL     1      -4.146  91.906 -14.033  1.00  0.00     0.158 A 
BRANCH  14  17
ATOM     17  O   UNL     1      -5.324  90.462 -12.481  1.00  0.00    -0.504 OA
ATOM     18  H   UNL     1      -5.249  89.502 -12.163  1.00  0.00     0.293 HD
ENDBRANCH  14  17
BRANCH  16  19
ATOM     19  O   UNL     1      -3.591  92.635 -12.982  1.00  0.00    -0.504 OA
ATOM     20  H   UNL     1      -2.861  92.257 -12.391  1.00  0.00     0.293 HD
ENDBRANCH  16  19
ENDBRANCH   1  11
BRANCH  10  21
ATOM     21  O   UNL     1      -1.951  90.660 -17.756  1.00  0.00    -0.500 OA
ATOM     22  H   UNL     1      -1.577  90.886 -16.841  1.00  0.00     0.294 HD
ENDBRANCH  10  21
BRANCH   5  23
ATOM     23  O   UNL     1      -6.316  95.199 -22.292  1.00  0.00    -0.507 OA
ATOM     24  H   UNL     1      -7.033  95.676 -21.755  1.00  0.00     0.293 HD
ENDBRANCH   5  23
BRANCH   7  25
ATOM     25  O   UNL     1      -2.075  92.923 -22.474  1.00  0.00    -0.507 OA
ATOM     26  H   UNL     1      -1.876  93.283 -23.395  1.00  0.00     0.293 HD
ENDBRANCH   7  25
TORSDOF 6
ENDMDL
MODEL 9
REMARK VINA RESULT:    -4.933      6.896      9.714
REMARK INTER + INTRA:          -6.274
REMARK INTER:                  -6.097
REMARK INTRA:                  -0.177
REMARK UNBOUND:                -0.331
REMARK SMILES Oc1cc(O)c2cc(O)c(-c3ccc(O)c(O)c3)[o+]c2c1.[Cl-]
REMARK SMILES IDX 10 1 19 2 20 3 21 4 2 5 3 6 4 7 6 8 7 9 8 10 11 11 12 12
REMARK SMILES IDX 13 13 14 14 18 15 16 16 15 17 17 19 9 21 1 23 5 25
REMARK H PARENT 15 18 17 20 9 22 1 24 5 26
REMARK Flexibility Score: inf
ROOT
ATOM      1  C   UNL     1      -4.551  91.323 -15.404  1.00  0.00     0.402 A 
ATOM      2  O   UNL     1      -5.361  91.857 -16.313  1.00  0.00    -0.202 OA
ATOM      3  C   UNL     1      -4.951  92.241 -17.519  1.00  0.00     0.368 A 
ATOM      4  C   UNL     1      -5.878  92.796 -18.406  1.00  0.00     0.162 A 
ATOM      5  C   UNL     1      -5.477  93.210 -19.676  1.00  0.00     0.128 A 
ATOM      6  C   UNL     1      -4.138  93.073 -20.064  1.00  0.00     0.093 A 
ATOM      7  C   UNL     1      -3.191  92.520 -19.193  1.00  0.00     0.136 A 
ATOM      8  C   UNL     1      -3.596  92.095 -17.902  1.00  0.00     0.125 A 
ATOM      9  C   UNL     1      -2.719  91.519 -16.968  1.00  0.00     0.078 A 
ATOM     10  C   UNL     1      -3.194  91.118 -15.715  1.00  0.00     0.223 A 
ENDROOT
BRANCH   1  11
ATOM     11  C   UNL     1      -5.124  90.944 -14.092  1.00  0.00     0.087 A 
ATOM     12  C   UNL     1      -4.641  91.498 -12.893  1.00  0.00     0.022 A 
ATOM     13  C   UNL     1      -5.215  91.142 -11.670  1.00  0.00     0.051 A 
ATOM     14  C   UNL     1      -6.286  90.240 -11.626  1.00  0.00     0.157 A 
ATOM     15  C   UNL     1      -6.212  90.056 -14.044  1.00  0.00     0.068 A 
ATOM     16  C   UNL     1      -6.788  89.697 -12.820  1.00  0.00     0.158 A 
BRANCH  14  17
ATOM     17  O   UNL     1      -6.854  89.885 -10.403  1.00  0.00    -0.504 OA
ATOM     18  H   UNL     1      -7.778  90.206 -10.135  1.00  0.00     0.293 HD
ENDBRANCH  14  17
BRANCH  16  19
ATOM     19  O   UNL     1      -7.857  88.802 -12.811  1.00  0.00    -0.504 OA
ATOM     20  H   UNL     1      -8.407  88.629 -11.978  1.00  0.00     0.293 HD
ENDBRANCH  16  19
ENDBRANCH   1  11
BRANCH  10  21
ATOM     21  O   UNL     1      -2.334  90.501 -14.806  1.00  0.00    -0.500 OA
ATOM     22  H   UNL     1      -1.369  90.793 -14.704  1.00  0.00     0.294 HD
ENDBRANCH  10  21
BRANCH   5  23
ATOM     23  O   UNL     1      -6.415  93.760 -20.547  1.00  0.00    -0.507 OA
ATOM     24  H   UNL     1      -7.376  93.915 -20.262  1.00  0.00     0.293 HD
ENDBRANCH   5  23
BRANCH   7  25
ATOM     25  O   UNL     1      -1.875  92.419 -19.653  1.00  0.00    -0.507 OA
ATOM     26  H   UNL     1      -1.394  93.142 -20.167  1.00  0.00     0.293 HD
ENDBRANCH   7  25
TORSDOF 6
ENDMDL
