MODEL 1
REMARK VINA RESULT:    -2.730      0.000      0.000
REMARK INTER + INTRA:          -3.156
REMARK INTER:                  -2.970
REMARK INTRA:                  -0.186
REMARK UNBOUND:                -0.186
REMARK SMILES CC1=CC[C@H](C(C)(C)O)CC1
REMARK SMILES IDX 6 1 7 2 8 3 5 4 1 5 2 6 3 7 11 8 4 9 10 10 9 11
REMARK H PARENT 9 12
REMARK Flexibility Score: inf
ROOT
ATOM      1  C   UNL     1     -40.725  22.575   8.233  1.00  0.00     0.062 C 
ATOM      2  C   UNL     1     -42.002  22.655   9.096  1.00  0.00     0.042 C 
ATOM      3  C   UNL     1     -39.541  23.034   9.118  1.00  0.00     0.042 C 
ENDROOT
BRANCH   1   4
ATOM      4  C   UNL     1     -40.892  23.483   6.960  1.00  0.00     0.024 C 
ATOM      5  C   UNL     1     -42.124  26.215   3.876  1.00  0.00     0.039 C 
ATOM      6  C   UNL     1     -42.112  25.253   5.031  1.00  0.00    -0.077 C 
ATOM      7  C   UNL     1     -42.079  23.930   4.808  1.00  0.00    -0.028 C 
ATOM      8  C   UNL     1     -42.125  25.744   6.457  1.00  0.00     0.031 C 
ATOM      9  C   UNL     1     -41.984  22.986   5.974  1.00  0.00     0.034 C 
ATOM     10  C   UNL     1     -41.094  24.994   7.329  1.00  0.00     0.011 C 
ENDBRANCH   1   4
BRANCH   1  11
ATOM     11  O   UNL     1     -40.544  21.227   7.865  1.00  0.00    -0.390 OA
ATOM     12  H   UNL     1     -39.573  21.032   7.860  1.00  0.00     0.211 HD
ENDBRANCH   1  11
TORSDOF 2
ENDMDL
MODEL 2
REMARK VINA RESULT:    -1.240     17.802     19.296
REMARK INTER + INTRA:          -1.535
REMARK INTER:                  -1.389
REMARK INTRA:                  -0.146
REMARK UNBOUND:                -0.186
REMARK SMILES CC1=CC[C@H](C(C)(C)O)CC1
REMARK SMILES IDX 6 1 7 2 8 3 5 4 1 5 2 6 3 7 11 8 4 9 10 10 9 11
REMARK H PARENT 9 12
REMARK Flexibility Score: inf
ROOT
ATOM      1  C   UNL     1     -25.063  32.246   7.949  1.00  0.00     0.062 C 
ATOM      2  C   UNL     1     -25.887  32.821   9.121  1.00  0.00     0.042 C 
ATOM      3  C   UNL     1     -26.028  32.055   6.755  1.00  0.00     0.042 C 
ENDROOT
BRANCH   1   4
ATOM      4  C   UNL     1     -24.398  30.890   8.389  1.00  0.00     0.024 C 
ATOM      5  C   UNL     1     -21.875  27.483   9.108  1.00  0.00     0.039 C 
ATOM      6  C   UNL     1     -22.506  28.712   8.515  1.00  0.00    -0.077 C 
ATOM      7  C   UNL     1     -23.607  28.607   7.756  1.00  0.00    -0.028 C 
ATOM      8  C   UNL     1     -21.930  30.084   8.765  1.00  0.00     0.031 C 
ATOM      9  C   UNL     1     -24.271  29.853   7.240  1.00  0.00     0.034 C 
ATOM     10  C   UNL     1     -23.028  31.108   9.122  1.00  0.00     0.011 C 
ENDBRANCH   1   4
BRANCH   1  11
ATOM     11  O   UNL     1     -24.080  33.199   7.614  1.00  0.00    -0.390 OA
ATOM     12  H   UNL     1     -24.268  34.032   8.116  1.00  0.00     0.211 HD
ENDBRANCH   1  11
TORSDOF 2
ENDMDL
MODEL 3
REMARK VINA RESULT:    -1.152      1.363      2.195
REMARK INTER + INTRA:          -1.440
REMARK INTER:                  -1.254
REMARK INTRA:                  -0.186
REMARK UNBOUND:                -0.186
REMARK SMILES CC1=CC[C@H](C(C)(C)O)CC1
REMARK SMILES IDX 6 1 7 2 8 3 5 4 1 5 2 6 3 7 11 8 4 9 10 10 9 11
REMARK H PARENT 9 12
REMARK Flexibility Score: inf
ROOT
ATOM      1  C   UNL     1     -41.439  22.984   8.023  1.00  0.00     0.062 C 
ATOM      2  C   UNL     1     -39.921  23.153   8.242  1.00  0.00     0.042 C 
ATOM      3  C   UNL     1     -41.734  21.465   7.993  1.00  0.00     0.042 C 
ENDROOT
BRANCH   1   4
ATOM      4  C   UNL     1     -41.860  23.691   6.683  1.00  0.00     0.024 C 
ATOM      5  C   UNL     1     -42.123  25.758   2.922  1.00  0.00     0.039 C 
ATOM      6  C   UNL     1     -41.665  25.250   4.260  1.00  0.00    -0.077 C 
ATOM      7  C   UNL     1     -42.124  25.811   5.389  1.00  0.00    -0.028 C 
ATOM      8  C   UNL     1     -40.694  24.100   4.369  1.00  0.00     0.031 C 
ATOM      9  C   UNL     1     -41.719  25.237   6.718  1.00  0.00     0.034 C 
ATOM     10  C   UNL     1     -41.140  23.074   5.433  1.00  0.00     0.011 C 
ENDBRANCH   1   4
BRANCH   1  11
ATOM     11  O   UNL     1     -42.095  23.570   9.125  1.00  0.00    -0.390 OA
ATOM     12  H   UNL     1     -41.627  24.412   9.355  1.00  0.00     0.211 HD
ENDBRANCH   1  11
TORSDOF 2
ENDMDL
MODEL 4
REMARK VINA RESULT:    -0.815     18.534     19.832
REMARK INTER + INTRA:          -1.072
REMARK INTER:                  -0.913
REMARK INTRA:                  -0.160
REMARK UNBOUND:                -0.186
REMARK SMILES CC1=CC[C@H](C(C)(C)O)CC1
REMARK SMILES IDX 6 1 7 2 8 3 5 4 1 5 2 6 3 7 11 8 4 9 10 10 9 11
REMARK H PARENT 9 12
REMARK Flexibility Score: inf
ROOT
ATOM      1  C   UNL     1     -24.428  30.177   7.623  1.00  0.00     0.062 C 
ATOM      2  C   UNL     1     -23.294  29.176   7.928  1.00  0.00     0.042 C 
ATOM      3  C   UNL     1     -24.894  29.917   6.170  1.00  0.00     0.042 C 
ENDROOT
BRANCH   1   4
ATOM      4  C   UNL     1     -23.900  31.646   7.816  1.00  0.00     0.024 C 
ATOM      5  C   UNL     1     -22.121  35.338   9.119  1.00  0.00     0.039 C 
ATOM      6  C   UNL     1     -22.735  33.966   9.081  1.00  0.00    -0.077 C 
ATOM      7  C   UNL     1     -24.068  33.824   9.028  1.00  0.00    -0.028 C 
ATOM      8  C   UNL     1     -21.876  32.725   9.090  1.00  0.00     0.031 C 
ATOM      9  C   UNL     1     -24.660  32.447   8.907  1.00  0.00     0.034 C 
ATOM     10  C   UNL     1     -22.348  31.696   8.040  1.00  0.00     0.011 C 
ENDBRANCH   1   4
BRANCH   1  11
ATOM     11  O   UNL     1     -25.486  29.905   8.513  1.00  0.00    -0.390 OA
ATOM     12  H   UNL     1     -25.304  30.375   9.367  1.00  0.00     0.211 HD
ENDBRANCH   1  11
TORSDOF 2
ENDMDL
MODEL 5
REMARK VINA RESULT:    -0.336     18.790     20.027
REMARK INTER + INTRA:          -0.552
REMARK INTER:                  -0.400
REMARK INTRA:                  -0.152
REMARK UNBOUND:                -0.186
REMARK SMILES CC1=CC[C@H](C(C)(C)O)CC1
REMARK SMILES IDX 6 1 7 2 8 3 5 4 1 5 2 6 3 7 11 8 4 9 10 10 9 11
REMARK H PARENT 9 12
REMARK Flexibility Score: inf
ROOT
ATOM      1  C   UNL     1     -23.927  29.959   7.970  1.00  0.00     0.062 C 
ATOM      2  C   UNL     1     -24.966  30.038   6.831  1.00  0.00     0.042 C 
ATOM      3  C   UNL     1     -24.533  29.073   9.086  1.00  0.00     0.042 C 
ENDROOT
BRANCH   1   4
ATOM      4  C   UNL     1     -23.600  31.409   8.486  1.00  0.00     0.024 C 
ATOM      5  C   UNL     1     -22.419  35.505   9.046  1.00  0.00     0.039 C 
ATOM      6  C   UNL     1     -22.549  34.098   8.534  1.00  0.00    -0.077 C 
ATOM      7  C   UNL     1     -21.876  33.099   9.124  1.00  0.00    -0.028 C 
ATOM      8  C   UNL     1     -23.439  33.773   7.360  1.00  0.00     0.031 C 
ATOM      9  C   UNL     1     -22.081  31.688   8.651  1.00  0.00     0.034 C 
ATOM     10  C   UNL     1     -24.299  32.519   7.626  1.00  0.00     0.011 C 
ENDBRANCH   1   4
BRANCH   1  11
ATOM     11  O   UNL     1     -22.772  29.341   7.451  1.00  0.00    -0.390 OA
ATOM     12  H   UNL     1     -22.101  29.275   8.177  1.00  0.00     0.211 HD
ENDBRANCH   1  11
TORSDOF 2
ENDMDL
MODEL 6
REMARK VINA RESULT:    -0.292     17.950     19.133
REMARK INTER + INTRA:          -0.504
REMARK INTER:                  -0.309
REMARK INTRA:                  -0.195
REMARK UNBOUND:                -0.186
REMARK SMILES CC1=CC[C@H](C(C)(C)O)CC1
REMARK SMILES IDX 6 1 7 2 8 3 5 4 1 5 2 6 3 7 11 8 4 9 10 10 9 11
REMARK H PARENT 9 12
REMARK Flexibility Score: inf
ROOT
ATOM      1  C   UNL     1     -23.172  32.912   8.208  1.00  0.00     0.062 C 
ATOM      2  C   UNL     1     -22.007  32.475   9.121  1.00  0.00     0.042 C 
ATOM      3  C   UNL     1     -24.315  33.409   9.125  1.00  0.00     0.042 C 
ENDROOT
BRANCH   1   4
ATOM      4  C   UNL     1     -23.623  31.699   7.314  1.00  0.00     0.024 C 
ATOM      5  C   UNL     1     -25.636  28.464   5.321  1.00  0.00     0.039 C 
ATOM      6  C   UNL     1     -25.218  29.507   6.320  1.00  0.00    -0.077 C 
ATOM      7  C   UNL     1     -24.191  29.273   7.151  1.00  0.00    -0.028 C 
ATOM      8  C   UNL     1     -25.928  30.835   6.406  1.00  0.00     0.031 C 
ATOM      9  C   UNL     1     -23.735  30.357   8.086  1.00  0.00     0.034 C 
ATOM     10  C   UNL     1     -24.931  32.010   6.505  1.00  0.00     0.011 C 
ENDBRANCH   1   4
BRANCH   1  11
ATOM     11  O   UNL     1     -22.711  33.978   7.409  1.00  0.00    -0.390 OA
ATOM     12  H   UNL     1     -21.917  34.376   7.849  1.00  0.00     0.211 HD
ENDBRANCH   1  11
TORSDOF 2
ENDMDL
