MODEL 1
REMARK VINA RESULT:    -6.042      0.000      0.000
REMARK INTER + INTRA:         -12.210
REMARK INTER:                 -11.341
REMARK INTRA:                  -0.869
REMARK UNBOUND:                -0.869
REMARK SMILES O=C([O-])CCCCCCCCCCCCCCC(=O)[O-]
REMARK SMILES IDX 10 1 9 2 8 3 7 4 6 5 5 6 4 7 2 8 1 9 3 10 11 11 12 12 13 13
REMARK SMILES IDX 14 14 15 15 16 16 17 17 18 18 19 19 20 20
REMARK H PARENT
REMARK Flexibility Score: inf
ROOT
ATOM      1  C   UNL     1     -22.260 -31.074  23.243  1.00  0.00     0.000 C 
ENDROOT
BRANCH   1   2
ATOM      2  C   UNL     1     -20.794 -31.305  23.645  1.00  0.00     0.000 C 
BRANCH   2   3
ATOM      3  C   UNL     1     -20.237 -30.181  24.533  1.00  0.00     0.000 C 
BRANCH   3   4
ATOM      4  C   UNL     1     -18.698 -30.133  24.529  1.00  0.00     0.000 C 
BRANCH   4   5
ATOM      5  C   UNL     1     -18.083 -31.048  23.456  1.00  0.00     0.000 C 
BRANCH   5   6
ATOM      6  C   UNL     1     -16.566 -30.843  23.301  1.00  0.00     0.006 C 
BRANCH   6   7
ATOM      7  C   UNL     1     -16.124 -30.880  21.833  1.00  0.00     0.053 C 
BRANCH   7   8
ATOM      8  C   UNL     1     -16.409 -29.586  21.133  1.00  0.00     0.041 C 
ATOM      9  O   UNL     1     -16.614 -29.567  19.891  1.00  0.00    -0.550 OA
ATOM     10  O   UNL     1     -16.478 -28.403  21.859  1.00  0.00    -0.550 OA
ENDBRANCH   7   8
ENDBRANCH   6   7
ENDBRANCH   5   6
ENDBRANCH   4   5
ENDBRANCH   3   4
ENDBRANCH   2   3
ENDBRANCH   1   2
BRANCH   1  11
ATOM     11  C   UNL     1     -23.164 -32.177  23.814  1.00  0.00     0.000 C 
BRANCH  11  12
ATOM     12  C   UNL     1     -23.942 -31.718  25.057  1.00  0.00     0.000 C 
BRANCH  12  13
ATOM     13  C   UNL     1     -24.491 -32.896  25.880  1.00  0.00     0.000 C 
BRANCH  13  14
ATOM     14  C   UNL     1     -26.017 -32.837  26.050  1.00  0.00     0.000 C 
BRANCH  14  15
ATOM     15  C   UNL     1     -26.765 -32.920  24.712  1.00  0.00     0.000 C 
BRANCH  15  16
ATOM     16  C   UNL     1     -27.695 -31.711  24.526  1.00  0.00     0.006 C 
BRANCH  16  17
ATOM     17  C   UNL     1     -27.674 -31.178  23.087  1.00  0.00     0.053 C 
BRANCH  17  18
ATOM     18  C   UNL     1     -28.750 -31.797  22.248  1.00  0.00     0.041 C 
ATOM     19  O   UNL     1     -28.552 -32.903  21.679  1.00  0.00    -0.550 OA
ATOM     20  O   UNL     1     -29.958 -31.136  22.065  1.00  0.00    -0.550 OA
ENDBRANCH  17  18
ENDBRANCH  16  17
ENDBRANCH  15  16
ENDBRANCH  14  15
ENDBRANCH  13  14
ENDBRANCH  12  13
ENDBRANCH  11  12
ENDBRANCH   1  11
TORSDOF 15
ENDMDL
MODEL 2
REMARK VINA RESULT:    -6.038      0.750      9.966
REMARK INTER + INTRA:         -12.202
REMARK INTER:                 -11.553
REMARK INTRA:                  -0.648
REMARK UNBOUND:                -0.869
REMARK SMILES O=C([O-])CCCCCCCCCCCCCCC(=O)[O-]
REMARK SMILES IDX 10 1 9 2 8 3 7 4 6 5 5 6 4 7 2 8 1 9 3 10 11 11 12 12 13 13
REMARK SMILES IDX 14 14 15 15 16 16 17 17 18 18 19 19 20 20
REMARK H PARENT
REMARK Flexibility Score: inf
ROOT
ATOM      1  C   UNL     1     -22.895 -31.020  24.766  1.00  0.00     0.000 C 
ENDROOT
BRANCH   1   2
ATOM      2  C   UNL     1     -24.152 -31.885  24.576  1.00  0.00     0.000 C 
BRANCH   2   3
ATOM      3  C   UNL     1     -24.469 -32.752  25.805  1.00  0.00     0.000 C 
BRANCH   3   4
ATOM      4  C   UNL     1     -25.978 -32.843  26.090  1.00  0.00     0.000 C 
BRANCH   4   5
ATOM      5  C   UNL     1     -26.811 -33.023  24.809  1.00  0.00     0.000 C 
BRANCH   5   6
ATOM      6  C   UNL     1     -27.969 -32.015  24.709  1.00  0.00     0.006 C 
BRANCH   6   7
ATOM      7  C   UNL     1     -27.892 -31.172  23.429  1.00  0.00     0.053 C 
BRANCH   7   8
ATOM      8  C   UNL     1     -28.779 -31.714  22.350  1.00  0.00     0.041 C 
ATOM      9  O   UNL     1     -28.449 -32.752  21.719  1.00  0.00    -0.550 OA
ATOM     10  O   UNL     1     -29.987 -31.089  22.064  1.00  0.00    -0.550 OA
ENDBRANCH   7   8
ENDBRANCH   6   7
ENDBRANCH   5   6
ENDBRANCH   4   5
ENDBRANCH   3   4
ENDBRANCH   2   3
ENDBRANCH   1   2
BRANCH   1  11
ATOM     11  C   UNL     1     -21.795 -31.429  23.775  1.00  0.00     0.000 C 
BRANCH  11  12
ATOM     12  C   UNL     1     -20.574 -30.497  23.831  1.00  0.00     0.000 C 
BRANCH  12  13
ATOM     13  C   UNL     1     -19.248 -31.245  23.610  1.00  0.00     0.000 C 
BRANCH  13  14
ATOM     14  C   UNL     1     -18.020 -30.367  23.897  1.00  0.00     0.000 C 
BRANCH  14  15
ATOM     15  C   UNL     1     -16.696 -31.092  23.613  1.00  0.00     0.000 C 
BRANCH  15  16
ATOM     16  C   UNL     1     -15.953 -30.438  22.438  1.00  0.00     0.006 C 
BRANCH  16  17
ATOM     17  C   UNL     1     -16.652 -30.692  21.095  1.00  0.00     0.053 C 
BRANCH  17  18
ATOM     18  C   UNL     1     -16.506 -29.528  20.163  1.00  0.00     0.041 C 
ATOM     19  O   UNL     1     -16.284 -28.375  20.618  1.00  0.00    -0.550 OA
ATOM     20  O   UNL     1     -16.651 -29.710  18.793  1.00  0.00    -0.550 OA
ENDBRANCH  17  18
ENDBRANCH  16  17
ENDBRANCH  15  16
ENDBRANCH  14  15
ENDBRANCH  13  14
ENDBRANCH  12  13
ENDBRANCH  11  12
ENDBRANCH   1  11
TORSDOF 15
ENDMDL
MODEL 3
REMARK VINA RESULT:    -6.003      1.390      9.967
REMARK INTER + INTRA:         -12.136
REMARK INTER:                 -11.052
REMARK INTRA:                  -1.084
REMARK UNBOUND:                -0.869
REMARK SMILES O=C([O-])CCCCCCCCCCCCCCC(=O)[O-]
REMARK SMILES IDX 10 1 9 2 8 3 7 4 6 5 5 6 4 7 2 8 1 9 3 10 11 11 12 12 13 13
REMARK SMILES IDX 14 14 15 15 16 16 17 17 18 18 19 19 20 20
REMARK H PARENT
REMARK Flexibility Score: inf
ROOT
ATOM      1  C   UNL     1     -24.536 -32.464  25.603  1.00  0.00     0.000 C 
ENDROOT
BRANCH   1   2
ATOM      2  C   UNL     1     -25.937 -31.871  25.383  1.00  0.00     0.000 C 
BRANCH   2   3
ATOM      3  C   UNL     1     -27.031 -32.947  25.293  1.00  0.00     0.000 C 
BRANCH   3   4
ATOM      4  C   UNL     1     -27.287 -33.408  23.848  1.00  0.00     0.000 C 
BRANCH   4   5
ATOM      5  C   UNL     1     -27.039 -32.291  22.819  1.00  0.00     0.000 C 
BRANCH   5   6
ATOM      6  C   UNL     1     -28.329 -31.557  22.418  1.00  0.00     0.006 C 
BRANCH   6   7
ATOM      7  C   UNL     1     -28.598 -30.334  23.305  1.00  0.00     0.053 C 
BRANCH   7   8
ATOM      8  C   UNL     1     -29.841 -30.504  24.125  1.00  0.00     0.041 C 
ATOM      9  O   UNL     1     -29.761 -30.683  25.369  1.00  0.00    -0.550 OA
ATOM     10  O   UNL     1     -31.089 -30.433  23.519  1.00  0.00    -0.550 OA
ENDBRANCH   7   8
ENDBRANCH   6   7
ENDBRANCH   5   6
ENDBRANCH   4   5
ENDBRANCH   3   4
ENDBRANCH   2   3
ENDBRANCH   1   2
BRANCH   1  11
ATOM     11  C   UNL     1     -23.454 -31.550  25.008  1.00  0.00     0.000 C 
BRANCH  11  12
ATOM     12  C   UNL     1     -23.280 -31.747  23.494  1.00  0.00     0.000 C 
BRANCH  12  13
ATOM     13  C   UNL     1     -21.839 -32.119  23.108  1.00  0.00     0.000 C 
BRANCH  13  14
ATOM     14  C   UNL     1     -20.808 -31.103  23.622  1.00  0.00     0.000 C 
BRANCH  14  15
ATOM     15  C   UNL     1     -19.361 -31.579  23.431  1.00  0.00     0.000 C 
BRANCH  15  16
ATOM     16  C   UNL     1     -18.374 -30.637  24.138  1.00  0.00     0.006 C 
BRANCH  16  17
ATOM     17  C   UNL     1     -16.928 -30.856  23.675  1.00  0.00     0.053 C 
BRANCH  17  18
ATOM     18  C   UNL     1     -16.652 -30.173  22.369  1.00  0.00     0.041 C 
ATOM     19  O   UNL     1     -16.878 -28.941  22.239  1.00  0.00    -0.550 OA
ATOM     20  O   UNL     1     -16.180 -30.904  21.287  1.00  0.00    -0.550 OA
ENDBRANCH  17  18
ENDBRANCH  16  17
ENDBRANCH  15  16
ENDBRANCH  14  15
ENDBRANCH  13  14
ENDBRANCH  12  13
ENDBRANCH  11  12
ENDBRANCH   1  11
TORSDOF 15
ENDMDL
MODEL 4
REMARK VINA RESULT:    -5.895      1.849      3.712
REMARK INTER + INTRA:         -11.933
REMARK INTER:                 -10.109
REMARK INTRA:                  -1.824
REMARK UNBOUND:                -0.869
REMARK SMILES O=C([O-])CCCCCCCCCCCCCCC(=O)[O-]
REMARK SMILES IDX 10 1 9 2 8 3 7 4 6 5 5 6 4 7 2 8 1 9 3 10 11 11 12 12 13 13
REMARK SMILES IDX 14 14 15 15 16 16 17 17 18 18 19 19 20 20
REMARK H PARENT
REMARK Flexibility Score: inf
ROOT
ATOM      1  C   UNL     1     -25.145 -32.966  25.865  1.00  0.00     0.000 C 
ENDROOT
BRANCH   1   2
ATOM      2  C   UNL     1     -24.553 -31.663  25.304  1.00  0.00     0.000 C 
BRANCH   2   3
ATOM      3  C   UNL     1     -23.442 -31.910  24.272  1.00  0.00     0.000 C 
BRANCH   3   4
ATOM      4  C   UNL     1     -23.346 -30.784  23.227  1.00  0.00     0.000 C 
BRANCH   4   5
ATOM      5  C   UNL     1     -21.995 -30.050  23.273  1.00  0.00     0.000 C 
BRANCH   5   6
ATOM      6  C   UNL     1     -20.935 -30.810  24.088  1.00  0.00     0.006 C 
BRANCH   6   7
ATOM      7  C   UNL     1     -19.575 -30.098  24.076  1.00  0.00     0.053 C 
BRANCH   7   8
ATOM      8  C   UNL     1     -18.475 -31.007  23.619  1.00  0.00     0.041 C 
ATOM      9  O   UNL     1     -17.279 -30.757  23.921  1.00  0.00    -0.550 OA
ATOM     10  O   UNL     1     -18.775 -32.148  22.885  1.00  0.00    -0.550 OA
ENDBRANCH   7   8
ENDBRANCH   6   7
ENDBRANCH   5   6
ENDBRANCH   4   5
ENDBRANCH   3   4
ENDBRANCH   2   3
ENDBRANCH   1   2
BRANCH   1  11
ATOM     11  C   UNL     1     -26.637 -32.794  26.191  1.00  0.00     0.000 C 
BRANCH  11  12
ATOM     12  C   UNL     1     -27.057 -31.318  26.272  1.00  0.00     0.000 C 
BRANCH  12  13
ATOM     13  C   UNL     1     -28.412 -31.051  25.594  1.00  0.00     0.000 C 
BRANCH  13  14
ATOM     14  C   UNL     1     -28.364 -29.853  24.633  1.00  0.00     0.000 C 
BRANCH  14  15
ATOM     15  C   UNL     1     -27.052 -29.785  23.837  1.00  0.00     0.000 C 
BRANCH  15  16
ATOM     16  C   UNL     1     -27.242 -30.339  22.417  1.00  0.00     0.006 C 
BRANCH  16  17
ATOM     17  C   UNL     1     -26.850 -31.819  22.313  1.00  0.00     0.053 C 
BRANCH  17  18
ATOM     18  C   UNL     1     -28.051 -32.715  22.325  1.00  0.00     0.041 C 
ATOM     19  O   UNL     1     -29.130 -32.334  21.799  1.00  0.00    -0.550 OA
ATOM     20  O   UNL     1     -27.989 -33.955  22.947  1.00  0.00    -0.550 OA
ENDBRANCH  17  18
ENDBRANCH  16  17
ENDBRANCH  15  16
ENDBRANCH  14  15
ENDBRANCH  13  14
ENDBRANCH  12  13
ENDBRANCH  11  12
ENDBRANCH   1  11
TORSDOF 15
ENDMDL
MODEL 5
REMARK VINA RESULT:    -5.842      1.063      2.177
REMARK INTER + INTRA:         -11.834
REMARK INTER:                 -10.601
REMARK INTRA:                  -1.234
REMARK UNBOUND:                -0.869
REMARK SMILES O=C([O-])CCCCCCCCCCCCCCC(=O)[O-]
REMARK SMILES IDX 10 1 9 2 8 3 7 4 6 5 5 6 4 7 2 8 1 9 3 10 11 11 12 12 13 13
REMARK SMILES IDX 14 14 15 15 16 16 17 17 18 18 19 19 20 20
REMARK H PARENT
REMARK Flexibility Score: inf
ROOT
ATOM      1  C   UNL     1     -23.897 -31.724  24.262  1.00  0.00     0.000 C 
ENDROOT
BRANCH   1   2
ATOM      2  C   UNL     1     -23.512 -30.282  24.629  1.00  0.00     0.000 C 
BRANCH   2   3
ATOM      3  C   UNL     1     -22.023 -30.135  24.979  1.00  0.00     0.000 C 
BRANCH   3   4
ATOM      4  C   UNL     1     -21.101 -30.733  23.901  1.00  0.00     0.000 C 
BRANCH   4   5
ATOM      5  C   UNL     1     -19.635 -30.300  24.073  1.00  0.00     0.000 C 
BRANCH   5   6
ATOM      6  C   UNL     1     -18.642 -31.344  23.535  1.00  0.00     0.006 C 
BRANCH   6   7
ATOM      7  C   UNL     1     -17.203 -30.812  23.503  1.00  0.00     0.053 C 
BRANCH   7   8
ATOM      8  C   UNL     1     -16.891 -30.131  22.205  1.00  0.00     0.041 C 
ATOM      9  O   UNL     1     -16.747 -28.881  22.162  1.00  0.00    -0.550 OA
ATOM     10  O   UNL     1     -16.728 -30.882  21.047  1.00  0.00    -0.550 OA
ENDBRANCH   7   8
ENDBRANCH   6   7
ENDBRANCH   5   6
ENDBRANCH   4   5
ENDBRANCH   3   4
ENDBRANCH   2   3
ENDBRANCH   1   2
BRANCH   1  11
ATOM     11  C   UNL     1     -24.319 -32.514  25.510  1.00  0.00     0.000 C 
BRANCH  11  12
ATOM     12  C   UNL     1     -25.804 -32.907  25.486  1.00  0.00     0.000 C 
BRANCH  12  13
ATOM     13  C   UNL     1     -26.664 -32.030  26.412  1.00  0.00     0.000 C 
BRANCH  13  14
ATOM     14  C   UNL     1     -27.816 -31.337  25.667  1.00  0.00     0.000 C 
BRANCH  14  15
ATOM     15  C   UNL     1     -27.401 -29.990  25.057  1.00  0.00     0.000 C 
BRANCH  15  16
ATOM     16  C   UNL     1     -27.888 -29.871  23.605  1.00  0.00     0.006 C 
BRANCH  16  17
ATOM     17  C   UNL     1     -27.373 -31.016  22.723  1.00  0.00     0.053 C 
BRANCH  17  18
ATOM     18  C   UNL     1     -28.493 -31.868  22.207  1.00  0.00     0.041 C 
ATOM     19  O   UNL     1     -29.623 -31.360  21.982  1.00  0.00    -0.550 OA
ATOM     20  O   UNL     1     -28.299 -33.229  22.007  1.00  0.00    -0.550 OA
ENDBRANCH  17  18
ENDBRANCH  16  17
ENDBRANCH  15  16
ENDBRANCH  14  15
ENDBRANCH  13  14
ENDBRANCH  12  13
ENDBRANCH  11  12
ENDBRANCH   1  11
TORSDOF 15
ENDMDL
MODEL 6
REMARK VINA RESULT:    -5.808      2.093      9.642
REMARK INTER + INTRA:         -11.770
REMARK INTER:                 -10.794
REMARK INTRA:                  -0.975
REMARK UNBOUND:                -0.869
REMARK SMILES O=C([O-])CCCCCCCCCCCCCCC(=O)[O-]
REMARK SMILES IDX 10 1 9 2 8 3 7 4 6 5 5 6 4 7 2 8 1 9 3 10 11 11 12 12 13 13
REMARK SMILES IDX 14 14 15 15 16 16 17 17 18 18 19 19 20 20
REMARK H PARENT
REMARK Flexibility Score: inf
ROOT
ATOM      1  C   UNL     1     -22.280 -32.136  23.065  1.00  0.00     0.000 C 
ENDROOT
BRANCH   1   2
ATOM      2  C   UNL     1     -22.959 -30.895  22.464  1.00  0.00     0.000 C 
BRANCH   2   3
ATOM      3  C   UNL     1     -24.424 -31.148  22.074  1.00  0.00     0.000 C 
BRANCH   3   4
ATOM      4  C   UNL     1     -25.410 -30.731  23.180  1.00  0.00     0.000 C 
BRANCH   4   5
ATOM      5  C   UNL     1     -26.754 -31.473  23.083  1.00  0.00     0.000 C 
BRANCH   5   6
ATOM      6  C   UNL     1     -26.773 -32.775  23.901  1.00  0.00     0.006 C 
BRANCH   6   7
ATOM      7  C   UNL     1     -25.838 -32.708  25.116  1.00  0.00     0.053 C 
BRANCH   7   8
ATOM      8  C   UNL     1     -26.592 -32.446  26.384  1.00  0.00     0.041 C 
ATOM      9  O   UNL     1     -27.139 -31.329  26.578  1.00  0.00    -0.550 OA
ATOM     10  O   UNL     1     -26.717 -33.448  27.339  1.00  0.00    -0.550 OA
ENDBRANCH   7   8
ENDBRANCH   6   7
ENDBRANCH   5   6
ENDBRANCH   4   5
ENDBRANCH   3   4
ENDBRANCH   2   3
ENDBRANCH   1   2
BRANCH   1  11
ATOM     11  C   UNL     1     -20.778 -31.891  23.276  1.00  0.00     0.000 C 
BRANCH  11  12
ATOM     12  C   UNL     1     -20.495 -30.598  24.057  1.00  0.00     0.000 C 
BRANCH  12  13
ATOM     13  C   UNL     1     -18.991 -30.295  24.174  1.00  0.00     0.000 C 
BRANCH  13  14
ATOM     14  C   UNL     1     -18.133 -31.212  23.289  1.00  0.00     0.000 C 
BRANCH  14  15
ATOM     15  C   UNL     1     -16.627 -30.996  23.499  1.00  0.00     0.000 C 
BRANCH  15  16
ATOM     16  C   UNL     1     -15.955 -30.519  22.202  1.00  0.00     0.006 C 
BRANCH  16  17
ATOM     17  C   UNL     1     -16.393 -29.102  21.807  1.00  0.00     0.053 C 
BRANCH  17  18
ATOM     18  C   UNL     1     -16.536 -28.957  20.322  1.00  0.00     0.041 C 
ATOM     19  O   UNL     1     -16.130 -29.869  19.555  1.00  0.00    -0.550 OA
ATOM     20  O   UNL     1     -17.084 -27.799  19.785  1.00  0.00    -0.550 OA
ENDBRANCH  17  18
ENDBRANCH  16  17
ENDBRANCH  15  16
ENDBRANCH  14  15
ENDBRANCH  13  14
ENDBRANCH  12  13
ENDBRANCH  11  12
ENDBRANCH   1  11
TORSDOF 15
ENDMDL
MODEL 7
REMARK VINA RESULT:    -5.793      2.772      9.628
REMARK INTER + INTRA:         -11.742
REMARK INTER:                 -10.264
REMARK INTRA:                  -1.478
REMARK UNBOUND:                -0.869
REMARK SMILES O=C([O-])CCCCCCCCCCCCCCC(=O)[O-]
REMARK SMILES IDX 10 1 9 2 8 3 7 4 6 5 5 6 4 7 2 8 1 9 3 10 11 11 12 12 13 13
REMARK SMILES IDX 14 14 15 15 16 16 17 17 18 18 19 19 20 20
REMARK H PARENT
REMARK Flexibility Score: inf
ROOT
ATOM      1  C   UNL     1     -26.668 -31.858  25.744  1.00  0.00     0.000 C 
ENDROOT
BRANCH   1   2
ATOM      2  C   UNL     1     -27.849 -32.719  25.266  1.00  0.00     0.000 C 
BRANCH   2   3
ATOM      3  C   UNL     1     -27.469 -33.664  24.115  1.00  0.00     0.000 C 
BRANCH   3   4
ATOM      4  C   UNL     1     -28.227 -33.344  22.814  1.00  0.00     0.000 C 
BRANCH   4   5
ATOM      5  C   UNL     1     -27.674 -32.098  22.100  1.00  0.00     0.000 C 
BRANCH   5   6
ATOM      6  C   UNL     1     -28.514 -30.839  22.370  1.00  0.00     0.006 C 
BRANCH   6   7
ATOM      7  C   UNL     1     -30.003 -31.164  22.548  1.00  0.00     0.053 C 
BRANCH   7   8
ATOM      8  C   UNL     1     -30.618 -30.366  23.658  1.00  0.00     0.041 C 
ATOM      9  O   UNL     1     -29.921 -30.003  24.641  1.00  0.00    -0.550 OA
ATOM     10  O   UNL     1     -31.957 -29.998  23.590  1.00  0.00    -0.550 OA
ENDBRANCH   7   8
ENDBRANCH   6   7
ENDBRANCH   5   6
ENDBRANCH   4   5
ENDBRANCH   3   4
ENDBRANCH   2   3
ENDBRANCH   1   2
BRANCH   1  11
ATOM     11  C   UNL     1     -25.372 -32.682  25.787  1.00  0.00     0.000 C 
BRANCH  11  12
ATOM     12  C   UNL     1     -24.201 -31.977  25.085  1.00  0.00     0.000 C 
BRANCH  12  13
ATOM     13  C   UNL     1     -24.438 -31.796  23.576  1.00  0.00     0.000 C 
BRANCH  13  14
ATOM     14  C   UNL     1     -23.185 -31.303  22.836  1.00  0.00     0.000 C 
BRANCH  14  15
ATOM     15  C   UNL     1     -21.897 -31.965  23.348  1.00  0.00     0.000 C 
BRANCH  15  16
ATOM     16  C   UNL     1     -20.768 -30.933  23.492  1.00  0.00     0.006 C 
BRANCH  16  17
ATOM     17  C   UNL     1     -20.936 -30.059  24.742  1.00  0.00     0.053 C 
BRANCH  17  18
ATOM     18  C   UNL     1     -19.615 -29.606  25.287  1.00  0.00     0.041 C 
ATOM     19  O   UNL     1     -19.570 -28.744  26.204  1.00  0.00    -0.550 OA
ATOM     20  O   UNL     1     -18.434 -30.109  24.757  1.00  0.00    -0.550 OA
ENDBRANCH  17  18
ENDBRANCH  16  17
ENDBRANCH  15  16
ENDBRANCH  14  15
ENDBRANCH  13  14
ENDBRANCH  12  13
ENDBRANCH  11  12
ENDBRANCH   1  11
TORSDOF 15
ENDMDL
MODEL 8
REMARK VINA RESULT:    -5.753      1.759      2.728
REMARK INTER + INTRA:         -11.667
REMARK INTER:                 -10.466
REMARK INTRA:                  -1.201
REMARK UNBOUND:                -0.869
REMARK SMILES O=C([O-])CCCCCCCCCCCCCCC(=O)[O-]
REMARK SMILES IDX 10 1 9 2 8 3 7 4 6 5 5 6 4 7 2 8 1 9 3 10 11 11 12 12 13 13
REMARK SMILES IDX 14 14 15 15 16 16 17 17 18 18 19 19 20 20
REMARK H PARENT
REMARK Flexibility Score: inf
ROOT
ATOM      1  C   UNL     1     -23.522 -31.343  24.881  1.00  0.00     0.000 C 
ENDROOT
BRANCH   1   2
ATOM      2  C   UNL     1     -22.632 -30.795  23.753  1.00  0.00     0.000 C 
BRANCH   2   3
ATOM      3  C   UNL     1     -21.769 -31.883  23.095  1.00  0.00     0.000 C 
BRANCH   3   4
ATOM      4  C   UNL     1     -20.276 -31.740  23.440  1.00  0.00     0.000 C 
BRANCH   4   5
ATOM      5  C   UNL     1     -19.942 -30.373  24.062  1.00  0.00     0.000 C 
BRANCH   5   6
ATOM      6  C   UNL     1     -18.450 -30.227  24.406  1.00  0.00     0.006 C 
BRANCH   6   7
ATOM      7  C   UNL     1     -17.563 -31.120  23.528  1.00  0.00     0.053 C 
BRANCH   7   8
ATOM      8  C   UNL     1     -16.826 -30.327  22.493  1.00  0.00     0.041 C 
ATOM      9  O   UNL     1     -17.036 -29.091  22.371  1.00  0.00    -0.550 OA
ATOM     10  O   UNL     1     -15.883 -30.948  21.682  1.00  0.00    -0.550 OA
ENDBRANCH   7   8
ENDBRANCH   6   7
ENDBRANCH   5   6
ENDBRANCH   4   5
ENDBRANCH   3   4
ENDBRANCH   2   3
ENDBRANCH   1   2
BRANCH   1  11
ATOM     11  C   UNL     1     -24.699 -32.146  24.309  1.00  0.00     0.000 C 
BRANCH  11  12
ATOM     12  C   UNL     1     -25.699 -32.581  25.391  1.00  0.00     0.000 C 
BRANCH  12  13
ATOM     13  C   UNL     1     -27.107 -32.837  24.828  1.00  0.00     0.000 C 
BRANCH  13  14
ATOM     14  C   UNL     1     -27.132 -32.869  23.292  1.00  0.00     0.000 C 
BRANCH  14  15
ATOM     15  C   UNL     1     -28.507 -32.502  22.715  1.00  0.00     0.000 C 
BRANCH  15  16
ATOM     16  C   UNL     1     -28.688 -30.978  22.652  1.00  0.00     0.006 C 
BRANCH  16  17
ATOM     17  C   UNL     1     -27.364 -30.246  22.397  1.00  0.00     0.053 C 
BRANCH  17  18
ATOM     18  C   UNL     1     -27.022 -29.306  23.513  1.00  0.00     0.041 C 
ATOM     19  O   UNL     1     -27.920 -28.906  24.301  1.00  0.00    -0.550 OA
ATOM     20  O   UNL     1     -25.721 -28.845  23.662  1.00  0.00    -0.550 OA
ENDBRANCH  17  18
ENDBRANCH  16  17
ENDBRANCH  15  16
ENDBRANCH  14  15
ENDBRANCH  13  14
ENDBRANCH  12  13
ENDBRANCH  11  12
ENDBRANCH   1  11
TORSDOF 15
ENDMDL
MODEL 9
REMARK VINA RESULT:    -5.715      2.298      3.638
REMARK INTER + INTRA:         -11.596
REMARK INTER:                 -10.141
REMARK INTRA:                  -1.455
REMARK UNBOUND:                -0.869
REMARK SMILES O=C([O-])CCCCCCCCCCCCCCC(=O)[O-]
REMARK SMILES IDX 10 1 9 2 8 3 7 4 6 5 5 6 4 7 2 8 1 9 3 10 11 11 12 12 13 13
REMARK SMILES IDX 14 14 15 15 16 16 17 17 18 18 19 19 20 20
REMARK H PARENT
REMARK Flexibility Score: inf
ROOT
ATOM      1  C   UNL     1     -24.487 -32.838  25.820  1.00  0.00     0.000 C 
ENDROOT
BRANCH   1   2
ATOM      2  C   UNL     1     -24.232 -31.506  25.098  1.00  0.00     0.000 C 
BRANCH   2   3
ATOM      3  C   UNL     1     -23.456 -31.680  23.782  1.00  0.00     0.000 C 
BRANCH   3   4
ATOM      4  C   UNL     1     -21.971 -31.303  23.919  1.00  0.00     0.000 C 
BRANCH   4   5
ATOM      5  C   UNL     1     -21.067 -32.116  22.976  1.00  0.00     0.000 C 
BRANCH   5   6
ATOM      6  C   UNL     1     -19.571 -31.929  23.281  1.00  0.00     0.006 C 
BRANCH   6   7
ATOM      7  C   UNL     1     -19.264 -30.531  23.834  1.00  0.00     0.053 C 
BRANCH   7   8
ATOM      8  C   UNL     1     -17.882 -30.080  23.471  1.00  0.00     0.041 C 
ATOM      9  O   UNL     1     -16.890 -30.818  23.709  1.00  0.00    -0.550 OA
ATOM     10  O   UNL     1     -17.693 -28.857  22.840  1.00  0.00    -0.550 OA
ENDBRANCH   7   8
ENDBRANCH   6   7
ENDBRANCH   5   6
ENDBRANCH   4   5
ENDBRANCH   3   4
ENDBRANCH   2   3
ENDBRANCH   1   2
BRANCH   1  11
ATOM     11  C   UNL     1     -25.954 -32.951  26.261  1.00  0.00     0.000 C 
BRANCH  11  12
ATOM     12  C   UNL     1     -26.910 -32.180  25.337  1.00  0.00     0.000 C 
BRANCH  12  13
ATOM     13  C   UNL     1     -27.823 -33.111  24.521  1.00  0.00     0.000 C 
BRANCH  13  14
ATOM     14  C   UNL     1     -27.400 -33.208  23.047  1.00  0.00     0.000 C 
BRANCH  14  15
ATOM     15  C   UNL     1     -27.716 -31.931  22.255  1.00  0.00     0.000 C 
BRANCH  15  16
ATOM     16  C   UNL     1     -26.428 -31.276  21.733  1.00  0.00     0.006 C 
BRANCH  16  17
ATOM     17  C   UNL     1     -26.245 -29.849  22.267  1.00  0.00     0.053 C 
BRANCH  17  18
ATOM     18  C   UNL     1     -25.484 -28.988  21.304  1.00  0.00     0.041 C 
ATOM     19  O   UNL     1     -24.225 -28.983  21.318  1.00  0.00    -0.550 OA
ATOM     20  O   UNL     1     -26.166 -28.164  20.417  1.00  0.00    -0.550 OA
ENDBRANCH  17  18
ENDBRANCH  16  17
ENDBRANCH  15  16
ENDBRANCH  14  15
ENDBRANCH  13  14
ENDBRANCH  12  13
ENDBRANCH  11  12
ENDBRANCH   1  11
TORSDOF 15
ENDMDL
