MODEL 1
REMARK VINA RESULT:    -8.352      0.000      0.000
REMARK INTER + INTRA:         -11.985
REMARK INTER:                 -11.282
REMARK INTRA:                  -0.704
REMARK UNBOUND:                -0.704
REMARK SMILES O=c1c(-c2ccc(O)cc2)coc2c([C@@H]3O[C@@H](CO)[C@H](O)[C@H](O)[C@H]3O)c(O)ccc12
REMARK SMILES IDX 3 1 11 2 12 3 13 4 30 5 2 6 1 7 29 8 28 9 26 10 14 11 4 12
REMARK SMILES IDX 5 13 6 14 7 15 10 16 9 17 8 18 15 20 24 21 16 22 22 23 17 24
REMARK SMILES IDX 20 25 25 26 23 28 18 30 19 31 21 33 27 35
REMARK H PARENT 8 19 25 27 23 29 19 32 21 34 27 36
REMARK Flexibility Score: inf
ROOT
ATOM      1  C   UNL     1      11.763  -3.788  13.563  1.00  0.00     0.065 A 
ATOM      2  C   UNL     1      11.877  -3.888  12.172  1.00  0.00     0.208 A 
ATOM      3  O   UNL     1      10.802  -3.856  11.396  1.00  0.00    -0.463 OA
ATOM      4  C   UNL     1       9.561  -3.734  11.855  1.00  0.00     0.147 A 
ATOM      5  C   UNL     1       9.362  -3.597  13.253  1.00  0.00     0.066 A 
ATOM      6  C   UNL     1      10.477  -3.646  14.110  1.00  0.00     0.200 A 
ATOM      7  O   UNL     1      10.324  -3.577  15.361  1.00  0.00    -0.288 OA
ATOM      8  C   UNL     1       8.070  -3.404  13.755  1.00  0.00     0.020 A 
ATOM      9  C   UNL     1       6.997  -3.271  12.885  1.00  0.00     0.047 A 
ATOM     10  C   UNL     1       7.178  -3.372  11.506  1.00  0.00     0.125 A 
ATOM     11  C   UNL     1       8.448  -3.726  10.963  1.00  0.00     0.069 A 
ENDROOT
BRANCH   1  12
ATOM     12  C   UNL     1      12.981  -3.833  14.412  1.00  0.00    -0.011 A 
ATOM     13  C   UNL     1      13.481  -5.059  14.886  1.00  0.00     0.013 A 
ATOM     14  C   UNL     1      14.622  -5.093  15.692  1.00  0.00     0.047 A 
ATOM     15  C   UNL     1      15.274  -3.903  16.039  1.00  0.00     0.115 A 
ATOM     16  C   UNL     1      13.638  -2.643  14.771  1.00  0.00     0.013 A 
ATOM     17  C   UNL     1      14.779  -2.680  15.578  1.00  0.00     0.047 A 
BRANCH  15  18
ATOM     18  O   UNL     1      16.413  -3.925  16.842  1.00  0.00    -0.508 OA
ATOM     19  H   UNL     1      16.781  -3.078  17.261  1.00  0.00     0.293 HD
ENDBRANCH  15  18
ENDBRANCH   1  12
BRANCH  11  20
ATOM     20  C   UNL     1       8.541  -4.026   9.445  1.00  0.00     0.188 C 
ATOM     21  C   UNL     1       9.723  -4.865   8.864  1.00  0.00     0.179 C 
ATOM     22  O   UNL     1       7.319  -4.564   8.952  1.00  0.00    -0.362 OA
ATOM     23  C   UNL     1       9.561  -6.365   9.183  1.00  0.00     0.177 C 
ATOM     24  C   UNL     1       7.096  -5.891   9.406  1.00  0.00     0.176 C 
ATOM     25  C   UNL     1       8.151  -6.842   8.794  1.00  0.00     0.177 C 
BRANCH  21  26
ATOM     26  O   UNL     1       9.733  -4.721   7.464  1.00  0.00    -0.387 OA
ATOM     27  H   UNL     1      10.557  -5.162   7.128  1.00  0.00     0.211 HD
ENDBRANCH  21  26
BRANCH  23  28
ATOM     28  O   UNL     1       9.794  -6.601  10.549  1.00  0.00    -0.387 OA
ATOM     29  H   UNL     1      10.365  -7.411  10.614  1.00  0.00     0.211 HD
ENDBRANCH  23  28
BRANCH  24  30
ATOM     30  C   UNL     1       5.671  -6.291   9.000  1.00  0.00     0.191 C 
BRANCH  30  31
ATOM     31  O   UNL     1       4.785  -5.226   9.207  1.00  0.00    -0.394 OA
ATOM     32  H   UNL     1       5.316  -4.504   9.636  1.00  0.00     0.210 HD
ENDBRANCH  30  31
ENDBRANCH  24  30
BRANCH  25  33
ATOM     33  O   UNL     1       7.962  -8.158   9.253  1.00  0.00    -0.388 OA
ATOM     34  H   UNL     1       6.993  -8.270   9.439  1.00  0.00     0.211 HD
ENDBRANCH  25  33
ENDBRANCH  11  20
BRANCH  10  35
ATOM     35  O   UNL     1       6.068  -3.087  10.703  1.00  0.00    -0.507 OA
ATOM     36  H   UNL     1       5.466  -3.797  10.309  1.00  0.00     0.293 HD
ENDBRANCH  10  35
TORSDOF 9
ENDMDL
MODEL 2
REMARK VINA RESULT:    -8.053      2.881      5.366
REMARK INTER + INTRA:         -11.582
REMARK INTER:                 -10.853
REMARK INTRA:                  -0.729
REMARK UNBOUND:                -0.704
REMARK SMILES O=c1c(-c2ccc(O)cc2)coc2c([C@@H]3O[C@@H](CO)[C@H](O)[C@H](O)[C@H]3O)c(O)ccc12
REMARK SMILES IDX 3 1 11 2 12 3 13 4 30 5 2 6 1 7 29 8 28 9 26 10 14 11 4 12
REMARK SMILES IDX 5 13 6 14 7 15 10 16 9 17 8 18 15 20 24 21 16 22 22 23 17 24
REMARK SMILES IDX 20 25 25 26 23 28 18 30 19 31 21 33 27 35
REMARK H PARENT 8 19 25 27 23 29 19 32 21 34 27 36
REMARK Flexibility Score: inf
ROOT
ATOM      1  C   UNL     1       8.643  -5.081   9.510  1.00  0.00     0.065 A 
ATOM      2  C   UNL     1       8.696  -6.137   8.595  1.00  0.00     0.208 A 
ATOM      3  O   UNL     1       7.677  -6.389   7.784  1.00  0.00    -0.463 OA
ATOM      4  C   UNL     1       6.551  -5.685   7.771  1.00  0.00     0.147 A 
ATOM      5  C   UNL     1       6.429  -4.577   8.648  1.00  0.00     0.066 A 
ATOM      6  C   UNL     1       7.481  -4.291   9.538  1.00  0.00     0.200 A 
ATOM      7  O   UNL     1       7.379  -3.343  10.364  1.00  0.00    -0.288 OA
ATOM      8  C   UNL     1       5.277  -3.782   8.608  1.00  0.00     0.020 A 
ATOM      9  C   UNL     1       4.292  -4.031   7.663  1.00  0.00     0.047 A 
ATOM     10  C   UNL     1       4.408  -5.097   6.772  1.00  0.00     0.125 A 
ATOM     11  C   UNL     1       5.486  -6.023   6.884  1.00  0.00     0.069 A 
ENDROOT
BRANCH   1  12
ATOM     12  C   UNL     1       9.794  -4.822  10.413  1.00  0.00    -0.011 A 
ATOM     13  C   UNL     1       9.820  -5.357  11.714  1.00  0.00     0.013 A 
ATOM     14  C   UNL     1      10.902  -5.103  12.561  1.00  0.00     0.047 A 
ATOM     15  C   UNL     1      11.967  -4.307  12.123  1.00  0.00     0.115 A 
ATOM     16  C   UNL     1      10.864  -4.018   9.983  1.00  0.00     0.013 A 
ATOM     17  C   UNL     1      11.945  -3.765  10.834  1.00  0.00     0.047 A 
BRANCH  15  18
ATOM     18  O   UNL     1      13.051  -4.047  12.958  1.00  0.00    -0.508 OA
ATOM     19  H   UNL     1      13.236  -4.614  13.778  1.00  0.00     0.293 HD
ENDBRANCH  15  18
ENDBRANCH   1  12
BRANCH  11  20
ATOM     20  C   UNL     1       5.453  -7.300   6.003  1.00  0.00     0.188 C 
ATOM     21  C   UNL     1       6.360  -8.527   6.336  1.00  0.00     0.179 C 
ATOM     22  O   UNL     1       4.119  -7.760   5.816  1.00  0.00    -0.362 OA
ATOM     23  C   UNL     1       5.824  -9.312   7.550  1.00  0.00     0.177 C 
ATOM     24  C   UNL     1       3.574  -8.319   7.002  1.00  0.00     0.176 C 
ATOM     25  C   UNL     1       4.328  -9.619   7.367  1.00  0.00     0.177 C 
BRANCH  21  26
ATOM     26  O   UNL     1       6.365  -9.396   5.228  1.00  0.00    -0.387 OA
ATOM     27  H   UNL     1       5.451  -9.384   4.840  1.00  0.00     0.211 HD
ENDBRANCH  21  26
BRANCH  23  28
ATOM     28  O   UNL     1       6.029  -8.580   8.733  1.00  0.00    -0.387 OA
ATOM     29  H   UNL     1       6.212  -7.641   8.469  1.00  0.00     0.211 HD
ENDBRANCH  23  28
BRANCH  24  30
ATOM     30  C   UNL     1       2.082  -8.581   6.753  1.00  0.00     0.191 C 
BRANCH  30  31
ATOM     31  O   UNL     1       1.373  -7.373   6.709  1.00  0.00    -0.394 OA
ATOM     32  H   UNL     1       0.638  -7.509   6.055  1.00  0.00     0.210 HD
ENDBRANCH  30  31
ENDBRANCH  24  30
BRANCH  25  33
ATOM     33  O   UNL     1       3.819 -10.174   8.554  1.00  0.00    -0.388 OA
ATOM     34  H   UNL     1       3.876 -11.162   8.467  1.00  0.00     0.211 HD
ENDBRANCH  25  33
ENDBRANCH  11  20
BRANCH  10  35
ATOM     35  O   UNL     1       3.439  -5.186   5.768  1.00  0.00    -0.507 OA
ATOM     36  H   UNL     1       2.483  -4.880   5.884  1.00  0.00     0.293 HD
ENDBRANCH  10  35
TORSDOF 9
ENDMDL
MODEL 3
REMARK VINA RESULT:    -7.951      3.579      9.352
REMARK INTER + INTRA:         -11.444
REMARK INTER:                 -10.784
REMARK INTRA:                  -0.661
REMARK UNBOUND:                -0.704
REMARK SMILES O=c1c(-c2ccc(O)cc2)coc2c([C@@H]3O[C@@H](CO)[C@H](O)[C@H](O)[C@H]3O)c(O)ccc12
REMARK SMILES IDX 3 1 11 2 12 3 13 4 30 5 2 6 1 7 29 8 28 9 26 10 14 11 4 12
REMARK SMILES IDX 5 13 6 14 7 15 10 16 9 17 8 18 15 20 24 21 16 22 22 23 17 24
REMARK SMILES IDX 20 25 25 26 23 28 18 30 19 31 21 33 27 35
REMARK H PARENT 8 19 25 27 23 29 19 32 21 34 27 36
REMARK Flexibility Score: inf
ROOT
ATOM      1  C   UNL     1      10.691  -4.523  15.322  1.00  0.00     0.065 A 
ATOM      2  C   UNL     1      11.990  -4.575  14.807  1.00  0.00     0.208 A 
ATOM      3  O   UNL     1      12.955  -5.218  15.452  1.00  0.00    -0.463 OA
ATOM      4  C   UNL     1      12.779  -5.848  16.608  1.00  0.00     0.147 A 
ATOM      5  C   UNL     1      11.482  -5.868  17.183  1.00  0.00     0.066 A 
ATOM      6  C   UNL     1      10.438  -5.180  16.538  1.00  0.00     0.200 A 
ATOM      7  O   UNL     1       9.287  -5.139  17.052  1.00  0.00    -0.288 OA
ATOM      8  C   UNL     1      11.259  -6.578  18.369  1.00  0.00     0.020 A 
ATOM      9  C   UNL     1      12.283  -7.322  18.939  1.00  0.00     0.047 A 
ATOM     10  C   UNL     1      13.556  -7.338  18.372  1.00  0.00     0.125 A 
ATOM     11  C   UNL     1      13.867  -6.504  17.257  1.00  0.00     0.069 A 
ENDROOT
BRANCH   1  12
ATOM     12  C   UNL     1       9.629  -3.791  14.585  1.00  0.00    -0.011 A 
ATOM     13  C   UNL     1       8.966  -4.391  13.500  1.00  0.00     0.013 A 
ATOM     14  C   UNL     1       7.974  -3.693  12.805  1.00  0.00     0.047 A 
ATOM     15  C   UNL     1       7.637  -2.387  13.181  1.00  0.00     0.115 A 
ATOM     16  C   UNL     1       9.290  -2.477  14.952  1.00  0.00     0.013 A 
ATOM     17  C   UNL     1       8.298  -1.782  14.254  1.00  0.00     0.047 A 
BRANCH  15  18
ATOM     18  O   UNL     1       6.649  -1.683  12.496  1.00  0.00    -0.508 OA
ATOM     19  H   UNL     1       6.388  -0.740  12.765  1.00  0.00     0.293 HD
ENDBRANCH  15  18
ENDBRANCH   1  12
BRANCH  11  20
ATOM     20  C   UNL     1      15.345  -6.409  16.800  1.00  0.00     0.188 C 
ATOM     21  C   UNL     1      15.805  -5.300  15.801  1.00  0.00     0.179 C 
ATOM     22  O   UNL     1      16.229  -6.408  17.915  1.00  0.00    -0.362 OA
ATOM     23  C   UNL     1      15.896  -3.923  16.490  1.00  0.00     0.177 C 
ATOM     24  C   UNL     1      16.166  -5.194  18.649  1.00  0.00     0.176 C 
ATOM     25  C   UNL     1      16.713  -4.030  17.789  1.00  0.00     0.177 C 
BRANCH  21  26
ATOM     26  O   UNL     1      17.088  -5.629  15.323  1.00  0.00    -0.387 OA
ATOM     27  H   UNL     1      17.096  -5.440  14.349  1.00  0.00     0.211 HD
ENDBRANCH  21  26
BRANCH  23  28
ATOM     28  O   UNL     1      14.609  -3.429  16.764  1.00  0.00    -0.387 OA
ATOM     29  H   UNL     1      14.151  -4.103  17.331  1.00  0.00     0.211 HD
ENDBRANCH  23  28
BRANCH  24  30
ATOM     30  C   UNL     1      16.984  -5.380  19.934  1.00  0.00     0.191 C 
BRANCH  30  31
ATOM     31  O   UNL     1      18.166  -4.631  19.876  1.00  0.00    -0.394 OA
ATOM     32  H   UNL     1      18.485  -4.690  18.937  1.00  0.00     0.210 HD
ENDBRANCH  30  31
ENDBRANCH  24  30
BRANCH  25  33
ATOM     33  O   UNL     1      16.634  -2.813  18.488  1.00  0.00    -0.388 OA
ATOM     34  H   UNL     1      15.997  -2.231  17.998  1.00  0.00     0.211 HD
ENDBRANCH  25  33
ENDBRANCH  11  20
BRANCH  10  35
ATOM     35  O   UNL     1      14.484  -8.221  18.933  1.00  0.00    -0.507 OA
ATOM     36  H   UNL     1      15.482  -8.148  18.794  1.00  0.00     0.293 HD
ENDBRANCH  10  35
TORSDOF 9
ENDMDL
MODEL 4
REMARK VINA RESULT:    -7.931      1.508      2.101
REMARK INTER + INTRA:         -11.416
REMARK INTER:                 -10.741
REMARK INTRA:                  -0.676
REMARK UNBOUND:                -0.704
REMARK SMILES O=c1c(-c2ccc(O)cc2)coc2c([C@@H]3O[C@@H](CO)[C@H](O)[C@H](O)[C@H]3O)c(O)ccc12
REMARK SMILES IDX 3 1 11 2 12 3 13 4 30 5 2 6 1 7 29 8 28 9 26 10 14 11 4 12
REMARK SMILES IDX 5 13 6 14 7 15 10 16 9 17 8 18 15 20 24 21 16 22 22 23 17 24
REMARK SMILES IDX 20 25 25 26 23 28 18 30 19 31 21 33 27 35
REMARK H PARENT 8 19 25 27 23 29 19 32 21 34 27 36
REMARK Flexibility Score: inf
ROOT
ATOM      1  C   UNL     1      10.892  -3.108  12.083  1.00  0.00     0.065 A 
ATOM      2  C   UNL     1      11.170  -3.686  10.840  1.00  0.00     0.208 A 
ATOM      3  O   UNL     1      10.200  -3.935   9.971  1.00  0.00    -0.463 OA
ATOM      4  C   UNL     1       8.918  -3.668  10.196  1.00  0.00     0.147 A 
ATOM      5  C   UNL     1       8.555  -3.053  11.422  1.00  0.00     0.066 A 
ATOM      6  C   UNL     1       9.555  -2.792  12.378  1.00  0.00     0.200 A 
ATOM      7  O   UNL     1       9.254  -2.291  13.496  1.00  0.00    -0.288 OA
ATOM      8  C   UNL     1       7.220  -2.705  11.656  1.00  0.00     0.020 A 
ATOM      9  C   UNL     1       6.267  -2.892  10.665  1.00  0.00     0.047 A 
ATOM     10  C   UNL     1       6.610  -3.468   9.442  1.00  0.00     0.125 A 
ATOM     11  C   UNL     1       7.923  -3.980   9.223  1.00  0.00     0.069 A 
ENDROOT
BRANCH   1  12
ATOM     12  C   UNL     1      11.994  -2.844  13.042  1.00  0.00    -0.011 A 
ATOM     13  C   UNL     1      12.728  -1.646  12.981  1.00  0.00     0.013 A 
ATOM     14  C   UNL     1      13.770  -1.409  13.881  1.00  0.00     0.047 A 
ATOM     15  C   UNL     1      14.096  -2.366  14.850  1.00  0.00     0.115 A 
ATOM     16  C   UNL     1      12.332  -3.804  14.013  1.00  0.00     0.013 A 
ATOM     17  C   UNL     1      13.376  -3.563  14.912  1.00  0.00     0.047 A 
BRANCH  15  18
ATOM     18  O   UNL     1      15.132  -2.140  15.753  1.00  0.00    -0.508 OA
ATOM     19  H   UNL     1      15.955  -1.607  15.492  1.00  0.00     0.293 HD
ENDBRANCH  15  18
ENDBRANCH   1  12
BRANCH  11  20
ATOM     20  C   UNL     1       8.189  -4.792   7.929  1.00  0.00     0.188 C 
ATOM     21  C   UNL     1       9.430  -5.732   7.813  1.00  0.00     0.179 C 
ATOM     22  O   UNL     1       7.031  -5.518   7.530  1.00  0.00    -0.362 OA
ATOM     23  C   UNL     1       9.232  -7.030   8.623  1.00  0.00     0.177 C 
ATOM     24  C   UNL     1       6.757  -6.608   8.398  1.00  0.00     0.176 C 
ATOM     25  C   UNL     1       7.875  -7.670   8.279  1.00  0.00     0.177 C 
BRANCH  21  26
ATOM     26  O   UNL     1       9.600  -6.089   6.462  1.00  0.00    -0.387 OA
ATOM     27  H   UNL     1       9.081  -6.922   6.310  1.00  0.00     0.211 HD
ENDBRANCH  21  26
BRANCH  23  28
ATOM     28  O   UNL     1       9.307  -6.760  10.000  1.00  0.00    -0.387 OA
ATOM     29  H   UNL     1      10.187  -6.332  10.168  1.00  0.00     0.211 HD
ENDBRANCH  23  28
BRANCH  24  30
ATOM     30  C   UNL     1       5.388  -7.182   8.011  1.00  0.00     0.191 C 
BRANCH  30  31
ATOM     31  O   UNL     1       4.998  -8.175   8.919  1.00  0.00    -0.394 OA
ATOM     32  H   UNL     1       4.284  -8.697   8.467  1.00  0.00     0.210 HD
ENDBRANCH  30  31
ENDBRANCH  24  30
BRANCH  25  33
ATOM     33  O   UNL     1       7.636  -8.746   9.152  1.00  0.00    -0.388 OA
ATOM     34  H   UNL     1       8.485  -9.256   9.232  1.00  0.00     0.211 HD
ENDBRANCH  25  33
ENDBRANCH  11  20
BRANCH  10  35
ATOM     35  O   UNL     1       5.619  -3.489   8.456  1.00  0.00    -0.507 OA
ATOM     36  H   UNL     1       4.635  -3.364   8.648  1.00  0.00     0.293 HD
ENDBRANCH  10  35
TORSDOF 9
ENDMDL
MODEL 5
REMARK VINA RESULT:    -7.882      2.211      3.775
REMARK INTER + INTRA:         -11.351
REMARK INTER:                 -10.719
REMARK INTRA:                  -0.632
REMARK UNBOUND:                -0.704
REMARK SMILES O=c1c(-c2ccc(O)cc2)coc2c([C@@H]3O[C@@H](CO)[C@H](O)[C@H](O)[C@H]3O)c(O)ccc12
REMARK SMILES IDX 3 1 11 2 12 3 13 4 30 5 2 6 1 7 29 8 28 9 26 10 14 11 4 12
REMARK SMILES IDX 5 13 6 14 7 15 10 16 9 17 8 18 15 20 24 21 16 22 22 23 17 24
REMARK SMILES IDX 20 25 25 26 23 28 18 30 19 31 21 33 27 35
REMARK H PARENT 8 19 25 27 23 29 19 32 21 34 27 36
REMARK Flexibility Score: inf
ROOT
ATOM      1  C   UNL     1       9.557  -4.271  10.797  1.00  0.00     0.065 A 
ATOM      2  C   UNL     1       9.654  -5.182   9.741  1.00  0.00     0.208 A 
ATOM      3  O   UNL     1       8.684  -5.290   8.842  1.00  0.00    -0.463 OA
ATOM      4  C   UNL     1       7.570  -4.567   8.865  1.00  0.00     0.147 A 
ATOM      5  C   UNL     1       7.408  -3.597   9.888  1.00  0.00     0.066 A 
ATOM      6  C   UNL     1       8.406  -3.468  10.871  1.00  0.00     0.200 A 
ATOM      7  O   UNL     1       8.265  -2.649  11.821  1.00  0.00    -0.288 OA
ATOM      8  C   UNL     1       6.271  -2.780   9.897  1.00  0.00     0.020 A 
ATOM      9  C   UNL     1       5.344  -2.865   8.867  1.00  0.00     0.047 A 
ATOM     10  C   UNL     1       5.502  -3.791   7.837  1.00  0.00     0.125 A 
ATOM     11  C   UNL     1       6.559  -4.747   7.875  1.00  0.00     0.069 A 
ENDROOT
BRANCH   1  12
ATOM     12  C   UNL     1      10.652  -4.174  11.796  1.00  0.00    -0.011 A 
ATOM     13  C   UNL     1      11.600  -3.137  11.722  1.00  0.00     0.013 A 
ATOM     14  C   UNL     1      12.633  -3.057  12.660  1.00  0.00     0.047 A 
ATOM     15  C   UNL     1      12.736  -4.012  13.678  1.00  0.00     0.115 A 
ATOM     16  C   UNL     1      10.767  -5.133  12.817  1.00  0.00     0.013 A 
ATOM     17  C   UNL     1      11.802  -5.050  13.753  1.00  0.00     0.047 A 
BRANCH  15  18
ATOM     18  O   UNL     1      13.762  -3.941  14.618  1.00  0.00    -0.508 OA
ATOM     19  H   UNL     1      13.698  -3.333  15.427  1.00  0.00     0.293 HD
ENDBRANCH  15  18
ENDBRANCH   1  12
BRANCH  11  20
ATOM     20  C   UNL     1       6.564  -5.879   6.815  1.00  0.00     0.188 C 
ATOM     21  C   UNL     1       7.441  -7.156   7.010  1.00  0.00     0.179 C 
ATOM     22  O   UNL     1       5.239  -6.285   6.491  1.00  0.00    -0.362 OA
ATOM     23  C   UNL     1       6.833  -8.103   8.065  1.00  0.00     0.177 C 
ATOM     24  C   UNL     1       4.624  -7.004   7.550  1.00  0.00     0.176 C 
ATOM     25  C   UNL     1       5.346  -8.355   7.758  1.00  0.00     0.177 C 
BRANCH  21  26
ATOM     26  O   UNL     1       7.501  -7.853   5.789  1.00  0.00    -0.387 OA
ATOM     27  H   UNL     1       8.374  -7.636   5.368  1.00  0.00     0.211 HD
ENDBRANCH  21  26
BRANCH  23  28
ATOM     28  O   UNL     1       6.978  -7.557   9.352  1.00  0.00    -0.387 OA
ATOM     29  H   UNL     1       7.941  -7.356   9.479  1.00  0.00     0.211 HD
ENDBRANCH  23  28
BRANCH  24  30
ATOM     30  C   UNL     1       3.147  -7.202   7.185  1.00  0.00     0.191 C 
BRANCH  30  31
ATOM     31  O   UNL     1       2.333  -7.001   8.308  1.00  0.00    -0.394 OA
ATOM     32  H   UNL     1       2.912  -7.157   9.100  1.00  0.00     0.210 HD
ENDBRANCH  30  31
ENDBRANCH  24  30
BRANCH  25  33
ATOM     33  O   UNL     1       4.768  -9.071   8.822  1.00  0.00    -0.388 OA
ATOM     34  H   UNL     1       4.172  -8.444   9.310  1.00  0.00     0.211 HD
ENDBRANCH  25  33
ENDBRANCH  11  20
BRANCH  10  35
ATOM     35  O   UNL     1       4.597  -3.710   6.774  1.00  0.00    -0.507 OA
ATOM     36  H   UNL     1       3.926  -2.962   6.665  1.00  0.00     0.293 HD
ENDBRANCH  10  35
TORSDOF 9
ENDMDL
MODEL 6
REMARK VINA RESULT:    -7.879      1.988      8.146
REMARK INTER + INTRA:         -11.347
REMARK INTER:                 -10.625
REMARK INTRA:                  -0.722
REMARK UNBOUND:                -0.704
REMARK SMILES O=c1c(-c2ccc(O)cc2)coc2c([C@@H]3O[C@@H](CO)[C@H](O)[C@H](O)[C@H]3O)c(O)ccc12
REMARK SMILES IDX 3 1 11 2 12 3 13 4 30 5 2 6 1 7 29 8 28 9 26 10 14 11 4 12
REMARK SMILES IDX 5 13 6 14 7 15 10 16 9 17 8 18 15 20 24 21 16 22 22 23 17 24
REMARK SMILES IDX 20 25 25 26 23 28 18 30 19 31 21 33 27 35
REMARK H PARENT 8 19 25 27 23 29 19 32 21 34 27 36
REMARK Flexibility Score: inf
ROOT
ATOM      1  C   UNL     1       8.438  -3.975  10.961  1.00  0.00     0.065 A 
ATOM      2  C   UNL     1       8.343  -3.890  12.353  1.00  0.00     0.208 A 
ATOM      3  O   UNL     1       9.375  -3.491  13.084  1.00  0.00    -0.463 OA
ATOM      4  C   UNL     1      10.554  -3.150  12.576  1.00  0.00     0.147 A 
ATOM      5  C   UNL     1      10.723  -3.179  11.168  1.00  0.00     0.066 A 
ATOM      6  C   UNL     1       9.657  -3.616  10.361  1.00  0.00     0.200 A 
ATOM      7  O   UNL     1       9.796  -3.700   9.109  1.00  0.00    -0.288 OA
ATOM      8  C   UNL     1      11.936  -2.764  10.605  1.00  0.00     0.020 A 
ATOM      9  C   UNL     1      12.941  -2.254  11.415  1.00  0.00     0.047 A 
ATOM     10  C   UNL     1      12.781  -2.188  12.798  1.00  0.00     0.125 A 
ATOM     11  C   UNL     1      11.628  -2.747  13.424  1.00  0.00     0.069 A 
ENDROOT
BRANCH   1  12
ATOM     12  C   UNL     1       7.270  -4.430  10.163  1.00  0.00    -0.011 A 
ATOM     13  C   UNL     1       6.352  -3.502   9.640  1.00  0.00     0.013 A 
ATOM     14  C   UNL     1       5.251  -3.939   8.899  1.00  0.00     0.047 A 
ATOM     15  C   UNL     1       5.050  -5.306   8.676  1.00  0.00     0.115 A 
ATOM     16  C   UNL     1       7.057  -5.802   9.941  1.00  0.00     0.013 A 
ATOM     17  C   UNL     1       5.954  -6.235   9.199  1.00  0.00     0.047 A 
BRANCH  15  18
ATOM     18  O   UNL     1       3.956  -5.753   7.937  1.00  0.00    -0.508 OA
ATOM     19  H   UNL     1       3.333  -5.104   7.469  1.00  0.00     0.293 HD
ENDBRANCH  15  18
ENDBRANCH   1  12
BRANCH  11  20
ATOM     20  C   UNL     1      11.600  -2.831  14.972  1.00  0.00     0.188 C 
ATOM     21  C   UNL     1      10.639  -3.821  15.704  1.00  0.00     0.179 C 
ATOM     22  O   UNL     1      12.911  -2.998  15.502  1.00  0.00    -0.362 OA
ATOM     23  C   UNL     1      11.143  -5.275  15.602  1.00  0.00     0.177 C 
ATOM     24  C   UNL     1      13.435  -4.291  15.239  1.00  0.00     0.176 C 
ATOM     25  C   UNL     1      12.623  -5.355  16.014  1.00  0.00     0.177 C 
BRANCH  21  26
ATOM     26  O   UNL     1      10.590  -3.476  17.068  1.00  0.00    -0.387 OA
ATOM     27  H   UNL     1      10.737  -4.309  17.588  1.00  0.00     0.211 HD
ENDBRANCH  21  26
BRANCH  23  28
ATOM     28  O   UNL     1      10.976  -5.759  14.293  1.00  0.00    -0.387 OA
ATOM     29  H   UNL     1      10.121  -5.389  13.950  1.00  0.00     0.211 HD
ENDBRANCH  23  28
BRANCH  24  30
ATOM     30  C   UNL     1      14.911  -4.291  15.655  1.00  0.00     0.191 C 
BRANCH  30  31
ATOM     31  O   UNL     1      15.550  -3.131  15.199  1.00  0.00    -0.394 OA
ATOM     32  H   UNL     1      14.866  -2.411  15.228  1.00  0.00     0.210 HD
ENDBRANCH  30  31
ENDBRANCH  24  30
BRANCH  25  33
ATOM     33  O   UNL     1      13.110  -6.647  15.746  1.00  0.00    -0.388 OA
ATOM     34  H   UNL     1      14.006  -6.544  15.329  1.00  0.00     0.211 HD
ENDBRANCH  25  33
ENDBRANCH  11  20
BRANCH  10  35
ATOM     35  O   UNL     1      13.787  -1.534  13.518  1.00  0.00    -0.507 OA
ATOM     36  H   UNL     1      14.060  -0.575  13.352  1.00  0.00     0.293 HD
ENDBRANCH  10  35
TORSDOF 9
ENDMDL
MODEL 7
REMARK VINA RESULT:    -7.837      1.908      8.438
REMARK INTER + INTRA:         -11.290
REMARK INTER:                 -10.537
REMARK INTRA:                  -0.753
REMARK UNBOUND:                -0.704
REMARK SMILES O=c1c(-c2ccc(O)cc2)coc2c([C@@H]3O[C@@H](CO)[C@H](O)[C@H](O)[C@H]3O)c(O)ccc12
REMARK SMILES IDX 3 1 11 2 12 3 13 4 30 5 2 6 1 7 29 8 28 9 26 10 14 11 4 12
REMARK SMILES IDX 5 13 6 14 7 15 10 16 9 17 8 18 15 20 24 21 16 22 22 23 17 24
REMARK SMILES IDX 20 25 25 26 23 28 18 30 19 31 21 33 27 35
REMARK H PARENT 8 19 25 27 23 29 19 32 21 34 27 36
REMARK Flexibility Score: inf
ROOT
ATOM      1  C   UNL     1       9.787  -3.968  12.642  1.00  0.00     0.065 A 
ATOM      2  C   UNL     1       9.761  -4.342  13.989  1.00  0.00     0.208 A 
ATOM      3  O   UNL     1      10.703  -3.934  14.829  1.00  0.00    -0.463 OA
ATOM      4  C   UNL     1      11.724  -3.161  14.477  1.00  0.00     0.147 A 
ATOM      5  C   UNL     1      11.807  -2.712  13.134  1.00  0.00     0.066 A 
ATOM      6  C   UNL     1      10.837  -3.140  12.209  1.00  0.00     0.200 A 
ATOM      7  O   UNL     1      10.915  -2.797  10.997  1.00  0.00    -0.288 OA
ATOM      8  C   UNL     1      12.838  -1.845  12.754  1.00  0.00     0.020 A 
ATOM      9  C   UNL     1      13.731  -1.366  13.702  1.00  0.00     0.047 A 
ATOM     10  C   UNL     1      13.647  -1.772  15.034  1.00  0.00     0.125 A 
ATOM     11  C   UNL     1      12.713  -2.775  15.430  1.00  0.00     0.069 A 
ENDROOT
BRANCH   1  12
ATOM     12  C   UNL     1       8.725  -4.443  11.719  1.00  0.00    -0.011 A 
ATOM     13  C   UNL     1       8.827  -5.698  11.093  1.00  0.00     0.013 A 
ATOM     14  C   UNL     1       7.828  -6.135  10.219  1.00  0.00     0.047 A 
ATOM     15  C   UNL     1       6.719  -5.322   9.954  1.00  0.00     0.115 A 
ATOM     16  C   UNL     1       7.612  -3.629  11.442  1.00  0.00     0.013 A 
ATOM     17  C   UNL     1       6.615  -4.069  10.566  1.00  0.00     0.047 A 
BRANCH  15  18
ATOM     18  O   UNL     1       5.717  -5.747   9.085  1.00  0.00    -0.508 OA
ATOM     19  H   UNL     1       5.485  -5.224   8.247  1.00  0.00     0.293 HD
ENDBRANCH  15  18
ENDBRANCH   1  12
BRANCH  11  20
ATOM     20  C   UNL     1      12.803  -3.334  16.873  1.00  0.00     0.188 C 
ATOM     21  C   UNL     1      12.132  -4.693  17.250  1.00  0.00     0.179 C 
ATOM     22  O   UNL     1      14.149  -3.351  17.334  1.00  0.00    -0.362 OA
ATOM     23  C   UNL     1      12.935  -5.890  16.701  1.00  0.00     0.177 C 
ATOM     24  C   UNL     1      14.926  -4.346  16.684  1.00  0.00     0.176 C 
ATOM     25  C   UNL     1      14.420  -5.753  17.079  1.00  0.00     0.177 C 
BRANCH  21  26
ATOM     26  O   UNL     1      12.096  -4.804  18.653  1.00  0.00    -0.387 OA
ATOM     27  H   UNL     1      12.688  -5.561  18.903  1.00  0.00     0.211 HD
ENDBRANCH  21  26
BRANCH  23  28
ATOM     28  O   UNL     1      12.794  -5.973  15.305  1.00  0.00    -0.387 OA
ATOM     29  H   UNL     1      11.868  -5.690  15.086  1.00  0.00     0.211 HD
ENDBRANCH  23  28
BRANCH  24  30
ATOM     30  C   UNL     1      16.391  -4.137  17.090  1.00  0.00     0.191 C 
BRANCH  30  31
ATOM     31  O   UNL     1      16.796  -2.826  16.808  1.00  0.00    -0.394 OA
ATOM     32  H   UNL     1      16.825  -2.753  15.818  1.00  0.00     0.210 HD
ENDBRANCH  30  31
ENDBRANCH  24  30
BRANCH  25  33
ATOM     33  O   UNL     1      15.160  -6.752  16.424  1.00  0.00    -0.388 OA
ATOM     34  H   UNL     1      15.471  -7.392  17.117  1.00  0.00     0.211 HD
ENDBRANCH  25  33
ENDBRANCH  11  20
BRANCH  10  35
ATOM     35  O   UNL     1      14.497  -1.134  15.942  1.00  0.00    -0.507 OA
ATOM     36  H   UNL     1      15.498  -1.063  15.817  1.00  0.00     0.293 HD
ENDBRANCH  10  35
TORSDOF 9
ENDMDL
MODEL 8
REMARK VINA RESULT:    -7.791      3.293      9.251
REMARK INTER + INTRA:         -11.228
REMARK INTER:                 -10.822
REMARK INTRA:                  -0.406
REMARK UNBOUND:                -0.704
REMARK SMILES O=c1c(-c2ccc(O)cc2)coc2c([C@@H]3O[C@@H](CO)[C@H](O)[C@H](O)[C@H]3O)c(O)ccc12
REMARK SMILES IDX 3 1 11 2 12 3 13 4 30 5 2 6 1 7 29 8 28 9 26 10 14 11 4 12
REMARK SMILES IDX 5 13 6 14 7 15 10 16 9 17 8 18 15 20 24 21 16 22 22 23 17 24
REMARK SMILES IDX 20 25 25 26 23 28 18 30 19 31 21 33 27 35
REMARK H PARENT 8 19 25 27 23 29 19 32 21 34 27 36
REMARK Flexibility Score: inf
ROOT
ATOM      1  C   UNL     1      10.265  -3.542  14.544  1.00  0.00     0.065 A 
ATOM      2  C   UNL     1      11.553  -3.000  14.493  1.00  0.00     0.208 A 
ATOM      3  O   UNL     1      12.534  -3.504  15.229  1.00  0.00    -0.463 OA
ATOM      4  C   UNL     1      12.387  -4.534  16.054  1.00  0.00     0.147 A 
ATOM      5  C   UNL     1      11.118  -5.161  16.141  1.00  0.00     0.066 A 
ATOM      6  C   UNL     1      10.046  -4.642  15.391  1.00  0.00     0.200 A 
ATOM      7  O   UNL     1       8.895  -5.148  15.487  1.00  0.00    -0.288 OA
ATOM      8  C   UNL     1      10.953  -6.287  16.957  1.00  0.00     0.020 A 
ATOM      9  C   UNL     1      12.044  -6.834  17.618  1.00  0.00     0.047 A 
ATOM     10  C   UNL     1      13.306  -6.249  17.520  1.00  0.00     0.125 A 
ATOM     11  C   UNL     1      13.483  -5.013  16.831  1.00  0.00     0.069 A 
ENDROOT
BRANCH   1  12
ATOM     12  C   UNL     1       9.179  -2.957  13.716  1.00  0.00    -0.011 A 
ATOM     13  C   UNL     1       8.906  -1.578  13.763  1.00  0.00     0.013 A 
ATOM     14  C   UNL     1       7.877  -1.035  12.988  1.00  0.00     0.047 A 
ATOM     15  C   UNL     1       7.106  -1.862  12.162  1.00  0.00     0.115 A 
ATOM     16  C   UNL     1       8.396  -3.781  12.890  1.00  0.00     0.013 A 
ATOM     17  C   UNL     1       7.367  -3.235  12.116  1.00  0.00     0.047 A 
BRANCH  15  18
ATOM     18  O   UNL     1       6.079  -1.331  11.384  1.00  0.00    -0.508 OA
ATOM     19  H   UNL     1       6.273  -0.757  10.571  1.00  0.00     0.293 HD
ENDBRANCH  15  18
ENDBRANCH   1  12
BRANCH  11  20
ATOM     20  C   UNL     1      14.860  -4.307  16.930  1.00  0.00     0.188 C 
ATOM     21  C   UNL     1      15.011  -2.792  16.583  1.00  0.00     0.179 C 
ATOM     22  O   UNL     1      15.470  -4.545  18.193  1.00  0.00    -0.362 OA
ATOM     23  C   UNL     1      14.436  -1.898  17.701  1.00  0.00     0.177 C 
ATOM     24  C   UNL     1      14.813  -3.853  19.245  1.00  0.00     0.176 C 
ATOM     25  C   UNL     1      14.997  -2.328  19.068  1.00  0.00     0.177 C 
BRANCH  21  26
ATOM     26  O   UNL     1      16.381  -2.493  16.454  1.00  0.00    -0.387 OA
ATOM     27  H   UNL     1      16.683  -2.115  17.321  1.00  0.00     0.211 HD
ENDBRANCH  21  26
BRANCH  23  28
ATOM     28  O   UNL     1      13.033  -1.967  17.707  1.00  0.00    -0.387 OA
ATOM     29  H   UNL     1      12.700  -1.245  17.113  1.00  0.00     0.211 HD
ENDBRANCH  23  28
BRANCH  24  30
ATOM     30  C   UNL     1      15.407  -4.345  20.572  1.00  0.00     0.191 C 
BRANCH  30  31
ATOM     31  O   UNL     1      14.966  -5.644  20.856  1.00  0.00    -0.394 OA
ATOM     32  H   UNL     1      14.587  -5.998  20.008  1.00  0.00     0.210 HD
ENDBRANCH  30  31
ENDBRANCH  24  30
BRANCH  25  33
ATOM     33  O   UNL     1      14.330  -1.624  20.086  1.00  0.00    -0.388 OA
ATOM     34  H   UNL     1      13.871  -0.853  19.659  1.00  0.00     0.211 HD
ENDBRANCH  25  33
ENDBRANCH  11  20
BRANCH  10  35
ATOM     35  O   UNL     1      14.369  -6.944  18.105  1.00  0.00    -0.507 OA
ATOM     36  H   UNL     1      14.852  -7.710  17.655  1.00  0.00     0.293 HD
ENDBRANCH  10  35
TORSDOF 9
ENDMDL
MODEL 9
REMARK VINA RESULT:    -7.682      1.686      2.063
REMARK INTER + INTRA:         -11.081
REMARK INTER:                 -10.635
REMARK INTRA:                  -0.446
REMARK UNBOUND:                -0.704
REMARK SMILES O=c1c(-c2ccc(O)cc2)coc2c([C@@H]3O[C@@H](CO)[C@H](O)[C@H](O)[C@H]3O)c(O)ccc12
REMARK SMILES IDX 3 1 11 2 12 3 13 4 30 5 2 6 1 7 29 8 28 9 26 10 14 11 4 12
REMARK SMILES IDX 5 13 6 14 7 15 10 16 9 17 8 18 15 20 24 21 16 22 22 23 17 24
REMARK SMILES IDX 20 25 25 26 23 28 18 30 19 31 21 33 27 35
REMARK H PARENT 8 19 25 27 23 29 19 32 21 34 27 36
REMARK Flexibility Score: inf
ROOT
ATOM      1  C   UNL     1      11.059  -4.924  15.014  1.00  0.00     0.065 A 
ATOM      2  C   UNL     1      11.463  -4.941  13.675  1.00  0.00     0.208 A 
ATOM      3  O   UNL     1      10.663  -4.497  12.715  1.00  0.00    -0.463 OA
ATOM      4  C   UNL     1       9.446  -4.012  12.931  1.00  0.00     0.147 A 
ATOM      5  C   UNL     1       8.972  -3.931  14.266  1.00  0.00     0.066 A 
ATOM      6  C   UNL     1       9.784  -4.413  15.310  1.00  0.00     0.200 A 
ATOM      7  O   UNL     1       9.367  -4.399  16.501  1.00  0.00    -0.288 OA
ATOM      8  C   UNL     1       7.717  -3.367  14.525  1.00  0.00     0.020 A 
ATOM      9  C   UNL     1       6.973  -2.819  13.489  1.00  0.00     0.047 A 
ATOM     10  C   UNL     1       7.436  -2.862  12.175  1.00  0.00     0.125 A 
ATOM     11  C   UNL     1       8.631  -3.568  11.848  1.00  0.00     0.069 A 
ENDROOT
BRANCH   1  12
ATOM     12  C   UNL     1      11.969  -5.433  16.071  1.00  0.00    -0.011 A 
ATOM     13  C   UNL     1      13.201  -4.804  16.321  1.00  0.00     0.013 A 
ATOM     14  C   UNL     1      14.057  -5.294  17.311  1.00  0.00     0.047 A 
ATOM     15  C   UNL     1      13.696  -6.422  18.059  1.00  0.00     0.115 A 
ATOM     16  C   UNL     1      11.617  -6.569  16.821  1.00  0.00     0.013 A 
ATOM     17  C   UNL     1      12.476  -7.057  17.810  1.00  0.00     0.047 A 
BRANCH  15  18
ATOM     18  O   UNL     1      14.541  -6.919  19.049  1.00  0.00    -0.508 OA
ATOM     19  H   UNL     1      14.318  -6.821  20.033  1.00  0.00     0.293 HD
ENDBRANCH  15  18
ENDBRANCH   1  12
BRANCH  11  20
ATOM     20  C   UNL     1       8.986  -3.758  10.351  1.00  0.00     0.188 C 
ATOM     21  C   UNL     1      10.123  -4.735   9.914  1.00  0.00     0.179 C 
ATOM     22  O   UNL     1       7.825  -4.041   9.579  1.00  0.00    -0.362 OA
ATOM     23  C   UNL     1       9.676  -6.207  10.028  1.00  0.00     0.177 C 
ATOM     24  C   UNL     1       7.317  -5.343   9.832  1.00  0.00     0.176 C 
ATOM     25  C   UNL     1       8.321  -6.406   9.328  1.00  0.00     0.177 C 
BRANCH  21  26
ATOM     26  O   UNL     1      10.441  -4.483   8.566  1.00  0.00    -0.387 OA
ATOM     27  H   UNL     1      10.911  -3.609   8.532  1.00  0.00     0.211 HD
ENDBRANCH  21  26
BRANCH  23  28
ATOM     28  O   UNL     1       9.588  -6.586  11.378  1.00  0.00    -0.387 OA
ATOM     29  H   UNL     1       9.534  -5.753  11.914  1.00  0.00     0.211 HD
ENDBRANCH  23  28
BRANCH  24  30
ATOM     30  C   UNL     1       5.962  -5.463   9.123  1.00  0.00     0.191 C 
BRANCH  30  31
ATOM     31  O   UNL     1       5.247  -6.564   9.614  1.00  0.00    -0.394 OA
ATOM     32  H   UNL     1       4.297  -6.406   9.373  1.00  0.00     0.210 HD
ENDBRANCH  30  31
ENDBRANCH  24  30
BRANCH  25  33
ATOM     33  O   UNL     1       7.848  -7.704   9.594  1.00  0.00    -0.388 OA
ATOM     34  H   UNL     1       7.248  -7.959   8.845  1.00  0.00     0.211 HD
ENDBRANCH  25  33
ENDBRANCH  11  20
BRANCH  10  35
ATOM     35  O   UNL     1       6.687  -2.165  11.221  1.00  0.00    -0.507 OA
ATOM     36  H   UNL     1       6.977  -2.046  10.260  1.00  0.00     0.293 HD
ENDBRANCH  10  35
TORSDOF 9
ENDMDL
