MODEL 1
REMARK VINA RESULT:    -6.340      0.000      0.000
REMARK INTER + INTRA:          -6.666
REMARK INTER:                  -6.896
REMARK INTRA:                   0.230
REMARK UNBOUND:                 0.230
REMARK SMILES C[C@@H]1[C@@H](C)CC[C@]2(C(=O)[O-])CC[C@]3(C)C(=CC[C@@H]4[C@@]5(C)CC[C@H](O)C(C)(C)[C@@H]5CC[C@]43C)[C@@H]12
REMARK SMILES IDX 7 1 6 2 11 3 33 4 5 5 12 6 15 7 2 8 3 9 13 10 16 11 1 12
REMARK SMILES IDX 4 13 14 14 31 15 17 16 18 17 30 18 32 19 19 20 29 21 28 22
REMARK SMILES IDX 21 23 20 24 25 25 22 26 23 27 26 28 27 29 8 30 9 31 10 32
REMARK SMILES IDX 24 33
REMARK H PARENT 24 34
REMARK Flexibility Score: inf
ROOT
ATOM      1  C   UNL     1     102.529  82.298  24.521  1.00  0.00     0.017 C 
ATOM      2  C   UNL     1     102.564  82.412  26.067  1.00  0.00     0.014 C 
ATOM      3  C   UNL     1     103.987  82.072  23.971  1.00  0.00     0.014 C 
ATOM      4  C   UNL     1     101.945  83.638  23.970  1.00  0.00     0.030 C 
ATOM      5  C   UNL     1     101.166  82.669  26.647  1.00  0.00     0.004 C 
ATOM      6  C   UNL     1     104.569  83.227  23.110  1.00  0.00     0.013 C 
ATOM      7  C   UNL     1     102.161  83.670  22.453  1.00  0.00    -0.063 C 
ATOM      8  C   UNL     1     100.532  84.000  24.535  1.00  0.00    -0.003 C 
ATOM      9  C   UNL     1     100.552  83.972  26.098  1.00  0.00    -0.011 C 
ATOM     10  C   UNL     1     103.618  83.814  21.986  1.00  0.00    -0.006 C 
ATOM     11  C   UNL     1     101.138  83.500  21.585  1.00  0.00    -0.027 C 
ATOM     12  C   UNL     1     100.099  85.405  24.050  1.00  0.00     0.008 C 
ATOM     13  C   UNL     1      99.147  84.154  26.698  1.00  0.00     0.008 C 
ATOM     14  C   UNL     1     103.895  85.354  21.955  1.00  0.00     0.017 C 
ATOM     15  C   UNL     1     103.843  83.119  20.543  1.00  0.00    -0.020 C 
ATOM     16  C   UNL     1     101.290  83.271  20.109  1.00  0.00     0.032 C 
ATOM     17  C   UNL     1     102.699  83.591  19.554  1.00  0.00     0.006 C 
ATOM     18  C   UNL     1     105.233  83.515  19.939  1.00  0.00     0.008 C 
ATOM     19  C   UNL     1     103.824  81.572  20.714  1.00  0.00     0.012 C 
ATOM     20  C   UNL     1     102.889  83.257  18.002  1.00  0.00    -0.025 C 
ATOM     21  C   UNL     1     105.420  83.120  18.468  1.00  0.00     0.005 C 
ATOM     22  C   UNL     1     104.320  83.770  17.589  1.00  0.00     0.003 C 
ATOM     23  C   UNL     1     101.838  84.080  17.187  1.00  0.00     0.010 C 
ATOM     24  C   UNL     1     102.671  81.738  17.685  1.00  0.00     0.012 C 
ATOM     25  C   UNL     1     104.631  83.814  16.039  1.00  0.00    -0.006 C 
ATOM     26  C   UNL     1     102.089  84.098  15.671  1.00  0.00     0.033 C 
ATOM     27  C   UNL     1     103.494  84.611  15.323  1.00  0.00     0.120 C 
ATOM     28  C   UNL     1     105.954  84.592  15.790  1.00  0.00     0.014 C 
ATOM     29  C   UNL     1     104.807  82.408  15.408  1.00  0.00     0.014 C 
ENDROOT
BRANCH   1  30
ATOM     30  C   UNL     1     101.694  81.073  24.144  1.00  0.00     0.048 C 
ATOM     31  O   UNL     1     102.267  79.974  23.916  1.00  0.00    -0.550 OA
ATOM     32  O   UNL     1     100.316  81.142  23.989  1.00  0.00    -0.550 OA
ENDBRANCH   1  30
BRANCH  27  33
ATOM     33  O   UNL     1     103.670  84.572  13.928  1.00  0.00    -0.393 OA
ATOM     34  H   UNL     1     104.584  84.909  13.739  1.00  0.00     0.210 HD
ENDBRANCH  27  33
TORSDOF 2
ENDMDL
MODEL 2
REMARK VINA RESULT:    -6.154      1.637      3.037
REMARK INTER + INTRA:          -6.464
REMARK INTER:                  -6.717
REMARK INTRA:                   0.253
REMARK UNBOUND:                 0.230
REMARK SMILES C[C@@H]1[C@@H](C)CC[C@]2(C(=O)[O-])CC[C@]3(C)C(=CC[C@@H]4[C@@]5(C)CC[C@H](O)C(C)(C)[C@@H]5CC[C@]43C)[C@@H]12
REMARK SMILES IDX 7 1 6 2 11 3 33 4 5 5 12 6 15 7 2 8 3 9 13 10 16 11 1 12
REMARK SMILES IDX 4 13 14 14 31 15 17 16 18 17 30 18 32 19 19 20 29 21 28 22
REMARK SMILES IDX 21 23 20 24 25 25 22 26 23 27 26 28 27 29 8 30 9 31 10 32
REMARK SMILES IDX 24 33
REMARK H PARENT 24 34
REMARK Flexibility Score: inf
ROOT
ATOM      1  C   UNL     1     100.739  82.429  24.179  1.00  0.00     0.017 C 
ATOM      2  C   UNL     1     100.243  81.777  25.496  1.00  0.00     0.014 C 
ATOM      3  C   UNL     1     100.209  81.607  22.945  1.00  0.00     0.014 C 
ATOM      4  C   UNL     1     102.300  82.410  24.210  1.00  0.00     0.030 C 
ATOM      5  C   UNL     1     100.767  82.525  26.729  1.00  0.00     0.004 C 
ATOM      6  C   UNL     1     101.293  80.885  22.100  1.00  0.00     0.013 C 
ATOM      7  C   UNL     1     102.814  82.782  22.815  1.00  0.00    -0.063 C 
ATOM      8  C   UNL     1     102.924  83.123  25.455  1.00  0.00    -0.003 C 
ATOM      9  C   UNL     1     102.307  82.548  26.772  1.00  0.00    -0.011 C 
ATOM     10  C   UNL     1     102.568  81.744  21.710  1.00  0.00    -0.006 C 
ATOM     11  C   UNL     1     103.377  83.986  22.563  1.00  0.00    -0.027 C 
ATOM     12  C   UNL     1     104.459  82.930  25.478  1.00  0.00     0.008 C 
ATOM     13  C   UNL     1     102.762  83.333  28.015  1.00  0.00     0.008 C 
ATOM     14  C   UNL     1     103.783  80.760  21.784  1.00  0.00     0.017 C 
ATOM     15  C   UNL     1     102.434  82.448  20.261  1.00  0.00    -0.020 C 
ATOM     16  C   UNL     1     103.679  84.525  21.194  1.00  0.00     0.032 C 
ATOM     17  C   UNL     1     103.632  83.467  20.065  1.00  0.00     0.006 C 
ATOM     18  C   UNL     1     102.477  81.385  19.112  1.00  0.00     0.008 C 
ATOM     19  C   UNL     1     101.065  83.183  20.176  1.00  0.00     0.012 C 
ATOM     20  C   UNL     1     103.859  84.057  18.597  1.00  0.00    -0.025 C 
ATOM     21  C   UNL     1     102.623  81.979  17.705  1.00  0.00     0.005 C 
ATOM     22  C   UNL     1     103.915  82.831  17.608  1.00  0.00     0.003 C 
ATOM     23  C   UNL     1     105.255  84.761  18.557  1.00  0.00     0.010 C 
ATOM     24  C   UNL     1     102.769  85.111  18.201  1.00  0.00     0.012 C 
ATOM     25  C   UNL     1     104.416  83.136  16.139  1.00  0.00    -0.006 C 
ATOM     26  C   UNL     1     105.745  85.112  17.143  1.00  0.00     0.033 C 
ATOM     27  C   UNL     1     105.785  83.883  16.223  1.00  0.00     0.120 C 
ATOM     28  C   UNL     1     104.676  81.800  15.386  1.00  0.00     0.014 C 
ATOM     29  C   UNL     1     103.394  83.940  15.296  1.00  0.00     0.014 C 
ENDROOT
BRANCH   1  30
ATOM     30  C   UNL     1     100.152  83.839  24.086  1.00  0.00     0.048 C 
ATOM     31  O   UNL     1      99.155  84.052  23.345  1.00  0.00    -0.550 OA
ATOM     32  O   UNL     1     100.718  84.916  24.754  1.00  0.00    -0.550 OA
ENDBRANCH   1  30
BRANCH  27  33
ATOM     33  O   UNL     1     106.209  84.279  14.941  1.00  0.00    -0.393 OA
ATOM     34  H   UNL     1     105.816  83.637  14.294  1.00  0.00     0.210 HD
ENDBRANCH  27  33
TORSDOF 2
ENDMDL
MODEL 3
REMARK VINA RESULT:    -5.852      1.710      8.293
REMARK INTER + INTRA:          -6.135
REMARK INTER:                  -6.364
REMARK INTRA:                   0.229
REMARK UNBOUND:                 0.230
REMARK SMILES C[C@@H]1[C@@H](C)CC[C@]2(C(=O)[O-])CC[C@]3(C)C(=CC[C@@H]4[C@@]5(C)CC[C@H](O)C(C)(C)[C@@H]5CC[C@]43C)[C@@H]12
REMARK SMILES IDX 7 1 6 2 11 3 33 4 5 5 12 6 15 7 2 8 3 9 13 10 16 11 1 12
REMARK SMILES IDX 4 13 14 14 31 15 17 16 18 17 30 18 32 19 19 20 29 21 28 22
REMARK SMILES IDX 21 23 20 24 25 25 22 26 23 27 26 28 27 29 8 30 9 31 10 32
REMARK SMILES IDX 24 33
REMARK H PARENT 24 34
REMARK Flexibility Score: inf
ROOT
ATOM      1  C   UNL     1     103.419  84.834  15.806  1.00  0.00     0.017 C 
ATOM      2  C   UNL     1     103.293  85.660  14.500  1.00  0.00     0.014 C 
ATOM      3  C   UNL     1     102.001  84.311  16.246  1.00  0.00     0.014 C 
ATOM      4  C   UNL     1     104.008  85.782  16.900  1.00  0.00     0.030 C 
ATOM      5  C   UNL     1     104.649  86.222  14.053  1.00  0.00     0.004 C 
ATOM      6  C   UNL     1     101.447  84.898  17.573  1.00  0.00     0.013 C 
ATOM      7  C   UNL     1     103.880  85.087  18.260  1.00  0.00    -0.063 C 
ATOM      8  C   UNL     1     105.379  86.430  16.514  1.00  0.00    -0.003 C 
ATOM      9  C   UNL     1     105.269  87.139  15.124  1.00  0.00    -0.011 C 
ATOM     10  C   UNL     1     102.450  84.929  18.800  1.00  0.00    -0.006 C 
ATOM     11  C   UNL     1     104.955  84.574  18.901  1.00  0.00    -0.027 C 
ATOM     12  C   UNL     1     105.812  87.459  17.586  1.00  0.00     0.008 C 
ATOM     13  C   UNL     1     106.633  87.645  14.624  1.00  0.00     0.008 C 
ATOM     14  C   UNL     1     102.146  86.260  19.566  1.00  0.00     0.017 C 
ATOM     15  C   UNL     1     102.322  83.628  19.752  1.00  0.00    -0.020 C 
ATOM     16  C   UNL     1     104.893  83.672  20.099  1.00  0.00     0.032 C 
ATOM     17  C   UNL     1     103.513  83.630  20.798  1.00  0.00     0.006 C 
ATOM     18  C   UNL     1     100.962  83.631  20.529  1.00  0.00     0.008 C 
ATOM     19  C   UNL     1     102.362  82.346  18.871  1.00  0.00     0.012 C 
ATOM     20  C   UNL     1     103.420  82.598  22.015  1.00  0.00    -0.025 C 
ATOM     21  C   UNL     1     100.869  82.583  21.646  1.00  0.00     0.005 C 
ATOM     22  C   UNL     1     102.005  82.792  22.680  1.00  0.00     0.003 C 
ATOM     23  C   UNL     1     104.500  82.986  23.077  1.00  0.00     0.010 C 
ATOM     24  C   UNL     1     103.685  81.119  21.567  1.00  0.00     0.012 C 
ATOM     25  C   UNL     1     101.784  82.088  24.079  1.00  0.00    -0.006 C 
ATOM     26  C   UNL     1     104.336  82.278  24.431  1.00  0.00     0.033 C 
ATOM     27  C   UNL     1     102.944  82.504  25.038  1.00  0.00     0.120 C 
ATOM     28  C   UNL     1     100.462  82.598  24.721  1.00  0.00     0.014 C 
ATOM     29  C   UNL     1     101.672  80.544  23.979  1.00  0.00     0.014 C 
ENDROOT
BRANCH   1  30
ATOM     30  C   UNL     1     104.299  83.614  15.526  1.00  0.00     0.048 C 
ATOM     31  O   UNL     1     103.765  82.527  15.179  1.00  0.00    -0.550 OA
ATOM     32  O   UNL     1     105.677  83.647  15.692  1.00  0.00    -0.550 OA
ENDBRANCH   1  30
BRANCH  27  33
ATOM     33  O   UNL     1     102.851  81.805  26.256  1.00  0.00    -0.393 OA
ATOM     34  H   UNL     1     101.894  81.804  26.518  1.00  0.00     0.210 HD
ENDBRANCH  27  33
TORSDOF 2
ENDMDL
MODEL 4
REMARK VINA RESULT:    -5.762      1.652      2.436
REMARK INTER + INTRA:          -6.038
REMARK INTER:                  -6.264
REMARK INTRA:                   0.227
REMARK UNBOUND:                 0.230
REMARK SMILES C[C@@H]1[C@@H](C)CC[C@]2(C(=O)[O-])CC[C@]3(C)C(=CC[C@@H]4[C@@]5(C)CC[C@H](O)C(C)(C)[C@@H]5CC[C@]43C)[C@@H]12
REMARK SMILES IDX 7 1 6 2 11 3 33 4 5 5 12 6 15 7 2 8 3 9 13 10 16 11 1 12
REMARK SMILES IDX 4 13 14 14 31 15 17 16 18 17 30 18 32 19 19 20 29 21 28 22
REMARK SMILES IDX 21 23 20 24 25 25 22 26 23 27 26 28 27 29 8 30 9 31 10 32
REMARK SMILES IDX 24 33
REMARK H PARENT 24 34
REMARK Flexibility Score: inf
ROOT
ATOM      1  C   UNL     1     103.122  82.797  23.127  1.00  0.00     0.017 C 
ATOM      2  C   UNL     1     102.725  82.814  24.626  1.00  0.00     0.014 C 
ATOM      3  C   UNL     1     104.225  83.887  22.855  1.00  0.00     0.014 C 
ATOM      4  C   UNL     1     101.835  83.114  22.302  1.00  0.00     0.030 C 
ATOM      5  C   UNL     1     101.624  81.790  24.932  1.00  0.00     0.004 C 
ATOM      6  C   UNL     1     103.796  85.067  21.940  1.00  0.00     0.013 C 
ATOM      7  C   UNL     1     102.247  83.383  20.850  1.00  0.00    -0.063 C 
ATOM      8  C   UNL     1     100.643  82.137  22.576  1.00  0.00    -0.003 C 
ATOM      9  C   UNL     1     100.349  82.061  24.110  1.00  0.00    -0.011 C 
ATOM     10  C   UNL     1     103.033  84.680  20.606  1.00  0.00    -0.006 C 
ATOM     11  C   UNL     1     102.001  82.490  19.864  1.00  0.00    -0.027 C 
ATOM     12  C   UNL     1      99.373  82.611  21.830  1.00  0.00     0.008 C 
ATOM     13  C   UNL     1      99.299  80.986  24.444  1.00  0.00     0.008 C 
ATOM     14  C   UNL     1     101.950  85.790  20.397  1.00  0.00     0.017 C 
ATOM     15  C   UNL     1     104.021  84.536  19.334  1.00  0.00    -0.020 C 
ATOM     16  C   UNL     1     102.579  82.556  18.480  1.00  0.00     0.032 C 
ATOM     17  C   UNL     1     103.215  83.919  18.117  1.00  0.00     0.006 C 
ATOM     18  C   UNL     1     104.596  85.930  18.909  1.00  0.00     0.008 C 
ATOM     19  C   UNL     1     105.222  83.626  19.721  1.00  0.00     0.012 C 
ATOM     20  C   UNL     1     103.915  83.959  16.680  1.00  0.00    -0.025 C 
ATOM     21  C   UNL     1     105.326  85.928  17.559  1.00  0.00     0.005 C 
ATOM     22  C   UNL     1     104.379  85.444  16.431  1.00  0.00     0.003 C 
ATOM     23  C   UNL     1     102.842  83.611  15.597  1.00  0.00     0.010 C 
ATOM     24  C   UNL     1     105.087  82.926  16.556  1.00  0.00     0.012 C 
ATOM     25  C   UNL     1     104.840  85.799  14.961  1.00  0.00    -0.006 C 
ATOM     26  C   UNL     1     103.284  83.901  14.154  1.00  0.00     0.033 C 
ATOM     27  C   UNL     1     103.720  85.361  13.965  1.00  0.00     0.120 C 
ATOM     28  C   UNL     1     104.996  87.340  14.817  1.00  0.00     0.014 C 
ATOM     29  C   UNL     1     106.204  85.169  14.576  1.00  0.00     0.014 C 
ENDROOT
BRANCH   1  30
ATOM     30  C   UNL     1     103.728  81.430  22.802  1.00  0.00     0.048 C 
ATOM     31  O   UNL     1     104.977  81.271  22.861  1.00  0.00    -0.550 OA
ATOM     32  O   UNL     1     102.948  80.359  22.389  1.00  0.00    -0.550 OA
ENDBRANCH   1  30
BRANCH  27  33
ATOM     33  O   UNL     1     104.141  85.550  12.636  1.00  0.00    -0.393 OA
ATOM     34  H   UNL     1     104.899  86.191  12.659  1.00  0.00     0.210 HD
ENDBRANCH  27  33
TORSDOF 2
ENDMDL
MODEL 5
REMARK VINA RESULT:    -5.673      2.208      3.810
REMARK INTER + INTRA:          -5.941
REMARK INTER:                  -6.166
REMARK INTRA:                   0.225
REMARK UNBOUND:                 0.230
REMARK SMILES C[C@@H]1[C@@H](C)CC[C@]2(C(=O)[O-])CC[C@]3(C)C(=CC[C@@H]4[C@@]5(C)CC[C@H](O)C(C)(C)[C@@H]5CC[C@]43C)[C@@H]12
REMARK SMILES IDX 7 1 6 2 11 3 33 4 5 5 12 6 15 7 2 8 3 9 13 10 16 11 1 12
REMARK SMILES IDX 4 13 14 14 31 15 17 16 18 17 30 18 32 19 19 20 29 21 28 22
REMARK SMILES IDX 21 23 20 24 25 25 22 26 23 27 26 28 27 29 8 30 9 31 10 32
REMARK SMILES IDX 24 33
REMARK H PARENT 24 34
REMARK Flexibility Score: inf
ROOT
ATOM      1  C   UNL     1     101.638  82.339  21.931  1.00  0.00     0.017 C 
ATOM      2  C   UNL     1     101.230  81.187  22.886  1.00  0.00     0.014 C 
ATOM      3  C   UNL     1     101.528  81.857  20.436  1.00  0.00     0.014 C 
ATOM      4  C   UNL     1     103.114  82.722  22.269  1.00  0.00     0.030 C 
ATOM      5  C   UNL     1     101.356  81.602  24.358  1.00  0.00     0.004 C 
ATOM      6  C   UNL     1     102.870  81.761  19.659  1.00  0.00     0.013 C 
ATOM      7  C   UNL     1     103.636  83.650  21.167  1.00  0.00    -0.063 C 
ATOM      8  C   UNL     1     103.344  83.126  23.763  1.00  0.00    -0.003 C 
ATOM      9  C   UNL     1     102.798  82.012  24.714  1.00  0.00    -0.011 C 
ATOM     10  C   UNL     1     103.847  83.003  19.789  1.00  0.00    -0.006 C 
ATOM     11  C   UNL     1     103.819  84.973  21.379  1.00  0.00    -0.027 C 
ATOM     12  C   UNL     1     104.851  83.346  24.038  1.00  0.00     0.008 C 
ATOM     13  C   UNL     1     102.847  82.438  26.192  1.00  0.00     0.008 C 
ATOM     14  C   UNL     1     105.293  82.404  19.828  1.00  0.00     0.017 C 
ATOM     15  C   UNL     1     103.659  84.081  18.599  1.00  0.00    -0.020 C 
ATOM     16  C   UNL     1     104.085  85.988  20.306  1.00  0.00     0.032 C 
ATOM     17  C   UNL     1     104.494  85.384  18.940  1.00  0.00     0.006 C 
ATOM     18  C   UNL     1     104.157  83.501  17.231  1.00  0.00     0.008 C 
ATOM     19  C   UNL     1     102.147  84.416  18.449  1.00  0.00     0.012 C 
ATOM     20  C   UNL     1     104.685  86.459  17.772  1.00  0.00    -0.025 C 
ATOM     21  C   UNL     1     104.263  84.539  16.106  1.00  0.00     0.005 C 
ATOM     22  C   UNL     1     105.227  85.683  16.513  1.00  0.00     0.003 C 
ATOM     23  C   UNL     1     105.787  87.477  18.212  1.00  0.00     0.010 C 
ATOM     24  C   UNL     1     103.370  87.260  17.476  1.00  0.00     0.012 C 
ATOM     25  C   UNL     1     105.766  86.570  15.319  1.00  0.00    -0.006 C 
ATOM     26  C   UNL     1     106.294  88.386  17.081  1.00  0.00     0.033 C 
ATOM     27  C   UNL     1     106.816  87.581  15.882  1.00  0.00     0.120 C 
ATOM     28  C   UNL     1     106.509  85.672  14.290  1.00  0.00     0.014 C 
ATOM     29  C   UNL     1     104.642  87.309  14.547  1.00  0.00     0.014 C 
ENDROOT
BRANCH   1  30
ATOM     30  C   UNL     1     100.655  83.497  22.121  1.00  0.00     0.048 C 
ATOM     31  O   UNL     1      99.636  83.577  21.382  1.00  0.00    -0.550 OA
ATOM     32  O   UNL     1     100.874  84.503  23.051  1.00  0.00    -0.550 OA
ENDBRANCH   1  30
BRANCH  27  33
ATOM     33  O   UNL     1     107.232  88.470  14.874  1.00  0.00    -0.393 OA
ATOM     34  H   UNL     1     106.791  89.341  15.053  1.00  0.00     0.210 HD
ENDBRANCH  27  33
TORSDOF 2
ENDMDL
MODEL 6
REMARK VINA RESULT:    -5.451      2.261      4.266
REMARK INTER + INTRA:          -5.700
REMARK INTER:                  -5.944
REMARK INTRA:                   0.245
REMARK UNBOUND:                 0.230
REMARK SMILES C[C@@H]1[C@@H](C)CC[C@]2(C(=O)[O-])CC[C@]3(C)C(=CC[C@@H]4[C@@]5(C)CC[C@H](O)C(C)(C)[C@@H]5CC[C@]43C)[C@@H]12
REMARK SMILES IDX 7 1 6 2 11 3 33 4 5 5 12 6 15 7 2 8 3 9 13 10 16 11 1 12
REMARK SMILES IDX 4 13 14 14 31 15 17 16 18 17 30 18 32 19 19 20 29 21 28 22
REMARK SMILES IDX 21 23 20 24 25 25 22 26 23 27 26 28 27 29 8 30 9 31 10 32
REMARK SMILES IDX 24 33
REMARK H PARENT 24 34
REMARK Flexibility Score: inf
ROOT
ATOM      1  C   UNL     1     102.782  81.199  22.413  1.00  0.00     0.017 C 
ATOM      2  C   UNL     1     102.604  79.973  23.347  1.00  0.00     0.014 C 
ATOM      3  C   UNL     1     101.689  81.168  21.280  1.00  0.00     0.014 C 
ATOM      4  C   UNL     1     104.211  81.105  21.789  1.00  0.00     0.030 C 
ATOM      5  C   UNL     1     103.673  79.942  24.448  1.00  0.00     0.004 C 
ATOM      6  C   UNL     1     102.221  80.955  19.836  1.00  0.00     0.013 C 
ATOM      7  C   UNL     1     104.310  82.133  20.657  1.00  0.00    -0.063 C 
ATOM      8  C   UNL     1     105.365  81.033  22.842  1.00  0.00    -0.003 C 
ATOM      9  C   UNL     1     105.096  79.878  23.861  1.00  0.00    -0.011 C 
ATOM     10  C   UNL     1     103.466  81.839  19.408  1.00  0.00    -0.006 C 
ATOM     11  C   UNL     1     105.036  83.267  20.788  1.00  0.00    -0.027 C 
ATOM     12  C   UNL     1     106.724  80.796  22.141  1.00  0.00     0.008 C 
ATOM     13  C   UNL     1     106.114  79.875  25.015  1.00  0.00     0.008 C 
ATOM     14  C   UNL     1     104.355  80.915  18.511  1.00  0.00     0.017 C 
ATOM     15  C   UNL     1     103.039  83.204  18.653  1.00  0.00    -0.020 C 
ATOM     16  C   UNL     1     104.992  84.431  19.841  1.00  0.00     0.032 C 
ATOM     17  C   UNL     1     104.317  84.125  18.482  1.00  0.00     0.006 C 
ATOM     18  C   UNL     1     102.437  82.900  17.239  1.00  0.00     0.008 C 
ATOM     19  C   UNL     1     101.943  83.927  19.489  1.00  0.00     0.012 C 
ATOM     20  C   UNL     1     104.184  85.388  17.511  1.00  0.00    -0.025 C 
ATOM     21  C   UNL     1     102.252  84.138  16.351  1.00  0.00     0.005 C 
ATOM     22  C   UNL     1     103.606  84.862  16.142  1.00  0.00     0.003 C 
ATOM     23  C   UNL     1     105.616  85.952  17.235  1.00  0.00     0.010 C 
ATOM     24  C   UNL     1     103.319  86.536  18.137  1.00  0.00     0.012 C 
ATOM     25  C   UNL     1     103.654  85.872  14.926  1.00  0.00    -0.006 C 
ATOM     26  C   UNL     1     105.682  86.973  16.088  1.00  0.00     0.033 C 
ATOM     27  C   UNL     1     105.113  86.409  14.777  1.00  0.00     0.120 C 
ATOM     28  C   UNL     1     103.313  85.121  13.607  1.00  0.00     0.014 C 
ATOM     29  C   UNL     1     102.641  87.039  15.057  1.00  0.00     0.014 C 
ENDROOT
BRANCH   1  30
ATOM     30  C   UNL     1     102.564  82.470  23.236  1.00  0.00     0.048 C 
ATOM     31  O   UNL     1     101.399  82.934  23.370  1.00  0.00    -0.550 OA
ATOM     32  O   UNL     1     103.620  83.170  23.803  1.00  0.00    -0.550 OA
ENDBRANCH   1  30
BRANCH  27  33
ATOM     33  O   UNL     1     105.173  87.401  13.782  1.00  0.00    -0.393 OA
ATOM     34  H   UNL     1     106.116  87.707  13.732  1.00  0.00     0.210 HD
ENDBRANCH  27  33
TORSDOF 2
ENDMDL
MODEL 7
REMARK VINA RESULT:    -5.439      2.891      9.354
REMARK INTER + INTRA:          -5.686
REMARK INTER:                  -5.921
REMARK INTRA:                   0.235
REMARK UNBOUND:                 0.230
REMARK SMILES C[C@@H]1[C@@H](C)CC[C@]2(C(=O)[O-])CC[C@]3(C)C(=CC[C@@H]4[C@@]5(C)CC[C@H](O)C(C)(C)[C@@H]5CC[C@]43C)[C@@H]12
REMARK SMILES IDX 7 1 6 2 11 3 33 4 5 5 12 6 15 7 2 8 3 9 13 10 16 11 1 12
REMARK SMILES IDX 4 13 14 14 31 15 17 16 18 17 30 18 32 19 19 20 29 21 28 22
REMARK SMILES IDX 21 23 20 24 25 25 22 26 23 27 26 28 27 29 8 30 9 31 10 32
REMARK SMILES IDX 24 33
REMARK H PARENT 24 34
REMARK Flexibility Score: inf
ROOT
ATOM      1  C   UNL     1     104.038  87.400  14.068  1.00  0.00     0.017 C 
ATOM      2  C   UNL     1     104.211  88.561  13.055  1.00  0.00     0.014 C 
ATOM      3  C   UNL     1     103.487  87.961  15.432  1.00  0.00     0.014 C 
ATOM      4  C   UNL     1     105.444  86.753  14.278  1.00  0.00     0.030 C 
ATOM      5  C   UNL     1     104.781  88.066  11.719  1.00  0.00     0.004 C 
ATOM      6  C   UNL     1     104.454  87.857  16.643  1.00  0.00     0.013 C 
ATOM      7  C   UNL     1     105.361  85.799  15.475  1.00  0.00    -0.063 C 
ATOM      8  C   UNL     1     106.119  86.248  12.960  1.00  0.00    -0.003 C 
ATOM      9  C   UNL     1     106.157  87.397  11.899  1.00  0.00    -0.011 C 
ATOM     10  C   UNL     1     105.176  86.461  16.849  1.00  0.00    -0.006 C 
ATOM     11  C   UNL     1     105.371  84.456  15.315  1.00  0.00    -0.027 C 
ATOM     12  C   UNL     1     107.560  85.759  13.243  1.00  0.00     0.008 C 
ATOM     13  C   UNL     1     106.657  86.902  10.530  1.00  0.00     0.008 C 
ATOM     14  C   UNL     1     106.621  86.798  17.347  1.00  0.00     0.017 C 
ATOM     15  C   UNL     1     104.385  85.486  17.868  1.00  0.00    -0.020 C 
ATOM     16  C   UNL     1     105.049  83.459  16.390  1.00  0.00     0.032 C 
ATOM     17  C   UNL     1     105.042  84.044  17.824  1.00  0.00     0.006 C 
ATOM     18  C   UNL     1     104.453  86.031  19.335  1.00  0.00     0.008 C 
ATOM     19  C   UNL     1     102.886  85.424  17.455  1.00  0.00     0.012 C 
ATOM     20  C   UNL     1     104.606  83.006  18.959  1.00  0.00    -0.025 C 
ATOM     21  C   UNL     1     103.963  85.043  20.401  1.00  0.00     0.005 C 
ATOM     22  C   UNL     1     104.789  83.732  20.345  1.00  0.00     0.003 C 
ATOM     23  C   UNL     1     105.593  81.794  18.925  1.00  0.00     0.010 C 
ATOM     24  C   UNL     1     103.153  82.459  18.744  1.00  0.00     0.012 C 
ATOM     25  C   UNL     1     104.697  82.819  21.634  1.00  0.00    -0.006 C 
ATOM     26  C   UNL     1     105.491  80.863  20.144  1.00  0.00     0.033 C 
ATOM     27  C   UNL     1     105.681  81.618  21.467  1.00  0.00     0.120 C 
ATOM     28  C   UNL     1     105.168  83.621  22.880  1.00  0.00     0.014 C 
ATOM     29  C   UNL     1     103.259  82.322  21.933  1.00  0.00     0.014 C 
ENDROOT
BRANCH   1  30
ATOM     30  C   UNL     1     102.999  86.423  13.512  1.00  0.00     0.048 C 
ATOM     31  O   UNL     1     101.780  86.585  13.789  1.00  0.00    -0.550 OA
ATOM     32  O   UNL     1     103.360  85.321  12.750  1.00  0.00    -0.550 OA
ENDBRANCH   1  30
BRANCH  27  33
ATOM     33  O   UNL     1     105.543  80.717  22.539  1.00  0.00    -0.393 OA
ATOM     34  H   UNL     1     104.812  80.089  22.299  1.00  0.00     0.210 HD
ENDBRANCH  27  33
TORSDOF 2
ENDMDL
MODEL 8
REMARK VINA RESULT:    -5.379      2.382      8.213
REMARK INTER + INTRA:          -5.621
REMARK INTER:                  -5.858
REMARK INTRA:                   0.236
REMARK UNBOUND:                 0.230
REMARK SMILES C[C@@H]1[C@@H](C)CC[C@]2(C(=O)[O-])CC[C@]3(C)C(=CC[C@@H]4[C@@]5(C)CC[C@H](O)C(C)(C)[C@@H]5CC[C@]43C)[C@@H]12
REMARK SMILES IDX 7 1 6 2 11 3 33 4 5 5 12 6 15 7 2 8 3 9 13 10 16 11 1 12
REMARK SMILES IDX 4 13 14 14 31 15 17 16 18 17 30 18 32 19 19 20 29 21 28 22
REMARK SMILES IDX 21 23 20 24 25 25 22 26 23 27 26 28 27 29 8 30 9 31 10 32
REMARK SMILES IDX 24 33
REMARK H PARENT 24 34
REMARK Flexibility Score: inf
ROOT
ATOM      1  C   UNL     1     105.605  85.334  15.807  1.00  0.00     0.017 C 
ATOM      2  C   UNL     1     105.759  85.962  14.397  1.00  0.00     0.014 C 
ATOM      3  C   UNL     1     105.207  83.817  15.674  1.00  0.00     0.014 C 
ATOM      4  C   UNL     1     104.481  86.125  16.548  1.00  0.00     0.030 C 
ATOM      5  C   UNL     1     106.112  87.454  14.478  1.00  0.00     0.004 C 
ATOM      6  C   UNL     1     103.791  83.443  16.190  1.00  0.00     0.013 C 
ATOM      7  C   UNL     1     104.111  85.357  17.822  1.00  0.00    -0.063 C 
ATOM      8  C   UNL     1     104.741  87.664  16.648  1.00  0.00    -0.003 C 
ATOM      9  C   UNL     1     105.033  88.256  15.230  1.00  0.00    -0.011 C 
ATOM     10  C   UNL     1     103.387  84.018  17.612  1.00  0.00    -0.006 C 
ATOM     11  C   UNL     1     104.475  85.797  19.048  1.00  0.00    -0.027 C 
ATOM     12  C   UNL     1     103.515  88.382  17.264  1.00  0.00     0.008 C 
ATOM     13  C   UNL     1     105.461  89.733  15.297  1.00  0.00     0.008 C 
ATOM     14  C   UNL     1     101.867  84.378  17.510  1.00  0.00     0.017 C 
ATOM     15  C   UNL     1     103.696  82.988  18.819  1.00  0.00    -0.020 C 
ATOM     16  C   UNL     1     104.374  84.997  20.314  1.00  0.00     0.032 C 
ATOM     17  C   UNL     1     103.490  83.731  20.203  1.00  0.00     0.006 C 
ATOM     18  C   UNL     1     102.740  81.749  18.759  1.00  0.00     0.008 C 
ATOM     19  C   UNL     1     105.156  82.466  18.683  1.00  0.00     0.012 C 
ATOM     20  C   UNL     1     103.459  82.828  21.522  1.00  0.00    -0.025 C 
ATOM     21  C   UNL     1     102.781  80.857  20.007  1.00  0.00     0.005 C 
ATOM     22  C   UNL     1     102.414  81.676  21.271  1.00  0.00     0.003 C 
ATOM     23  C   UNL     1     102.928  83.700  22.706  1.00  0.00     0.010 C 
ATOM     24  C   UNL     1     104.879  82.289  21.911  1.00  0.00     0.012 C 
ATOM     25  C   UNL     1     101.994  80.821  22.534  1.00  0.00    -0.006 C 
ATOM     26  C   UNL     1     102.558  82.898  23.964  1.00  0.00     0.033 C 
ATOM     27  C   UNL     1     101.534  81.793  23.666  1.00  0.00     0.120 C 
ATOM     28  C   UNL     1     100.772  79.927  22.180  1.00  0.00     0.014 C 
ATOM     29  C   UNL     1     103.116  79.875  23.035  1.00  0.00     0.014 C 
ENDROOT
BRANCH   1  30
ATOM     30  C   UNL     1     106.960  85.400  16.516  1.00  0.00     0.048 C 
ATOM     31  O   UNL     1     107.723  84.397  16.497  1.00  0.00    -0.550 OA
ATOM     32  O   UNL     1     107.360  86.518  17.235  1.00  0.00    -0.550 OA
ENDBRANCH   1  30
BRANCH  27  33
ATOM     33  O   UNL     1     101.265  81.080  24.848  1.00  0.00    -0.393 OA
ATOM     34  H   UNL     1     102.139  80.889  25.278  1.00  0.00     0.210 HD
ENDBRANCH  27  33
TORSDOF 2
ENDMDL
MODEL 9
REMARK VINA RESULT:    -5.297      4.755      7.630
REMARK INTER + INTRA:          -5.532
REMARK INTER:                  -5.770
REMARK INTRA:                   0.238
REMARK UNBOUND:                 0.230
REMARK SMILES C[C@@H]1[C@@H](C)CC[C@]2(C(=O)[O-])CC[C@]3(C)C(=CC[C@@H]4[C@@]5(C)CC[C@H](O)C(C)(C)[C@@H]5CC[C@]43C)[C@@H]12
REMARK SMILES IDX 7 1 6 2 11 3 33 4 5 5 12 6 15 7 2 8 3 9 13 10 16 11 1 12
REMARK SMILES IDX 4 13 14 14 31 15 17 16 18 17 30 18 32 19 19 20 29 21 28 22
REMARK SMILES IDX 21 23 20 24 25 25 22 26 23 27 26 28 27 29 8 30 9 31 10 32
REMARK SMILES IDX 24 33
REMARK H PARENT 24 34
REMARK Flexibility Score: inf
ROOT
ATOM      1  C   UNL     1     103.321  83.734  19.027  1.00  0.00     0.017 C 
ATOM      2  C   UNL     1     102.335  82.538  19.067  1.00  0.00     0.014 C 
ATOM      3  C   UNL     1     102.666  84.988  19.717  1.00  0.00     0.014 C 
ATOM      4  C   UNL     1     103.623  84.038  17.525  1.00  0.00     0.030 C 
ATOM      5  C   UNL     1     102.919  81.300  18.372  1.00  0.00     0.004 C 
ATOM      6  C   UNL     1     102.366  86.192  18.781  1.00  0.00     0.013 C 
ATOM      7  C   UNL     1     104.361  85.379  17.444  1.00  0.00    -0.063 C 
ATOM      8  C   UNL     1     104.192  82.818  16.727  1.00  0.00    -0.003 C 
ATOM      9  C   UNL     1     103.253  81.579  16.894  1.00  0.00    -0.011 C 
ATOM     10  C   UNL     1     103.531  86.623  17.796  1.00  0.00    -0.006 C 
ATOM     11  C   UNL     1     105.682  85.448  17.159  1.00  0.00    -0.027 C 
ATOM     12  C   UNL     1     104.322  83.168  15.225  1.00  0.00     0.008 C 
ATOM     13  C   UNL     1     103.856  80.309  16.268  1.00  0.00     0.008 C 
ATOM     14  C   UNL     1     102.828  87.046  16.464  1.00  0.00     0.017 C 
ATOM     15  C   UNL     1     104.463  87.799  18.400  1.00  0.00    -0.020 C 
ATOM     16  C   UNL     1     106.529  86.679  17.300  1.00  0.00     0.032 C 
ATOM     17  C   UNL     1     105.727  87.993  17.464  1.00  0.00     0.006 C 
ATOM     18  C   UNL     1     103.679  89.152  18.483  1.00  0.00     0.008 C 
ATOM     19  C   UNL     1     104.898  87.414  19.844  1.00  0.00     0.012 C 
ATOM     20  C   UNL     1     106.628  89.290  17.710  1.00  0.00    -0.025 C 
ATOM     21  C   UNL     1     104.555  90.373  18.791  1.00  0.00     0.005 C 
ATOM     22  C   UNL     1     105.660  90.533  17.715  1.00  0.00     0.003 C 
ATOM     23  C   UNL     1     107.602  89.453  16.497  1.00  0.00     0.010 C 
ATOM     24  C   UNL     1     107.489  89.182  19.016  1.00  0.00     0.012 C 
ATOM     25  C   UNL     1     106.344  91.957  17.654  1.00  0.00    -0.006 C 
ATOM     26  C   UNL     1     108.318  90.812  16.441  1.00  0.00     0.033 C 
ATOM     27  C   UNL     1     107.330  91.988  16.443  1.00  0.00     0.120 C 
ATOM     28  C   UNL     1     105.267  93.047  17.388  1.00  0.00     0.014 C 
ATOM     29  C   UNL     1     107.068  92.348  18.970  1.00  0.00     0.014 C 
ENDROOT
BRANCH   1  30
ATOM     30  C   UNL     1     104.568  83.359  19.831  1.00  0.00     0.048 C 
ATOM     31  O   UNL     1     104.673  83.734  21.030  1.00  0.00    -0.550 OA
ATOM     32  O   UNL     1     105.625  82.658  19.266  1.00  0.00    -0.550 OA
ENDBRANCH   1  30
BRANCH  27  33
ATOM     33  O   UNL     1     108.049  93.197  16.424  1.00  0.00    -0.393 OA
ATOM     34  H   UNL     1     108.830  93.081  17.025  1.00  0.00     0.210 HD
ENDBRANCH  27  33
TORSDOF 2
ENDMDL
