MODEL 1
REMARK VINA RESULT:    -3.582      0.000      0.000
REMARK INTER + INTRA:          -4.915
REMARK INTER:                  -4.629
REMARK INTRA:                  -0.286
REMARK UNBOUND:                -0.286
REMARK SMILES CCO[C@@H]1O[C@@H](CO)[C@H](O)[C@@H](O)[C@H]1O
REMARK SMILES IDX 4 1 13 2 11 3 9 4 6 5 5 6 3 7 2 8 1 9 14 10 12 12 7 14 8 15
REMARK SMILES IDX 10 17
REMARK H PARENT 14 11 12 13 8 16 10 18
REMARK Flexibility Score: inf
ROOT
ATOM      1  C   UNL     1     -11.387 -20.805  17.209  1.00  0.00     0.281 C 
ATOM      2  C   UNL     1     -10.751 -20.482  15.842  1.00  0.00     0.202 C 
ATOM      3  C   UNL     1     -11.033 -21.627  14.852  1.00  0.00     0.179 C 
ATOM      4  C   UNL     1     -12.538 -21.962  14.817  1.00  0.00     0.177 C 
ATOM      5  C   UNL     1     -13.050 -22.182  16.261  1.00  0.00     0.178 C 
ATOM      6  O   UNL     1     -12.780 -21.046  17.070  1.00  0.00    -0.341 OA
ENDROOT
BRANCH   1   7
ATOM      7  O   UNL     1     -10.751 -21.922  17.819  1.00  0.00    -0.350 OA
BRANCH   7   8
ATOM      8  C   UNL     1     -10.172 -21.585  19.066  1.00  0.00     0.160 C 
ATOM      9  C   UNL     1      -9.871 -20.092  19.125  1.00  0.00     0.035 C 
ENDBRANCH   7   8
ENDBRANCH   1   7
BRANCH   2  10
ATOM     10  O   UNL     1     -11.289 -19.273  15.366  1.00  0.00    -0.385 OA
ATOM     11  H   UNL     1     -11.131 -18.587  16.066  1.00  0.00     0.211 HD
ENDBRANCH   2  10
BRANCH   3  12
ATOM     12  O   UNL     1     -10.536 -21.325  13.571  1.00  0.00    -0.387 OA
ATOM     13  H   UNL     1      -9.956 -22.075  13.280  1.00  0.00     0.211 HD
ENDBRANCH   3  12
BRANCH   5  14
ATOM     14  C   UNL     1     -14.570 -22.421  16.284  1.00  0.00     0.191 C 
BRANCH  14  15
ATOM     15  O   UNL     1     -15.169 -22.010  15.084  1.00  0.00    -0.394 OA
ATOM     16  H   UNL     1     -15.573 -21.120  15.257  1.00  0.00     0.210 HD
ENDBRANCH  14  15
ENDBRANCH   5  14
BRANCH   4  17
ATOM     17  O   UNL     1     -12.740 -23.125  14.055  1.00  0.00    -0.387 OA
ATOM     18  H   UNL     1     -13.411 -22.900  13.358  1.00  0.00     0.211 HD
ENDBRANCH   4  17
TORSDOF 7
ENDMDL
MODEL 2
REMARK VINA RESULT:    -3.056      1.434      4.324
REMARK INTER + INTRA:          -4.236
REMARK INTER:                  -3.860
REMARK INTRA:                  -0.376
REMARK UNBOUND:                -0.286
REMARK SMILES CCO[C@@H]1O[C@@H](CO)[C@H](O)[C@@H](O)[C@H]1O
REMARK SMILES IDX 4 1 13 2 11 3 9 4 6 5 5 6 3 7 2 8 1 9 14 10 12 12 7 14 8 15
REMARK SMILES IDX 10 17
REMARK H PARENT 14 11 12 13 8 16 10 18
REMARK Flexibility Score: inf
ROOT
ATOM      1  C   UNL     1     -12.486 -22.581  15.830  1.00  0.00     0.281 C 
ATOM      2  C   UNL     1     -11.920 -21.308  15.166  1.00  0.00     0.202 C 
ATOM      3  C   UNL     1     -11.772 -20.193  16.218  1.00  0.00     0.179 C 
ATOM      4  C   UNL     1     -10.989 -20.701  17.446  1.00  0.00     0.177 C 
ATOM      5  C   UNL     1     -11.623 -22.019  17.952  1.00  0.00     0.178 C 
ATOM      6  O   UNL     1     -11.664 -22.989  16.914  1.00  0.00    -0.341 OA
ENDROOT
BRANCH   1   7
ATOM      7  O   UNL     1     -13.822 -22.376  16.274  1.00  0.00    -0.350 OA
BRANCH   7   8
ATOM      8  C   UNL     1     -14.747 -22.410  15.202  1.00  0.00     0.160 C 
ATOM      9  C   UNL     1     -16.137 -22.774  15.713  1.00  0.00     0.035 C 
ENDBRANCH   7   8
ENDBRANCH   1   7
BRANCH   2  10
ATOM     10  O   UNL     1     -10.674 -21.614  14.590  1.00  0.00    -0.385 OA
ATOM     11  H   UNL     1     -10.218 -20.751  14.406  1.00  0.00     0.211 HD
ENDBRANCH   2  10
BRANCH   3  12
ATOM     12  O   UNL     1     -11.180 -19.045  15.661  1.00  0.00    -0.387 OA
ATOM     13  H   UNL     1     -11.872 -18.337  15.606  1.00  0.00     0.211 HD
ENDBRANCH   3  12
BRANCH   5  14
ATOM     14  C   UNL     1     -10.814 -22.617  19.116  1.00  0.00     0.191 C 
BRANCH  14  15
ATOM     15  O   UNL     1      -9.493 -22.144  19.116  1.00  0.00    -0.394 OA
ATOM     16  H   UNL     1      -8.989 -22.709  18.475  1.00  0.00     0.210 HD
ENDBRANCH  14  15
ENDBRANCH   5  14
BRANCH   4  17
ATOM     17  O   UNL     1     -11.031 -19.730  18.461  1.00  0.00    -0.387 OA
ATOM     18  H   UNL     1     -11.838 -19.175  18.295  1.00  0.00     0.211 HD
ENDBRANCH   4  17
TORSDOF 7
ENDMDL
MODEL 3
REMARK VINA RESULT:    -2.908      1.923      4.149
REMARK INTER + INTRA:          -4.045
REMARK INTER:                  -3.883
REMARK INTRA:                  -0.162
REMARK UNBOUND:                -0.286
REMARK SMILES CCO[C@@H]1O[C@@H](CO)[C@H](O)[C@@H](O)[C@H]1O
REMARK SMILES IDX 4 1 13 2 11 3 9 4 6 5 5 6 3 7 2 8 1 9 14 10 12 12 7 14 8 15
REMARK SMILES IDX 10 17
REMARK H PARENT 14 11 12 13 8 16 10 18
REMARK Flexibility Score: inf
ROOT
ATOM      1  C   UNL     1     -12.866 -22.409  15.568  1.00  0.00     0.281 C 
ATOM      2  C   UNL     1     -11.519 -21.668  15.435  1.00  0.00     0.202 C 
ATOM      3  C   UNL     1     -11.541 -20.390  16.293  1.00  0.00     0.179 C 
ATOM      4  C   UNL     1     -11.979 -20.708  17.738  1.00  0.00     0.177 C 
ATOM      5  C   UNL     1     -13.298 -21.518  17.708  1.00  0.00     0.178 C 
ATOM      6  O   UNL     1     -13.148 -22.697  16.929  1.00  0.00    -0.341 OA
ENDROOT
BRANCH   1   7
ATOM      7  O   UNL     1     -13.926 -21.653  14.994  1.00  0.00    -0.350 OA
BRANCH   7   8
ATOM      8  C   UNL     1     -14.500 -22.309  13.879  1.00  0.00     0.160 C 
ATOM      9  C   UNL     1     -15.898 -22.812  14.223  1.00  0.00     0.035 C 
ENDBRANCH   7   8
ENDBRANCH   1   7
BRANCH   2  10
ATOM     10  O   UNL     1     -10.486 -22.527  15.852  1.00  0.00    -0.385 OA
ATOM     11  H   UNL     1     -10.908 -23.392  16.097  1.00  0.00     0.211 HD
ENDBRANCH   2  10
BRANCH   3  12
ATOM     12  O   UNL     1     -10.296 -19.734  16.259  1.00  0.00    -0.387 OA
ATOM     13  H   UNL     1      -9.589 -20.408  16.433  1.00  0.00     0.211 HD
ENDBRANCH   3  12
BRANCH   5  14
ATOM     14  C   UNL     1     -13.722 -21.946  19.124  1.00  0.00     0.191 C 
BRANCH  14  15
ATOM     15  O   UNL     1     -14.925 -22.666  19.101  1.00  0.00    -0.394 OA
ATOM     16  H   UNL     1     -14.727 -23.564  19.472  1.00  0.00     0.210 HD
ENDBRANCH  14  15
ENDBRANCH   5  14
BRANCH   4  17
ATOM     17  O   UNL     1     -12.170 -19.508  18.443  1.00  0.00    -0.387 OA
ATOM     18  H   UNL     1     -13.078 -19.178  18.209  1.00  0.00     0.211 HD
ENDBRANCH   4  17
TORSDOF 7
ENDMDL
MODEL 4
REMARK VINA RESULT:    -2.749      1.682      4.649
REMARK INTER + INTRA:          -3.838
REMARK INTER:                  -3.641
REMARK INTRA:                  -0.197
REMARK UNBOUND:                -0.286
REMARK SMILES CCO[C@@H]1O[C@@H](CO)[C@H](O)[C@@H](O)[C@H]1O
REMARK SMILES IDX 4 1 13 2 11 3 9 4 6 5 5 6 3 7 2 8 1 9 14 10 12 12 7 14 8 15
REMARK SMILES IDX 10 17
REMARK H PARENT 14 11 12 13 8 16 10 18
REMARK Flexibility Score: inf
ROOT
ATOM      1  C   UNL     1     -13.733 -22.108  15.385  1.00  0.00     0.281 C 
ATOM      2  C   UNL     1     -13.987 -22.579  16.831  1.00  0.00     0.202 C 
ATOM      3  C   UNL     1     -12.645 -22.776  17.560  1.00  0.00     0.179 C 
ATOM      4  C   UNL     1     -11.759 -21.521  17.421  1.00  0.00     0.177 C 
ATOM      5  C   UNL     1     -11.660 -21.124  15.928  1.00  0.00     0.178 C 
ATOM      6  O   UNL     1     -12.952 -20.922  15.373  1.00  0.00    -0.341 OA
ENDROOT
BRANCH   1   7
ATOM      7  O   UNL     1     -13.096 -23.125  14.619  1.00  0.00    -0.350 OA
BRANCH   7   8
ATOM      8  C   UNL     1     -13.532 -23.125  13.273  1.00  0.00     0.160 C 
ATOM      9  C   UNL     1     -12.335 -23.093  12.328  1.00  0.00     0.035 C 
ENDBRANCH   7   8
ENDBRANCH   1   7
BRANCH   2  10
ATOM     10  O   UNL     1     -14.772 -21.615  17.490  1.00  0.00    -0.385 OA
ATOM     11  H   UNL     1     -15.580 -21.466  16.932  1.00  0.00     0.211 HD
ENDBRANCH   2  10
BRANCH   3  12
ATOM     12  O   UNL     1     -12.845 -23.125  18.908  1.00  0.00    -0.387 OA
ATOM     13  H   UNL     1     -12.350 -23.966  19.085  1.00  0.00     0.211 HD
ENDBRANCH   3  12
BRANCH   5  14
ATOM     14  C   UNL     1     -10.866 -19.817  15.749  1.00  0.00     0.191 C 
BRANCH  14  15
ATOM     15  O   UNL     1     -11.695 -18.694  15.888  1.00  0.00    -0.394 OA
ATOM     16  H   UNL     1     -12.111 -18.756  16.787  1.00  0.00     0.210 HD
ENDBRANCH  14  15
ENDBRANCH   5  14
BRANCH   4  17
ATOM     17  O   UNL     1     -10.478 -21.795  17.929  1.00  0.00    -0.387 OA
ATOM     18  H   UNL     1     -10.287 -21.105  18.618  1.00  0.00     0.211 HD
ENDBRANCH   4  17
TORSDOF 7
ENDMDL
MODEL 5
REMARK VINA RESULT:    -2.730      1.965      4.149
REMARK INTER + INTRA:          -3.813
REMARK INTER:                  -3.415
REMARK INTRA:                  -0.398
REMARK UNBOUND:                -0.286
REMARK SMILES CCO[C@@H]1O[C@@H](CO)[C@H](O)[C@@H](O)[C@H]1O
REMARK SMILES IDX 4 1 13 2 11 3 9 4 6 5 5 6 3 7 2 8 1 9 14 10 12 12 7 14 8 15
REMARK SMILES IDX 10 17
REMARK H PARENT 14 11 12 13 8 16 10 18
REMARK Flexibility Score: inf
ROOT
ATOM      1  C   UNL     1     -12.148 -22.730  16.190  1.00  0.00     0.281 C 
ATOM      2  C   UNL     1     -10.912 -22.009  16.766  1.00  0.00     0.202 C 
ATOM      3  C   UNL     1     -11.349 -20.725  17.494  1.00  0.00     0.179 C 
ATOM      4  C   UNL     1     -12.470 -21.026  18.510  1.00  0.00     0.177 C 
ATOM      5  C   UNL     1     -13.601 -21.818  17.809  1.00  0.00     0.178 C 
ATOM      6  O   UNL     1     -13.092 -23.004  17.215  1.00  0.00    -0.341 OA
ENDROOT
BRANCH   1   7
ATOM      7  O   UNL     1     -12.753 -21.963  15.155  1.00  0.00    -0.350 OA
BRANCH   7   8
ATOM      8  C   UNL     1     -13.392 -22.782  14.194  1.00  0.00     0.160 C 
ATOM      9  C   UNL     1     -14.847 -22.362  14.022  1.00  0.00     0.035 C 
ENDBRANCH   7   8
ENDBRANCH   1   7
BRANCH   2  10
ATOM     10  O   UNL     1     -10.252 -22.880  17.652  1.00  0.00    -0.385 OA
ATOM     11  H   UNL     1     -10.102 -22.378  18.496  1.00  0.00     0.211 HD
ENDBRANCH   2  10
BRANCH   3  12
ATOM     12  O   UNL     1     -10.252 -20.087  18.102  1.00  0.00    -0.387 OA
ATOM     13  H   UNL     1      -9.808 -20.743  18.700  1.00  0.00     0.211 HD
ENDBRANCH   3  12
BRANCH   5  14
ATOM     14  C   UNL     1     -14.696 -22.229  18.808  1.00  0.00     0.191 C 
BRANCH  14  15
ATOM     15  O   UNL     1     -15.529 -21.146  19.125  1.00  0.00    -0.394 OA
ATOM     16  H   UNL     1     -15.923 -20.829  18.271  1.00  0.00     0.210 HD
ENDBRANCH  14  15
ENDBRANCH   5  14
BRANCH   4  17
ATOM     17  O   UNL     1     -12.976 -19.819  19.019  1.00  0.00    -0.387 OA
ATOM     18  H   UNL     1     -13.138 -19.960  19.988  1.00  0.00     0.211 HD
ENDBRANCH   4  17
TORSDOF 7
ENDMDL
MODEL 6
REMARK VINA RESULT:    -2.410      2.153      3.510
REMARK INTER + INTRA:          -3.400
REMARK INTER:                  -3.009
REMARK INTRA:                  -0.392
REMARK UNBOUND:                -0.286
REMARK SMILES CCO[C@@H]1O[C@@H](CO)[C@H](O)[C@@H](O)[C@H]1O
REMARK SMILES IDX 4 1 13 2 11 3 9 4 6 5 5 6 3 7 2 8 1 9 14 10 12 12 7 14 8 15
REMARK SMILES IDX 10 17
REMARK H PARENT 14 11 12 13 8 16 10 18
REMARK Flexibility Score: inf
ROOT
ATOM      1  C   UNL     1     -12.602 -21.904  15.785  1.00  0.00     0.281 C 
ATOM      2  C   UNL     1     -13.771 -22.150  14.808  1.00  0.00     0.202 C 
ATOM      3  C   UNL     1     -14.882 -22.947  15.514  1.00  0.00     0.179 C 
ATOM      4  C   UNL     1     -15.268 -22.282  16.851  1.00  0.00     0.177 C 
ATOM      5  C   UNL     1     -13.991 -22.027  17.687  1.00  0.00     0.178 C 
ATOM      6  O   UNL     1     -13.058 -21.244  16.956  1.00  0.00    -0.341 OA
ENDROOT
BRANCH   1   7
ATOM      7  O   UNL     1     -11.956 -23.125  16.127  1.00  0.00    -0.350 OA
BRANCH   7   8
ATOM      8  C   UNL     1     -10.549 -22.979  16.187  1.00  0.00     0.160 C 
ATOM      9  C   UNL     1     -10.075 -23.008  17.636  1.00  0.00     0.035 C 
ENDBRANCH   7   8
ENDBRANCH   1   7
BRANCH   2  10
ATOM     10  O   UNL     1     -14.259 -20.907  14.364  1.00  0.00    -0.385 OA
ATOM     11  H   UNL     1     -15.040 -21.093  13.779  1.00  0.00     0.211 HD
ENDBRANCH   2  10
BRANCH   3  12
ATOM     12  O   UNL     1     -15.999 -23.116  14.674  1.00  0.00    -0.387 OA
ATOM     13  H   UNL     1     -16.439 -22.233  14.568  1.00  0.00     0.211 HD
ENDBRANCH   3  12
BRANCH   5  14
ATOM     14  C   UNL     1     -14.316 -21.273  18.988  1.00  0.00     0.191 C 
BRANCH  14  15
ATOM     15  O   UNL     1     -15.628 -20.779  18.977  1.00  0.00    -0.394 OA
ATOM     16  H   UNL     1     -16.214 -21.532  18.705  1.00  0.00     0.210 HD
ENDBRANCH  14  15
ENDBRANCH   5  14
BRANCH   4  17
ATOM     17  O   UNL     1     -16.142 -23.125  17.557  1.00  0.00    -0.387 OA
ATOM     18  H   UNL     1     -15.631 -23.946  17.784  1.00  0.00     0.211 HD
ENDBRANCH   4  17
TORSDOF 7
ENDMDL
MODEL 7
REMARK VINA RESULT:    -2.166      1.598      3.579
REMARK INTER + INTRA:          -3.085
REMARK INTER:                  -3.005
REMARK INTRA:                  -0.080
REMARK UNBOUND:                -0.286
REMARK SMILES CCO[C@@H]1O[C@@H](CO)[C@H](O)[C@@H](O)[C@H]1O
REMARK SMILES IDX 4 1 13 2 11 3 9 4 6 5 5 6 3 7 2 8 1 9 14 10 12 12 7 14 8 15
REMARK SMILES IDX 10 17
REMARK H PARENT 14 11 12 13 8 16 10 18
REMARK Flexibility Score: inf
ROOT
ATOM      1  C   UNL     1     -11.183 -21.129  16.673  1.00  0.00     0.281 C 
ATOM      2  C   UNL     1     -11.917 -21.846  17.825  1.00  0.00     0.202 C 
ATOM      3  C   UNL     1     -13.346 -22.212  17.386  1.00  0.00     0.179 C 
ATOM      4  C   UNL     1     -13.328 -22.970  16.042  1.00  0.00     0.177 C 
ATOM      5  C   UNL     1     -12.494 -22.171  15.012  1.00  0.00     0.178 C 
ATOM      6  O   UNL     1     -11.182 -21.933  15.502  1.00  0.00    -0.341 OA
ENDROOT
BRANCH   1   7
ATOM      7  O   UNL     1     -11.772 -19.862  16.400  1.00  0.00    -0.350 OA
BRANCH   7   8
ATOM      8  C   UNL     1     -10.959 -19.074  15.550  1.00  0.00     0.160 C 
ATOM      9  C   UNL     1     -11.744 -17.874  15.030  1.00  0.00     0.035 C 
ENDBRANCH   7   8
ENDBRANCH   1   7
BRANCH   2  10
ATOM     10  O   UNL     1     -11.194 -23.002  18.172  1.00  0.00    -0.385 OA
ATOM     11  H   UNL     1     -10.960 -23.465  17.326  1.00  0.00     0.211 HD
ENDBRANCH   2  10
BRANCH   3  12
ATOM     12  O   UNL     1     -14.014 -22.942  18.386  1.00  0.00    -0.387 OA
ATOM     13  H   UNL     1     -14.938 -23.119  18.073  1.00  0.00     0.211 HD
ENDBRANCH   3  12
BRANCH   5  14
ATOM     14  C   UNL     1     -12.363 -22.938  13.684  1.00  0.00     0.191 C 
BRANCH  14  15
ATOM     15  O   UNL     1     -11.373 -22.377  12.866  1.00  0.00    -0.394 OA
ATOM     16  H   UNL     1     -10.645 -23.048  12.798  1.00  0.00     0.210 HD
ENDBRANCH  14  15
ENDBRANCH   5  14
BRANCH   4  17
ATOM     17  O   UNL     1     -14.644 -23.125  15.575  1.00  0.00    -0.387 OA
ATOM     18  H   UNL     1     -14.633 -23.876  14.925  1.00  0.00     0.211 HD
ENDBRANCH   4  17
TORSDOF 7
ENDMDL
MODEL 8
REMARK VINA RESULT:    -2.077      1.979      3.677
REMARK INTER + INTRA:          -2.970
REMARK INTER:                  -2.885
REMARK INTRA:                  -0.085
REMARK UNBOUND:                -0.286
REMARK SMILES CCO[C@@H]1O[C@@H](CO)[C@H](O)[C@@H](O)[C@H]1O
REMARK SMILES IDX 4 1 13 2 11 3 9 4 6 5 5 6 3 7 2 8 1 9 14 10 12 12 7 14 8 15
REMARK SMILES IDX 10 17
REMARK H PARENT 14 11 12 13 8 16 10 18
REMARK Flexibility Score: inf
ROOT
ATOM      1  C   UNL     1     -12.225 -21.891  15.783  1.00  0.00     0.281 C 
ATOM      2  C   UNL     1     -13.637 -22.097  15.197  1.00  0.00     0.202 C 
ATOM      3  C   UNL     1     -14.604 -22.540  16.311  1.00  0.00     0.179 C 
ATOM      4  C   UNL     1     -14.523 -21.584  17.518  1.00  0.00     0.177 C 
ATOM      5  C   UNL     1     -13.045 -21.414  17.943  1.00  0.00     0.178 C 
ATOM      6  O   UNL     1     -12.257 -20.957  16.852  1.00  0.00    -0.341 OA
ENDROOT
BRANCH   1   7
ATOM      7  O   UNL     1     -11.667 -23.124  16.222  1.00  0.00    -0.350 OA
BRANCH   7   8
ATOM      8  C   UNL     1     -10.262 -23.044  16.377  1.00  0.00     0.160 C 
ATOM      9  C   UNL     1      -9.886 -23.125  17.852  1.00  0.00     0.035 C 
ENDBRANCH   7   8
ENDBRANCH   1   7
BRANCH   2  10
ATOM     10  O   UNL     1     -14.068 -20.889  14.619  1.00  0.00    -0.385 OA
ATOM     11  H   UNL     1     -15.017 -20.762  14.884  1.00  0.00     0.211 HD
ENDBRANCH   2  10
BRANCH   3  12
ATOM     12  O   UNL     1     -15.919 -22.656  15.825  1.00  0.00    -0.387 OA
ATOM     13  H   UNL     1     -16.475 -23.069  16.535  1.00  0.00     0.211 HD
ENDBRANCH   3  12
BRANCH   5  14
ATOM     14  C   UNL     1     -12.905 -20.389  19.082  1.00  0.00     0.191 C 
BRANCH  14  15
ATOM     15  O   UNL     1     -12.289 -19.211  18.635  1.00  0.00    -0.394 OA
ATOM     16  H   UNL     1     -11.644 -18.941  19.340  1.00  0.00     0.210 HD
ENDBRANCH  14  15
ENDBRANCH   5  14
BRANCH   4  17
ATOM     17  O   UNL     1     -15.269 -22.113  18.584  1.00  0.00    -0.387 OA
ATOM     18  H   UNL     1     -14.981 -21.634  19.404  1.00  0.00     0.211 HD
ENDBRANCH   4  17
TORSDOF 7
ENDMDL
