MODEL 1
REMARK VINA RESULT:    -3.520      0.000      0.000
REMARK INTER + INTRA:          -4.179
REMARK INTER:                  -4.137
REMARK INTRA:                  -0.042
REMARK UNBOUND:                -0.042
REMARK SMILES O=C([O-])CCC(=O)[O-]
REMARK SMILES IDX 4 1 2 2 1 3 3 4 5 5 6 6 7 7 8 8
REMARK H PARENT
REMARK Flexibility Score: inf
ROOT
ATOM      1  C   UNL     1      -4.688   5.768   9.575  1.00  0.00     0.059 C 
ENDROOT
BRANCH   1   2
ATOM      2  C   UNL     1      -5.490   4.516   9.758  1.00  0.00     0.042 C 
ATOM      3  O   UNL     1      -6.731   4.522   9.546  1.00  0.00    -0.550 OA
ATOM      4  O   UNL     1      -4.860   3.333  10.125  1.00  0.00    -0.550 OA
ENDBRANCH   1   2
BRANCH   1   5
ATOM      5  C   UNL     1      -3.321   5.475   8.947  1.00  0.00     0.059 C 
BRANCH   5   6
ATOM      6  C   UNL     1      -3.429   5.242   7.472  1.00  0.00     0.042 C 
ATOM      7  O   UNL     1      -3.093   6.145   6.661  1.00  0.00    -0.550 OA
ATOM      8  O   UNL     1      -3.862   4.012   6.991  1.00  0.00    -0.550 OA
ENDBRANCH   5   6
ENDBRANCH   1   5
TORSDOF 3
ENDMDL
MODEL 2
REMARK VINA RESULT:    -3.469      1.185      3.844
REMARK INTER + INTRA:          -4.118
REMARK INTER:                  -4.085
REMARK INTRA:                  -0.033
REMARK UNBOUND:                -0.042
REMARK SMILES O=C([O-])CCC(=O)[O-]
REMARK SMILES IDX 4 1 2 2 1 3 3 4 5 5 6 6 7 7 8 8
REMARK H PARENT
REMARK Flexibility Score: inf
ROOT
ATOM      1  C   UNL     1      -4.055   4.608   7.887  1.00  0.00     0.059 C 
ENDROOT
BRANCH   1   2
ATOM      2  C   UNL     1      -3.070   5.703   7.611  1.00  0.00     0.042 C 
ATOM      3  O   UNL     1      -3.020   6.240   6.474  1.00  0.00    -0.550 OA
ATOM      4  O   UNL     1      -2.235   6.159   8.624  1.00  0.00    -0.550 OA
ENDBRANCH   1   2
BRANCH   1   5
ATOM      5  C   UNL     1      -4.903   4.911   9.127  1.00  0.00     0.059 C 
BRANCH   5   6
ATOM      6  C   UNL     1      -5.582   3.681   9.646  1.00  0.00     0.042 C 
ATOM      7  O   UNL     1      -4.899   2.720  10.089  1.00  0.00    -0.550 OA
ATOM      8  O   UNL     1      -6.969   3.612   9.678  1.00  0.00    -0.550 OA
ENDBRANCH   5   6
ENDBRANCH   1   5
TORSDOF 3
ENDMDL
MODEL 3
REMARK VINA RESULT:    -3.449      1.137      1.795
REMARK INTER + INTRA:          -4.096
REMARK INTER:                  -4.063
REMARK INTRA:                  -0.033
REMARK UNBOUND:                -0.042
REMARK SMILES O=C([O-])CCC(=O)[O-]
REMARK SMILES IDX 4 1 2 2 1 3 3 4 5 5 6 6 7 7 8 8
REMARK H PARENT
REMARK Flexibility Score: inf
ROOT
ATOM      1  C   UNL     1      -4.900   4.945   9.212  1.00  0.00     0.059 C 
ENDROOT
BRANCH   1   2
ATOM      2  C   UNL     1      -5.632   3.745   9.732  1.00  0.00     0.042 C 
ATOM      3  O   UNL     1      -4.993   2.735  10.125  1.00  0.00    -0.550 OA
ATOM      4  O   UNL     1      -7.018   3.761   9.821  1.00  0.00    -0.550 OA
ENDBRANCH   1   2
BRANCH   1   5
ATOM      5  C   UNL     1      -4.043   4.597   7.990  1.00  0.00     0.059 C 
BRANCH   5   6
ATOM      6  C   UNL     1      -3.044   5.672   7.691  1.00  0.00     0.042 C 
ATOM      7  O   UNL     1      -2.977   6.171   6.536  1.00  0.00    -0.550 OA
ATOM      8  O   UNL     1      -2.213   6.151   8.696  1.00  0.00    -0.550 OA
ENDBRANCH   5   6
ENDBRANCH   1   5
TORSDOF 3
ENDMDL
MODEL 4
REMARK VINA RESULT:    -3.306      1.607      2.285
REMARK INTER + INTRA:          -3.927
REMARK INTER:                  -3.887
REMARK INTRA:                  -0.041
REMARK UNBOUND:                -0.042
REMARK SMILES O=C([O-])CCC(=O)[O-]
REMARK SMILES IDX 4 1 2 2 1 3 3 4 5 5 6 6 7 7 8 8
REMARK H PARENT
REMARK Flexibility Score: inf
ROOT
ATOM      1  C   UNL     1      -4.613   5.135   8.831  1.00  0.00     0.059 C 
ENDROOT
BRANCH   1   2
ATOM      2  C   UNL     1      -5.444   4.055   9.455  1.00  0.00     0.042 C 
ATOM      3  O   UNL     1      -4.893   3.033   9.942  1.00  0.00    -0.550 OA
ATOM      4  O   UNL     1      -6.824   4.197   9.534  1.00  0.00    -0.550 OA
ENDBRANCH   1   2
BRANCH   1   5
ATOM      5  C   UNL     1      -3.754   5.859   9.873  1.00  0.00     0.059 C 
BRANCH   5   6
ATOM      6  C   UNL     1      -2.448   6.310   9.296  1.00  0.00     0.042 C 
ATOM      7  O   UNL     1      -1.493   6.622  10.057  1.00  0.00    -0.550 OA
ATOM      8  O   UNL     1      -2.271   6.349   7.918  1.00  0.00    -0.550 OA
ENDBRANCH   5   6
ENDBRANCH   1   5
TORSDOF 3
ENDMDL
MODEL 5
REMARK VINA RESULT:    -3.191     19.275     20.592
REMARK INTER + INTRA:          -3.793
REMARK INTER:                  -3.758
REMARK INTRA:                  -0.035
REMARK UNBOUND:                -0.042
REMARK SMILES O=C([O-])CCC(=O)[O-]
REMARK SMILES IDX 4 1 2 2 1 3 3 4 5 5 6 6 7 7 8 8
REMARK H PARENT
REMARK Flexibility Score: inf
ROOT
ATOM      1  C   UNL     1       8.675   6.278  -6.057  1.00  0.00     0.059 C 
ENDROOT
BRANCH   1   2
ATOM      2  C   UNL     1       9.332   5.101  -5.401  1.00  0.00     0.042 C 
ATOM      3  O   UNL     1       9.138   4.867  -4.180  1.00  0.00    -0.550 OA
ATOM      4  O   UNL     1      10.125   4.240  -6.149  1.00  0.00    -0.550 OA
ENDBRANCH   1   2
BRANCH   1   5
ATOM      5  C   UNL     1       9.700   7.183  -6.749  1.00  0.00     0.059 C 
BRANCH   5   6
ATOM      6  C   UNL     1       9.040   8.175  -7.654  1.00  0.00     0.042 C 
ATOM      7  O   UNL     1       7.969   7.878  -8.247  1.00  0.00    -0.550 OA
ATOM      8  O   UNL     1       9.583   9.445  -7.812  1.00  0.00    -0.550 OA
ENDBRANCH   5   6
ENDBRANCH   1   5
TORSDOF 3
ENDMDL
MODEL 6
REMARK VINA RESULT:    -2.841     10.426     10.974
REMARK INTER + INTRA:          -3.380
REMARK INTER:                  -3.530
REMARK INTRA:                   0.150
REMARK UNBOUND:                -0.042
REMARK SMILES O=C([O-])CCC(=O)[O-]
REMARK SMILES IDX 4 1 2 2 1 3 3 4 5 5 6 6 7 7 8 8
REMARK H PARENT
REMARK Flexibility Score: inf
ROOT
ATOM      1  C   UNL     1      -3.561   8.163  -0.487  1.00  0.00     0.059 C 
ENDROOT
BRANCH   1   2
ATOM      2  C   UNL     1      -4.407   9.122  -1.268  1.00  0.00     0.042 C 
ATOM      3  O   UNL     1      -4.959  10.095  -0.692  1.00  0.00    -0.550 OA
ATOM      4  O   UNL     1      -4.554   8.962  -2.641  1.00  0.00    -0.550 OA
ENDBRANCH   1   2
BRANCH   1   5
ATOM      5  C   UNL     1      -2.138   8.697  -0.292  1.00  0.00     0.059 C 
BRANCH   5   6
ATOM      6  C   UNL     1      -1.222   8.240  -1.386  1.00  0.00     0.042 C 
ATOM      7  O   UNL     1      -1.633   8.188  -2.575  1.00  0.00    -0.550 OA
ATOM      8  O   UNL     1       0.097   7.911  -1.099  1.00  0.00    -0.550 OA
ENDBRANCH   5   6
ENDBRANCH   1   5
TORSDOF 3
ENDMDL
MODEL 7
REMARK VINA RESULT:    -2.828     10.390     11.206
REMARK INTER + INTRA:          -3.366
REMARK INTER:                  -3.463
REMARK INTRA:                   0.098
REMARK UNBOUND:                -0.042
REMARK SMILES O=C([O-])CCC(=O)[O-]
REMARK SMILES IDX 4 1 2 2 1 3 3 4 5 5 6 6 7 7 8 8
REMARK H PARENT
REMARK Flexibility Score: inf
ROOT
ATOM      1  C   UNL     1      -2.103   8.674  -0.305  1.00  0.00     0.059 C 
ENDROOT
BRANCH   1   2
ATOM      2  C   UNL     1      -1.202   8.212  -1.410  1.00  0.00     0.042 C 
ATOM      3  O   UNL     1      -1.623   8.170  -2.595  1.00  0.00    -0.550 OA
ATOM      4  O   UNL     1       0.115   7.866  -1.135  1.00  0.00    -0.550 OA
ENDBRANCH   1   2
BRANCH   1   5
ATOM      5  C   UNL     1      -3.529   8.142  -0.480  1.00  0.00     0.059 C 
BRANCH   5   6
ATOM      6  C   UNL     1      -4.396   9.114  -1.220  1.00  0.00     0.042 C 
ATOM      7  O   UNL     1      -4.915  10.088  -0.614  1.00  0.00    -0.550 OA
ATOM      8  O   UNL     1      -4.598   8.967  -2.587  1.00  0.00    -0.550 OA
ENDBRANCH   5   6
ENDBRANCH   1   5
TORSDOF 3
ENDMDL
MODEL 8
REMARK VINA RESULT:    -2.522     19.405     20.966
REMARK INTER + INTRA:          -3.006
REMARK INTER:                  -2.979
REMARK INTRA:                  -0.027
REMARK UNBOUND:                -0.042
REMARK SMILES O=C([O-])CCC(=O)[O-]
REMARK SMILES IDX 4 1 2 2 1 3 3 4 5 5 6 6 7 7 8 8
REMARK H PARENT
REMARK Flexibility Score: inf
ROOT
ATOM      1  C   UNL     1       8.631   7.136  -6.932  1.00  0.00     0.059 C 
ENDROOT
BRANCH   1   2
ATOM      2  C   UNL     1       8.989   8.245  -7.873  1.00  0.00     0.042 C 
ATOM      3  O   UNL     1       8.387   8.363  -8.972  1.00  0.00    -0.550 OA
ATOM      4  O   UNL     1       9.961   9.173  -7.518  1.00  0.00    -0.550 OA
ENDBRANCH   1   2
BRANCH   1   5
ATOM      5  C   UNL     1       9.880   6.477  -6.335  1.00  0.00     0.059 C 
BRANCH   5   6
ATOM      6  C   UNL     1       9.548   5.192  -5.641  1.00  0.00     0.042 C 
ATOM      7  O   UNL     1      10.125   4.124  -5.975  1.00  0.00    -0.550 OA
ATOM      8  O   UNL     1       8.632   5.181  -4.596  1.00  0.00    -0.550 OA
ENDBRANCH   5   6
ENDBRANCH   1   5
TORSDOF 3
ENDMDL
