MODEL 1
REMARK VINA RESULT:    -6.815      0.000      0.000
REMARK INTER + INTRA:          -9.636
REMARK INTER:                  -8.608
REMARK INTRA:                  -1.028
REMARK UNBOUND:                -1.028
REMARK SMILES O=C(C=Cc1ccc(O)cc1)c1ccc(O)cc1O
REMARK SMILES IDX 4 1 3 2 5 3 6 4 7 5 8 6 11 7 10 8 9 9 2 11 1 12 12 13 18 14
REMARK SMILES IDX 13 15 17 16 14 17 15 18 19 19 16 21
REMARK H PARENT 9 10 19 20 16 22
REMARK Flexibility Score: inf
ROOT
ATOM      1  C   UNL     1      15.104 -56.435  19.811  1.00  0.00     0.012 C 
ATOM      2  C   UNL     1      13.964 -56.018  19.238  1.00  0.00     0.053 C 
ENDROOT
BRANCH   1   3
ATOM      3  C   UNL     1      15.940 -55.637  20.731  1.00  0.00    -0.025 A 
ATOM      4  C   UNL     1      16.859 -54.691  20.241  1.00  0.00     0.012 A 
ATOM      5  C   UNL     1      17.607 -53.912  21.129  1.00  0.00     0.047 A 
ATOM      6  C   UNL     1      17.429 -54.053  22.512  1.00  0.00     0.115 A 
ATOM      7  C   UNL     1      15.744 -55.751  22.115  1.00  0.00     0.012 A 
ATOM      8  C   UNL     1      16.493 -54.972  23.001  1.00  0.00     0.047 A 
BRANCH   6   9
ATOM      9  O   UNL     1      18.169 -53.284  23.407  1.00  0.00    -0.508 OA
ATOM     10  H   UNL     1      17.976 -52.298  23.544  1.00  0.00     0.293 HD
ENDBRANCH   6   9
ENDBRANCH   1   3
BRANCH   2  11
ATOM     11  C   UNL     1      13.440 -54.631  19.278  1.00  0.00     0.189 C 
ATOM     12  O   UNL     1      13.175 -54.018  18.209  1.00  0.00    -0.289 OA
BRANCH  11  13
ATOM     13  C   UNL     1      13.147 -53.978  20.571  1.00  0.00     0.064 A 
ATOM     14  C   UNL     1      12.232 -54.541  21.494  1.00  0.00     0.130 A 
ATOM     15  C   UNL     1      13.820 -52.791  20.913  1.00  0.00     0.020 A 
ATOM     16  C   UNL     1      12.029 -53.922  22.734  1.00  0.00     0.093 A 
ATOM     17  C   UNL     1      13.599 -52.179  22.148  1.00  0.00     0.047 A 
ATOM     18  C   UNL     1      12.707 -52.743  23.062  1.00  0.00     0.119 A 
BRANCH  14  19
ATOM     19  O   UNL     1      11.496 -55.692  21.205  1.00  0.00    -0.507 OA
ATOM     20  H   UNL     1      10.918 -56.166  21.887  1.00  0.00     0.293 HD
ENDBRANCH  14  19
BRANCH  18  21
ATOM     21  O   UNL     1      12.501 -52.123  24.293  1.00  0.00    -0.508 OA
ATOM     22  H   UNL     1      11.585 -51.790  24.571  1.00  0.00     0.293 HD
ENDBRANCH  18  21
ENDBRANCH  11  13
ENDBRANCH   2  11
TORSDOF 6
ENDMDL
MODEL 2
REMARK VINA RESULT:    -6.749      1.645      3.275
REMARK INTER + INTRA:          -9.552
REMARK INTER:                  -8.547
REMARK INTRA:                  -1.005
REMARK UNBOUND:                -1.028
REMARK SMILES O=C(C=Cc1ccc(O)cc1)c1ccc(O)cc1O
REMARK SMILES IDX 4 1 3 2 5 3 6 4 7 5 8 6 11 7 10 8 9 9 2 11 1 12 12 13 18 14
REMARK SMILES IDX 13 15 17 16 14 17 15 18 19 19 16 21
REMARK H PARENT 9 10 19 20 16 22
REMARK Flexibility Score: inf
ROOT
ATOM      1  C   UNL     1      15.625 -55.598  22.704  1.00  0.00     0.012 C 
ATOM      2  C   UNL     1      14.337 -55.339  22.980  1.00  0.00     0.053 C 
ENDROOT
BRANCH   1   3
ATOM      3  C   UNL     1      16.554 -54.675  22.021  1.00  0.00    -0.025 A 
ATOM      4  C   UNL     1      16.944 -54.890  20.687  1.00  0.00     0.012 A 
ATOM      5  C   UNL     1      17.788 -53.979  20.044  1.00  0.00     0.047 A 
ATOM      6  C   UNL     1      18.231 -52.834  20.718  1.00  0.00     0.115 A 
ATOM      7  C   UNL     1      16.977 -53.511  22.680  1.00  0.00     0.012 A 
ATOM      8  C   UNL     1      17.820 -52.601  22.035  1.00  0.00     0.047 A 
BRANCH   6   9
ATOM      9  O   UNL     1      19.073 -51.919  20.088  1.00  0.00    -0.508 OA
ATOM     10  H   UNL     1      18.704 -51.148  19.545  1.00  0.00     0.293 HD
ENDBRANCH   6   9
ENDBRANCH   1   3
BRANCH   2  11
ATOM     11  C   UNL     1      13.572 -54.166  22.491  1.00  0.00     0.189 C 
ATOM     12  O   UNL     1      13.296 -53.214  23.269  1.00  0.00    -0.289 OA
BRANCH  11  13
ATOM     13  C   UNL     1      13.192 -54.062  21.066  1.00  0.00     0.064 A 
ATOM     14  C   UNL     1      12.136 -54.833  20.523  1.00  0.00     0.130 A 
ATOM     15  C   UNL     1      13.867 -53.147  20.238  1.00  0.00     0.020 A 
ATOM     16  C   UNL     1      11.768 -54.659  19.183  1.00  0.00     0.093 A 
ATOM     17  C   UNL     1      13.496 -52.992  18.900  1.00  0.00     0.047 A 
ATOM     18  C   UNL     1      12.446 -53.744  18.371  1.00  0.00     0.119 A 
BRANCH  14  19
ATOM     19  O   UNL     1      11.451 -55.792  21.274  1.00  0.00    -0.507 OA
ATOM     20  H   UNL     1      10.929 -55.571  22.111  1.00  0.00     0.293 HD
ENDBRANCH  14  19
BRANCH  18  21
ATOM     21  O   UNL     1      12.084 -53.574  17.035  1.00  0.00    -0.508 OA
ATOM     22  H   UNL     1      11.318 -52.967  16.768  1.00  0.00     0.293 HD
ENDBRANCH  18  21
ENDBRANCH  11  13
ENDBRANCH   2  11
TORSDOF 6
ENDMDL
MODEL 3
REMARK VINA RESULT:    -6.694      1.956      4.533
REMARK INTER + INTRA:          -9.482
REMARK INTER:                  -8.147
REMARK INTRA:                  -1.335
REMARK UNBOUND:                -1.028
REMARK SMILES O=C(C=Cc1ccc(O)cc1)c1ccc(O)cc1O
REMARK SMILES IDX 4 1 3 2 5 3 6 4 7 5 8 6 11 7 10 8 9 9 2 11 1 12 12 13 18 14
REMARK SMILES IDX 13 15 17 16 14 17 15 18 19 19 16 21
REMARK H PARENT 9 10 19 20 16 22
REMARK Flexibility Score: inf
ROOT
ATOM      1  C   UNL     1      14.610 -54.627  18.700  1.00  0.00     0.012 C 
ATOM      2  C   UNL     1      15.856 -55.071  18.472  1.00  0.00     0.053 C 
ENDROOT
BRANCH   1   3
ATOM      3  C   UNL     1      14.090 -54.176  20.007  1.00  0.00    -0.025 A 
ATOM      4  C   UNL     1      13.566 -55.093  20.936  1.00  0.00     0.012 A 
ATOM      5  C   UNL     1      13.122 -54.651  22.186  1.00  0.00     0.047 A 
ATOM      6  C   UNL     1      13.218 -53.296  22.529  1.00  0.00     0.115 A 
ATOM      7  C   UNL     1      14.212 -52.826  20.368  1.00  0.00     0.012 A 
ATOM      8  C   UNL     1      13.768 -52.387  21.618  1.00  0.00     0.047 A 
BRANCH   6   9
ATOM      9  O   UNL     1      12.778 -52.844  23.771  1.00  0.00    -0.508 OA
ATOM     10  H   UNL     1      12.831 -53.429  24.597  1.00  0.00     0.293 HD
ENDBRANCH   6   9
ENDBRANCH   1   3
BRANCH   2  11
ATOM     11  C   UNL     1      16.869 -55.362  19.515  1.00  0.00     0.189 C 
ATOM     12  O   UNL     1      17.385 -56.509  19.603  1.00  0.00    -0.289 OA
BRANCH  11  13
ATOM     13  C   UNL     1      17.347 -54.290  20.413  1.00  0.00     0.064 A 
ATOM     14  C   UNL     1      17.269 -54.414  21.822  1.00  0.00     0.130 A 
ATOM     15  C   UNL     1      17.930 -53.135  19.860  1.00  0.00     0.020 A 
ATOM     16  C   UNL     1      17.788 -53.401  22.638  1.00  0.00     0.093 A 
ATOM     17  C   UNL     1      18.435 -52.128  20.686  1.00  0.00     0.047 A 
ATOM     18  C   UNL     1      18.368 -52.259  22.075  1.00  0.00     0.119 A 
BRANCH  14  19
ATOM     19  O   UNL     1      16.664 -55.511  22.440  1.00  0.00    -0.507 OA
ATOM     20  H   UNL     1      16.597 -55.614  23.444  1.00  0.00     0.293 HD
ENDBRANCH  14  19
BRANCH  18  21
ATOM     21  O   UNL     1      18.880 -51.248  22.885  1.00  0.00    -0.508 OA
ATOM     22  H   UNL     1      19.876 -51.070  22.944  1.00  0.00     0.293 HD
ENDBRANCH  18  21
ENDBRANCH  11  13
ENDBRANCH   2  11
TORSDOF 6
ENDMDL
MODEL 4
REMARK VINA RESULT:    -6.682      1.100      1.446
REMARK INTER + INTRA:          -9.467
REMARK INTER:                  -8.390
REMARK INTRA:                  -1.077
REMARK UNBOUND:                -1.028
REMARK SMILES O=C(C=Cc1ccc(O)cc1)c1ccc(O)cc1O
REMARK SMILES IDX 4 1 3 2 5 3 6 4 7 5 8 6 11 7 10 8 9 9 2 11 1 12 12 13 18 14
REMARK SMILES IDX 13 15 17 16 14 17 15 18 19 19 16 21
REMARK H PARENT 9 10 19 20 16 22
REMARK Flexibility Score: inf
ROOT
ATOM      1  C   UNL     1      16.354 -56.051  20.743  1.00  0.00     0.012 C 
ATOM      2  C   UNL     1      15.060 -56.122  20.395  1.00  0.00     0.053 C 
ENDROOT
BRANCH   1   3
ATOM      3  C   UNL     1      17.114 -54.803  20.957  1.00  0.00    -0.025 A 
ATOM      4  C   UNL     1      17.615 -54.061  19.873  1.00  0.00     0.012 A 
ATOM      5  C   UNL     1      18.291 -52.858  20.096  1.00  0.00     0.047 A 
ATOM      6  C   UNL     1      18.452 -52.372  21.400  1.00  0.00     0.115 A 
ATOM      7  C   UNL     1      17.251 -54.296  22.258  1.00  0.00     0.012 A 
ATOM      8  C   UNL     1      17.927 -53.092  22.478  1.00  0.00     0.047 A 
BRANCH   6   9
ATOM      9  O   UNL     1      19.125 -51.175  21.634  1.00  0.00    -0.508 OA
ATOM     10  H   UNL     1      18.983 -50.646  22.488  1.00  0.00     0.293 HD
ENDBRANCH   6   9
ENDBRANCH   1   3
BRANCH   2  11
ATOM     11  C   UNL     1      14.215 -54.973  19.988  1.00  0.00     0.189 C 
ATOM     12  O   UNL     1      14.033 -54.715  18.768  1.00  0.00    -0.289 OA
BRANCH  11  13
ATOM     13  C   UNL     1      13.511 -54.164  21.005  1.00  0.00     0.064 A 
ATOM     14  C   UNL     1      12.283 -54.589  21.570  1.00  0.00     0.130 A 
ATOM     15  C   UNL     1      14.092 -52.965  21.455  1.00  0.00     0.020 A 
ATOM     16  C   UNL     1      11.680 -53.822  22.575  1.00  0.00     0.093 A 
ATOM     17  C   UNL     1      13.473 -52.205  22.450  1.00  0.00     0.047 A 
ATOM     18  C   UNL     1      12.269 -52.632  23.014  1.00  0.00     0.119 A 
BRANCH  14  19
ATOM     19  O   UNL     1      11.627 -55.745  21.141  1.00  0.00    -0.507 OA
ATOM     20  H   UNL     1      10.720 -56.028  21.487  1.00  0.00     0.293 HD
ENDBRANCH  14  19
BRANCH  18  21
ATOM     21  O   UNL     1      11.667 -51.865  24.010  1.00  0.00    -0.508 OA
ATOM     22  H   UNL     1      10.731 -52.068  24.341  1.00  0.00     0.293 HD
ENDBRANCH  18  21
ENDBRANCH  11  13
ENDBRANCH   2  11
TORSDOF 6
ENDMDL
MODEL 5
REMARK VINA RESULT:    -6.605      1.980      5.388
REMARK INTER + INTRA:          -9.370
REMARK INTER:                  -8.290
REMARK INTRA:                  -1.081
REMARK UNBOUND:                -1.028
REMARK SMILES O=C(C=Cc1ccc(O)cc1)c1ccc(O)cc1O
REMARK SMILES IDX 4 1 3 2 5 3 6 4 7 5 8 6 11 7 10 8 9 9 2 11 1 12 12 13 18 14
REMARK SMILES IDX 13 15 17 16 14 17 15 18 19 19 16 21
REMARK H PARENT 9 10 19 20 16 22
REMARK Flexibility Score: inf
ROOT
ATOM      1  C   UNL     1      13.095 -55.736  21.066  1.00  0.00     0.012 C 
ATOM      2  C   UNL     1      13.743 -55.060  22.028  1.00  0.00     0.053 C 
ENDROOT
BRANCH   1   3
ATOM      3  C   UNL     1      12.808 -55.228  19.709  1.00  0.00    -0.025 A 
ATOM      4  C   UNL     1      11.793 -54.279  19.488  1.00  0.00     0.012 A 
ATOM      5  C   UNL     1      11.569 -53.776  18.203  1.00  0.00     0.047 A 
ATOM      6  C   UNL     1      12.369 -54.197  17.132  1.00  0.00     0.115 A 
ATOM      7  C   UNL     1      13.625 -55.622  18.640  1.00  0.00     0.012 A 
ATOM      8  C   UNL     1      13.399 -55.117  17.356  1.00  0.00     0.047 A 
BRANCH   6   9
ATOM      9  O   UNL     1      12.154 -53.704  15.847  1.00  0.00    -0.508 OA
ATOM     10  H   UNL     1      12.092 -52.708  15.666  1.00  0.00     0.293 HD
ENDBRANCH   6   9
ENDBRANCH   1   3
BRANCH   2  11
ATOM     11  C   UNL     1      14.121 -53.627  21.964  1.00  0.00     0.189 C 
ATOM     12  O   UNL     1      13.371 -52.745  22.462  1.00  0.00    -0.289 OA
BRANCH  11  13
ATOM     13  C   UNL     1      15.421 -53.221  21.388  1.00  0.00     0.064 A 
ATOM     14  C   UNL     1      16.623 -53.323  22.129  1.00  0.00     0.130 A 
ATOM     15  C   UNL     1      15.473 -52.761  20.060  1.00  0.00     0.020 A 
ATOM     16  C   UNL     1      17.841 -52.985  21.525  1.00  0.00     0.093 A 
ATOM     17  C   UNL     1      16.693 -52.418  19.474  1.00  0.00     0.047 A 
ATOM     18  C   UNL     1      17.879 -52.531  20.203  1.00  0.00     0.119 A 
BRANCH  14  19
ATOM     19  O   UNL     1      16.643 -53.729  23.465  1.00  0.00    -0.507 OA
ATOM     20  H   UNL     1      16.925 -53.124  24.225  1.00  0.00     0.293 HD
ENDBRANCH  14  19
BRANCH  18  21
ATOM     21  O   UNL     1      19.089 -52.189  19.602  1.00  0.00    -0.508 OA
ATOM     22  H   UNL     1      19.809 -52.881  19.430  1.00  0.00     0.293 HD
ENDBRANCH  18  21
ENDBRANCH  11  13
ENDBRANCH   2  11
TORSDOF 6
ENDMDL
MODEL 6
REMARK VINA RESULT:    -6.587      1.892      3.681
REMARK INTER + INTRA:          -9.348
REMARK INTER:                  -8.012
REMARK INTRA:                  -1.336
REMARK UNBOUND:                -1.028
REMARK SMILES O=C(C=Cc1ccc(O)cc1)c1ccc(O)cc1O
REMARK SMILES IDX 4 1 3 2 5 3 6 4 7 5 8 6 11 7 10 8 9 9 2 11 1 12 12 13 18 14
REMARK SMILES IDX 13 15 17 16 14 17 15 18 19 19 16 21
REMARK H PARENT 9 10 19 20 16 22
REMARK Flexibility Score: inf
ROOT
ATOM      1  C   UNL     1      15.566 -55.556  22.608  1.00  0.00     0.012 C 
ATOM      2  C   UNL     1      14.286 -55.268  22.890  1.00  0.00     0.053 C 
ENDROOT
BRANCH   1   3
ATOM      3  C   UNL     1      16.492 -54.685  21.856  1.00  0.00    -0.025 A 
ATOM      4  C   UNL     1      16.782 -54.930  20.502  1.00  0.00     0.012 A 
ATOM      5  C   UNL     1      17.625 -54.067  19.795  1.00  0.00     0.047 A 
ATOM      6  C   UNL     1      18.167 -52.939  20.426  1.00  0.00     0.115 A 
ATOM      7  C   UNL     1      17.012 -53.538  22.473  1.00  0.00     0.012 A 
ATOM      8  C   UNL     1      17.855 -52.676  21.765  1.00  0.00     0.047 A 
BRANCH   6   9
ATOM      9  O   UNL     1      19.009 -52.072  19.733  1.00  0.00    -0.508 OA
ATOM     10  H   UNL     1      19.871 -51.731  20.143  1.00  0.00     0.293 HD
ENDBRANCH   6   9
ENDBRANCH   1   3
BRANCH   2  11
ATOM     11  C   UNL     1      13.524 -54.118  22.346  1.00  0.00     0.189 C 
ATOM     12  O   UNL     1      13.375 -53.069  23.029  1.00  0.00    -0.289 OA
BRANCH  11  13
ATOM     13  C   UNL     1      12.996 -54.155  20.965  1.00  0.00     0.064 A 
ATOM     14  C   UNL     1      13.451 -53.252  19.974  1.00  0.00     0.130 A 
ATOM     15  C   UNL     1      12.050 -55.136  20.615  1.00  0.00     0.020 A 
ATOM     16  C   UNL     1      12.970 -53.361  18.663  1.00  0.00     0.093 A 
ATOM     17  C   UNL     1      11.571 -55.226  19.306  1.00  0.00     0.047 A 
ATOM     18  C   UNL     1      12.031 -54.342  18.327  1.00  0.00     0.119 A 
BRANCH  14  19
ATOM     19  O   UNL     1      14.355 -52.226  20.259  1.00  0.00    -0.507 OA
ATOM     20  H   UNL     1      14.155 -51.476  20.906  1.00  0.00     0.293 HD
ENDBRANCH  14  19
BRANCH  18  21
ATOM     21  O   UNL     1      11.547 -54.449  17.025  1.00  0.00    -0.508 OA
ATOM     22  H   UNL     1      12.114 -54.186  16.227  1.00  0.00     0.293 HD
ENDBRANCH  18  21
ENDBRANCH  11  13
ENDBRANCH   2  11
TORSDOF 6
ENDMDL
MODEL 7
REMARK VINA RESULT:    -6.555      1.985      4.280
REMARK INTER + INTRA:          -9.307
REMARK INTER:                  -7.932
REMARK INTRA:                  -1.375
REMARK UNBOUND:                -1.028
REMARK SMILES O=C(C=Cc1ccc(O)cc1)c1ccc(O)cc1O
REMARK SMILES IDX 4 1 3 2 5 3 6 4 7 5 8 6 11 7 10 8 9 9 2 11 1 12 12 13 18 14
REMARK SMILES IDX 13 15 17 16 14 17 15 18 19 19 16 21
REMARK H PARENT 9 10 19 20 16 22
REMARK Flexibility Score: inf
ROOT
ATOM      1  C   UNL     1      13.181 -56.521  20.068  1.00  0.00     0.012 C 
ATOM      2  C   UNL     1      13.484 -56.271  18.784  1.00  0.00     0.053 C 
ENDROOT
BRANCH   1   3
ATOM      3  C   UNL     1      13.065 -55.503  21.131  1.00  0.00    -0.025 A 
ATOM      4  C   UNL     1      14.135 -55.240  22.006  1.00  0.00     0.012 A 
ATOM      5  C   UNL     1      14.022 -54.240  22.976  1.00  0.00     0.047 A 
ATOM      6  C   UNL     1      12.849 -53.478  23.068  1.00  0.00     0.115 A 
ATOM      7  C   UNL     1      11.906 -54.717  21.208  1.00  0.00     0.012 A 
ATOM      8  C   UNL     1      11.795 -53.717  22.179  1.00  0.00     0.047 A 
BRANCH   6   9
ATOM      9  O   UNL     1      12.723 -52.480  24.031  1.00  0.00    -0.508 OA
ATOM     10  H   UNL     1      11.836 -52.286  24.480  1.00  0.00     0.293 HD
ENDBRANCH   6   9
ENDBRANCH   1   3
BRANCH   2  11
ATOM     11  C   UNL     1      13.932 -54.964  18.245  1.00  0.00     0.189 C 
ATOM     12  O   UNL     1      13.218 -54.335  17.418  1.00  0.00    -0.289 OA
BRANCH  11  13
ATOM     13  C   UNL     1      15.183 -54.344  18.730  1.00  0.00     0.064 A 
ATOM     14  C   UNL     1      15.188 -53.068  19.342  1.00  0.00     0.130 A 
ATOM     15  C   UNL     1      16.392 -55.054  18.618  1.00  0.00     0.020 A 
ATOM     16  C   UNL     1      16.387 -52.543  19.842  1.00  0.00     0.093 A 
ATOM     17  C   UNL     1      17.582 -54.514  19.112  1.00  0.00     0.047 A 
ATOM     18  C   UNL     1      17.582 -53.260  19.727  1.00  0.00     0.119 A 
BRANCH  14  19
ATOM     19  O   UNL     1      14.034 -52.288  19.448  1.00  0.00    -0.507 OA
ATOM     20  H   UNL     1      14.053 -51.282  19.552  1.00  0.00     0.293 HD
ENDBRANCH  14  19
BRANCH  18  21
ATOM     21  O   UNL     1      18.777 -52.737  20.219  1.00  0.00    -0.508 OA
ATOM     22  H   UNL     1      19.559 -53.336  20.454  1.00  0.00     0.293 HD
ENDBRANCH  18  21
ENDBRANCH  11  13
ENDBRANCH   2  11
TORSDOF 6
ENDMDL
MODEL 8
REMARK VINA RESULT:    -6.426      1.915      5.168
REMARK INTER + INTRA:          -9.145
REMARK INTER:                  -7.807
REMARK INTRA:                  -1.337
REMARK UNBOUND:                -1.028
REMARK SMILES O=C(C=Cc1ccc(O)cc1)c1ccc(O)cc1O
REMARK SMILES IDX 4 1 3 2 5 3 6 4 7 5 8 6 11 7 10 8 9 9 2 11 1 12 12 13 18 14
REMARK SMILES IDX 13 15 17 16 14 17 15 18 19 19 16 21
REMARK H PARENT 9 10 19 20 16 22
REMARK Flexibility Score: inf
ROOT
ATOM      1  C   UNL     1      12.414 -55.214  21.527  1.00  0.00     0.012 C 
ATOM      2  C   UNL     1      12.969 -54.346  22.388  1.00  0.00     0.053 C 
ENDROOT
BRANCH   1   3
ATOM      3  C   UNL     1      12.563 -55.172  20.058  1.00  0.00    -0.025 A 
ATOM      4  C   UNL     1      11.700 -54.397  19.261  1.00  0.00     0.012 A 
ATOM      5  C   UNL     1      11.887 -54.335  17.877  1.00  0.00     0.047 A 
ATOM      6  C   UNL     1      12.949 -55.025  17.278  1.00  0.00     0.115 A 
ATOM      7  C   UNL     1      13.642 -55.836  19.456  1.00  0.00     0.012 A 
ATOM      8  C   UNL     1      13.827 -55.772  18.072  1.00  0.00     0.047 A 
BRANCH   6   9
ATOM      9  O   UNL     1      13.144 -54.972  15.900  1.00  0.00    -0.508 OA
ATOM     10  H   UNL     1      12.551 -54.408  15.302  1.00  0.00     0.293 HD
ENDBRANCH   6   9
ENDBRANCH   1   3
BRANCH   2  11
ATOM     11  C   UNL     1      13.673 -53.095  22.014  1.00  0.00     0.189 C 
ATOM     12  O   UNL     1      13.105 -51.978  22.149  1.00  0.00    -0.289 OA
BRANCH  11  13
ATOM     13  C   UNL     1      15.077 -53.135  21.553  1.00  0.00     0.064 A 
ATOM     14  C   UNL     1      15.442 -52.710  20.253  1.00  0.00     0.130 A 
ATOM     15  C   UNL     1      16.081 -53.568  22.439  1.00  0.00     0.020 A 
ATOM     16  C   UNL     1      16.791 -52.707  19.877  1.00  0.00     0.093 A 
ATOM     17  C   UNL     1      17.422 -53.570  22.047  1.00  0.00     0.047 A 
ATOM     18  C   UNL     1      17.780 -53.137  20.768  1.00  0.00     0.119 A 
BRANCH  14  19
ATOM     19  O   UNL     1      14.496 -52.310  19.307  1.00  0.00    -0.507 OA
ATOM     20  H   UNL     1      14.014 -52.956  18.697  1.00  0.00     0.293 HD
ENDBRANCH  14  19
BRANCH  18  21
ATOM     21  O   UNL     1      19.123 -53.140  20.394  1.00  0.00    -0.508 OA
ATOM     22  H   UNL     1      19.403 -53.291  19.432  1.00  0.00     0.293 HD
ENDBRANCH  18  21
ENDBRANCH  11  13
ENDBRANCH   2  11
TORSDOF 6
ENDMDL
MODEL 9
REMARK VINA RESULT:    -6.271      2.204      5.214
REMARK INTER + INTRA:          -8.949
REMARK INTER:                  -7.564
REMARK INTRA:                  -1.384
REMARK UNBOUND:                -1.028
REMARK SMILES O=C(C=Cc1ccc(O)cc1)c1ccc(O)cc1O
REMARK SMILES IDX 4 1 3 2 5 3 6 4 7 5 8 6 11 7 10 8 9 9 2 11 1 12 12 13 18 14
REMARK SMILES IDX 13 15 17 16 14 17 15 18 19 19 16 21
REMARK H PARENT 9 10 19 20 16 22
REMARK Flexibility Score: inf
ROOT
ATOM      1  C   UNL     1      12.982 -54.075  22.255  1.00  0.00     0.012 C 
ATOM      2  C   UNL     1      13.949 -54.617  23.012  1.00  0.00     0.053 C 
ENDROOT
BRANCH   1   3
ATOM      3  C   UNL     1      12.890 -54.179  20.784  1.00  0.00    -0.025 A 
ATOM      4  C   UNL     1      13.363 -53.150  19.951  1.00  0.00     0.012 A 
ATOM      5  C   UNL     1      13.309 -53.288  18.561  1.00  0.00     0.047 A 
ATOM      6  C   UNL     1      12.805 -54.464  17.990  1.00  0.00     0.115 A 
ATOM      7  C   UNL     1      12.415 -55.366  20.207  1.00  0.00     0.012 A 
ATOM      8  C   UNL     1      12.362 -55.502  18.816  1.00  0.00     0.047 A 
BRANCH   6   9
ATOM      9  O   UNL     1      12.745 -54.613  16.606  1.00  0.00    -0.508 OA
ATOM     10  H   UNL     1      12.182 -53.996  16.030  1.00  0.00     0.293 HD
ENDBRANCH   6   9
ENDBRANCH   1   3
BRANCH   2  11
ATOM     11  C   UNL     1      15.186 -55.254  22.500  1.00  0.00     0.189 C 
ATOM     12  O   UNL     1      15.337 -56.503  22.567  1.00  0.00    -0.289 OA
BRANCH  11  13
ATOM     13  C   UNL     1      16.225 -54.442  21.832  1.00  0.00     0.064 A 
ATOM     14  C   UNL     1      16.566 -54.647  20.473  1.00  0.00     0.130 A 
ATOM     15  C   UNL     1      16.863 -53.413  22.549  1.00  0.00     0.020 A 
ATOM     16  C   UNL     1      17.513 -53.815  19.862  1.00  0.00     0.093 A 
ATOM     17  C   UNL     1      17.814 -52.599  21.930  1.00  0.00     0.047 A 
ATOM     18  C   UNL     1      18.138 -52.795  20.586  1.00  0.00     0.119 A 
BRANCH  14  19
ATOM     19  O   UNL     1      16.006 -55.676  19.712  1.00  0.00    -0.507 OA
ATOM     20  H   UNL     1      16.149 -55.769  18.715  1.00  0.00     0.293 HD
ENDBRANCH  14  19
BRANCH  18  21
ATOM     21  O   UNL     1      19.085 -51.970  19.980  1.00  0.00    -0.508 OA
ATOM     22  H   UNL     1      19.710 -51.391  20.529  1.00  0.00     0.293 HD
ENDBRANCH  18  21
ENDBRANCH  11  13
ENDBRANCH   2  11
TORSDOF 6
ENDMDL
