MODEL 1
REMARK VINA RESULT:    -5.670      0.000      0.000
REMARK INTER + INTRA:          -6.167
REMARK INTER:                  -6.167
REMARK INTRA:                   0.000
REMARK UNBOUND:                 0.000
REMARK SMILES Cc1cc(O)c2c(c1)C(=O)c1cc(O)cc(O)c1C2=O
REMARK SMILES IDX 1 1 2 2 8 3 7 4 6 5 4 6 3 7 19 8 20 9 18 10 11 11 9 12 10 13
REMARK SMILES IDX 12 14 13 15 15 16 16 17 5 18 17 20 14 22
REMARK H PARENT 5 19 17 21 14 23
REMARK Flexibility Score: inf
ROOT
ATOM      1  C   UNL     1       1.622 -10.125  14.864  1.00  0.00     0.044 C 
ATOM      2  C   UNL     1       0.675  -9.753  13.761  1.00  0.00    -0.047 A 
ATOM      3  C   UNL     1      -0.538  -9.123  14.056  1.00  0.00     0.016 A 
ATOM      4  C   UNL     1      -1.418  -8.737  13.029  1.00  0.00     0.038 A 
ATOM      5  C   UNL     1      -1.070  -8.974  11.680  1.00  0.00     0.076 A 
ATOM      6  C   UNL     1       0.169  -9.593  11.387  1.00  0.00     0.127 A 
ATOM      7  C   UNL     1       1.029  -9.970  12.426  1.00  0.00     0.050 A 
ATOM      8  C   UNL     1      -2.011  -8.562  10.601  1.00  0.00     0.201 C 
ATOM      9  O   UNL     1      -1.713  -8.777   9.395  1.00  0.00    -0.288 OA
ATOM     10  C   UNL     1      -3.305  -7.901  10.933  1.00  0.00     0.076 A 
ATOM     11  C   UNL     1      -3.635  -7.669  12.288  1.00  0.00     0.041 A 
ATOM     12  C   UNL     1      -2.703  -8.081  13.363  1.00  0.00     0.194 C 
ATOM     13  O   UNL     1      -3.006  -7.872  14.570  1.00  0.00    -0.289 OA
ATOM     14  C   UNL     1      -4.853  -7.045  12.614  1.00  0.00     0.059 A 
ATOM     15  C   UNL     1      -5.742  -6.653  11.610  1.00  0.00     0.120 A 
ATOM     16  C   UNL     1      -5.421  -6.878  10.273  1.00  0.00     0.093 A 
ATOM     17  C   UNL     1      -4.214  -7.498   9.923  1.00  0.00     0.131 A 
ENDROOT
BRANCH   6  18
ATOM     18  O   UNL     1       0.553  -9.835  10.068  1.00  0.00    -0.507 OA
ATOM     19  H   UNL     1       0.462  -9.130   9.345  1.00  0.00     0.293 HD
ENDBRANCH   6  18
BRANCH  17  20
ATOM     20  O   UNL     1      -3.925  -7.708   8.576  1.00  0.00    -0.507 OA
ATOM     21  H   UNL     1      -4.242  -8.536   8.084  1.00  0.00     0.293 HD
ENDBRANCH  17  20
BRANCH  15  22
ATOM     22  O   UNL     1      -6.948  -6.035  11.931  1.00  0.00    -0.508 OA
ATOM     23  H   UNL     1      -7.829  -6.362  11.552  1.00  0.00     0.293 HD
ENDBRANCH  15  22
TORSDOF 3
ENDMDL
MODEL 2
REMARK VINA RESULT:    -5.569      1.853      3.965
REMARK INTER + INTRA:          -6.057
REMARK INTER:                  -6.057
REMARK INTRA:                   0.000
REMARK UNBOUND:                 0.000
REMARK SMILES Cc1cc(O)c2c(c1)C(=O)c1cc(O)cc(O)c1C2=O
REMARK SMILES IDX 1 1 2 2 8 3 7 4 6 5 4 6 3 7 19 8 20 9 18 10 11 11 9 12 10 13
REMARK SMILES IDX 12 14 13 15 15 16 16 17 5 18 17 20 14 22
REMARK H PARENT 5 19 17 21 14 23
REMARK Flexibility Score: inf
ROOT
ATOM      1  C   UNL     1       0.036  -9.446  14.118  1.00  0.00     0.044 C 
ATOM      2  C   UNL     1      -1.374  -8.965  13.933  1.00  0.00    -0.047 A 
ATOM      3  C   UNL     1      -1.735  -8.275  12.771  1.00  0.00     0.016 A 
ATOM      4  C   UNL     1      -3.061  -7.851  12.568  1.00  0.00     0.038 A 
ATOM      5  C   UNL     1      -4.046  -8.135  13.541  1.00  0.00     0.076 A 
ATOM      6  C   UNL     1      -3.677  -8.851  14.705  1.00  0.00     0.127 A 
ATOM      7  C   UNL     1      -2.351  -9.263  14.887  1.00  0.00     0.050 A 
ATOM      8  C   UNL     1      -5.446  -7.678  13.317  1.00  0.00     0.201 C 
ATOM      9  O   UNL     1      -6.330  -7.920  14.184  1.00  0.00    -0.288 OA
ATOM     10  C   UNL     1      -5.813  -6.935  12.078  1.00  0.00     0.076 A 
ATOM     11  C   UNL     1      -4.815  -6.663  11.114  1.00  0.00     0.041 A 
ATOM     12  C   UNL     1      -3.422  -7.112  11.337  1.00  0.00     0.194 C 
ATOM     13  O   UNL     1      -2.537  -6.864  10.472  1.00  0.00    -0.289 OA
ATOM     14  C   UNL     1      -5.150  -5.963   9.940  1.00  0.00     0.059 A 
ATOM     15  C   UNL     1      -6.460  -5.533   9.718  1.00  0.00     0.120 A 
ATOM     16  C   UNL     1      -7.447  -5.799  10.665  1.00  0.00     0.093 A 
ATOM     17  C   UNL     1      -7.139  -6.495  11.841  1.00  0.00     0.131 A 
ENDROOT
BRANCH   6  18
ATOM     18  O   UNL     1      -4.622  -9.160  15.685  1.00  0.00    -0.507 OA
ATOM     19  H   UNL     1      -5.372  -8.521  15.925  1.00  0.00     0.293 HD
ENDBRANCH   6  18
BRANCH  17  20
ATOM     20  O   UNL     1      -8.151  -6.744  12.767  1.00  0.00    -0.507 OA
ATOM     21  H   UNL     1      -9.010  -6.205  12.778  1.00  0.00     0.293 HD
ENDBRANCH  17  20
BRANCH  15  22
ATOM     22  O   UNL     1      -6.793  -4.840   8.557  1.00  0.00    -0.508 OA
ATOM     23  H   UNL     1      -6.868  -3.830   8.545  1.00  0.00     0.293 HD
ENDBRANCH  15  22
TORSDOF 3
ENDMDL
MODEL 3
REMARK VINA RESULT:    -5.382      3.457      4.677
REMARK INTER + INTRA:          -5.854
REMARK INTER:                  -5.854
REMARK INTRA:                   0.000
REMARK UNBOUND:                 0.000
REMARK SMILES Cc1cc(O)c2c(c1)C(=O)c1cc(O)cc(O)c1C2=O
REMARK SMILES IDX 1 1 2 2 8 3 7 4 6 5 4 6 3 7 19 8 20 9 18 10 11 11 9 12 10 13
REMARK SMILES IDX 12 14 13 15 15 16 16 17 5 18 17 20 14 22
REMARK H PARENT 5 19 17 21 14 23
REMARK Flexibility Score: inf
ROOT
ATOM      1  C   UNL     1      -5.788  -9.980  17.871  1.00  0.00     0.044 C 
ATOM      2  C   UNL     1      -5.529  -9.390  16.515  1.00  0.00    -0.047 A 
ATOM      3  C   UNL     1      -6.541  -8.694  15.845  1.00  0.00     0.016 A 
ATOM      4  C   UNL     1      -6.301  -8.105  14.591  1.00  0.00     0.038 A 
ATOM      5  C   UNL     1      -5.021  -8.203  14.002  1.00  0.00     0.076 A 
ATOM      6  C   UNL     1      -3.995  -8.891  14.695  1.00  0.00     0.127 A 
ATOM      7  C   UNL     1      -4.256  -9.471  15.943  1.00  0.00     0.050 A 
ATOM      8  C   UNL     1      -4.779  -7.578  12.672  1.00  0.00     0.201 C 
ATOM      9  O   UNL     1      -3.641  -7.667  12.135  1.00  0.00    -0.288 OA
ATOM     10  C   UNL     1      -5.871  -6.848  11.966  1.00  0.00     0.076 A 
ATOM     11  C   UNL     1      -7.145  -6.757  12.572  1.00  0.00     0.041 A 
ATOM     12  C   UNL     1      -7.388  -7.382  13.893  1.00  0.00     0.194 C 
ATOM     13  O   UNL     1      -8.529  -7.297  14.426  1.00  0.00    -0.289 OA
ATOM     14  C   UNL     1      -8.183  -6.070  11.916  1.00  0.00     0.059 A 
ATOM     15  C   UNL     1      -7.968  -5.477  10.670  1.00  0.00     0.120 A 
ATOM     16  C   UNL     1      -6.713  -5.564  10.070  1.00  0.00     0.093 A 
ATOM     17  C   UNL     1      -5.663  -6.241  10.703  1.00  0.00     0.131 A 
ENDROOT
BRANCH   6  18
ATOM     18  O   UNL     1      -2.715  -9.002  14.151  1.00  0.00    -0.507 OA
ATOM     19  H   UNL     1      -2.566  -9.200  13.169  1.00  0.00     0.293 HD
ENDBRANCH   6  18
BRANCH  17  20
ATOM     20  O   UNL     1      -4.421  -6.308  10.073  1.00  0.00    -0.507 OA
ATOM     21  H   UNL     1      -3.621  -6.745  10.516  1.00  0.00     0.293 HD
ENDBRANCH  17  20
BRANCH  15  22
ATOM     22  O   UNL     1      -8.994  -4.797  10.020  1.00  0.00    -0.508 OA
ATOM     23  H   UNL     1      -9.968  -4.987  10.223  1.00  0.00     0.293 HD
ENDBRANCH  15  22
TORSDOF 3
ENDMDL
MODEL 4
REMARK VINA RESULT:    -5.314      1.191      5.494
REMARK INTER + INTRA:          -5.781
REMARK INTER:                  -5.781
REMARK INTRA:                   0.000
REMARK UNBOUND:                 0.000
REMARK SMILES Cc1cc(O)c2c(c1)C(=O)c1cc(O)cc(O)c1C2=O
REMARK SMILES IDX 1 1 2 2 8 3 7 4 6 5 4 6 3 7 19 8 20 9 18 10 11 11 9 12 10 13
REMARK SMILES IDX 12 14 13 15 15 16 16 17 5 18 17 20 14 22
REMARK H PARENT 5 19 17 21 14 23
REMARK Flexibility Score: inf
ROOT
ATOM      1  C   UNL     1      -7.469  -6.442  11.895  1.00  0.00     0.044 C 
ATOM      2  C   UNL     1      -6.087  -6.933  11.580  1.00  0.00    -0.047 A 
ATOM      3  C   UNL     1      -5.237  -7.353  12.609  1.00  0.00     0.016 A 
ATOM      4  C   UNL     1      -3.952  -7.850  12.324  1.00  0.00     0.038 A 
ATOM      5  C   UNL     1      -3.516  -7.941  10.984  1.00  0.00     0.076 A 
ATOM      6  C   UNL     1      -4.388  -7.534   9.946  1.00  0.00     0.127 A 
ATOM      7  C   UNL     1      -5.663  -7.041  10.252  1.00  0.00     0.050 A 
ATOM      8  C   UNL     1      -2.152  -8.467  10.695  1.00  0.00     0.201 C 
ATOM      9  O   UNL     1      -1.751  -8.544   9.501  1.00  0.00    -0.288 OA
ATOM     10  C   UNL     1      -1.255  -8.901  11.803  1.00  0.00     0.076 A 
ATOM     11  C   UNL     1      -1.710  -8.805  13.138  1.00  0.00     0.041 A 
ATOM     12  C   UNL     1      -3.063  -8.279  13.428  1.00  0.00     0.194 C 
ATOM     13  O   UNL     1      -3.461  -8.196  14.623  1.00  0.00    -0.289 OA
ATOM     14  C   UNL     1      -0.872  -9.212  14.192  1.00  0.00     0.059 A 
ATOM     15  C   UNL     1       0.407  -9.710  13.933  1.00  0.00     0.120 A 
ATOM     16  C   UNL     1       0.860  -9.806  12.619  1.00  0.00     0.093 A 
ATOM     17  C   UNL     1       0.044  -9.408  11.551  1.00  0.00     0.131 A 
ENDROOT
BRANCH   6  18
ATOM     18  O   UNL     1      -3.998  -7.618   8.608  1.00  0.00    -0.507 OA
ATOM     19  H   UNL     1      -3.111  -8.025   8.334  1.00  0.00     0.293 HD
ENDBRANCH   6  18
BRANCH  17  20
ATOM     20  O   UNL     1       0.529  -9.518  10.249  1.00  0.00    -0.507 OA
ATOM     21  H   UNL     1       1.467  -9.222  10.001  1.00  0.00     0.293 HD
ENDBRANCH  17  20
BRANCH  15  22
ATOM     22  O   UNL     1       1.238 -10.113  14.976  1.00  0.00    -0.508 OA
ATOM     23  H   UNL     1       0.862 -10.484  15.840  1.00  0.00     0.293 HD
ENDBRANCH  15  22
TORSDOF 3
ENDMDL
MODEL 5
REMARK VINA RESULT:    -5.251      1.794      3.063
REMARK INTER + INTRA:          -5.711
REMARK INTER:                  -5.711
REMARK INTRA:                   0.000
REMARK UNBOUND:                 0.000
REMARK SMILES Cc1cc(O)c2c(c1)C(=O)c1cc(O)cc(O)c1C2=O
REMARK SMILES IDX 1 1 2 2 8 3 7 4 6 5 4 6 3 7 19 8 20 9 18 10 11 11 9 12 10 13
REMARK SMILES IDX 12 14 13 15 15 16 16 17 5 18 17 20 14 22
REMARK H PARENT 5 19 17 21 14 23
REMARK Flexibility Score: inf
ROOT
ATOM      1  C   UNL     1       0.475 -10.091  11.934  1.00  0.00     0.044 C 
ATOM      2  C   UNL     1      -0.807  -9.330  11.761  1.00  0.00    -0.047 A 
ATOM      3  C   UNL     1      -1.790  -9.371  12.755  1.00  0.00     0.016 A 
ATOM      4  C   UNL     1      -2.979  -8.633  12.622  1.00  0.00     0.038 A 
ATOM      5  C   UNL     1      -3.183  -7.829  11.478  1.00  0.00     0.076 A 
ATOM      6  C   UNL     1      -2.176  -7.776  10.485  1.00  0.00     0.127 A 
ATOM      7  C   UNL     1      -0.998  -8.520  10.638  1.00  0.00     0.050 A 
ATOM      8  C   UNL     1      -4.449  -7.054  11.346  1.00  0.00     0.201 C 
ATOM      9  O   UNL     1      -4.643  -6.340  10.325  1.00  0.00    -0.288 OA
ATOM     10  C   UNL     1      -5.491  -7.116  12.410  1.00  0.00     0.076 A 
ATOM     11  C   UNL     1      -5.269  -7.923  13.550  1.00  0.00     0.041 A 
ATOM     12  C   UNL     1      -4.013  -8.697  13.680  1.00  0.00     0.194 C 
ATOM     13  O   UNL     1      -3.823  -9.417  14.700  1.00  0.00    -0.289 OA
ATOM     14  C   UNL     1      -6.245  -7.989  14.560  1.00  0.00     0.059 A 
ATOM     15  C   UNL     1      -7.434  -7.264  14.450  1.00  0.00     0.120 A 
ATOM     16  C   UNL     1      -7.657  -6.467  13.329  1.00  0.00     0.093 A 
ATOM     17  C   UNL     1      -6.700  -6.384  12.309  1.00  0.00     0.131 A 
ENDROOT
BRANCH   6  18
ATOM     18  O   UNL     1      -2.334  -6.987   9.345  1.00  0.00    -0.507 OA
ATOM     19  H   UNL     1      -1.590  -6.871   8.667  1.00  0.00     0.293 HD
ENDBRANCH   6  18
BRANCH  17  20
ATOM     20  O   UNL     1      -6.957  -5.577  11.201  1.00  0.00    -0.507 OA
ATOM     21  H   UNL     1      -7.455  -4.698  11.286  1.00  0.00     0.293 HD
ENDBRANCH  17  20
BRANCH  15  22
ATOM     22  O   UNL     1      -8.401  -7.328  15.449  1.00  0.00    -0.508 OA
ATOM     23  H   UNL     1      -9.373  -7.518  15.236  1.00  0.00     0.293 HD
ENDBRANCH  15  22
TORSDOF 3
ENDMDL
MODEL 6
REMARK VINA RESULT:    -5.245     16.139     16.576
REMARK INTER + INTRA:          -5.705
REMARK INTER:                  -5.705
REMARK INTRA:                   0.000
REMARK UNBOUND:                 0.000
REMARK SMILES Cc1cc(O)c2c(c1)C(=O)c1cc(O)cc(O)c1C2=O
REMARK SMILES IDX 1 1 2 2 8 3 7 4 6 5 4 6 3 7 19 8 20 9 18 10 11 11 9 12 10 13
REMARK SMILES IDX 12 14 13 15 15 16 16 17 5 18 17 20 14 22
REMARK H PARENT 5 19 17 21 14 23
REMARK Flexibility Score: inf
ROOT
ATOM      1  C   UNL     1       6.109   6.975  10.878  1.00  0.00     0.044 C 
ATOM      2  C   UNL     1       4.838   6.893  10.084  1.00  0.00    -0.047 A 
ATOM      3  C   UNL     1       3.721   7.647  10.461  1.00  0.00     0.016 A 
ATOM      4  C   UNL     1       2.537   7.607   9.704  1.00  0.00     0.038 A 
ATOM      5  C   UNL     1       2.473   6.809   8.540  1.00  0.00     0.076 A 
ATOM      6  C   UNL     1       3.613   6.065   8.153  1.00  0.00     0.127 A 
ATOM      7  C   UNL     1       4.783   6.118   8.922  1.00  0.00     0.050 A 
ATOM      8  C   UNL     1       1.212   6.772   7.748  1.00  0.00     0.201 C 
ATOM      9  O   UNL     1       1.143   6.056   6.713  1.00  0.00    -0.288 OA
ATOM     10  C   UNL     1       0.027   7.573   8.169  1.00  0.00     0.076 A 
ATOM     11  C   UNL     1       0.110   8.370   9.335  1.00  0.00     0.041 A 
ATOM     12  C   UNL     1       1.362   8.404  10.126  1.00  0.00     0.194 C 
ATOM     13  O   UNL     1       1.427   9.116  11.166  1.00  0.00    -0.289 OA
ATOM     14  C   UNL     1      -1.001   9.131   9.741  1.00  0.00     0.059 A 
ATOM     15  C   UNL     1      -2.187   9.107   9.005  1.00  0.00     0.120 A 
ATOM     16  C   UNL     1      -2.274   8.324   7.855  1.00  0.00     0.093 A 
ATOM     17  C   UNL     1      -1.181   7.558   7.429  1.00  0.00     0.131 A 
ENDROOT
BRANCH   6  18
ATOM     18  O   UNL     1       3.594   5.271   7.005  1.00  0.00    -0.507 OA
ATOM     19  H   UNL     1       2.868   5.363   6.303  1.00  0.00     0.293 HD
ENDBRANCH   6  18
BRANCH  17  20
ATOM     20  O   UNL     1      -1.302   6.787   6.274  1.00  0.00    -0.507 OA
ATOM     21  H   UNL     1      -2.142   6.255   6.073  1.00  0.00     0.293 HD
ENDBRANCH  17  20
BRANCH  15  22
ATOM     22  O   UNL     1      -3.288   9.860   9.406  1.00  0.00    -0.508 OA
ATOM     23  H   UNL     1      -3.876  10.339   8.735  1.00  0.00     0.293 HD
ENDBRANCH  15  22
TORSDOF 3
ENDMDL
MODEL 7
REMARK VINA RESULT:    -5.242      1.990      5.806
REMARK INTER + INTRA:          -5.701
REMARK INTER:                  -5.701
REMARK INTRA:                   0.000
REMARK UNBOUND:                 0.000
REMARK SMILES Cc1cc(O)c2c(c1)C(=O)c1cc(O)cc(O)c1C2=O
REMARK SMILES IDX 1 1 2 2 8 3 7 4 6 5 4 6 3 7 19 8 20 9 18 10 11 11 9 12 10 13
REMARK SMILES IDX 12 14 13 15 15 16 16 17 5 18 17 20 14 22
REMARK H PARENT 5 19 17 21 14 23
REMARK Flexibility Score: inf
ROOT
ATOM      1  C   UNL     1      -8.648  -7.234  15.635  1.00  0.00     0.044 C 
ATOM      2  C   UNL     1      -7.601  -7.142  14.563  1.00  0.00    -0.047 A 
ATOM      3  C   UNL     1      -6.408  -7.863  14.681  1.00  0.00     0.016 A 
ATOM      4  C   UNL     1      -5.435  -7.815  13.666  1.00  0.00     0.038 A 
ATOM      5  C   UNL     1      -5.666  -7.041  12.507  1.00  0.00     0.076 A 
ATOM      6  C   UNL     1      -6.884  -6.330  12.386  1.00  0.00     0.127 A 
ATOM      7  C   UNL     1      -7.839  -6.392  13.408  1.00  0.00     0.050 A 
ATOM      8  C   UNL     1      -4.626  -6.995  11.441  1.00  0.00     0.201 C 
ATOM      9  O   UNL     1      -4.821  -6.300  10.407  1.00  0.00    -0.288 OA
ATOM     10  C   UNL     1      -3.356  -7.761  11.586  1.00  0.00     0.076 A 
ATOM     11  C   UNL     1      -3.143  -8.533  12.751  1.00  0.00     0.041 A 
ATOM     12  C   UNL     1      -4.173  -8.576  13.814  1.00  0.00     0.194 C 
ATOM     13  O   UNL     1      -3.974  -9.266  14.852  1.00  0.00    -0.289 OA
ATOM     14  C   UNL     1      -1.948  -9.260  12.898  1.00  0.00     0.059 A 
ATOM     15  C   UNL     1      -0.968  -9.228  11.904  1.00  0.00     0.120 A 
ATOM     16  C   UNL     1      -1.173  -8.469  10.754  1.00  0.00     0.093 A 
ATOM     17  C   UNL     1      -2.355  -7.736  10.583  1.00  0.00     0.131 A 
ENDROOT
BRANCH   6  18
ATOM     18  O   UNL     1      -7.155  -5.562  11.252  1.00  0.00    -0.507 OA
ATOM     19  H   UNL     1      -6.500  -5.498  10.481  1.00  0.00     0.293 HD
ENDBRANCH   6  18
BRANCH  17  20
ATOM     20  O   UNL     1      -2.527  -6.988   9.419  1.00  0.00    -0.507 OA
ATOM     21  H   UNL     1      -2.602  -5.977   9.440  1.00  0.00     0.293 HD
ENDBRANCH  17  20
BRANCH  15  22
ATOM     22  O   UNL     1       0.216  -9.947  12.048  1.00  0.00    -0.508 OA
ATOM     23  H   UNL     1       0.388 -10.796  11.522  1.00  0.00     0.293 HD
ENDBRANCH  15  22
TORSDOF 3
ENDMDL
MODEL 8
REMARK VINA RESULT:    -5.226      2.477      5.222
REMARK INTER + INTRA:          -5.684
REMARK INTER:                  -5.684
REMARK INTRA:                   0.000
REMARK UNBOUND:                 0.000
REMARK SMILES Cc1cc(O)c2c(c1)C(=O)c1cc(O)cc(O)c1C2=O
REMARK SMILES IDX 1 1 2 2 8 3 7 4 6 5 4 6 3 7 19 8 20 9 18 10 11 11 9 12 10 13
REMARK SMILES IDX 12 14 13 15 15 16 16 17 5 18 17 20 14 22
REMARK H PARENT 5 19 17 21 14 23
REMARK Flexibility Score: inf
ROOT
ATOM      1  C   UNL     1      -5.878 -10.125  17.680  1.00  0.00     0.044 C 
ATOM      2  C   UNL     1      -5.660  -9.381  16.395  1.00  0.00    -0.047 A 
ATOM      3  C   UNL     1      -4.487  -9.575  15.659  1.00  0.00     0.016 A 
ATOM      4  C   UNL     1      -4.287  -8.913  14.434  1.00  0.00     0.038 A 
ATOM      5  C   UNL     1      -5.286  -8.050  13.931  1.00  0.00     0.076 A 
ATOM      6  C   UNL     1      -6.480  -7.874  14.671  1.00  0.00     0.127 A 
ATOM      7  C   UNL     1      -6.658  -8.543  15.888  1.00  0.00     0.050 A 
ATOM      8  C   UNL     1      -5.061  -7.351  12.635  1.00  0.00     0.201 C 
ATOM      9  O   UNL     1      -5.945  -6.573  12.182  1.00  0.00    -0.288 OA
ATOM     10  C   UNL     1      -3.801  -7.561  11.867  1.00  0.00     0.076 A 
ATOM     11  C   UNL     1      -2.813  -8.430  12.385  1.00  0.00     0.041 A 
ATOM     12  C   UNL     1      -3.033  -9.123  13.675  1.00  0.00     0.194 C 
ATOM     13  O   UNL     1      -2.145  -9.896  14.131  1.00  0.00    -0.289 OA
ATOM     14  C   UNL     1      -1.620  -8.637  11.669  1.00  0.00     0.059 A 
ATOM     15  C   UNL     1      -1.400  -7.990  10.451  1.00  0.00     0.120 A 
ATOM     16  C   UNL     1      -2.370  -7.132   9.937  1.00  0.00     0.093 A 
ATOM     17  C   UNL     1      -3.567  -6.911  10.630  1.00  0.00     0.131 A 
ENDROOT
BRANCH   6  18
ATOM     18  O   UNL     1      -7.495  -7.038  14.203  1.00  0.00    -0.507 OA
ATOM     19  H   UNL     1      -8.163  -6.606  14.831  1.00  0.00     0.293 HD
ENDBRANCH   6  18
BRANCH  17  20
ATOM     20  O   UNL     1      -4.517  -6.046  10.086  1.00  0.00    -0.507 OA
ATOM     21  H   UNL     1      -5.286  -6.386   9.521  1.00  0.00     0.293 HD
ENDBRANCH  17  20
BRANCH  15  22
ATOM     22  O   UNL     1      -0.219  -8.193   9.741  1.00  0.00    -0.508 OA
ATOM     23  H   UNL     1       0.320  -9.045   9.840  1.00  0.00     0.293 HD
ENDBRANCH  15  22
TORSDOF 3
ENDMDL
MODEL 9
REMARK VINA RESULT:    -5.144     16.270     17.503
REMARK INTER + INTRA:          -5.595
REMARK INTER:                  -5.595
REMARK INTRA:                   0.000
REMARK UNBOUND:                 0.000
REMARK SMILES Cc1cc(O)c2c(c1)C(=O)c1cc(O)cc(O)c1C2=O
REMARK SMILES IDX 1 1 2 2 8 3 7 4 6 5 4 6 3 7 19 8 20 9 18 10 11 11 9 12 10 13
REMARK SMILES IDX 12 14 13 15 15 16 16 17 5 18 17 20 14 22
REMARK H PARENT 5 19 17 21 14 23
REMARK Flexibility Score: inf
ROOT
ATOM      1  C   UNL     1      -4.072   8.558   8.513  1.00  0.00     0.044 C 
ATOM      2  C   UNL     1      -2.634   8.129   8.488  1.00  0.00    -0.047 A 
ATOM      3  C   UNL     1      -1.716   8.688   9.383  1.00  0.00     0.016 A 
ATOM      4  C   UNL     1      -0.374   8.268   9.395  1.00  0.00     0.038 A 
ATOM      5  C   UNL     1       0.054   7.260   8.502  1.00  0.00     0.076 A 
ATOM      6  C   UNL     1      -0.884   6.683   7.612  1.00  0.00     0.127 A 
ATOM      7  C   UNL     1      -2.216   7.118   7.617  1.00  0.00     0.050 A 
ATOM      8  C   UNL     1       1.479   6.825   8.521  1.00  0.00     0.201 C 
ATOM      9  O   UNL     1       1.872   5.932   7.722  1.00  0.00    -0.288 OA
ATOM     10  C   UNL     1       2.447   7.438   9.474  1.00  0.00     0.076 A 
ATOM     11  C   UNL     1       2.000   8.443  10.363  1.00  0.00     0.041 A 
ATOM     12  C   UNL     1       0.585   8.879  10.342  1.00  0.00     0.194 C 
ATOM     13  O   UNL     1       0.195   9.778  11.137  1.00  0.00    -0.289 OA
ATOM     14  C   UNL     1       2.905   9.028  11.268  1.00  0.00     0.059 A 
ATOM     15  C   UNL     1       4.242   8.626  11.297  1.00  0.00     0.120 A 
ATOM     16  C   UNL     1       4.687   7.636  10.424  1.00  0.00     0.093 A 
ATOM     17  C   UNL     1       3.806   7.037   9.514  1.00  0.00     0.131 A 
ENDROOT
BRANCH   6  18
ATOM     18  O   UNL     1      -0.503   5.679   6.722  1.00  0.00    -0.507 OA
ATOM     19  H   UNL     1      -1.062   4.844   6.587  1.00  0.00     0.293 HD
ENDBRANCH   6  18
BRANCH  17  20
ATOM     20  O   UNL     1       4.285   6.049   8.655  1.00  0.00    -0.507 OA
ATOM     21  H   UNL     1       5.145   5.547   8.845  1.00  0.00     0.293 HD
ENDBRANCH  17  20
BRANCH  15  22
ATOM     22  O   UNL     1       5.138   9.205  12.192  1.00  0.00    -0.508 OA
ATOM     23  H   UNL     1       6.090   8.869  12.281  1.00  0.00     0.293 HD
ENDBRANCH  15  22
TORSDOF 3
ENDMDL
