MODEL 1
REMARK VINA RESULT:    -6.160      0.000      0.000
REMARK INTER + INTRA:         -20.242
REMARK INTER:                 -16.244
REMARK INTRA:                  -3.998
REMARK UNBOUND:                -3.998
REMARK SMILES CCCCCCCCCCCCCCCCCCCCCCCCCCCCCC(=O)[O-]
REMARK SMILES IDX 16 1 17 2 18 3 19 4 20 5 21 6 22 7 23 8 24 9 25 10 26 11
REMARK SMILES IDX 27 12 28 13 29 14 30 15 31 16 32 17 15 18 14 19 13 20 12 21
REMARK SMILES IDX 11 22 10 23 9 24 8 25 7 26 6 27 5 28 4 29 3 30 2 31 1 32
REMARK H PARENT
REMARK Flexibility Score: inf
ROOT
ATOM      1  C   UNL     1     -17.764   0.523 -17.854  1.00  0.00     0.000 C 
ENDROOT
BRANCH   1   2
ATOM      2  C   UNL     1     -17.714  -0.965 -18.243  1.00  0.00     0.000 C 
BRANCH   2   3
ATOM      3  C   UNL     1     -16.724  -1.240 -19.394  1.00  0.00     0.000 C 
BRANCH   3   4
ATOM      4  C   UNL     1     -15.448  -0.383 -19.338  1.00  0.00     0.000 C 
BRANCH   4   5
ATOM      5  C   UNL     1     -15.228   0.451 -20.608  1.00  0.00     0.000 C 
BRANCH   5   6
ATOM      6  C   UNL     1     -14.642   1.845 -20.321  1.00  0.00     0.000 C 
BRANCH   6   7
ATOM      7  C   UNL     1     -14.618   2.219 -18.824  1.00  0.00     0.000 C 
BRANCH   7   8
ATOM      8  C   UNL     1     -13.682   3.402 -18.527  1.00  0.00     0.000 C 
BRANCH   8   9
ATOM      9  C   UNL     1     -13.295   3.443 -17.044  1.00  0.00     0.000 C 
BRANCH   9  10
ATOM     10  C   UNL     1     -14.002   2.327 -16.259  1.00  0.00     0.000 C 
BRANCH  10  11
ATOM     11  C   UNL     1     -13.699   2.372 -14.753  1.00  0.00     0.000 C 
BRANCH  11  12
ATOM     12  C   UNL     1     -14.961   2.585 -13.899  1.00  0.00     0.000 C 
BRANCH  12  13
ATOM     13  C   UNL     1     -15.080   1.567 -12.754  1.00  0.00     0.006 C 
BRANCH  13  14
ATOM     14  C   UNL     1     -15.814   2.136 -11.531  1.00  0.00     0.053 C 
BRANCH  14  15
ATOM     15  C   UNL     1     -17.047   1.346 -11.211  1.00  0.00     0.041 C 
ATOM     16  O   UNL     1     -18.147   1.626 -11.758  1.00  0.00    -0.550 OA
ATOM     17  O   UNL     1     -16.996   0.344 -10.248  1.00  0.00    -0.550 OA
ENDBRANCH  14  15
ENDBRANCH  13  14
ENDBRANCH  12  13
ENDBRANCH  11  12
ENDBRANCH  10  11
ENDBRANCH   9  10
ENDBRANCH   8   9
ENDBRANCH   7   8
ENDBRANCH   6   7
ENDBRANCH   5   6
ENDBRANCH   4   5
ENDBRANCH   3   4
ENDBRANCH   2   3
ENDBRANCH   1   2
BRANCH   1  18
ATOM     18  C   UNL     1     -17.306   0.790 -16.407  1.00  0.00     0.000 C 
BRANCH  18  19
ATOM     19  C   UNL     1     -16.627  -0.399 -15.702  1.00  0.00     0.000 C 
BRANCH  19  20
ATOM     20  C   UNL     1     -17.262  -0.732 -14.341  1.00  0.00     0.000 C 
BRANCH  20  21
ATOM     21  C   UNL     1     -18.787  -0.525 -14.320  1.00  0.00     0.000 C 
BRANCH  21  22
ATOM     22  C   UNL     1     -19.606  -1.575 -15.094  1.00  0.00     0.000 C 
BRANCH  22  23
ATOM     23  C   UNL     1     -20.910  -1.005 -15.679  1.00  0.00     0.000 C 
BRANCH  23  24
ATOM     24  C   UNL     1     -20.859   0.524 -15.840  1.00  0.00    -0.000 C 
BRANCH  24  25
ATOM     25  C   UNL     1     -22.242   1.124 -16.148  1.00  0.00    -0.000 C 
BRANCH  25  26
ATOM     26  C   UNL     1     -23.400   0.165 -15.819  1.00  0.00    -0.000 C 
BRANCH  26  27
ATOM     27  C   UNL     1     -24.808   0.791 -15.886  1.00  0.00    -0.000 C 
BRANCH  27  28
ATOM     28  C   UNL     1     -25.486   0.744 -17.267  1.00  0.00    -0.000 C 
BRANCH  28  29
ATOM     29  C   UNL     1     -25.940  -0.671 -17.661  1.00  0.00    -0.000 C 
BRANCH  29  30
ATOM     30  C   UNL     1     -27.312  -1.046 -17.069  1.00  0.00    -0.000 C 
BRANCH  30  31
ATOM     31  C   UNL     1     -27.259  -1.983 -15.848  1.00  0.00    -0.003 C 
ATOM     32  C   UNL     1     -27.637  -1.289 -14.538  1.00  0.00     0.004 C 
ENDBRANCH  30  31
ENDBRANCH  29  30
ENDBRANCH  28  29
ENDBRANCH  27  28
ENDBRANCH  26  27
ENDBRANCH  25  26
ENDBRANCH  24  25
ENDBRANCH  23  24
ENDBRANCH  22  23
ENDBRANCH  21  22
ENDBRANCH  20  21
ENDBRANCH  19  20
ENDBRANCH  18  19
ENDBRANCH   1  18
TORSDOF 28
ENDMDL
MODEL 2
REMARK VINA RESULT:    -6.104      1.314      2.395
REMARK INTER + INTRA:         -20.095
REMARK INTER:                 -15.868
REMARK INTRA:                  -4.227
REMARK UNBOUND:                -3.998
REMARK SMILES CCCCCCCCCCCCCCCCCCCCCCCCCCCCCC(=O)[O-]
REMARK SMILES IDX 16 1 17 2 18 3 19 4 20 5 21 6 22 7 23 8 24 9 25 10 26 11
REMARK SMILES IDX 27 12 28 13 29 14 30 15 31 16 32 17 15 18 14 19 13 20 12 21
REMARK SMILES IDX 11 22 10 23 9 24 8 25 7 26 6 27 5 28 4 29 3 30 2 31 1 32
REMARK H PARENT
REMARK Flexibility Score: inf
ROOT
ATOM      1  C   UNL     1     -17.161  -0.203 -15.839  1.00  0.00     0.000 C 
ENDROOT
BRANCH   1   2
ATOM      2  C   UNL     1     -17.472   1.041 -16.691  1.00  0.00     0.000 C 
BRANCH   2   3
ATOM      3  C   UNL     1     -17.865   0.680 -18.139  1.00  0.00     0.000 C 
BRANCH   3   4
ATOM      4  C   UNL     1     -17.740  -0.818 -18.465  1.00  0.00     0.000 C 
BRANCH   4   5
ATOM      5  C   UNL     1     -16.478  -1.153 -19.272  1.00  0.00     0.000 C 
BRANCH   5   6
ATOM      6  C   UNL     1     -15.719   0.096 -19.754  1.00  0.00     0.000 C 
BRANCH   6   7
ATOM      7  C   UNL     1     -14.202   0.056 -19.470  1.00  0.00     0.000 C 
BRANCH   7   8
ATOM      8  C   UNL     1     -13.771   1.099 -18.427  1.00  0.00     0.000 C 
BRANCH   8   9
ATOM      9  C   UNL     1     -14.445   2.452 -18.685  1.00  0.00     0.000 C 
BRANCH   9  10
ATOM     10  C   UNL     1     -14.599   3.249 -17.380  1.00  0.00     0.000 C 
BRANCH  10  11
ATOM     11  C   UNL     1     -13.319   3.253 -16.529  1.00  0.00     0.000 C 
BRANCH  11  12
ATOM     12  C   UNL     1     -13.529   2.629 -15.138  1.00  0.00     0.000 C 
BRANCH  12  13
ATOM     13  C   UNL     1     -15.003   2.634 -14.703  1.00  0.00     0.006 C 
BRANCH  13  14
ATOM     14  C   UNL     1     -15.199   3.186 -13.283  1.00  0.00     0.053 C 
BRANCH  14  15
ATOM     15  C   UNL     1     -15.521   2.095 -12.307  1.00  0.00     0.041 C 
ATOM     16  O   UNL     1     -16.385   2.274 -11.408  1.00  0.00    -0.550 OA
ATOM     17  O   UNL     1     -14.810   0.901 -12.345  1.00  0.00    -0.550 OA
ENDBRANCH  14  15
ENDBRANCH  13  14
ENDBRANCH  12  13
ENDBRANCH  11  12
ENDBRANCH  10  11
ENDBRANCH   9  10
ENDBRANCH   8   9
ENDBRANCH   7   8
ENDBRANCH   6   7
ENDBRANCH   5   6
ENDBRANCH   4   5
ENDBRANCH   3   4
ENDBRANCH   2   3
ENDBRANCH   1   2
BRANCH   1  18
ATOM     18  C   UNL     1     -17.666  -0.088 -14.388  1.00  0.00     0.000 C 
BRANCH  18  19
ATOM     19  C   UNL     1     -18.760  -1.096 -13.990  1.00  0.00     0.000 C 
BRANCH  19  20
ATOM     20  C   UNL     1     -19.312  -1.888 -15.189  1.00  0.00     0.000 C 
BRANCH  20  21
ATOM     21  C   UNL     1     -20.747  -1.482 -15.570  1.00  0.00     0.000 C 
BRANCH  21  22
ATOM     22  C   UNL     1     -20.949   0.010 -15.890  1.00  0.00     0.000 C 
BRANCH  22  23
ATOM     23  C   UNL     1     -22.430   0.425 -15.908  1.00  0.00     0.000 C 
BRANCH  23  24
ATOM     24  C   UNL     1     -22.619   1.898 -16.310  1.00  0.00    -0.000 C 
BRANCH  24  25
ATOM     25  C   UNL     1     -24.070   2.374 -16.113  1.00  0.00    -0.000 C 
BRANCH  25  26
ATOM     26  C   UNL     1     -24.590   2.140 -14.684  1.00  0.00    -0.000 C 
BRANCH  26  27
ATOM     27  C   UNL     1     -26.085   1.774 -14.583  1.00  0.00    -0.000 C 
BRANCH  27  28
ATOM     28  C   UNL     1     -26.535   0.589 -15.456  1.00  0.00    -0.000 C 
BRANCH  28  29
ATOM     29  C   UNL     1     -27.314  -0.473 -14.664  1.00  0.00    -0.000 C 
BRANCH  29  30
ATOM     30  C   UNL     1     -26.690  -1.877 -14.772  1.00  0.00    -0.000 C 
BRANCH  30  31
ATOM     31  C   UNL     1     -25.150  -1.907 -14.771  1.00  0.00    -0.003 C 
ATOM     32  C   UNL     1     -24.560  -2.559 -16.022  1.00  0.00     0.004 C 
ENDBRANCH  30  31
ENDBRANCH  29  30
ENDBRANCH  28  29
ENDBRANCH  27  28
ENDBRANCH  26  27
ENDBRANCH  25  26
ENDBRANCH  24  25
ENDBRANCH  23  24
ENDBRANCH  22  23
ENDBRANCH  21  22
ENDBRANCH  20  21
ENDBRANCH  19  20
ENDBRANCH  18  19
ENDBRANCH   1  18
TORSDOF 28
ENDMDL
MODEL 3
REMARK VINA RESULT:    -6.070      3.111      9.176
REMARK INTER + INTRA:         -20.005
REMARK INTER:                 -16.767
REMARK INTRA:                  -3.238
REMARK UNBOUND:                -3.998
REMARK SMILES CCCCCCCCCCCCCCCCCCCCCCCCCCCCCC(=O)[O-]
REMARK SMILES IDX 16 1 17 2 18 3 19 4 20 5 21 6 22 7 23 8 24 9 25 10 26 11
REMARK SMILES IDX 27 12 28 13 29 14 30 15 31 16 32 17 15 18 14 19 13 20 12 21
REMARK SMILES IDX 11 22 10 23 9 24 8 25 7 26 6 27 5 28 4 29 3 30 2 31 1 32
REMARK H PARENT
REMARK Flexibility Score: inf
ROOT
ATOM      1  C   UNL     1     -16.297  -2.039 -16.629  1.00  0.00     0.000 C 
ENDROOT
BRANCH   1   2
ATOM      2  C   UNL     1     -16.271  -0.658 -15.949  1.00  0.00     0.000 C 
BRANCH   2   3
ATOM      3  C   UNL     1     -16.628  -0.733 -14.450  1.00  0.00     0.000 C 
BRANCH   3   4
ATOM      4  C   UNL     1     -18.015  -0.165 -14.109  1.00  0.00     0.000 C 
BRANCH   4   5
ATOM      5  C   UNL     1     -19.098  -1.248 -13.997  1.00  0.00     0.000 C 
BRANCH   5   6
ATOM      6  C   UNL     1     -20.074  -1.251 -15.187  1.00  0.00     0.000 C 
BRANCH   6   7
ATOM      7  C   UNL     1     -20.338   0.147 -15.784  1.00  0.00     0.000 C 
BRANCH   7   8
ATOM      8  C   UNL     1     -21.816   0.359 -16.156  1.00  0.00     0.000 C 
BRANCH   8   9
ATOM      9  C   UNL     1     -22.260   1.797 -15.861  1.00  0.00     0.000 C 
BRANCH   9  10
ATOM     10  C   UNL     1     -23.591   2.115 -16.559  1.00  0.00     0.000 C 
BRANCH  10  11
ATOM     11  C   UNL     1     -24.793   1.428 -15.892  1.00  0.00     0.000 C 
BRANCH  11  12
ATOM     12  C   UNL     1     -24.895   1.737 -14.388  1.00  0.00     0.000 C 
BRANCH  12  13
ATOM     13  C   UNL     1     -26.183   2.491 -14.024  1.00  0.00     0.006 C 
BRANCH  13  14
ATOM     14  C   UNL     1     -27.451   1.685 -14.342  1.00  0.00     0.053 C 
BRANCH  14  15
ATOM     15  C   UNL     1     -28.007   1.024 -13.116  1.00  0.00     0.041 C 
ATOM     16  O   UNL     1     -28.295   1.706 -12.097  1.00  0.00    -0.550 OA
ATOM     17  O   UNL     1     -28.136  -0.359 -13.075  1.00  0.00    -0.550 OA
ENDBRANCH  14  15
ENDBRANCH  13  14
ENDBRANCH  12  13
ENDBRANCH  11  12
ENDBRANCH  10  11
ENDBRANCH   9  10
ENDBRANCH   8   9
ENDBRANCH   7   8
ENDBRANCH   6   7
ENDBRANCH   5   6
ENDBRANCH   4   5
ENDBRANCH   3   4
ENDBRANCH   2   3
ENDBRANCH   1   2
BRANCH   1  18
ATOM     18  C   UNL     1     -17.595  -2.307 -17.413  1.00  0.00     0.000 C 
BRANCH  18  19
ATOM     19  C   UNL     1     -17.592  -1.827 -18.876  1.00  0.00     0.000 C 
BRANCH  19  20
ATOM     20  C   UNL     1     -17.830  -0.313 -19.012  1.00  0.00     0.000 C 
BRANCH  20  21
ATOM     21  C   UNL     1     -16.571   0.458 -19.447  1.00  0.00     0.000 C 
BRANCH  21  22
ATOM     22  C   UNL     1     -15.397  -0.412 -19.932  1.00  0.00     0.000 C 
BRANCH  22  23
ATOM     23  C   UNL     1     -14.057   0.342 -19.948  1.00  0.00     0.000 C 
BRANCH  23  24
ATOM     24  C   UNL     1     -13.769   1.048 -18.611  1.00  0.00    -0.000 C 
BRANCH  24  25
ATOM     25  C   UNL     1     -14.037   2.562 -18.682  1.00  0.00    -0.000 C 
BRANCH  25  26
ATOM     26  C   UNL     1     -13.016   3.389 -17.880  1.00  0.00    -0.000 C 
BRANCH  26  27
ATOM     27  C   UNL     1     -13.176   3.322 -16.348  1.00  0.00    -0.000 C 
BRANCH  27  28
ATOM     28  C   UNL     1     -14.597   3.003 -15.847  1.00  0.00    -0.000 C 
BRANCH  28  29
ATOM     29  C   UNL     1     -14.601   2.222 -14.523  1.00  0.00    -0.000 C 
BRANCH  29  30
ATOM     30  C   UNL     1     -15.549   2.830 -13.472  1.00  0.00    -0.000 C 
BRANCH  30  31
ATOM     31  C   UNL     1     -15.458   2.199 -12.071  1.00  0.00    -0.003 C 
ATOM     32  C   UNL     1     -16.821   2.018 -11.402  1.00  0.00     0.004 C 
ENDBRANCH  30  31
ENDBRANCH  29  30
ENDBRANCH  28  29
ENDBRANCH  27  28
ENDBRANCH  26  27
ENDBRANCH  25  26
ENDBRANCH  24  25
ENDBRANCH  23  24
ENDBRANCH  22  23
ENDBRANCH  21  22
ENDBRANCH  20  21
ENDBRANCH  19  20
ENDBRANCH  18  19
ENDBRANCH   1  18
TORSDOF 28
ENDMDL
MODEL 4
REMARK VINA RESULT:    -5.947      3.017      9.215
REMARK INTER + INTRA:         -19.679
REMARK INTER:                 -16.886
REMARK INTRA:                  -2.793
REMARK UNBOUND:                -3.998
REMARK SMILES CCCCCCCCCCCCCCCCCCCCCCCCCCCCCC(=O)[O-]
REMARK SMILES IDX 16 1 17 2 18 3 19 4 20 5 21 6 22 7 23 8 24 9 25 10 26 11
REMARK SMILES IDX 27 12 28 13 29 14 30 15 31 16 32 17 15 18 14 19 13 20 12 21
REMARK SMILES IDX 11 22 10 23 9 24 8 25 7 26 6 27 5 28 4 29 3 30 2 31 1 32
REMARK H PARENT
REMARK Flexibility Score: inf
ROOT
ATOM      1  C   UNL     1     -17.931   0.629 -12.250  1.00  0.00     0.000 C 
ENDROOT
BRANCH   1   2
ATOM      2  C   UNL     1     -17.804  -0.724 -12.973  1.00  0.00     0.000 C 
BRANCH   2   3
ATOM      3  C   UNL     1     -17.494  -0.561 -14.476  1.00  0.00     0.000 C 
BRANCH   3   4
ATOM      4  C   UNL     1     -18.720  -0.199 -15.331  1.00  0.00     0.000 C 
BRANCH   4   5
ATOM      5  C   UNL     1     -19.898  -1.163 -15.130  1.00  0.00     0.000 C 
BRANCH   5   6
ATOM      6  C   UNL     1     -21.156  -0.752 -15.916  1.00  0.00     0.000 C 
BRANCH   6   7
ATOM      7  C   UNL     1     -21.384   0.773 -15.979  1.00  0.00     0.000 C 
BRANCH   7   8
ATOM      8  C   UNL     1     -22.876   1.146 -15.967  1.00  0.00     0.000 C 
BRANCH   8   9
ATOM      9  C   UNL     1     -23.753  -0.065 -16.305  1.00  0.00     0.000 C 
BRANCH   9  10
ATOM     10  C   UNL     1     -25.015   0.366 -17.068  1.00  0.00     0.000 C 
BRANCH  10  11
ATOM     11  C   UNL     1     -26.310   0.047 -16.305  1.00  0.00     0.000 C 
BRANCH  11  12
ATOM     12  C   UNL     1     -26.205   0.356 -14.801  1.00  0.00     0.000 C 
BRANCH  12  13
ATOM     13  C   UNL     1     -27.546   0.195 -14.068  1.00  0.00     0.006 C 
BRANCH  13  14
ATOM     14  C   UNL     1     -27.808   1.322 -13.058  1.00  0.00     0.053 C 
BRANCH  14  15
ATOM     15  C   UNL     1     -28.555   0.824 -11.858  1.00  0.00     0.041 C 
ATOM     16  O   UNL     1     -28.836   1.605 -10.909  1.00  0.00    -0.550 OA
ATOM     17  O   UNL     1     -28.875  -0.524 -11.753  1.00  0.00    -0.550 OA
ENDBRANCH  14  15
ENDBRANCH  13  14
ENDBRANCH  12  13
ENDBRANCH  11  12
ENDBRANCH  10  11
ENDBRANCH   9  10
ENDBRANCH   8   9
ENDBRANCH   7   8
ENDBRANCH   6   7
ENDBRANCH   5   6
ENDBRANCH   4   5
ENDBRANCH   3   4
ENDBRANCH   2   3
ENDBRANCH   1   2
BRANCH   1  18
ATOM     18  C   UNL     1     -16.915   0.805 -11.105  1.00  0.00     0.000 C 
BRANCH  18  19
ATOM     19  C   UNL     1     -15.798   1.832 -11.367  1.00  0.00     0.000 C 
BRANCH  19  20
ATOM     20  C   UNL     1     -15.117   1.644 -12.734  1.00  0.00     0.000 C 
BRANCH  20  21
ATOM     21  C   UNL     1     -15.414   2.790 -13.718  1.00  0.00     0.000 C 
BRANCH  21  22
ATOM     22  C   UNL     1     -15.431   2.395 -15.206  1.00  0.00     0.000 C 
BRANCH  22  23
ATOM     23  C   UNL     1     -14.032   2.404 -15.845  1.00  0.00     0.000 C 
BRANCH  23  24
ATOM     24  C   UNL     1     -13.899   3.471 -16.945  1.00  0.00    -0.000 C 
BRANCH  24  25
ATOM     25  C   UNL     1     -13.290   2.901 -18.239  1.00  0.00    -0.000 C 
BRANCH  25  26
ATOM     26  C   UNL     1     -14.354   2.399 -19.232  1.00  0.00    -0.000 C 
BRANCH  26  27
ATOM     27  C   UNL     1     -14.261   0.901 -19.587  1.00  0.00    -0.000 C 
BRANCH  27  28
ATOM     28  C   UNL     1     -15.598   0.222 -19.937  1.00  0.00    -0.000 C 
BRANCH  28  29
ATOM     29  C   UNL     1     -16.740   0.631 -18.994  1.00  0.00    -0.000 C 
BRANCH  29  30
ATOM     30  C   UNL     1     -17.781  -0.486 -18.793  1.00  0.00    -0.000 C 
BRANCH  30  31
ATOM     31  C   UNL     1     -17.194  -1.900 -18.625  1.00  0.00    -0.003 C 
ATOM     32  C   UNL     1     -16.226  -2.013 -17.446  1.00  0.00     0.004 C 
ENDBRANCH  30  31
ENDBRANCH  29  30
ENDBRANCH  28  29
ENDBRANCH  27  28
ENDBRANCH  26  27
ENDBRANCH  25  26
ENDBRANCH  24  25
ENDBRANCH  23  24
ENDBRANCH  22  23
ENDBRANCH  21  22
ENDBRANCH  20  21
ENDBRANCH  19  20
ENDBRANCH  18  19
ENDBRANCH   1  18
TORSDOF 28
ENDMDL
MODEL 5
REMARK VINA RESULT:    -5.922      2.844      9.105
REMARK INTER + INTRA:         -19.614
REMARK INTER:                 -16.481
REMARK INTRA:                  -3.134
REMARK UNBOUND:                -3.998
REMARK SMILES CCCCCCCCCCCCCCCCCCCCCCCCCCCCCC(=O)[O-]
REMARK SMILES IDX 16 1 17 2 18 3 19 4 20 5 21 6 22 7 23 8 24 9 25 10 26 11
REMARK SMILES IDX 27 12 28 13 29 14 30 15 31 16 32 17 15 18 14 19 13 20 12 21
REMARK SMILES IDX 11 22 10 23 9 24 8 25 7 26 6 27 5 28 4 29 3 30 2 31 1 32
REMARK H PARENT
REMARK Flexibility Score: inf
ROOT
ATOM      1  C   UNL     1     -18.022   0.698 -12.176  1.00  0.00     0.000 C 
ENDROOT
BRANCH   1   2
ATOM      2  C   UNL     1     -17.921  -0.667 -12.881  1.00  0.00     0.000 C 
BRANCH   2   3
ATOM      3  C   UNL     1     -17.692  -0.528 -14.401  1.00  0.00     0.000 C 
BRANCH   3   4
ATOM      4  C   UNL     1     -18.937  -0.071 -15.180  1.00  0.00     0.000 C 
BRANCH   4   5
ATOM      5  C   UNL     1     -19.981  -1.183 -15.351  1.00  0.00     0.000 C 
BRANCH   5   6
ATOM      6  C   UNL     1     -21.317  -0.675 -15.923  1.00  0.00     0.000 C 
BRANCH   6   7
ATOM      7  C   UNL     1     -21.447   0.863 -15.937  1.00  0.00     0.000 C 
BRANCH   7   8
ATOM      8  C   UNL     1     -22.892   1.333 -15.699  1.00  0.00     0.000 C 
BRANCH   8   9
ATOM      9  C   UNL     1     -23.301   2.402 -16.720  1.00  0.00     0.000 C 
BRANCH   9  10
ATOM     10  C   UNL     1     -24.823   2.616 -16.713  1.00  0.00     0.000 C 
BRANCH  10  11
ATOM     11  C   UNL     1     -25.509   2.063 -17.973  1.00  0.00     0.000 C 
BRANCH  11  12
ATOM     12  C   UNL     1     -26.438   0.875 -17.671  1.00  0.00     0.000 C 
BRANCH  12  13
ATOM     13  C   UNL     1     -26.629   0.640 -16.164  1.00  0.00     0.006 C 
BRANCH  13  14
ATOM     14  C   UNL     1     -27.283  -0.714 -15.854  1.00  0.00     0.053 C 
BRANCH  14  15
ATOM     15  C   UNL     1     -27.536  -0.882 -14.386  1.00  0.00     0.041 C 
ATOM     16  O   UNL     1     -27.585  -2.031 -13.872  1.00  0.00    -0.550 OA
ATOM     17  O   UNL     1     -27.792   0.233 -13.597  1.00  0.00    -0.550 OA
ENDBRANCH  14  15
ENDBRANCH  13  14
ENDBRANCH  12  13
ENDBRANCH  11  12
ENDBRANCH  10  11
ENDBRANCH   9  10
ENDBRANCH   8   9
ENDBRANCH   7   8
ENDBRANCH   6   7
ENDBRANCH   5   6
ENDBRANCH   4   5
ENDBRANCH   3   4
ENDBRANCH   2   3
ENDBRANCH   1   2
BRANCH   1  18
ATOM     18  C   UNL     1     -16.982   0.882 -11.054  1.00  0.00     0.000 C 
BRANCH  18  19
ATOM     19  C   UNL     1     -15.860   1.892 -11.356  1.00  0.00     0.000 C 
BRANCH  19  20
ATOM     20  C   UNL     1     -15.102   1.577 -12.658  1.00  0.00     0.000 C 
BRANCH  20  21
ATOM     21  C   UNL     1     -15.238   2.685 -13.718  1.00  0.00     0.000 C 
BRANCH  21  22
ATOM     22  C   UNL     1     -15.106   2.220 -15.180  1.00  0.00     0.000 C 
BRANCH  22  23
ATOM     23  C   UNL     1     -13.721   2.513 -15.780  1.00  0.00     0.000 C 
BRANCH  23  24
ATOM     24  C   UNL     1     -13.773   3.599 -16.868  1.00  0.00    -0.000 C 
BRANCH  24  25
ATOM     25  C   UNL     1     -13.182   3.116 -18.204  1.00  0.00    -0.000 C 
BRANCH  25  26
ATOM     26  C   UNL     1     -14.249   2.577 -19.173  1.00  0.00    -0.000 C 
BRANCH  26  27
ATOM     27  C   UNL     1     -14.191   1.057 -19.430  1.00  0.00    -0.000 C 
BRANCH  27  28
ATOM     28  C   UNL     1     -15.546   0.383 -19.711  1.00  0.00    -0.000 C 
BRANCH  28  29
ATOM     29  C   UNL     1     -16.613   0.728 -18.660  1.00  0.00    -0.000 C 
BRANCH  29  30
ATOM     30  C   UNL     1     -17.873  -0.150 -18.775  1.00  0.00    -0.000 C 
BRANCH  30  31
ATOM     31  C   UNL     1     -17.606  -1.666 -18.842  1.00  0.00    -0.003 C 
ATOM     32  C   UNL     1     -17.063  -2.240 -17.533  1.00  0.00     0.004 C 
ENDBRANCH  30  31
ENDBRANCH  29  30
ENDBRANCH  28  29
ENDBRANCH  27  28
ENDBRANCH  26  27
ENDBRANCH  25  26
ENDBRANCH  24  25
ENDBRANCH  23  24
ENDBRANCH  22  23
ENDBRANCH  21  22
ENDBRANCH  20  21
ENDBRANCH  19  20
ENDBRANCH  18  19
ENDBRANCH   1  18
TORSDOF 28
ENDMDL
MODEL 6
REMARK VINA RESULT:    -5.904      2.555      9.220
REMARK INTER + INTRA:         -19.567
REMARK INTER:                 -16.042
REMARK INTRA:                  -3.525
REMARK UNBOUND:                -3.998
REMARK SMILES CCCCCCCCCCCCCCCCCCCCCCCCCCCCCC(=O)[O-]
REMARK SMILES IDX 16 1 17 2 18 3 19 4 20 5 21 6 22 7 23 8 24 9 25 10 26 11
REMARK SMILES IDX 27 12 28 13 29 14 30 15 31 16 32 17 15 18 14 19 13 20 12 21
REMARK SMILES IDX 11 22 10 23 9 24 8 25 7 26 6 27 5 28 4 29 3 30 2 31 1 32
REMARK H PARENT
REMARK Flexibility Score: inf
ROOT
ATOM      1  C   UNL     1     -18.505  -0.745 -13.559  1.00  0.00     0.000 C 
ENDROOT
BRANCH   1   2
ATOM      2  C   UNL     1     -18.353  -0.706 -15.091  1.00  0.00     0.000 C 
BRANCH   2   3
ATOM      3  C   UNL     1     -19.588  -0.101 -15.790  1.00  0.00     0.000 C 
BRANCH   3   4
ATOM      4  C   UNL     1     -20.859  -0.957 -15.664  1.00  0.00     0.000 C 
BRANCH   4   5
ATOM      5  C   UNL     1     -22.150  -0.149 -15.858  1.00  0.00     0.000 C 
BRANCH   5   6
ATOM      6  C   UNL     1     -21.893   1.340 -16.146  1.00  0.00     0.000 C 
BRANCH   6   7
ATOM      7  C   UNL     1     -23.069   2.264 -15.763  1.00  0.00     0.000 C 
BRANCH   7   8
ATOM      8  C   UNL     1     -23.687   2.967 -16.984  1.00  0.00     0.000 C 
BRANCH   8   9
ATOM      9  C   UNL     1     -25.213   2.820 -16.993  1.00  0.00     0.000 C 
BRANCH   9  10
ATOM     10  C   UNL     1     -25.629   1.430 -17.501  1.00  0.00     0.000 C 
BRANCH  10  11
ATOM     11  C   UNL     1     -26.830   0.851 -16.737  1.00  0.00     0.000 C 
BRANCH  11  12
ATOM     12  C   UNL     1     -26.687   0.991 -15.211  1.00  0.00     0.000 C 
BRANCH  12  13
ATOM     13  C   UNL     1     -25.766  -0.078 -14.602  1.00  0.00     0.006 C 
BRANCH  13  14
ATOM     14  C   UNL     1     -26.206  -1.507 -14.953  1.00  0.00     0.053 C 
BRANCH  14  15
ATOM     15  C   UNL     1     -25.096  -2.285 -15.593  1.00  0.00     0.041 C 
ATOM     16  O   UNL     1     -24.219  -2.851 -14.886  1.00  0.00    -0.550 OA
ATOM     17  O   UNL     1     -24.987  -2.322 -16.979  1.00  0.00    -0.550 OA
ENDBRANCH  14  15
ENDBRANCH  13  14
ENDBRANCH  12  13
ENDBRANCH  11  12
ENDBRANCH  10  11
ENDBRANCH   9  10
ENDBRANCH   8   9
ENDBRANCH   7   8
ENDBRANCH   6   7
ENDBRANCH   5   6
ENDBRANCH   4   5
ENDBRANCH   3   4
ENDBRANCH   2   3
ENDBRANCH   1   2
BRANCH   1  18
ATOM     18  C   UNL     1     -17.354  -0.041 -12.815  1.00  0.00     0.000 C 
BRANCH  18  19
ATOM     19  C   UNL     1     -17.760   0.710 -11.534  1.00  0.00     0.000 C 
BRANCH  19  20
ATOM     20  C   UNL     1     -17.016   2.046 -11.359  1.00  0.00     0.000 C 
BRANCH  20  21
ATOM     21  C   UNL     1     -15.571   2.005 -11.889  1.00  0.00     0.000 C 
BRANCH  21  22
ATOM     22  C   UNL     1     -15.282   2.925 -13.089  1.00  0.00     0.000 C 
BRANCH  22  23
ATOM     23  C   UNL     1     -14.660   2.179 -14.281  1.00  0.00     0.000 C 
BRANCH  23  24
ATOM     24  C   UNL     1     -15.661   1.980 -15.432  1.00  0.00    -0.000 C 
BRANCH  24  25
ATOM     25  C   UNL     1     -15.395   2.937 -16.608  1.00  0.00    -0.000 C 
BRANCH  25  26
ATOM     26  C   UNL     1     -13.898   3.227 -16.819  1.00  0.00    -0.000 C 
BRANCH  26  27
ATOM     27  C   UNL     1     -13.363   2.911 -18.231  1.00  0.00    -0.000 C 
BRANCH  27  28
ATOM     28  C   UNL     1     -14.345   2.172 -19.158  1.00  0.00    -0.000 C 
BRANCH  28  29
ATOM     29  C   UNL     1     -14.101   0.655 -19.197  1.00  0.00    -0.000 C 
BRANCH  29  30
ATOM     30  C   UNL     1     -15.359  -0.144 -19.585  1.00  0.00    -0.000 C 
BRANCH  30  31
ATOM     31  C   UNL     1     -16.151  -0.727 -18.400  1.00  0.00    -0.003 C 
ATOM     32  C   UNL     1     -17.476  -1.366 -18.817  1.00  0.00     0.004 C 
ENDBRANCH  30  31
ENDBRANCH  29  30
ENDBRANCH  28  29
ENDBRANCH  27  28
ENDBRANCH  26  27
ENDBRANCH  25  26
ENDBRANCH  24  25
ENDBRANCH  23  24
ENDBRANCH  22  23
ENDBRANCH  21  22
ENDBRANCH  20  21
ENDBRANCH  19  20
ENDBRANCH  18  19
ENDBRANCH   1  18
TORSDOF 28
ENDMDL
MODEL 7
REMARK VINA RESULT:    -5.890      2.506      4.033
REMARK INTER + INTRA:         -19.530
REMARK INTER:                 -16.013
REMARK INTRA:                  -3.517
REMARK UNBOUND:                -3.998
REMARK SMILES CCCCCCCCCCCCCCCCCCCCCCCCCCCCCC(=O)[O-]
REMARK SMILES IDX 16 1 17 2 18 3 19 4 20 5 21 6 22 7 23 8 24 9 25 10 26 11
REMARK SMILES IDX 27 12 28 13 29 14 30 15 31 16 32 17 15 18 14 19 13 20 12 21
REMARK SMILES IDX 11 22 10 23 9 24 8 25 7 26 6 27 5 28 4 29 3 30 2 31 1 32
REMARK H PARENT
REMARK Flexibility Score: inf
ROOT
ATOM      1  C   UNL     1     -17.012  -0.073 -15.940  1.00  0.00     0.000 C 
ENDROOT
BRANCH   1   2
ATOM      2  C   UNL     1     -17.491   1.063 -16.862  1.00  0.00     0.000 C 
BRANCH   2   3
ATOM      3  C   UNL     1     -17.816   0.568 -18.286  1.00  0.00     0.000 C 
BRANCH   3   4
ATOM      4  C   UNL     1     -18.086  -0.943 -18.376  1.00  0.00     0.000 C 
BRANCH   4   5
ATOM      5  C   UNL     1     -16.924  -1.725 -19.005  1.00  0.00     0.000 C 
BRANCH   5   6
ATOM      6  C   UNL     1     -15.810  -0.815 -19.553  1.00  0.00     0.000 C 
BRANCH   6   7
ATOM      7  C   UNL     1     -14.514  -0.837 -18.715  1.00  0.00     0.000 C 
BRANCH   7   8
ATOM      8  C   UNL     1     -13.731   0.483 -18.808  1.00  0.00     0.000 C 
BRANCH   8   9
ATOM      9  C   UNL     1     -14.423   1.473 -19.752  1.00  0.00     0.000 C 
BRANCH   9  10
ATOM     10  C   UNL     1     -14.347   2.905 -19.200  1.00  0.00     0.000 C 
BRANCH  10  11
ATOM     11  C   UNL     1     -13.131   3.129 -18.288  1.00  0.00     0.000 C 
BRANCH  11  12
ATOM     12  C   UNL     1     -13.507   3.776 -16.944  1.00  0.00     0.000 C 
BRANCH  12  13
ATOM     13  C   UNL     1     -14.448   2.895 -16.106  1.00  0.00     0.006 C 
BRANCH  13  14
ATOM     14  C   UNL     1     -13.740   2.250 -14.905  1.00  0.00     0.053 C 
BRANCH  14  15
ATOM     15  C   UNL     1     -14.665   2.099 -13.735  1.00  0.00     0.041 C 
ATOM     16  O   UNL     1     -14.558   1.114 -12.956  1.00  0.00    -0.550 OA
ATOM     17  O   UNL     1     -15.697   3.012 -13.548  1.00  0.00    -0.550 OA
ENDBRANCH  14  15
ENDBRANCH  13  14
ENDBRANCH  12  13
ENDBRANCH  11  12
ENDBRANCH  10  11
ENDBRANCH   9  10
ENDBRANCH   8   9
ENDBRANCH   7   8
ENDBRANCH   6   7
ENDBRANCH   5   6
ENDBRANCH   4   5
ENDBRANCH   3   4
ENDBRANCH   2   3
ENDBRANCH   1   2
BRANCH   1  18
ATOM     18  C   UNL     1     -17.576   0.026 -14.509  1.00  0.00     0.000 C 
BRANCH  18  19
ATOM     19  C   UNL     1     -18.485  -1.140 -14.078  1.00  0.00     0.000 C 
BRANCH  19  20
ATOM     20  C   UNL     1     -19.410  -1.629 -15.206  1.00  0.00     0.000 C 
BRANCH  20  21
ATOM     21  C   UNL     1     -20.536  -0.632 -15.537  1.00  0.00     0.000 C 
BRANCH  21  22
ATOM     22  C   UNL     1     -21.894  -1.264 -15.894  1.00  0.00     0.000 C 
BRANCH  22  23
ATOM     23  C   UNL     1     -23.031  -0.232 -15.983  1.00  0.00     0.000 C 
BRANCH  23  24
ATOM     24  C   UNL     1     -22.514   1.214 -15.903  1.00  0.00    -0.000 C 
BRANCH  24  25
ATOM     25  C   UNL     1     -23.504   2.222 -16.513  1.00  0.00    -0.000 C 
BRANCH  25  26
ATOM     26  C   UNL     1     -24.688   1.544 -17.224  1.00  0.00    -0.000 C 
BRANCH  26  27
ATOM     27  C   UNL     1     -25.686   2.509 -17.898  1.00  0.00    -0.000 C 
BRANCH  27  28
ATOM     28  C   UNL     1     -25.476   4.001 -17.584  1.00  0.00    -0.000 C 
BRANCH  28  29
ATOM     29  C   UNL     1     -24.895   4.784 -18.773  1.00  0.00    -0.000 C 
BRANCH  29  30
ATOM     30  C   UNL     1     -25.602   6.133 -19.003  1.00  0.00    -0.000 C 
BRANCH  30  31
ATOM     31  C   UNL     1     -26.326   6.707 -17.771  1.00  0.00    -0.003 C 
ATOM     32  C   UNL     1     -26.765   8.161 -17.953  1.00  0.00     0.004 C 
ENDBRANCH  30  31
ENDBRANCH  29  30
ENDBRANCH  28  29
ENDBRANCH  27  28
ENDBRANCH  26  27
ENDBRANCH  25  26
ENDBRANCH  24  25
ENDBRANCH  23  24
ENDBRANCH  22  23
ENDBRANCH  21  22
ENDBRANCH  20  21
ENDBRANCH  19  20
ENDBRANCH  18  19
ENDBRANCH   1  18
TORSDOF 28
ENDMDL
MODEL 8
REMARK VINA RESULT:    -5.841      3.272      9.621
REMARK INTER + INTRA:         -19.399
REMARK INTER:                 -15.585
REMARK INTRA:                  -3.814
REMARK UNBOUND:                -3.998
REMARK SMILES CCCCCCCCCCCCCCCCCCCCCCCCCCCCCC(=O)[O-]
REMARK SMILES IDX 16 1 17 2 18 3 19 4 20 5 21 6 22 7 23 8 24 9 25 10 26 11
REMARK SMILES IDX 27 12 28 13 29 14 30 15 31 16 32 17 15 18 14 19 13 20 12 21
REMARK SMILES IDX 11 22 10 23 9 24 8 25 7 26 6 27 5 28 4 29 3 30 2 31 1 32
REMARK H PARENT
REMARK Flexibility Score: inf
ROOT
ATOM      1  C   UNL     1     -18.099   0.749 -11.928  1.00  0.00     0.000 C 
ENDROOT
BRANCH   1   2
ATOM      2  C   UNL     1     -17.669  -0.424 -12.827  1.00  0.00     0.000 C 
BRANCH   2   3
ATOM      3  C   UNL     1     -18.643  -0.654 -14.002  1.00  0.00     0.000 C 
BRANCH   3   4
ATOM      4  C   UNL     1     -18.221   0.040 -15.307  1.00  0.00     0.000 C 
BRANCH   4   5
ATOM      5  C   UNL     1     -19.296  -0.033 -16.401  1.00  0.00     0.000 C 
BRANCH   5   6
ATOM      6  C   UNL     1     -20.658  -0.524 -15.879  1.00  0.00     0.000 C 
BRANCH   6   7
ATOM      7  C   UNL     1     -21.763   0.553 -15.904  1.00  0.00     0.000 C 
BRANCH   7   8
ATOM      8  C   UNL     1     -23.175  -0.053 -15.967  1.00  0.00     0.000 C 
BRANCH   8   9
ATOM      9  C   UNL     1     -23.117  -1.567 -16.207  1.00  0.00     0.000 C 
BRANCH   9  10
ATOM     10  C   UNL     1     -24.047  -2.313 -15.238  1.00  0.00     0.000 C 
BRANCH  10  11
ATOM     11  C   UNL     1     -25.312  -1.513 -14.890  1.00  0.00     0.000 C 
BRANCH  11  12
ATOM     12  C   UNL     1     -26.537  -1.953 -15.710  1.00  0.00     0.000 C 
BRANCH  12  13
ATOM     13  C   UNL     1     -27.010  -0.871 -16.694  1.00  0.00     0.006 C 
BRANCH  13  14
ATOM     14  C   UNL     1     -26.280  -0.940 -18.044  1.00  0.00     0.053 C 
BRANCH  14  15
ATOM     15  C   UNL     1     -26.427  -2.289 -18.682  1.00  0.00     0.041 C 
ATOM     16  O   UNL     1     -25.431  -3.052 -18.803  1.00  0.00    -0.550 OA
ATOM     17  O   UNL     1     -27.653  -2.674 -19.211  1.00  0.00    -0.550 OA
ENDBRANCH  14  15
ENDBRANCH  13  14
ENDBRANCH  12  13
ENDBRANCH  11  12
ENDBRANCH  10  11
ENDBRANCH   9  10
ENDBRANCH   8   9
ENDBRANCH   7   8
ENDBRANCH   6   7
ENDBRANCH   5   6
ENDBRANCH   4   5
ENDBRANCH   3   4
ENDBRANCH   2   3
ENDBRANCH   1   2
BRANCH   1  18
ATOM     18  C   UNL     1     -17.018   1.166 -10.913  1.00  0.00     0.000 C 
BRANCH  18  19
ATOM     19  C   UNL     1     -15.630   1.458 -11.512  1.00  0.00     0.000 C 
BRANCH  19  20
ATOM     20  C   UNL     1     -15.508   2.884 -12.078  1.00  0.00     0.000 C 
BRANCH  20  21
ATOM     21  C   UNL     1     -15.496   2.923 -13.616  1.00  0.00     0.000 C 
BRANCH  21  22
ATOM     22  C   UNL     1     -14.544   1.920 -14.295  1.00  0.00     0.000 C 
BRANCH  22  23
ATOM     23  C   UNL     1     -14.987   1.542 -15.718  1.00  0.00     0.000 C 
BRANCH  23  24
ATOM     24  C   UNL     1     -15.602   2.733 -16.474  1.00  0.00    -0.000 C 
BRANCH  24  25
ATOM     25  C   UNL     1     -14.565   3.475 -17.336  1.00  0.00    -0.000 C 
BRANCH  25  26
ATOM     26  C   UNL     1     -13.736   2.531 -18.225  1.00  0.00    -0.000 C 
BRANCH  26  27
ATOM     27  C   UNL     1     -14.520   1.849 -19.364  1.00  0.00    -0.000 C 
BRANCH  27  28
ATOM     28  C   UNL     1     -14.058   0.425 -19.724  1.00  0.00    -0.000 C 
BRANCH  28  29
ATOM     29  C   UNL     1     -13.704  -0.417 -18.488  1.00  0.00    -0.000 C 
BRANCH  29  30
ATOM     30  C   UNL     1     -14.616  -1.646 -18.320  1.00  0.00    -0.000 C 
BRANCH  30  31
ATOM     31  C   UNL     1     -16.056  -1.332 -17.874  1.00  0.00    -0.003 C 
ATOM     32  C   UNL     1     -17.113  -1.808 -18.872  1.00  0.00     0.004 C 
ENDBRANCH  30  31
ENDBRANCH  29  30
ENDBRANCH  28  29
ENDBRANCH  27  28
ENDBRANCH  26  27
ENDBRANCH  25  26
ENDBRANCH  24  25
ENDBRANCH  23  24
ENDBRANCH  22  23
ENDBRANCH  21  22
ENDBRANCH  20  21
ENDBRANCH  19  20
ENDBRANCH  18  19
ENDBRANCH   1  18
TORSDOF 28
ENDMDL
MODEL 9
REMARK VINA RESULT:    -5.805      1.980      5.024
REMARK INTER + INTRA:         -19.305
REMARK INTER:                 -15.838
REMARK INTRA:                  -3.468
REMARK UNBOUND:                -3.998
REMARK SMILES CCCCCCCCCCCCCCCCCCCCCCCCCCCCCC(=O)[O-]
REMARK SMILES IDX 16 1 17 2 18 3 19 4 20 5 21 6 22 7 23 8 24 9 25 10 26 11
REMARK SMILES IDX 27 12 28 13 29 14 30 15 31 16 32 17 15 18 14 19 13 20 12 21
REMARK SMILES IDX 11 22 10 23 9 24 8 25 7 26 6 27 5 28 4 29 3 30 2 31 1 32
REMARK H PARENT
REMARK Flexibility Score: inf
ROOT
ATOM      1  C   UNL     1     -18.108  -0.535 -12.990  1.00  0.00     0.000 C 
ENDROOT
BRANCH   1   2
ATOM      2  C   UNL     1     -18.118   0.735 -12.120  1.00  0.00     0.000 C 
BRANCH   2   3
ATOM      3  C   UNL     1     -17.014   0.720 -11.043  1.00  0.00     0.000 C 
BRANCH   3   4
ATOM      4  C   UNL     1     -15.901   1.755 -11.275  1.00  0.00     0.000 C 
BRANCH   4   5
ATOM      5  C   UNL     1     -15.115   1.512 -12.571  1.00  0.00     0.000 C 
BRANCH   5   6
ATOM      6  C   UNL     1     -15.284   2.643 -13.601  1.00  0.00     0.000 C 
BRANCH   6   7
ATOM      7  C   UNL     1     -15.475   2.147 -15.050  1.00  0.00     0.000 C 
BRANCH   7   8
ATOM      8  C   UNL     1     -14.315   2.561 -15.972  1.00  0.00     0.000 C 
BRANCH   8   9
ATOM      9  C   UNL     1     -14.832   3.286 -17.220  1.00  0.00     0.000 C 
BRANCH   9  10
ATOM     10  C   UNL     1     -13.817   3.194 -18.370  1.00  0.00     0.000 C 
BRANCH  10  11
ATOM     11  C   UNL     1     -14.292   2.282 -19.512  1.00  0.00     0.000 C 
BRANCH  11  12
ATOM     12  C   UNL     1     -13.837   0.823 -19.336  1.00  0.00     0.000 C 
BRANCH  12  13
ATOM     13  C   UNL     1     -14.942  -0.188 -19.680  1.00  0.00     0.006 C 
BRANCH  13  14
ATOM     14  C   UNL     1     -16.351   0.407 -19.544  1.00  0.00     0.053 C 
BRANCH  14  15
ATOM     15  C   UNL     1     -16.864   0.294 -18.140  1.00  0.00     0.041 C 
ATOM     16  O   UNL     1     -16.436  -0.609 -17.372  1.00  0.00    -0.550 OA
ATOM     17  O   UNL     1     -17.874   1.144 -17.702  1.00  0.00    -0.550 OA
ENDBRANCH  14  15
ENDBRANCH  13  14
ENDBRANCH  12  13
ENDBRANCH  11  12
ENDBRANCH  10  11
ENDBRANCH   9  10
ENDBRANCH   8   9
ENDBRANCH   7   8
ENDBRANCH   6   7
ENDBRANCH   5   6
ENDBRANCH   4   5
ENDBRANCH   3   4
ENDBRANCH   2   3
ENDBRANCH   1   2
BRANCH   1  18
ATOM     18  C   UNL     1     -18.372  -0.253 -14.481  1.00  0.00     0.000 C 
BRANCH  18  19
ATOM     19  C   UNL     1     -19.086  -1.381 -15.249  1.00  0.00     0.000 C 
BRANCH  19  20
ATOM     20  C   UNL     1     -20.586  -1.111 -15.455  1.00  0.00     0.000 C 
BRANCH  20  21
ATOM     21  C   UNL     1     -20.885   0.340 -15.874  1.00  0.00     0.000 C 
BRANCH  21  22
ATOM     22  C   UNL     1     -22.376   0.684 -16.046  1.00  0.00     0.000 C 
BRANCH  22  23
ATOM     23  C   UNL     1     -22.640   2.198 -16.096  1.00  0.00     0.000 C 
BRANCH  23  24
ATOM     24  C   UNL     1     -24.013   2.532 -16.706  1.00  0.00    -0.000 C 
BRANCH  24  25
ATOM     25  C   UNL     1     -24.962   1.320 -16.704  1.00  0.00    -0.000 C 
BRANCH  25  26
ATOM     26  C   UNL     1     -25.807   1.221 -15.421  1.00  0.00    -0.000 C 
BRANCH  26  27
ATOM     27  C   UNL     1     -26.987   0.231 -15.490  1.00  0.00    -0.000 C 
BRANCH  27  28
ATOM     28  C   UNL     1     -27.056  -0.627 -16.766  1.00  0.00    -0.000 C 
BRANCH  28  29
ATOM     29  C   UNL     1     -26.476  -2.037 -16.570  1.00  0.00    -0.000 C 
BRANCH  29  30
ATOM     30  C   UNL     1     -25.245  -2.306 -17.455  1.00  0.00    -0.000 C 
BRANCH  30  31
ATOM     31  C   UNL     1     -23.932  -2.548 -16.688  1.00  0.00    -0.003 C 
ATOM     32  C   UNL     1     -24.123  -2.615 -15.172  1.00  0.00     0.004 C 
ENDBRANCH  30  31
ENDBRANCH  29  30
ENDBRANCH  28  29
ENDBRANCH  27  28
ENDBRANCH  26  27
ENDBRANCH  25  26
ENDBRANCH  24  25
ENDBRANCH  23  24
ENDBRANCH  22  23
ENDBRANCH  21  22
ENDBRANCH  20  21
ENDBRANCH  19  20
ENDBRANCH  18  19
ENDBRANCH   1  18
TORSDOF 28
ENDMDL
