MODEL 1
REMARK VINA RESULT:    -4.872      0.000      0.000
REMARK INTER + INTRA:          -5.547
REMARK INTER:                  -5.442
REMARK INTRA:                  -0.105
REMARK UNBOUND:                -0.105
REMARK SMILES CCc1ccc(O)cc1O
REMARK SMILES IDX 3 1 9 2 8 3 6 4 5 5 4 6 2 7 1 8 10 9 7 11
REMARK H PARENT 10 10 7 12
REMARK Flexibility Score: inf
ROOT
ATOM      1  C   UNL     1     -30.698 -19.742 -30.673  1.00  0.00    -0.006 A 
ATOM      2  C   UNL     1     -29.399 -19.197 -30.616  1.00  0.00     0.122 A 
ATOM      3  C   UNL     1     -28.680 -18.978 -31.800  1.00  0.00     0.092 A 
ATOM      4  C   UNL     1     -29.249 -19.285 -33.041  1.00  0.00     0.119 A 
ATOM      5  C   UNL     1     -30.544 -19.813 -33.100  1.00  0.00     0.047 A 
ATOM      6  C   UNL     1     -31.266 -20.034 -31.924  1.00  0.00     0.011 A 
ENDROOT
BRANCH   1   7
ATOM      7  C   UNL     1     -31.504 -19.959 -29.418  1.00  0.00     0.036 C 
ATOM      8  C   UNL     1     -32.615 -18.921 -29.301  1.00  0.00     0.009 C 
ENDBRANCH   1   7
BRANCH   2   9
ATOM      9  O   UNL     1     -28.827 -18.875 -29.385  1.00  0.00    -0.508 OA
ATOM     10  H   UNL     1     -28.004 -18.288 -29.319  1.00  0.00     0.293 HD
ENDBRANCH   2   9
BRANCH   4  11
ATOM     11  O   UNL     1     -28.519 -19.060 -34.205  1.00  0.00    -0.508 OA
ATOM     12  H   UNL     1     -27.601 -19.467 -34.341  1.00  0.00     0.293 HD
ENDBRANCH   4  11
TORSDOF 3
ENDMDL
MODEL 2
REMARK VINA RESULT:    -4.865      1.199      3.636
REMARK INTER + INTRA:          -5.539
REMARK INTER:                  -5.454
REMARK INTRA:                  -0.085
REMARK UNBOUND:                -0.105
REMARK SMILES CCc1ccc(O)cc1O
REMARK SMILES IDX 3 1 9 2 8 3 6 4 5 5 4 6 2 7 1 8 10 9 7 11
REMARK H PARENT 10 10 7 12
REMARK Flexibility Score: inf
ROOT
ATOM      1  C   UNL     1     -30.160 -20.477 -33.051  1.00  0.00    -0.006 A 
ATOM      2  C   UNL     1     -29.123 -19.521 -33.009  1.00  0.00     0.122 A 
ATOM      3  C   UNL     1     -28.711 -18.992 -31.777  1.00  0.00     0.092 A 
ATOM      4  C   UNL     1     -29.313 -19.414 -30.587  1.00  0.00     0.119 A 
ATOM      5  C   UNL     1     -30.333 -20.373 -30.627  1.00  0.00     0.047 A 
ATOM      6  C   UNL     1     -30.749 -20.905 -31.849  1.00  0.00     0.011 A 
ENDROOT
BRANCH   1   7
ATOM      7  C   UNL     1     -30.602 -21.085 -34.358  1.00  0.00     0.036 C 
ATOM      8  C   UNL     1     -31.891 -21.879 -34.177  1.00  0.00     0.009 C 
ENDBRANCH   1   7
BRANCH   2   9
ATOM      9  O   UNL     1     -28.507 -19.103 -34.188  1.00  0.00    -0.508 OA
ATOM     10  H   UNL     1     -28.966 -18.468 -34.830  1.00  0.00     0.293 HD
ENDBRANCH   2   9
BRANCH   4  11
ATOM     11  O   UNL     1     -28.889 -18.876 -29.375  1.00  0.00    -0.508 OA
ATOM     12  H   UNL     1     -29.329 -18.054 -28.978  1.00  0.00     0.293 HD
ENDBRANCH   4  11
TORSDOF 3
ENDMDL
MODEL 3
REMARK VINA RESULT:    -4.114      1.591      2.273
REMARK INTER + INTRA:          -4.700
REMARK INTER:                  -4.603
REMARK INTRA:                  -0.097
REMARK UNBOUND:                -0.105
REMARK SMILES CCc1ccc(O)cc1O
REMARK SMILES IDX 3 1 9 2 8 3 6 4 5 5 4 6 2 7 1 8 10 9 7 11
REMARK H PARENT 10 10 7 12
REMARK Flexibility Score: inf
ROOT
ATOM      1  C   UNL     1     -30.350 -19.943 -30.856  1.00  0.00    -0.006 A 
ATOM      2  C   UNL     1     -30.419 -20.305 -32.217  1.00  0.00     0.122 A 
ATOM      3  C   UNL     1     -29.383 -19.940 -33.090  1.00  0.00     0.092 A 
ATOM      4  C   UNL     1     -28.276 -19.228 -32.618  1.00  0.00     0.119 A 
ATOM      5  C   UNL     1     -28.200 -18.880 -31.264  1.00  0.00     0.047 A 
ATOM      6  C   UNL     1     -29.227 -19.240 -30.388  1.00  0.00     0.011 A 
ENDROOT
BRANCH   1   7
ATOM      7  C   UNL     1     -31.434 -20.349 -29.890  1.00  0.00     0.036 C 
ATOM      8  C   UNL     1     -32.186 -19.126 -29.375  1.00  0.00     0.009 C 
ENDBRANCH   1   7
BRANCH   2   9
ATOM      9  O   UNL     1     -31.512 -21.026 -32.696  1.00  0.00    -0.508 OA
ATOM     10  H   UNL     1     -31.411 -21.721 -33.427  1.00  0.00     0.293 HD
ENDBRANCH   2   9
BRANCH   4  11
ATOM     11  O   UNL     1     -27.259 -18.875 -33.501  1.00  0.00    -0.508 OA
ATOM     12  H   UNL     1     -27.333 -18.057 -34.093  1.00  0.00     0.293 HD
ENDBRANCH   4  11
TORSDOF 3
ENDMDL
MODEL 4
REMARK VINA RESULT:    -3.993      2.235      3.532
REMARK INTER + INTRA:          -4.564
REMARK INTER:                  -4.479
REMARK INTRA:                  -0.085
REMARK UNBOUND:                -0.105
REMARK SMILES CCc1ccc(O)cc1O
REMARK SMILES IDX 3 1 9 2 8 3 6 4 5 5 4 6 2 7 1 8 10 9 7 11
REMARK H PARENT 10 10 7 12
REMARK Flexibility Score: inf
ROOT
ATOM      1  C   UNL     1     -29.534 -19.875 -32.222  1.00  0.00    -0.006 A 
ATOM      2  C   UNL     1     -29.604 -20.013 -33.624  1.00  0.00     0.122 A 
ATOM      3  C   UNL     1     -30.501 -20.930 -34.191  1.00  0.00     0.092 A 
ATOM      4  C   UNL     1     -31.335 -21.702 -33.377  1.00  0.00     0.119 A 
ATOM      5  C   UNL     1     -31.276 -21.557 -31.985  1.00  0.00     0.047 A 
ATOM      6  C   UNL     1     -30.386 -20.645 -31.413  1.00  0.00     0.011 A 
ENDROOT
BRANCH   1   7
ATOM      7  C   UNL     1     -28.602 -18.875 -31.586  1.00  0.00     0.036 C 
ATOM      8  C   UNL     1     -28.754 -18.881 -30.069  1.00  0.00     0.009 C 
ENDBRANCH   1   7
BRANCH   2   9
ATOM      9  O   UNL     1     -28.786 -19.238 -34.446  1.00  0.00    -0.508 OA
ATOM     10  H   UNL     1     -27.912 -18.850 -34.111  1.00  0.00     0.293 HD
ENDBRANCH   2   9
BRANCH   4  11
ATOM     11  O   UNL     1     -32.218 -22.608 -33.960  1.00  0.00    -0.508 OA
ATOM     12  H   UNL     1     -32.926 -22.306 -34.619  1.00  0.00     0.293 HD
ENDBRANCH   4  11
TORSDOF 3
ENDMDL
MODEL 5
REMARK VINA RESULT:    -3.885      1.816      3.625
REMARK INTER + INTRA:          -4.444
REMARK INTER:                  -4.359
REMARK INTRA:                  -0.085
REMARK UNBOUND:                -0.105
REMARK SMILES CCc1ccc(O)cc1O
REMARK SMILES IDX 3 1 9 2 8 3 6 4 5 5 4 6 2 7 1 8 10 9 7 11
REMARK H PARENT 10 10 7 12
REMARK Flexibility Score: inf
ROOT
ATOM      1  C   UNL     1     -29.610 -19.227 -31.591  1.00  0.00    -0.006 A 
ATOM      2  C   UNL     1     -29.852 -19.007 -30.218  1.00  0.00     0.122 A 
ATOM      3  C   UNL     1     -31.169 -18.892 -29.751  1.00  0.00     0.092 A 
ATOM      4  C   UNL     1     -32.247 -19.006 -30.634  1.00  0.00     0.119 A 
ATOM      5  C   UNL     1     -32.009 -19.238 -31.995  1.00  0.00     0.047 A 
ATOM      6  C   UNL     1     -30.700 -19.354 -32.468  1.00  0.00     0.011 A 
ENDROOT
BRANCH   1   7
ATOM      7  C   UNL     1     -28.205 -19.385 -32.115  1.00  0.00     0.036 C 
ATOM      8  C   UNL     1     -28.102 -18.875 -33.549  1.00  0.00     0.009 C 
ENDBRANCH   1   7
BRANCH   2   9
ATOM      9  O   UNL     1     -28.784 -18.906 -29.326  1.00  0.00    -0.508 OA
ATOM     10  H   UNL     1     -28.014 -19.563 -29.344  1.00  0.00     0.293 HD
ENDBRANCH   2   9
BRANCH   4  11
ATOM     11  O   UNL     1     -33.547 -18.889 -30.150  1.00  0.00    -0.508 OA
ATOM     12  H   UNL     1     -33.975 -19.625 -29.601  1.00  0.00     0.293 HD
ENDBRANCH   4  11
TORSDOF 3
ENDMDL
MODEL 6
REMARK VINA RESULT:    -3.764      2.212      4.331
REMARK INTER + INTRA:          -4.308
REMARK INTER:                  -4.239
REMARK INTRA:                  -0.069
REMARK UNBOUND:                -0.105
REMARK SMILES CCc1ccc(O)cc1O
REMARK SMILES IDX 3 1 9 2 8 3 6 4 5 5 4 6 2 7 1 8 10 9 7 11
REMARK H PARENT 10 10 7 12
REMARK Flexibility Score: inf
ROOT
ATOM      1  C   UNL     1     -31.119 -20.549 -32.821  1.00  0.00    -0.006 A 
ATOM      2  C   UNL     1     -31.984 -19.444 -32.677  1.00  0.00     0.122 A 
ATOM      3  C   UNL     1     -32.237 -18.916 -31.402  1.00  0.00     0.092 A 
ATOM      4  C   UNL     1     -31.627 -19.470 -30.272  1.00  0.00     0.119 A 
ATOM      5  C   UNL     1     -30.757 -20.558 -30.415  1.00  0.00     0.047 A 
ATOM      6  C   UNL     1     -30.501 -21.090 -31.681  1.00  0.00     0.011 A 
ENDROOT
BRANCH   1   7
ATOM      7  C   UNL     1     -30.806 -21.117 -34.182  1.00  0.00     0.036 C 
ATOM      8  C   UNL     1     -31.879 -22.110 -34.613  1.00  0.00     0.009 C 
ENDBRANCH   1   7
BRANCH   2   9
ATOM      9  O   UNL     1     -32.587 -18.875 -33.798  1.00  0.00    -0.508 OA
ATOM     10  H   UNL     1     -32.178 -18.080 -34.275  1.00  0.00     0.293 HD
ENDBRANCH   2   9
BRANCH   4  11
ATOM     11  O   UNL     1     -31.891 -18.931 -29.015  1.00  0.00    -0.508 OA
ATOM     12  H   UNL     1     -31.808 -17.937 -28.838  1.00  0.00     0.293 HD
ENDBRANCH   4  11
TORSDOF 3
ENDMDL
MODEL 7
REMARK VINA RESULT:    -3.556      6.922      8.144
REMARK INTER + INTRA:          -4.077
REMARK INTER:                  -3.983
REMARK INTRA:                  -0.093
REMARK UNBOUND:                -0.105
REMARK SMILES CCc1ccc(O)cc1O
REMARK SMILES IDX 3 1 9 2 8 3 6 4 5 5 4 6 2 7 1 8 10 9 7 11
REMARK H PARENT 10 10 7 12
REMARK Flexibility Score: inf
ROOT
ATOM      1  C   UNL     1     -32.264 -23.360 -37.738  1.00  0.00    -0.006 A 
ATOM      2  C   UNL     1     -32.845 -22.733 -36.616  1.00  0.00     0.122 A 
ATOM      3  C   UNL     1     -33.357 -21.432 -36.730  1.00  0.00     0.092 A 
ATOM      4  C   UNL     1     -33.307 -20.756 -37.953  1.00  0.00     0.119 A 
ATOM      5  C   UNL     1     -32.744 -21.383 -39.072  1.00  0.00     0.047 A 
ATOM      6  C   UNL     1     -32.232 -22.678 -38.966  1.00  0.00     0.011 A 
ENDROOT
BRANCH   1   7
ATOM      7  C   UNL     1     -31.734 -24.769 -37.651  1.00  0.00     0.036 C 
ATOM      8  C   UNL     1     -32.325 -25.639 -38.755  1.00  0.00     0.009 C 
ENDBRANCH   1   7
BRANCH   2   9
ATOM      9  O   UNL     1     -32.911 -23.403 -35.395  1.00  0.00    -0.508 OA
ATOM     10  H   UNL     1     -33.421 -24.273 -35.293  1.00  0.00     0.293 HD
ENDBRANCH   2   9
BRANCH   4  11
ATOM     11  O   UNL     1     -33.822 -19.465 -38.046  1.00  0.00    -0.508 OA
ATOM     12  H   UNL     1     -34.819 -19.297 -38.111  1.00  0.00     0.293 HD
ENDBRANCH   4  11
TORSDOF 3
ENDMDL
