MODEL 1
REMARK VINA RESULT:    -3.523      0.000      0.000
REMARK INTER + INTRA:          -5.195
REMARK INTER:                  -4.759
REMARK INTRA:                  -0.436
REMARK UNBOUND:                -0.436
REMARK SMILES CCCCCCC=CC(=O)[O-]
REMARK SMILES IDX 5 1 6 2 7 3 8 4 9 5 10 6 11 7 4 8 3 9 2 10 1 11
REMARK H PARENT
REMARK Flexibility Score: inf
ROOT
ATOM      1  C   UNL     1      58.121  29.320  50.040  1.00  0.00     0.004 C 
ENDROOT
BRANCH   1   2
ATOM      2  C   UNL     1      59.234  28.619  49.247  1.00  0.00     0.027 C 
BRANCH   2   3
ATOM      3  C   UNL     1      59.353  27.161  49.591  1.00  0.00    -0.025 C 
ATOM      4  C   UNL     1      60.536  26.603  49.873  1.00  0.00     0.020 C 
BRANCH   4   5
ATOM      5  C   UNL     1      60.675  25.177  50.207  1.00  0.00     0.064 C 
ATOM      6  O   UNL     1      59.664  24.456  50.419  1.00  0.00    -0.545 OA
ATOM      7  O   UNL     1      61.941  24.616  50.292  1.00  0.00    -0.545 OA
ENDBRANCH   4   5
ENDBRANCH   2   3
ENDBRANCH   1   2
BRANCH   1   8
ATOM      8  C   UNL     1      57.190  28.318  50.740  1.00  0.00     0.000 C 
BRANCH   8   9
ATOM      9  C   UNL     1      55.736  28.813  50.718  1.00  0.00    -0.000 C 
BRANCH   9  10
ATOM     10  C   UNL     1      54.764  27.764  50.158  1.00  0.00    -0.003 C 
ATOM     11  C   UNL     1      55.434  26.413  49.902  1.00  0.00     0.004 C 
ENDBRANCH   9  10
ENDBRANCH   8   9
ENDBRANCH   1   8
TORSDOF 6
ENDMDL
MODEL 2
REMARK VINA RESULT:    -3.453      1.023      1.479
REMARK INTER + INTRA:          -5.100
REMARK INTER:                  -4.750
REMARK INTRA:                  -0.349
REMARK UNBOUND:                -0.436
REMARK SMILES CCCCCCC=CC(=O)[O-]
REMARK SMILES IDX 5 1 6 2 7 3 8 4 9 5 10 6 11 7 4 8 3 9 2 10 1 11
REMARK H PARENT
REMARK Flexibility Score: inf
ROOT
ATOM      1  C   UNL     1      57.792  29.160  50.892  1.00  0.00     0.004 C 
ENDROOT
BRANCH   1   2
ATOM      2  C   UNL     1      58.557  29.331  49.570  1.00  0.00     0.027 C 
BRANCH   2   3
ATOM      3  C   UNL     1      59.517  28.203  49.312  1.00  0.00    -0.025 C 
ATOM      4  C   UNL     1      59.912  27.383  50.292  1.00  0.00     0.020 C 
BRANCH   4   5
ATOM      5  C   UNL     1      60.855  26.277  50.062  1.00  0.00     0.064 C 
ATOM      6  O   UNL     1      62.095  26.482  49.986  1.00  0.00    -0.545 OA
ATOM      7  O   UNL     1      60.368  24.984  49.925  1.00  0.00    -0.545 OA
ENDBRANCH   4   5
ENDBRANCH   2   3
ENDBRANCH   1   2
BRANCH   1   8
ATOM      8  C   UNL     1      56.287  28.951  50.666  1.00  0.00     0.000 C 
BRANCH   8   9
ATOM      9  C   UNL     1      55.981  27.482  50.339  1.00  0.00    -0.000 C 
BRANCH   9  10
ATOM     10  C   UNL     1      54.537  27.273  49.856  1.00  0.00    -0.003 C 
ATOM     11  C   UNL     1      54.313  25.891  49.242  1.00  0.00     0.004 C 
ENDBRANCH   9  10
ENDBRANCH   8   9
ENDBRANCH   1   8
TORSDOF 6
ENDMDL
MODEL 3
REMARK VINA RESULT:    -3.432      3.262      5.308
REMARK INTER + INTRA:          -5.072
REMARK INTER:                  -4.722
REMARK INTRA:                  -0.350
REMARK UNBOUND:                -0.436
REMARK SMILES CCCCCCC=CC(=O)[O-]
REMARK SMILES IDX 5 1 6 2 7 3 8 4 9 5 10 6 11 7 4 8 3 9 2 10 1 11
REMARK H PARENT
REMARK Flexibility Score: inf
ROOT
ATOM      1  C   UNL     1      57.821  29.239  50.448  1.00  0.00     0.004 C 
ENDROOT
BRANCH   1   2
ATOM      2  C   UNL     1      57.350  27.799  50.702  1.00  0.00     0.027 C 
BRANCH   2   3
ATOM      3  C   UNL     1      55.932  27.572  50.257  1.00  0.00    -0.025 C 
ATOM      4  C   UNL     1      55.470  26.346  49.989  1.00  0.00     0.020 C 
BRANCH   4   5
ATOM      5  C   UNL     1      54.088  26.103  49.548  1.00  0.00     0.064 C 
ATOM      6  O   UNL     1      53.325  27.057  49.238  1.00  0.00    -0.545 OA
ATOM      7  O   UNL     1      53.614  24.801  49.473  1.00  0.00    -0.545 OA
ENDBRANCH   4   5
ENDBRANCH   2   3
ENDBRANCH   1   2
BRANCH   1   8
ATOM      8  C   UNL     1      58.908  29.309  49.365  1.00  0.00     0.000 C 
BRANCH   8   9
ATOM      9  C   UNL     1      59.621  27.957  49.216  1.00  0.00    -0.000 C 
BRANCH   9  10
ATOM     10  C   UNL     1      61.080  28.003  49.694  1.00  0.00    -0.003 C 
ATOM     11  C   UNL     1      61.600  26.635  50.139  1.00  0.00     0.004 C 
ENDBRANCH   9  10
ENDBRANCH   8   9
ENDBRANCH   1   8
TORSDOF 6
ENDMDL
MODEL 4
REMARK VINA RESULT:    -3.406     12.274     13.117
REMARK INTER + INTRA:          -5.036
REMARK INTER:                  -4.713
REMARK INTRA:                  -0.323
REMARK UNBOUND:                -0.436
REMARK SMILES CCCCCCC=CC(=O)[O-]
REMARK SMILES IDX 5 1 6 2 7 3 8 4 9 5 10 6 11 7 4 8 3 9 2 10 1 11
REMARK H PARENT
REMARK Flexibility Score: inf
ROOT
ATOM      1  C   UNL     1      62.127  32.862  60.310  1.00  0.00     0.004 C 
ENDROOT
BRANCH   1   2
ATOM      2  C   UNL     1      61.143  31.913  61.012  1.00  0.00     0.027 C 
BRANCH   2   3
ATOM      3  C   UNL     1      61.758  30.577  61.323  1.00  0.00    -0.025 C 
ATOM      4  C   UNL     1      62.809  30.114  60.638  1.00  0.00     0.020 C 
BRANCH   4   5
ATOM      5  C   UNL     1      63.422  28.807  60.924  1.00  0.00     0.064 C 
ATOM      6  O   UNL     1      64.650  28.607  60.728  1.00  0.00    -0.545 OA
ATOM      7  O   UNL     1      62.634  27.777  61.416  1.00  0.00    -0.545 OA
ENDBRANCH   4   5
ENDBRANCH   2   3
ENDBRANCH   1   2
BRANCH   1   8
ATOM      8  C   UNL     1      61.552  34.278  60.151  1.00  0.00     0.000 C 
BRANCH   8   9
ATOM      9  C   UNL     1      62.490  35.323  60.773  1.00  0.00    -0.000 C 
BRANCH   9  10
ATOM     10  C   UNL     1      63.905  34.776  61.016  1.00  0.00    -0.003 C 
ATOM     11  C   UNL     1      64.786  35.746  61.804  1.00  0.00     0.004 C 
ENDBRANCH   9  10
ENDBRANCH   8   9
ENDBRANCH   1   8
TORSDOF 6
ENDMDL
MODEL 5
REMARK VINA RESULT:    -3.358     12.034     12.843
REMARK INTER + INTRA:          -4.972
REMARK INTER:                  -4.461
REMARK INTRA:                  -0.511
REMARK UNBOUND:                -0.436
REMARK SMILES CCCCCCC=CC(=O)[O-]
REMARK SMILES IDX 5 1 6 2 7 3 8 4 9 5 10 6 11 7 4 8 3 9 2 10 1 11
REMARK H PARENT
REMARK Flexibility Score: inf
ROOT
ATOM      1  C   UNL     1      61.110  31.877  60.253  1.00  0.00     0.004 C 
ENDROOT
BRANCH   1   2
ATOM      2  C   UNL     1      61.066  31.064  61.555  1.00  0.00     0.027 C 
BRANCH   2   3
ATOM      3  C   UNL     1      62.126  29.999  61.603  1.00  0.00    -0.025 C 
ATOM      4  C   UNL     1      63.139  29.979  60.729  1.00  0.00     0.020 C 
BRANCH   4   5
ATOM      5  C   UNL     1      64.182  28.943  60.755  1.00  0.00     0.064 C 
ATOM      6  O   UNL     1      63.886  27.720  60.814  1.00  0.00    -0.545 OA
ATOM      7  O   UNL     1      65.518  29.319  60.716  1.00  0.00    -0.545 OA
ENDBRANCH   4   5
ENDBRANCH   2   3
ENDBRANCH   1   2
BRANCH   1   8
ATOM      8  C   UNL     1      61.437  33.357  60.505  1.00  0.00     0.000 C 
BRANCH   8   9
ATOM      9  C   UNL     1      62.808  33.723  59.918  1.00  0.00    -0.000 C 
BRANCH   9  10
ATOM     10  C   UNL     1      63.938  33.628  60.956  1.00  0.00    -0.003 C 
ATOM     11  C   UNL     1      64.443  35.000  61.407  1.00  0.00     0.004 C 
ENDBRANCH   9  10
ENDBRANCH   8   9
ENDBRANCH   1   8
TORSDOF 6
ENDMDL
MODEL 6
REMARK VINA RESULT:    -3.311      3.171      5.149
REMARK INTER + INTRA:          -4.909
REMARK INTER:                  -4.250
REMARK INTRA:                  -0.659
REMARK UNBOUND:                -0.436
REMARK SMILES CCCCCCC=CC(=O)[O-]
REMARK SMILES IDX 5 1 6 2 7 3 8 4 9 5 10 6 11 7 4 8 3 9 2 10 1 11
REMARK H PARENT
REMARK Flexibility Score: inf
ROOT
ATOM      1  C   UNL     1      58.981  25.705  50.947  1.00  0.00     0.004 C 
ENDROOT
BRANCH   1   2
ATOM      2  C   UNL     1      57.652  26.139  51.586  1.00  0.00     0.027 C 
BRANCH   2   3
ATOM      3  C   UNL     1      56.489  25.994  50.645  1.00  0.00    -0.025 C 
ATOM      4  C   UNL     1      55.555  26.946  50.537  1.00  0.00     0.020 C 
BRANCH   4   5
ATOM      5  C   UNL     1      54.406  26.822  49.626  1.00  0.00     0.064 C 
ATOM      6  O   UNL     1      54.217  25.773  48.953  1.00  0.00    -0.545 OA
ATOM      7  O   UNL     1      53.515  27.879  49.503  1.00  0.00    -0.545 OA
ENDBRANCH   4   5
ENDBRANCH   2   3
ENDBRANCH   1   2
BRANCH   1   8
ATOM      8  C   UNL     1      59.188  26.334  49.561  1.00  0.00     0.000 C 
BRANCH   8   9
ATOM      9  C   UNL     1      59.966  27.654  49.668  1.00  0.00    -0.000 C 
BRANCH   9  10
ATOM     10  C   UNL     1      59.153  28.860  49.174  1.00  0.00    -0.003 C 
ATOM     11  C   UNL     1      58.280  29.474  50.269  1.00  0.00     0.004 C 
ENDBRANCH   9  10
ENDBRANCH   8   9
ENDBRANCH   1   8
TORSDOF 6
ENDMDL
MODEL 7
REMARK VINA RESULT:    -3.229     12.508     13.385
REMARK INTER + INTRA:          -4.797
REMARK INTER:                  -4.150
REMARK INTRA:                  -0.648
REMARK UNBOUND:                -0.436
REMARK SMILES CCCCCCC=CC(=O)[O-]
REMARK SMILES IDX 5 1 6 2 7 3 8 4 9 5 10 6 11 7 4 8 3 9 2 10 1 11
REMARK H PARENT
REMARK Flexibility Score: inf
ROOT
ATOM      1  C   UNL     1      62.173  34.239  58.897  1.00  0.00     0.004 C 
ENDROOT
BRANCH   1   2
ATOM      2  C   UNL     1      61.140  33.841  59.962  1.00  0.00     0.027 C 
BRANCH   2   3
ATOM      3  C   UNL     1      61.450  32.511  60.592  1.00  0.00    -0.025 C 
ATOM      4  C   UNL     1      62.675  31.977  60.534  1.00  0.00     0.020 C 
BRANCH   4   5
ATOM      5  C   UNL     1      62.997  30.676  61.140  1.00  0.00     0.064 C 
ATOM      6  O   UNL     1      62.129  30.020  61.775  1.00  0.00    -0.545 OA
ATOM      7  O   UNL     1      64.280  30.162  61.010  1.00  0.00    -0.545 OA
ENDBRANCH   4   5
ENDBRANCH   2   3
ENDBRANCH   1   2
BRANCH   1   8
ATOM      8  C   UNL     1      62.820  35.599  59.198  1.00  0.00     0.000 C 
BRANCH   8   9
ATOM      9  C   UNL     1      62.430  36.093  60.599  1.00  0.00    -0.000 C 
BRANCH   9  10
ATOM     10  C   UNL     1      63.651  36.418  61.473  1.00  0.00    -0.003 C 
ATOM     11  C   UNL     1      64.625  35.244  61.588  1.00  0.00     0.004 C 
ENDBRANCH   9  10
ENDBRANCH   8   9
ENDBRANCH   1   8
TORSDOF 6
ENDMDL
MODEL 8
REMARK VINA RESULT:    -3.146      2.086      2.736
REMARK INTER + INTRA:          -4.685
REMARK INTER:                  -4.383
REMARK INTRA:                  -0.303
REMARK UNBOUND:                -0.436
REMARK SMILES CCCCCCC=CC(=O)[O-]
REMARK SMILES IDX 5 1 6 2 7 3 8 4 9 5 10 6 11 7 4 8 3 9 2 10 1 11
REMARK H PARENT
REMARK Flexibility Score: inf
ROOT
ATOM      1  C   UNL     1      57.079  26.488  50.331  1.00  0.00     0.004 C 
ENDROOT
BRANCH   1   2
ATOM      2  C   UNL     1      58.474  25.944  49.986  1.00  0.00     0.027 C 
BRANCH   2   3
ATOM      3  C   UNL     1      59.441  27.036  49.620  1.00  0.00    -0.025 C 
ATOM      4  C   UNL     1      60.710  27.017  50.044  1.00  0.00     0.020 C 
BRANCH   4   5
ATOM      5  C   UNL     1      61.670  28.077  49.701  1.00  0.00     0.064 C 
ATOM      6  O   UNL     1      62.713  27.824  49.041  1.00  0.00    -0.545 OA
ATOM      7  O   UNL     1      61.425  29.380  50.113  1.00  0.00    -0.545 OA
ENDBRANCH   4   5
ENDBRANCH   2   3
ENDBRANCH   1   2
BRANCH   1   8
ATOM      8  C   UNL     1      57.046  28.023  50.352  1.00  0.00     0.000 C 
BRANCH   8   9
ATOM      9  C   UNL     1      55.632  28.536  50.663  1.00  0.00    -0.000 C 
BRANCH   9  10
ATOM     10  C   UNL     1      54.536  27.684  50.004  1.00  0.00    -0.003 C 
ATOM     11  C   UNL     1      53.190  28.404  49.932  1.00  0.00     0.004 C 
ENDBRANCH   9  10
ENDBRANCH   8   9
ENDBRANCH   1   8
TORSDOF 6
ENDMDL
