MODEL 1
REMARK VINA RESULT:    -4.512      0.000      0.000
REMARK INTER + INTRA:          -6.012
REMARK INTER:                  -5.831
REMARK INTRA:                  -0.182
REMARK UNBOUND:                -0.182
REMARK SMILES CCCCCCC(=O)[O-]
REMARK SMILES IDX 5 1 6 2 7 3 8 4 9 5 4 6 3 7 2 8 1 9
REMARK H PARENT
REMARK Flexibility Score: inf
ROOT
ATOM      1  C   UNL     1       6.869  33.332  35.138  1.00  0.00     0.006 C 
ENDROOT
BRANCH   1   2
ATOM      2  C   UNL     1       6.930  32.232  34.072  1.00  0.00     0.053 C 
BRANCH   2   3
ATOM      3  C   UNL     1       5.919  32.453  32.988  1.00  0.00     0.041 C 
ATOM      4  O   UNL     1       4.695  32.260  33.213  1.00  0.00    -0.550 OA
ATOM      5  O   UNL     1       6.326  32.906  31.740  1.00  0.00    -0.550 OA
ENDBRANCH   2   3
ENDBRANCH   1   2
BRANCH   1   6
ATOM      6  C   UNL     1       7.929  33.134  36.238  1.00  0.00     0.000 C 
BRANCH   6   7
ATOM      7  C   UNL     1       7.427  33.561  37.625  1.00  0.00    -0.000 C 
BRANCH   7   8
ATOM      8  C   UNL     1       7.408  32.399  38.630  1.00  0.00    -0.003 C 
ATOM      9  C   UNL     1       7.473  31.053  37.913  1.00  0.00     0.004 C 
ENDBRANCH   7   8
ENDBRANCH   6   7
ENDBRANCH   1   6
TORSDOF 5
ENDMDL
MODEL 2
REMARK VINA RESULT:    -3.932     17.744     18.882
REMARK INTER + INTRA:          -5.262
REMARK INTER:                  -4.971
REMARK INTRA:                  -0.291
REMARK UNBOUND:                -0.182
REMARK SMILES CCCCCCC(=O)[O-]
REMARK SMILES IDX 5 1 6 2 7 3 8 4 9 5 4 6 3 7 2 8 1 9
REMARK H PARENT
REMARK Flexibility Score: inf
ROOT
ATOM      1  C   UNL     1      21.125  19.750  35.651  1.00  0.00     0.006 C 
ENDROOT
BRANCH   1   2
ATOM      2  C   UNL     1      20.849  19.173  37.045  1.00  0.00     0.053 C 
BRANCH   2   3
ATOM      3  C   UNL     1      20.259  20.198  37.964  1.00  0.00     0.041 C 
ATOM      4  O   UNL     1      21.004  21.024  38.555  1.00  0.00    -0.550 OA
ATOM      5  O   UNL     1      18.883  20.263  38.140  1.00  0.00    -0.550 OA
ENDBRANCH   2   3
ENDBRANCH   1   2
BRANCH   1   6
ATOM      6  C   UNL     1      20.799  18.746  34.531  1.00  0.00     0.000 C 
BRANCH   6   7
ATOM      7  C   UNL     1      19.818  19.314  33.495  1.00  0.00    -0.000 C 
BRANCH   7   8
ATOM      8  C   UNL     1      18.878  20.374  34.090  1.00  0.00    -0.003 C 
ATOM      9  C   UNL     1      17.635  19.728  34.696  1.00  0.00     0.004 C 
ENDBRANCH   7   8
ENDBRANCH   6   7
ENDBRANCH   1   6
TORSDOF 5
ENDMDL
MODEL 3
REMARK VINA RESULT:    -3.873     17.585     18.598
REMARK INTER + INTRA:          -5.186
REMARK INTER:                  -5.034
REMARK INTRA:                  -0.152
REMARK UNBOUND:                -0.182
REMARK SMILES CCCCCCC(=O)[O-]
REMARK SMILES IDX 5 1 6 2 7 3 8 4 9 5 4 6 3 7 2 8 1 9
REMARK H PARENT
REMARK Flexibility Score: inf
ROOT
ATOM      1  C   UNL     1      17.056  17.275  35.757  1.00  0.00     0.006 C 
ENDROOT
BRANCH   1   2
ATOM      2  C   UNL     1      16.832  16.133  36.755  1.00  0.00     0.053 C 
BRANCH   2   3
ATOM      3  C   UNL     1      15.416  16.091  37.242  1.00  0.00     0.041 C 
ATOM      4  O   UNL     1      15.038  16.863  38.162  1.00  0.00    -0.550 OA
ATOM      5  O   UNL     1      14.504  15.223  36.653  1.00  0.00    -0.550 OA
ENDBRANCH   2   3
ENDBRANCH   1   2
BRANCH   1   6
ATOM      6  C   UNL     1      17.746  18.488  36.408  1.00  0.00     0.000 C 
BRANCH   6   7
ATOM      7  C   UNL     1      18.001  19.628  35.411  1.00  0.00    -0.000 C 
BRANCH   7   8
ATOM      8  C   UNL     1      19.445  20.148  35.466  1.00  0.00    -0.003 C 
ATOM      9  C   UNL     1      20.319  19.455  34.424  1.00  0.00     0.004 C 
ENDBRANCH   7   8
ENDBRANCH   6   7
ENDBRANCH   1   6
TORSDOF 5
ENDMDL
MODEL 4
REMARK VINA RESULT:    -3.855     17.612     18.466
REMARK INTER + INTRA:          -5.163
REMARK INTER:                  -4.930
REMARK INTRA:                  -0.233
REMARK UNBOUND:                -0.182
REMARK SMILES CCCCCCC(=O)[O-]
REMARK SMILES IDX 5 1 6 2 7 3 8 4 9 5 4 6 3 7 2 8 1 9
REMARK H PARENT
REMARK Flexibility Score: inf
ROOT
ATOM      1  C   UNL     1      17.563  18.976  36.751  1.00  0.00     0.006 C 
ENDROOT
BRANCH   1   2
ATOM      2  C   UNL     1      17.510  17.480  36.418  1.00  0.00     0.053 C 
BRANCH   2   3
ATOM      3  C   UNL     1      16.189  16.876  36.784  1.00  0.00     0.041 C 
ATOM      4  O   UNL     1      15.684  17.092  37.917  1.00  0.00    -0.550 OA
ATOM      5  O   UNL     1      15.498  16.103  35.859  1.00  0.00    -0.550 OA
ENDBRANCH   2   3
ENDBRANCH   1   2
BRANCH   1   6
ATOM      6  C   UNL     1      18.230  19.797  35.632  1.00  0.00     0.000 C 
BRANCH   6   7
ATOM      7  C   UNL     1      19.680  20.179  35.964  1.00  0.00    -0.000 C 
BRANCH   7   8
ATOM      8  C   UNL     1      20.701  19.448  35.079  1.00  0.00    -0.003 C 
ATOM      9  C   UNL     1      20.143  19.212  33.678  1.00  0.00     0.004 C 
ENDBRANCH   7   8
ENDBRANCH   6   7
ENDBRANCH   1   6
TORSDOF 5
ENDMDL
MODEL 5
REMARK VINA RESULT:    -3.826      5.447      7.499
REMARK INTER + INTRA:          -5.126
REMARK INTER:                  -4.908
REMARK INTRA:                  -0.218
REMARK UNBOUND:                -0.182
REMARK SMILES CCCCCCC(=O)[O-]
REMARK SMILES IDX 5 1 6 2 7 3 8 4 9 5 4 6 3 7 2 8 1 9
REMARK H PARENT
REMARK Flexibility Score: inf
ROOT
ATOM      1  C   UNL     1       9.578  30.531  29.570  1.00  0.00     0.006 C 
ENDROOT
BRANCH   1   2
ATOM      2  C   UNL     1       9.676  30.325  31.087  1.00  0.00     0.053 C 
BRANCH   2   3
ATOM      3  C   UNL     1       8.918  31.374  31.840  1.00  0.00     0.041 C 
ATOM      4  O   UNL     1       9.339  31.785  32.953  1.00  0.00    -0.550 OA
ATOM      5  O   UNL     1       7.764  31.924  31.295  1.00  0.00    -0.550 OA
ENDBRANCH   2   3
ENDBRANCH   1   2
BRANCH   1   6
ATOM      6  C   UNL     1      10.628  31.530  29.051  1.00  0.00     0.000 C 
BRANCH   6   7
ATOM      7  C   UNL     1       9.995  32.746  28.359  1.00  0.00    -0.000 C 
BRANCH   7   8
ATOM      8  C   UNL     1      10.962  33.934  28.251  1.00  0.00    -0.003 C 
ATOM      9  C   UNL     1      12.406  33.457  28.125  1.00  0.00     0.004 C 
ENDBRANCH   7   8
ENDBRANCH   6   7
ENDBRANCH   1   6
TORSDOF 5
ENDMDL
MODEL 6
REMARK VINA RESULT:    -3.797      5.953      8.174
REMARK INTER + INTRA:          -5.088
REMARK INTER:                  -4.942
REMARK INTRA:                  -0.147
REMARK UNBOUND:                -0.182
REMARK SMILES CCCCCCC(=O)[O-]
REMARK SMILES IDX 5 1 6 2 7 3 8 4 9 5 4 6 3 7 2 8 1 9
REMARK H PARENT
REMARK Flexibility Score: inf
ROOT
ATOM      1  C   UNL     1       8.627  29.831  29.679  1.00  0.00     0.006 C 
ENDROOT
BRANCH   1   2
ATOM      2  C   UNL     1       8.056  31.074  28.986  1.00  0.00     0.053 C 
BRANCH   2   3
ATOM      3  C   UNL     1       7.976  32.242  29.920  1.00  0.00     0.041 C 
ATOM      4  O   UNL     1       7.115  32.264  30.839  1.00  0.00    -0.550 OA
ATOM      5  O   UNL     1       8.878  33.293  29.797  1.00  0.00    -0.550 OA
ENDBRANCH   2   3
ENDBRANCH   1   2
BRANCH   1   6
ATOM      6  C   UNL     1       8.031  28.527  29.117  1.00  0.00     0.000 C 
BRANCH   6   7
ATOM      7  C   UNL     1       7.317  28.736  27.773  1.00  0.00    -0.000 C 
BRANCH   7   8
ATOM      8  C   UNL     1       6.371  27.578  27.421  1.00  0.00    -0.003 C 
ATOM      9  C   UNL     1       7.071  26.544  26.542  1.00  0.00     0.004 C 
ENDBRANCH   7   8
ENDBRANCH   6   7
ENDBRANCH   1   6
TORSDOF 5
ENDMDL
MODEL 7
REMARK VINA RESULT:    -3.791      5.534      8.021
REMARK INTER + INTRA:          -5.081
REMARK INTER:                  -4.969
REMARK INTRA:                  -0.113
REMARK UNBOUND:                -0.182
REMARK SMILES CCCCCCC(=O)[O-]
REMARK SMILES IDX 5 1 6 2 7 3 8 4 9 5 4 6 3 7 2 8 1 9
REMARK H PARENT
REMARK Flexibility Score: inf
ROOT
ATOM      1  C   UNL     1       8.400  30.893  29.845  1.00  0.00     0.006 C 
ENDROOT
BRANCH   1   2
ATOM      2  C   UNL     1       9.761  31.242  30.458  1.00  0.00     0.053 C 
BRANCH   2   3
ATOM      3  C   UNL     1       9.822  30.893  31.913  1.00  0.00     0.041 C 
ATOM      4  O   UNL     1      10.390  29.834  32.289  1.00  0.00    -0.550 OA
ATOM      5  O   UNL     1       9.281  31.757  32.858  1.00  0.00    -0.550 OA
ENDBRANCH   2   3
ENDBRANCH   1   2
BRANCH   1   6
ATOM      6  C   UNL     1       8.351  29.444  29.327  1.00  0.00     0.000 C 
BRANCH   6   7
ATOM      7  C   UNL     1       7.605  29.321  27.989  1.00  0.00    -0.000 C 
BRANCH   7   8
ATOM      8  C   UNL     1       7.741  27.924  27.365  1.00  0.00    -0.003 C 
ATOM      9  C   UNL     1       6.371  27.298  27.115  1.00  0.00     0.004 C 
ENDBRANCH   7   8
ENDBRANCH   6   7
ENDBRANCH   1   6
TORSDOF 5
ENDMDL
MODEL 8
REMARK VINA RESULT:    -3.760      5.978      7.708
REMARK INTER + INTRA:          -5.041
REMARK INTER:                  -4.843
REMARK INTRA:                  -0.198
REMARK UNBOUND:                -0.182
REMARK SMILES CCCCCCC(=O)[O-]
REMARK SMILES IDX 5 1 6 2 7 3 8 4 9 5 4 6 3 7 2 8 1 9
REMARK H PARENT
REMARK Flexibility Score: inf
ROOT
ATOM      1  C   UNL     1       9.280  30.542  29.482  1.00  0.00     0.006 C 
ENDROOT
BRANCH   1   2
ATOM      2  C   UNL     1       8.070  31.310  28.936  1.00  0.00     0.053 C 
BRANCH   2   3
ATOM      3  C   UNL     1       7.670  32.432  29.844  1.00  0.00     0.041 C 
ATOM      4  O   UNL     1       7.219  32.187  30.995  1.00  0.00    -0.550 OA
ATOM      5  O   UNL     1       7.827  33.750  29.433  1.00  0.00    -0.550 OA
ENDBRANCH   2   3
ENDBRANCH   1   2
BRANCH   1   6
ATOM      6  C   UNL     1      10.513  31.447  29.656  1.00  0.00     0.000 C 
BRANCH   6   7
ATOM      7  C   UNL     1      11.005  32.036  28.325  1.00  0.00    -0.000 C 
BRANCH   7   8
ATOM      8  C   UNL     1      12.207  32.976  28.504  1.00  0.00    -0.003 C 
ATOM      9  C   UNL     1      12.566  33.665  27.191  1.00  0.00     0.004 C 
ENDBRANCH   7   8
ENDBRANCH   6   7
ENDBRANCH   1   6
TORSDOF 5
ENDMDL
MODEL 9
REMARK VINA RESULT:    -3.747      4.859      7.227
REMARK INTER + INTRA:          -5.024
REMARK INTER:                  -4.683
REMARK INTRA:                  -0.341
REMARK UNBOUND:                -0.182
REMARK SMILES CCCCCCC(=O)[O-]
REMARK SMILES IDX 5 1 6 2 7 3 8 4 9 5 4 6 3 7 2 8 1 9
REMARK H PARENT
REMARK Flexibility Score: inf
ROOT
ATOM      1  C   UNL     1       9.826  30.737  29.659  1.00  0.00     0.006 C 
ENDROOT
BRANCH   1   2
ATOM      2  C   UNL     1       9.951  30.583  31.180  1.00  0.00     0.053 C 
BRANCH   2   3
ATOM      3  C   UNL     1       8.978  31.458  31.909  1.00  0.00     0.041 C 
ATOM      4  O   UNL     1       9.229  31.849  33.080  1.00  0.00    -0.550 OA
ATOM      5  O   UNL     1       7.809  31.871  31.281  1.00  0.00    -0.550 OA
ENDBRANCH   2   3
ENDBRANCH   1   2
BRANCH   1   6
ATOM      6  C   UNL     1      10.797  31.793  29.101  1.00  0.00     0.000 C 
BRANCH   6   7
ATOM      7  C   UNL     1      10.085  33.087  28.680  1.00  0.00    -0.000 C 
BRANCH   7   8
ATOM      8  C   UNL     1       8.884  32.827  27.757  1.00  0.00    -0.003 C 
ATOM      9  C   UNL     1       7.644  33.570  28.246  1.00  0.00     0.004 C 
ENDBRANCH   7   8
ENDBRANCH   6   7
ENDBRANCH   1   6
TORSDOF 5
ENDMDL
