MODEL 1
REMARK VINA RESULT:    -6.175      0.000      0.000
REMARK INTER + INTRA:          -6.437
REMARK INTER:                  -6.716
REMARK INTRA:                   0.279
REMARK UNBOUND:                 0.279
REMARK SMILES C[C@H]1[C@H](C)CC[C@@]2(C(=O)[O-])CC[C@@]3(C)C(=CC[C@H]4[C@@]5(C)CC[C@H](O)C(C)(C)[C@H]5CC[C@@]43C)[C@H]12
REMARK SMILES IDX 7 1 6 2 11 3 33 4 5 5 12 6 15 7 2 8 3 9 13 10 16 11 1 12
REMARK SMILES IDX 4 13 14 14 31 15 17 16 18 17 30 18 32 19 19 20 29 21 28 22
REMARK SMILES IDX 21 23 20 24 25 25 22 26 23 27 26 28 27 29 8 30 9 31 10 32
REMARK SMILES IDX 24 33
REMARK H PARENT 24 34
REMARK Flexibility Score: inf
ROOT
ATOM      1  C   UNL     1     131.572  -1.568  81.796  1.00  0.00     0.017 C 
ATOM      2  C   UNL     1     130.994  -2.829  82.475  1.00  0.00     0.014 C 
ATOM      3  C   UNL     1     132.902  -1.207  82.514  1.00  0.00     0.014 C 
ATOM      4  C   UNL     1     131.914  -1.869  80.301  1.00  0.00     0.030 C 
ATOM      5  C   UNL     1     129.763  -3.351  81.737  1.00  0.00     0.004 C 
ATOM      6  C   UNL     1     133.568   0.043  81.913  1.00  0.00     0.013 C 
ATOM      7  C   UNL     1     132.557  -0.604  79.671  1.00  0.00    -0.063 C 
ATOM      8  C   UNL     1     130.752  -2.571  79.503  1.00  0.00    -0.003 C 
ATOM      9  C   UNL     1     130.126  -3.758  80.304  1.00  0.00    -0.011 C 
ATOM     10  C   UNL     1     133.826  -0.024  80.359  1.00  0.00    -0.006 C 
ATOM     11  C   UNL     1     132.013  -0.015  78.570  1.00  0.00    -0.027 C 
ATOM     12  C   UNL     1     131.273  -3.110  78.145  1.00  0.00     0.008 C 
ATOM     13  C   UNL     1     128.875  -4.325  79.609  1.00  0.00     0.008 C 
ATOM     14  C   UNL     1     134.993  -1.047  80.148  1.00  0.00     0.017 C 
ATOM     15  C   UNL     1     134.195   1.443  79.768  1.00  0.00    -0.020 C 
ATOM     16  C   UNL     1     132.612   1.143  77.820  1.00  0.00     0.032 C 
ATOM     17  C   UNL     1     134.090   1.390  78.195  1.00  0.00     0.006 C 
ATOM     18  C   UNL     1     135.633   1.867  80.147  1.00  0.00     0.008 C 
ATOM     19  C   UNL     1     133.214   2.512  80.365  1.00  0.00     0.012 C 
ATOM     20  C   UNL     1     134.825   2.500  77.288  1.00  0.00    -0.025 C 
ATOM     21  C   UNL     1     136.052   3.171  79.476  1.00  0.00     0.005 C 
ATOM     22  C   UNL     1     136.193   2.998  77.941  1.00  0.00     0.003 C 
ATOM     23  C   UNL     1     133.886   3.716  76.988  1.00  0.00     0.010 C 
ATOM     24  C   UNL     1     135.140   1.793  75.920  1.00  0.00     0.012 C 
ATOM     25  C   UNL     1     136.855   4.277  77.247  1.00  0.00    -0.006 C 
ATOM     26  C   UNL     1     134.558   4.893  76.274  1.00  0.00     0.033 C 
ATOM     27  C   UNL     1     135.791   5.393  77.033  1.00  0.00     0.120 C 
ATOM     28  C   UNL     1     137.543   3.894  75.904  1.00  0.00     0.014 C 
ATOM     29  C   UNL     1     137.995   4.875  78.123  1.00  0.00     0.014 C 
ENDROOT
BRANCH   1  30
ATOM     30  C   UNL     1     130.574  -0.424  81.968  1.00  0.00     0.048 C 
ATOM     31  O   UNL     1     129.817  -0.064  81.028  1.00  0.00    -0.550 OA
ATOM     32  O   UNL     1     130.470   0.222  83.195  1.00  0.00    -0.550 OA
ENDBRANCH   1  30
BRANCH  27  33
ATOM     33  O   UNL     1     136.356   6.476  76.337  1.00  0.00    -0.393 OA
ATOM     34  H   UNL     1     135.981   7.305  76.735  1.00  0.00     0.210 HD
ENDBRANCH  27  33
TORSDOF 2
ENDMDL
MODEL 2
REMARK VINA RESULT:    -5.931      2.210      8.153
REMARK INTER + INTRA:          -6.172
REMARK INTER:                  -6.814
REMARK INTRA:                   0.642
REMARK UNBOUND:                 0.279
REMARK SMILES C[C@H]1[C@H](C)CC[C@@]2(C(=O)[O-])CC[C@@]3(C)C(=CC[C@H]4[C@@]5(C)CC[C@H](O)C(C)(C)[C@H]5CC[C@@]43C)[C@H]12
REMARK SMILES IDX 7 1 6 2 11 3 33 4 5 5 12 6 15 7 2 8 3 9 13 10 16 11 1 12
REMARK SMILES IDX 4 13 14 14 31 15 17 16 18 17 30 18 32 19 19 20 29 21 28 22
REMARK SMILES IDX 21 23 20 24 25 25 22 26 23 27 26 28 27 29 8 30 9 31 10 32
REMARK SMILES IDX 24 33
REMARK H PARENT 24 34
REMARK Flexibility Score: inf
ROOT
ATOM      1  C   UNL     1     135.291   3.616  77.759  1.00  0.00     0.017 C 
ATOM      2  C   UNL     1     135.982   4.998  77.721  1.00  0.00     0.014 C 
ATOM      3  C   UNL     1     135.861   2.831  78.973  1.00  0.00     0.014 C 
ATOM      4  C   UNL     1     133.755   3.787  77.992  1.00  0.00     0.030 C 
ATOM      5  C   UNL     1     135.374   5.900  76.650  1.00  0.00     0.004 C 
ATOM      6  C   UNL     1     135.237   1.431  79.108  1.00  0.00     0.013 C 
ATOM      7  C   UNL     1     133.106   2.380  78.096  1.00  0.00    -0.063 C 
ATOM      8  C   UNL     1     133.072   4.837  77.037  1.00  0.00    -0.003 C 
ATOM      9  C   UNL     1     133.892   6.164  76.945  1.00  0.00    -0.011 C 
ATOM     10  C   UNL     1     133.663   1.410  79.177  1.00  0.00    -0.006 C 
ATOM     11  C   UNL     1     132.102   2.007  77.255  1.00  0.00    -0.027 C 
ATOM     12  C   UNL     1     131.641   5.172  77.533  1.00  0.00     0.008 C 
ATOM     13  C   UNL     1     133.327   7.116  75.875  1.00  0.00     0.008 C 
ATOM     14  C   UNL     1     133.273   1.986  80.581  1.00  0.00     0.017 C 
ATOM     15  C   UNL     1     133.093  -0.096  78.963  1.00  0.00    -0.020 C 
ATOM     16  C   UNL     1     131.334   0.717  77.339  1.00  0.00     0.032 C 
ATOM     17  C   UNL     1     131.542  -0.009  78.686  1.00  0.00     0.006 C 
ATOM     18  C   UNL     1     133.316  -0.974  80.215  1.00  0.00     0.008 C 
ATOM     19  C   UNL     1     133.845  -0.777  77.766  1.00  0.00     0.012 C 
ATOM     20  C   UNL     1     130.601  -1.300  78.893  1.00  0.00    -0.025 C 
ATOM     21  C   UNL     1     132.654  -2.344  80.092  1.00  0.00     0.005 C 
ATOM     22  C   UNL     1     131.107  -2.226  80.090  1.00  0.00     0.003 C 
ATOM     23  C   UNL     1     130.465  -2.133  77.575  1.00  0.00     0.010 C 
ATOM     24  C   UNL     1     129.178  -0.738  79.250  1.00  0.00     0.012 C 
ATOM     25  C   UNL     1     130.393  -3.652  80.198  1.00  0.00    -0.006 C 
ATOM     26  C   UNL     1     129.724  -3.466  77.724  1.00  0.00     0.033 C 
ATOM     27  C   UNL     1     130.353  -4.349  78.807  1.00  0.00     0.120 C 
ATOM     28  C   UNL     1     128.964  -3.520  80.801  1.00  0.00     0.014 C 
ATOM     29  C   UNL     1     131.152  -4.596  81.176  1.00  0.00     0.014 C 
ENDROOT
BRANCH   1  30
ATOM     30  C   UNL     1     135.627   2.870  76.468  1.00  0.00     0.048 C 
ATOM     31  O   UNL     1     134.770   2.164  75.875  1.00  0.00    -0.550 OA
ATOM     32  O   UNL     1     136.897   2.990  75.913  1.00  0.00    -0.550 OA
ENDBRANCH   1  30
BRANCH  27  33
ATOM     33  O   UNL     1     129.640  -5.559  78.890  1.00  0.00    -0.393 OA
ATOM     34  H   UNL     1     129.414  -5.697  79.847  1.00  0.00     0.210 HD
ENDBRANCH  27  33
TORSDOF 2
ENDMDL
MODEL 3
REMARK VINA RESULT:    -5.707     14.147     17.184
REMARK INTER + INTRA:          -5.928
REMARK INTER:                  -6.284
REMARK INTRA:                   0.356
REMARK UNBOUND:                 0.279
REMARK SMILES C[C@H]1[C@H](C)CC[C@@]2(C(=O)[O-])CC[C@@]3(C)C(=CC[C@H]4[C@@]5(C)CC[C@H](O)C(C)(C)[C@H]5CC[C@@]43C)[C@H]12
REMARK SMILES IDX 7 1 6 2 11 3 33 4 5 5 12 6 15 7 2 8 3 9 13 10 16 11 1 12
REMARK SMILES IDX 4 13 14 14 31 15 17 16 18 17 30 18 32 19 19 20 29 21 28 22
REMARK SMILES IDX 21 23 20 24 25 25 22 26 23 27 26 28 27 29 8 30 9 31 10 32
REMARK SMILES IDX 24 33
REMARK H PARENT 24 34
REMARK Flexibility Score: inf
ROOT
ATOM      1  C   UNL     1     146.057   4.827  90.762  1.00  0.00     0.017 C 
ATOM      2  C   UNL     1     146.039   4.333  92.226  1.00  0.00     0.014 C 
ATOM      3  C   UNL     1     144.605   4.750  90.214  1.00  0.00     0.014 C 
ATOM      4  C   UNL     1     146.501   6.325  90.704  1.00  0.00     0.030 C 
ATOM      5  C   UNL     1     147.397   4.517  92.898  1.00  0.00     0.004 C 
ATOM      6  C   UNL     1     144.507   5.224  88.753  1.00  0.00     0.013 C 
ATOM      7  C   UNL     1     146.439   6.807  89.230  1.00  0.00    -0.063 C 
ATOM      8  C   UNL     1     147.809   6.641  91.522  1.00  0.00    -0.003 C 
ATOM      9  C   UNL     1     147.777   6.002  92.947  1.00  0.00    -0.011 C 
ATOM     10  C   UNL     1     145.082   6.667  88.483  1.00  0.00    -0.006 C 
ATOM     11  C   UNL     1     147.542   7.313  88.611  1.00  0.00    -0.027 C 
ATOM     12  C   UNL     1     148.001   8.173  91.670  1.00  0.00     0.008 C 
ATOM     13  C   UNL     1     149.125   6.152  93.676  1.00  0.00     0.008 C 
ATOM     14  C   UNL     1     144.074   7.674  89.133  1.00  0.00     0.017 C 
ATOM     15  C   UNL     1     145.258   6.932  86.890  1.00  0.00    -0.020 C 
ATOM     16  C   UNL     1     147.567   7.906  87.229  1.00  0.00     0.032 C 
ATOM     17  C   UNL     1     146.152   8.217  86.693  1.00  0.00     0.006 C 
ATOM     18  C   UNL     1     143.897   7.174  86.198  1.00  0.00     0.008 C 
ATOM     19  C   UNL     1     145.915   5.677  86.218  1.00  0.00     0.012 C 
ATOM     20  C   UNL     1     146.136   9.018  85.295  1.00  0.00    -0.025 C 
ATOM     21  C   UNL     1     144.052   7.575  84.734  1.00  0.00     0.005 C 
ATOM     22  C   UNL     1     144.702   8.977  84.597  1.00  0.00     0.003 C 
ATOM     23  C   UNL     1     147.239   8.494  84.316  1.00  0.00     0.010 C 
ATOM     24  C   UNL     1     146.486  10.508  85.653  1.00  0.00     0.012 C 
ATOM     25  C   UNL     1     144.660   9.518  83.093  1.00  0.00    -0.006 C 
ATOM     26  C   UNL     1     147.186   9.085  82.904  1.00  0.00     0.033 C 
ATOM     27  C   UNL     1     145.812   8.890  82.255  1.00  0.00     0.120 C 
ATOM     28  C   UNL     1     144.721  11.073  83.054  1.00  0.00     0.014 C 
ATOM     29  C   UNL     1     143.317   9.154  82.394  1.00  0.00     0.014 C 
ENDROOT
BRANCH   1  30
ATOM     30  C   UNL     1     146.958   3.899  89.948  1.00  0.00     0.048 C 
ATOM     31  O   UNL     1     146.499   2.877  89.372  1.00  0.00    -0.550 OA
ATOM     32  O   UNL     1     148.310   4.194  89.812  1.00  0.00    -0.550 OA
ENDBRANCH   1  30
BRANCH  27  33
ATOM     33  O   UNL     1     145.828   9.441  80.961  1.00  0.00    -0.393 OA
ATOM     34  H   UNL     1     145.207  10.216  80.969  1.00  0.00     0.210 HD
ENDBRANCH  27  33
TORSDOF 2
ENDMDL
MODEL 4
REMARK VINA RESULT:    -5.678      2.260      3.229
REMARK INTER + INTRA:          -5.896
REMARK INTER:                  -6.174
REMARK INTRA:                   0.277
REMARK UNBOUND:                 0.279
REMARK SMILES C[C@H]1[C@H](C)CC[C@@]2(C(=O)[O-])CC[C@@]3(C)C(=CC[C@H]4[C@@]5(C)CC[C@H](O)C(C)(C)[C@H]5CC[C@@]43C)[C@H]12
REMARK SMILES IDX 7 1 6 2 11 3 33 4 5 5 12 6 15 7 2 8 3 9 13 10 16 11 1 12
REMARK SMILES IDX 4 13 14 14 31 15 17 16 18 17 30 18 32 19 19 20 29 21 28 22
REMARK SMILES IDX 21 23 20 24 25 25 22 26 23 27 26 28 27 29 8 30 9 31 10 32
REMARK SMILES IDX 24 33
REMARK H PARENT 24 34
REMARK Flexibility Score: inf
ROOT
ATOM      1  C   UNL     1     133.058  -2.041  79.608  1.00  0.00     0.017 C 
ATOM      2  C   UNL     1     132.995  -3.585  79.627  1.00  0.00     0.014 C 
ATOM      3  C   UNL     1     134.382  -1.627  78.908  1.00  0.00     0.014 C 
ATOM      4  C   UNL     1     131.879  -1.465  78.759  1.00  0.00     0.030 C 
ATOM      5  C   UNL     1     131.655  -4.087  80.160  1.00  0.00     0.004 C 
ATOM      6  C   UNL     1     134.548  -0.099  78.832  1.00  0.00     0.013 C 
ATOM      7  C   UNL     1     132.014   0.081  78.703  1.00  0.00    -0.063 C 
ATOM      8  C   UNL     1     130.468  -2.061  79.128  1.00  0.00    -0.003 C 
ATOM      9  C   UNL     1     130.507  -3.617  79.258  1.00  0.00    -0.011 C 
ATOM     10  C   UNL     1     133.347   0.666  78.156  1.00  0.00    -0.006 C 
ATOM     11  C   UNL     1     131.009   0.890  79.139  1.00  0.00    -0.027 C 
ATOM     12  C   UNL     1     129.419  -1.679  78.051  1.00  0.00     0.008 C 
ATOM     13  C   UNL     1     129.180  -4.183  79.796  1.00  0.00     0.008 C 
ATOM     14  C   UNL     1     133.420   0.338  76.625  1.00  0.00     0.017 C 
ATOM     15  C   UNL     1     133.446   2.263  78.435  1.00  0.00    -0.020 C 
ATOM     16  C   UNL     1     130.992   2.390  79.030  1.00  0.00     0.032 C 
ATOM     17  C   UNL     1     132.065   2.924  78.055  1.00  0.00     0.006 C 
ATOM     18  C   UNL     1     134.553   2.925  77.584  1.00  0.00     0.008 C 
ATOM     19  C   UNL     1     133.796   2.512  79.944  1.00  0.00     0.012 C 
ATOM     20  C   UNL     1     131.966   4.506  77.768  1.00  0.00    -0.025 C 
ATOM     21  C   UNL     1     134.562   4.445  77.719  1.00  0.00     0.005 C 
ATOM     22  C   UNL     1     133.292   5.076  77.087  1.00  0.00     0.003 C 
ATOM     23  C   UNL     1     131.628   5.310  79.068  1.00  0.00     0.010 C 
ATOM     24  C   UNL     1     130.764   4.685  76.771  1.00  0.00     0.012 C 
ATOM     25  C   UNL     1     133.386   6.669  77.005  1.00  0.00    -0.006 C 
ATOM     26  C   UNL     1     131.680   6.834  78.919  1.00  0.00     0.033 C 
ATOM     27  C   UNL     1     133.033   7.308  78.380  1.00  0.00     0.120 C 
ATOM     28  C   UNL     1     132.472   7.228  75.875  1.00  0.00     0.014 C 
ATOM     29  C   UNL     1     134.822   7.136  76.624  1.00  0.00     0.014 C 
ENDROOT
BRANCH   1  30
ATOM     30  C   UNL     1     133.066  -1.539  81.051  1.00  0.00     0.048 C 
ATOM     31  O   UNL     1     132.026  -1.080  81.593  1.00  0.00    -0.550 OA
ATOM     32  O   UNL     1     134.236  -1.611  81.800  1.00  0.00    -0.550 OA
ENDBRANCH   1  30
BRANCH  27  33
ATOM     33  O   UNL     1     133.025   8.711  78.276  1.00  0.00    -0.393 OA
ATOM     34  H   UNL     1     132.307   8.950  77.632  1.00  0.00     0.210 HD
ENDBRANCH  27  33
TORSDOF 2
ENDMDL
MODEL 5
REMARK VINA RESULT:    -5.604      2.650      7.954
REMARK INTER + INTRA:          -5.816
REMARK INTER:                  -6.144
REMARK INTRA:                   0.328
REMARK UNBOUND:                 0.279
REMARK SMILES C[C@H]1[C@H](C)CC[C@@]2(C(=O)[O-])CC[C@@]3(C)C(=CC[C@H]4[C@@]5(C)CC[C@H](O)C(C)(C)[C@H]5CC[C@@]43C)[C@H]12
REMARK SMILES IDX 7 1 6 2 11 3 33 4 5 5 12 6 15 7 2 8 3 9 13 10 16 11 1 12
REMARK SMILES IDX 4 13 14 14 31 15 17 16 18 17 30 18 32 19 19 20 29 21 28 22
REMARK SMILES IDX 21 23 20 24 25 25 22 26 23 27 26 28 27 29 8 30 9 31 10 32
REMARK SMILES IDX 24 33
REMARK H PARENT 24 34
REMARK Flexibility Score: inf
ROOT
ATOM      1  C   UNL     1     132.781   5.165  79.722  1.00  0.00     0.017 C 
ATOM      2  C   UNL     1     132.778   6.681  79.427  1.00  0.00     0.014 C 
ATOM      3  C   UNL     1     131.661   4.879  80.761  1.00  0.00     0.014 C 
ATOM      4  C   UNL     1     132.434   4.362  78.427  1.00  0.00     0.030 C 
ATOM      5  C   UNL     1     133.745   7.036  78.300  1.00  0.00     0.004 C 
ATOM      6  C   UNL     1     131.574   3.387  81.129  1.00  0.00     0.013 C 
ATOM      7  C   UNL     1     132.377   2.850  78.777  1.00  0.00    -0.063 C 
ATOM      8  C   UNL     1     133.272   4.787  77.162  1.00  0.00    -0.003 C 
ATOM      9  C   UNL     1     133.334   6.340  76.997  1.00  0.00    -0.011 C 
ATOM     10  C   UNL     1     131.401   2.410  79.904  1.00  0.00    -0.006 C 
ATOM     11  C   UNL     1     133.171   1.951  78.132  1.00  0.00    -0.027 C 
ATOM     12  C   UNL     1     132.660   4.176  75.875  1.00  0.00     0.008 C 
ATOM     13  C   UNL     1     134.300   6.761  75.875  1.00  0.00     0.008 C 
ATOM     14  C   UNL     1     129.940   2.615  79.378  1.00  0.00     0.017 C 
ATOM     15  C   UNL     1     131.672   0.871  80.347  1.00  0.00    -0.020 C 
ATOM     16  C   UNL     1     133.118   0.459  78.315  1.00  0.00     0.032 C 
ATOM     17  C   UNL     1     131.837  -0.003  79.045  1.00  0.00     0.006 C 
ATOM     18  C   UNL     1     130.497   0.298  81.172  1.00  0.00     0.008 C 
ATOM     19  C   UNL     1     132.958   0.801  81.243  1.00  0.00     0.012 C 
ATOM     20  C   UNL     1     131.651  -1.602  79.103  1.00  0.00    -0.025 C 
ATOM     21  C   UNL     1     130.662  -1.189  81.468  1.00  0.00     0.005 C 
ATOM     22  C   UNL     1     130.552  -2.039  80.175  1.00  0.00     0.003 C 
ATOM     23  C   UNL     1     133.007  -2.333  79.378  1.00  0.00     0.010 C 
ATOM     24  C   UNL     1     131.163  -2.027  77.670  1.00  0.00     0.012 C 
ATOM     25  C   UNL     1     130.488  -3.606  80.485  1.00  0.00    -0.006 C 
ATOM     26  C   UNL     1     132.894  -3.842  79.615  1.00  0.00     0.033 C 
ATOM     27  C   UNL     1     131.915  -4.170  80.747  1.00  0.00     0.120 C 
ATOM     28  C   UNL     1     129.782  -4.378  79.331  1.00  0.00     0.014 C 
ATOM     29  C   UNL     1     129.626  -3.901  81.747  1.00  0.00     0.014 C 
ENDROOT
BRANCH   1  30
ATOM     30  C   UNL     1     134.137   4.791  80.320  1.00  0.00     0.048 C 
ATOM     31  O   UNL     1     134.942   4.043  79.706  1.00  0.00    -0.550 OA
ATOM     32  O   UNL     1     134.511   5.305  81.557  1.00  0.00    -0.550 OA
ENDBRANCH   1  30
BRANCH  27  33
ATOM     33  O   UNL     1     131.861  -5.564  80.924  1.00  0.00    -0.393 OA
ATOM     34  H   UNL     1     132.721  -5.837  81.339  1.00  0.00     0.210 HD
ENDBRANCH  27  33
TORSDOF 2
ENDMDL
MODEL 6
REMARK VINA RESULT:    -5.568      2.116      3.926
REMARK INTER + INTRA:          -5.777
REMARK INTER:                  -6.225
REMARK INTRA:                   0.448
REMARK UNBOUND:                 0.279
REMARK SMILES C[C@H]1[C@H](C)CC[C@@]2(C(=O)[O-])CC[C@@]3(C)C(=CC[C@H]4[C@@]5(C)CC[C@H](O)C(C)(C)[C@H]5CC[C@@]43C)[C@H]12
REMARK SMILES IDX 7 1 6 2 11 3 33 4 5 5 12 6 15 7 2 8 3 9 13 10 16 11 1 12
REMARK SMILES IDX 4 13 14 14 31 15 17 16 18 17 30 18 32 19 19 20 29 21 28 22
REMARK SMILES IDX 21 23 20 24 25 25 22 26 23 27 26 28 27 29 8 30 9 31 10 32
REMARK SMILES IDX 24 33
REMARK H PARENT 24 34
REMARK Flexibility Score: inf
ROOT
ATOM      1  C   UNL     1     129.899  -2.465  78.625  1.00  0.00     0.017 C 
ATOM      2  C   UNL     1     129.107  -3.668  79.185  1.00  0.00     0.014 C 
ATOM      3  C   UNL     1     128.875  -1.371  78.213  1.00  0.00     0.014 C 
ATOM      4  C   UNL     1     130.812  -1.856  79.737  1.00  0.00     0.030 C 
ATOM      5  C   UNL     1     130.037  -4.735  79.759  1.00  0.00     0.004 C 
ATOM      6  C   UNL     1     129.560  -0.118  77.639  1.00  0.00     0.013 C 
ATOM      7  C   UNL     1     131.537  -0.610  79.161  1.00  0.00    -0.063 C 
ATOM      8  C   UNL     1     131.686  -2.918  80.506  1.00  0.00    -0.003 C 
ATOM      9  C   UNL     1     130.849  -4.167  80.930  1.00  0.00    -0.011 C 
ATOM     10  C   UNL     1     130.653   0.527  78.573  1.00  0.00    -0.006 C 
ATOM     11  C   UNL     1     132.896  -0.530  79.154  1.00  0.00    -0.027 C 
ATOM     12  C   UNL     1     132.314  -2.288  81.776  1.00  0.00     0.008 C 
ATOM     13  C   UNL     1     131.735  -5.282  81.515  1.00  0.00     0.008 C 
ATOM     14  C   UNL     1     129.882   1.195  79.761  1.00  0.00     0.017 C 
ATOM     15  C   UNL     1     131.552   1.605  77.755  1.00  0.00    -0.020 C 
ATOM     16  C   UNL     1     133.693   0.670  78.721  1.00  0.00     0.032 C 
ATOM     17  C   UNL     1     132.829   1.947  78.615  1.00  0.00     0.006 C 
ATOM     18  C   UNL     1     130.775   2.916  77.494  1.00  0.00     0.008 C 
ATOM     19  C   UNL     1     131.951   1.006  76.361  1.00  0.00     0.012 C 
ATOM     20  C   UNL     1     133.670   3.291  78.332  1.00  0.00    -0.025 C 
ATOM     21  C   UNL     1     131.649   3.995  76.862  1.00  0.00     0.005 C 
ATOM     22  C   UNL     1     132.737   4.492  77.851  1.00  0.00     0.003 C 
ATOM     23  C   UNL     1     134.824   3.046  77.303  1.00  0.00     0.010 C 
ATOM     24  C   UNL     1     134.331   3.678  79.705  1.00  0.00     0.012 C 
ATOM     25  C   UNL     1     133.510   5.779  77.301  1.00  0.00    -0.006 C 
ATOM     26  C   UNL     1     135.567   4.307  76.851  1.00  0.00     0.033 C 
ATOM     27  C   UNL     1     134.611   5.360  76.283  1.00  0.00     0.120 C 
ATOM     28  C   UNL     1     134.114   6.613  78.469  1.00  0.00     0.014 C 
ATOM     29  C   UNL     1     132.542   6.757  76.572  1.00  0.00     0.014 C 
ENDROOT
BRANCH   1  30
ATOM     30  C   UNL     1     130.674  -2.927  77.392  1.00  0.00     0.048 C 
ATOM     31  O   UNL     1     131.916  -2.747  77.291  1.00  0.00    -0.550 OA
ATOM     32  O   UNL     1     130.007  -3.587  76.364  1.00  0.00    -0.550 OA
ENDBRANCH   1  30
BRANCH  27  33
ATOM     33  O   UNL     1     135.349   6.486  75.876  1.00  0.00    -0.393 OA
ATOM     34  H   UNL     1     136.310   6.260  75.991  1.00  0.00     0.210 HD
ENDBRANCH  27  33
TORSDOF 2
ENDMDL
MODEL 7
REMARK VINA RESULT:    -5.476     15.171     18.418
REMARK INTER + INTRA:          -5.677
REMARK INTER:                  -5.967
REMARK INTRA:                   0.290
REMARK UNBOUND:                 0.279
REMARK SMILES C[C@H]1[C@H](C)CC[C@@]2(C(=O)[O-])CC[C@@]3(C)C(=CC[C@H]4[C@@]5(C)CC[C@H](O)C(C)(C)[C@H]5CC[C@@]43C)[C@H]12
REMARK SMILES IDX 7 1 6 2 11 3 33 4 5 5 12 6 15 7 2 8 3 9 13 10 16 11 1 12
REMARK SMILES IDX 4 13 14 14 31 15 17 16 18 17 30 18 32 19 19 20 29 21 28 22
REMARK SMILES IDX 21 23 20 24 25 25 22 26 23 27 26 28 27 29 8 30 9 31 10 32
REMARK SMILES IDX 24 33
REMARK H PARENT 24 34
REMARK Flexibility Score: inf
ROOT
ATOM      1  C   UNL     1     145.533   6.259  93.147  1.00  0.00     0.017 C 
ATOM      2  C   UNL     1     144.938   6.364  94.569  1.00  0.00     0.014 C 
ATOM      3  C   UNL     1     144.632   5.297  92.323  1.00  0.00     0.014 C 
ATOM      4  C   UNL     1     145.496   7.654  92.443  1.00  0.00     0.030 C 
ATOM      5  C   UNL     1     145.669   7.408  95.409  1.00  0.00     0.004 C 
ATOM      6  C   UNL     1     145.136   5.120  90.880  1.00  0.00     0.013 C 
ATOM      7  C   UNL     1     146.034   7.496  90.995  1.00  0.00    -0.063 C 
ATOM      8  C   UNL     1     146.077   8.830  93.313  1.00  0.00    -0.003 C 
ATOM      9  C   UNL     1     145.531   8.799  94.777  1.00  0.00    -0.011 C 
ATOM     10  C   UNL     1     145.327   6.461  90.074  1.00  0.00    -0.006 C 
ATOM     11  C   UNL     1     147.099   8.224  90.560  1.00  0.00    -0.027 C 
ATOM     12  C   UNL     1     145.721  10.201  92.681  1.00  0.00     0.008 C 
ATOM     13  C   UNL     1     146.236   9.832  95.676  1.00  0.00     0.008 C 
ATOM     14  C   UNL     1     143.889   7.000  89.765  1.00  0.00     0.017 C 
ATOM     15  C   UNL     1     146.181   6.205  88.716  1.00  0.00    -0.020 C 
ATOM     16  C   UNL     1     147.631   8.229  89.153  1.00  0.00     0.032 C 
ATOM     17  C   UNL     1     146.643   7.601  88.145  1.00  0.00     0.006 C 
ATOM     18  C   UNL     1     145.335   5.492  87.636  1.00  0.00     0.008 C 
ATOM     19  C   UNL     1     147.412   5.287  89.035  1.00  0.00     0.012 C 
ATOM     20  C   UNL     1     147.089   7.747  86.604  1.00  0.00    -0.025 C 
ATOM     21  C   UNL     1     146.069   5.379  86.302  1.00  0.00     0.005 C 
ATOM     22  C   UNL     1     146.268   6.770  85.646  1.00  0.00     0.003 C 
ATOM     23  C   UNL     1     148.628   7.525  86.424  1.00  0.00     0.010 C 
ATOM     24  C   UNL     1     146.773   9.235  86.208  1.00  0.00     0.012 C 
ATOM     25  C   UNL     1     146.820   6.659  84.150  1.00  0.00    -0.006 C 
ATOM     26  C   UNL     1     149.111   7.481  84.971  1.00  0.00     0.033 C 
ATOM     27  C   UNL     1     148.359   6.428  84.152  1.00  0.00     0.120 C 
ATOM     28  C   UNL     1     146.443   7.920  83.317  1.00  0.00     0.014 C 
ATOM     29  C   UNL     1     146.166   5.469  83.389  1.00  0.00     0.014 C 
ENDROOT
BRANCH   1  30
ATOM     30  C   UNL     1     146.940   5.673  93.253  1.00  0.00     0.048 C 
ATOM     31  O   UNL     1     147.959   6.412  93.292  1.00  0.00    -0.550 OA
ATOM     32  O   UNL     1     147.109   4.294  93.336  1.00  0.00    -0.550 OA
ENDBRANCH   1  30
BRANCH  27  33
ATOM     33  O   UNL     1     148.851   6.426  82.834  1.00  0.00    -0.393 OA
ATOM     34  H   UNL     1     148.414   7.182  82.360  1.00  0.00     0.210 HD
ENDBRANCH  27  33
TORSDOF 2
ENDMDL
MODEL 8
REMARK VINA RESULT:    -5.466     15.436     18.626
REMARK INTER + INTRA:          -5.666
REMARK INTER:                  -6.006
REMARK INTRA:                   0.340
REMARK UNBOUND:                 0.279
REMARK SMILES C[C@H]1[C@H](C)CC[C@@]2(C(=O)[O-])CC[C@@]3(C)C(=CC[C@H]4[C@@]5(C)CC[C@H](O)C(C)(C)[C@H]5CC[C@@]43C)[C@H]12
REMARK SMILES IDX 7 1 6 2 11 3 33 4 5 5 12 6 15 7 2 8 3 9 13 10 16 11 1 12
REMARK SMILES IDX 4 13 14 14 31 15 17 16 18 17 30 18 32 19 19 20 29 21 28 22
REMARK SMILES IDX 21 23 20 24 25 25 22 26 23 27 26 28 27 29 8 30 9 31 10 32
REMARK SMILES IDX 24 33
REMARK H PARENT 24 34
REMARK Flexibility Score: inf
ROOT
ATOM      1  C   UNL     1     146.035   7.103  94.192  1.00  0.00     0.017 C 
ATOM      2  C   UNL     1     145.934   7.349  95.714  1.00  0.00     0.014 C 
ATOM      3  C   UNL     1     145.144   5.877  93.847  1.00  0.00     0.014 C 
ATOM      4  C   UNL     1     145.467   8.330  93.408  1.00  0.00     0.030 C 
ATOM      5  C   UNL     1     146.657   8.629  96.125  1.00  0.00     0.004 C 
ATOM      6  C   UNL     1     145.169   5.542  92.345  1.00  0.00     0.013 C 
ATOM      7  C   UNL     1     145.519   8.019  91.888  1.00  0.00    -0.063 C 
ATOM      8  C   UNL     1     146.034   9.719  93.888  1.00  0.00    -0.003 C 
ATOM      9  C   UNL     1     146.021   9.848  95.445  1.00  0.00    -0.011 C 
ATOM     10  C   UNL     1     144.790   6.738  91.391  1.00  0.00    -0.006 C 
ATOM     11  C   UNL     1     146.197   8.829  91.029  1.00  0.00    -0.027 C 
ATOM     12  C   UNL     1     145.203  10.882  93.287  1.00  0.00     0.008 C 
ATOM     13  C   UNL     1     146.742  11.123  95.922  1.00  0.00     0.008 C 
ATOM     14  C   UNL     1     143.250   6.969  91.562  1.00  0.00     0.017 C 
ATOM     15  C   UNL     1     145.182   6.399  89.852  1.00  0.00    -0.020 C 
ATOM     16  C   UNL     1     146.221   8.681  89.532  1.00  0.00     0.032 C 
ATOM     17  C   UNL     1     145.117   7.733  89.013  1.00  0.00     0.006 C 
ATOM     18  C   UNL     1     144.203   5.380  89.224  1.00  0.00     0.008 C 
ATOM     19  C   UNL     1     146.618   5.768  89.802  1.00  0.00     0.012 C 
ATOM     20  C   UNL     1     144.988   7.686  87.408  1.00  0.00    -0.025 C 
ATOM     21  C   UNL     1     144.463   5.164  87.736  1.00  0.00     0.005 C 
ATOM     22  C   UNL     1     144.129   6.436  86.913  1.00  0.00     0.003 C 
ATOM     23  C   UNL     1     146.391   7.696  86.715  1.00  0.00     0.010 C 
ATOM     24  C   UNL     1     144.246   9.009  87.001  1.00  0.00     0.012 C 
ATOM     25  C   UNL     1     144.167   6.164  85.338  1.00  0.00    -0.006 C 
ATOM     26  C   UNL     1     146.366   7.485  85.198  1.00  0.00     0.033 C 
ATOM     27  C   UNL     1     145.632   6.196  84.814  1.00  0.00     0.120 C 
ATOM     28  C   UNL     1     143.274   7.182  84.570  1.00  0.00     0.014 C 
ATOM     29  C   UNL     1     143.572   4.768  84.987  1.00  0.00     0.014 C 
ENDROOT
BRANCH   1  30
ATOM     30  C   UNL     1     147.490   6.786  93.848  1.00  0.00     0.048 C 
ATOM     31  O   UNL     1     148.317   7.699  93.586  1.00  0.00    -0.550 OA
ATOM     32  O   UNL     1     147.928   5.466  93.848  1.00  0.00    -0.550 OA
ENDBRANCH   1  30
BRANCH  27  33
ATOM     33  O   UNL     1     145.651   6.051  83.415  1.00  0.00    -0.393 OA
ATOM     34  H   UNL     1     145.715   6.964  83.030  1.00  0.00     0.210 HD
ENDBRANCH  27  33
TORSDOF 2
ENDMDL
MODEL 9
REMARK VINA RESULT:    -5.364      2.445      3.753
REMARK INTER + INTRA:          -5.555
REMARK INTER:                  -5.866
REMARK INTRA:                   0.312
REMARK UNBOUND:                 0.279
REMARK SMILES C[C@H]1[C@H](C)CC[C@@]2(C(=O)[O-])CC[C@@]3(C)C(=CC[C@H]4[C@@]5(C)CC[C@H](O)C(C)(C)[C@H]5CC[C@@]43C)[C@H]12
REMARK SMILES IDX 7 1 6 2 11 3 33 4 5 5 12 6 15 7 2 8 3 9 13 10 16 11 1 12
REMARK SMILES IDX 4 13 14 14 31 15 17 16 18 17 30 18 32 19 19 20 29 21 28 22
REMARK SMILES IDX 21 23 20 24 25 25 22 26 23 27 26 28 27 29 8 30 9 31 10 32
REMARK SMILES IDX 24 33
REMARK H PARENT 24 34
REMARK Flexibility Score: inf
ROOT
ATOM      1  C   UNL     1     132.820  -2.334  79.935  1.00  0.00     0.017 C 
ATOM      2  C   UNL     1     132.574  -3.850  80.099  1.00  0.00     0.014 C 
ATOM      3  C   UNL     1     133.420  -2.099  78.521  1.00  0.00     0.014 C 
ATOM      4  C   UNL     1     131.465  -1.557  80.003  1.00  0.00     0.030 C 
ATOM      5  C   UNL     1     131.842  -4.163  81.402  1.00  0.00     0.004 C 
ATOM      6  C   UNL     1     133.705  -0.611  78.248  1.00  0.00     0.013 C 
ATOM      7  C   UNL     1     131.742  -0.048  79.764  1.00  0.00    -0.063 C 
ATOM      8  C   UNL     1     130.561  -1.948  81.232  1.00  0.00    -0.003 C 
ATOM      9  C   UNL     1     130.461  -3.496  81.417  1.00  0.00    -0.011 C 
ATOM     10  C   UNL     1     132.471   0.349  78.449  1.00  0.00    -0.006 C 
ATOM     11  C   UNL     1     131.378   0.886  80.685  1.00  0.00    -0.027 C 
ATOM     12  C   UNL     1     129.130  -1.376  81.058  1.00  0.00     0.008 C 
ATOM     13  C   UNL     1     129.733  -3.874  82.720  1.00  0.00     0.008 C 
ATOM     14  C   UNL     1     131.493   0.067  77.257  1.00  0.00     0.017 C 
ATOM     15  C   UNL     1     132.944   1.902  78.486  1.00  0.00    -0.020 C 
ATOM     16  C   UNL     1     131.500   2.375  80.507  1.00  0.00     0.032 C 
ATOM     17  C   UNL     1     131.751   2.775  79.036  1.00  0.00     0.006 C 
ATOM     18  C   UNL     1     133.318   2.420  77.078  1.00  0.00     0.008 C 
ATOM     19  C   UNL     1     134.215   2.042  79.395  1.00  0.00     0.012 C 
ATOM     20  C   UNL     1     131.708   4.364  78.768  1.00  0.00    -0.025 C 
ATOM     21  C   UNL     1     133.619   3.915  77.068  1.00  0.00     0.005 C 
ATOM     22  C   UNL     1     132.344   4.751  77.357  1.00  0.00     0.003 C 
ATOM     23  C   UNL     1     132.402   5.163  79.921  1.00  0.00     0.010 C 
ATOM     24  C   UNL     1     130.186   4.755  78.767  1.00  0.00     0.012 C 
ATOM     25  C   UNL     1     132.580   6.314  77.121  1.00  0.00    -0.006 C 
ATOM     26  C   UNL     1     132.554   6.666  79.666  1.00  0.00     0.033 C 
ATOM     27  C   UNL     1     133.289   6.951  78.352  1.00  0.00     0.120 C 
ATOM     28  C   UNL     1     131.240   7.043  76.806  1.00  0.00     0.014 C 
ATOM     29  C   UNL     1     133.477   6.573  75.875  1.00  0.00     0.014 C 
ENDROOT
BRANCH   1  30
ATOM     30  C   UNL     1     133.826  -1.889  80.995  1.00  0.00     0.048 C 
ATOM     31  O   UNL     1     133.451  -1.456  82.116  1.00  0.00    -0.550 OA
ATOM     32  O   UNL     1     135.189  -1.986  80.737  1.00  0.00    -0.550 OA
ENDBRANCH   1  30
BRANCH  27  33
ATOM     33  O   UNL     1     133.407   8.342  78.179  1.00  0.00    -0.393 OA
ATOM     34  H   UNL     1     134.050   8.488  77.437  1.00  0.00     0.210 HD
ENDBRANCH  27  33
TORSDOF 2
ENDMDL
