MODEL 1
REMARK VINA RESULT:    -1.569      0.000      0.000
REMARK INTER + INTRA:          -5.278
REMARK INTER:                  -2.762
REMARK INTRA:                  -2.516
REMARK UNBOUND:                -2.516
REMARK SMILES CCCCCCCCCCCCCCC(=O)[O-]
REMARK SMILES IDX 9 1 10 2 11 3 12 4 13 5 14 6 15 7 16 8 17 9 8 10 7 11 6 12
REMARK SMILES IDX 5 13 4 14 3 15 2 16 1 17
REMARK H PARENT
REMARK Flexibility Score: inf
ROOT
ATOM      1  C   UNL     1      21.453  25.375  14.644  1.00  0.00     0.000 C 
ENDROOT
BRANCH   1   2
ATOM      2  C   UNL     1      22.282  24.244  14.014  1.00  0.00     0.000 C 
BRANCH   2   3
ATOM      3  C   UNL     1      23.148  24.729  12.840  1.00  0.00     0.000 C 
BRANCH   3   4
ATOM      4  C   UNL     1      22.548  25.954  12.132  1.00  0.00     0.000 C 
BRANCH   4   5
ATOM      5  C   UNL     1      23.540  27.129  12.034  1.00  0.00     0.006 C 
BRANCH   5   6
ATOM      6  C   UNL     1      22.943  28.435  12.573  1.00  0.00     0.053 C 
BRANCH   6   7
ATOM      7  C   UNL     1      23.991  29.312  13.186  1.00  0.00     0.041 C 
ATOM      8  O   UNL     1      25.149  29.358  12.692  1.00  0.00    -0.550 OA
ATOM      9  O   UNL     1      23.680  30.105  14.283  1.00  0.00    -0.550 OA
ENDBRANCH   6   7
ENDBRANCH   5   6
ENDBRANCH   4   5
ENDBRANCH   3   4
ENDBRANCH   2   3
ENDBRANCH   1   2
BRANCH   1  10
ATOM     10  C   UNL     1      21.955  25.772  16.042  1.00  0.00     0.000 C 
BRANCH  10  11
ATOM     11  C   UNL     1      22.618  27.158  16.011  1.00  0.00    -0.000 C 
BRANCH  11  12
ATOM     12  C   UNL     1      24.087  27.125  16.461  1.00  0.00    -0.000 C 
BRANCH  12  13
ATOM     13  C   UNL     1      25.021  26.539  15.388  1.00  0.00    -0.000 C 
BRANCH  13  14
ATOM     14  C   UNL     1      25.966  25.459  15.945  1.00  0.00    -0.000 C 
BRANCH  14  15
ATOM     15  C   UNL     1      25.852  24.076  15.272  1.00  0.00    -0.000 C 
BRANCH  15  16
ATOM     16  C   UNL     1      25.500  22.917  16.221  1.00  0.00    -0.003 C 
ATOM     17  C   UNL     1      24.275  23.210  17.088  1.00  0.00     0.004 C 
ENDBRANCH  15  16
ENDBRANCH  14  15
ENDBRANCH  13  14
ENDBRANCH  12  13
ENDBRANCH  11  12
ENDBRANCH  10  11
ENDBRANCH   1  10
TORSDOF 13
ENDMDL
MODEL 2
REMARK VINA RESULT:    -1.361     21.496     23.541
REMARK INTER + INTRA:          -4.911
REMARK INTER:                  -2.312
REMARK INTRA:                  -2.599
REMARK UNBOUND:                -2.516
REMARK SMILES CCCCCCCCCCCCCCC(=O)[O-]
REMARK SMILES IDX 9 1 10 2 11 3 12 4 13 5 14 6 15 7 16 8 17 9 8 10 7 11 6 12
REMARK SMILES IDX 5 13 4 14 3 15 2 16 1 17
REMARK H PARENT
REMARK Flexibility Score: inf
ROOT
ATOM      1  C   UNL     1       9.663  13.944  25.246  1.00  0.00     0.000 C 
ENDROOT
BRANCH   1   2
ATOM      2  C   UNL     1      10.402  14.731  26.341  1.00  0.00     0.000 C 
BRANCH   2   3
ATOM      3  C   UNL     1      10.259  14.086  27.730  1.00  0.00     0.000 C 
BRANCH   3   4
ATOM      4  C   UNL     1       8.905  14.398  28.388  1.00  0.00     0.000 C 
BRANCH   4   5
ATOM      5  C   UNL     1       8.557  15.897  28.348  1.00  0.00     0.006 C 
BRANCH   5   6
ATOM      6  C   UNL     1       7.101  16.142  27.933  1.00  0.00     0.053 C 
BRANCH   6   7
ATOM      7  C   UNL     1       7.002  17.139  26.820  1.00  0.00     0.041 C 
ATOM      8  O   UNL     1       5.875  17.487  26.378  1.00  0.00    -0.550 OA
ATOM      9  O   UNL     1       8.153  17.709  26.293  1.00  0.00    -0.550 OA
ENDBRANCH   6   7
ENDBRANCH   5   6
ENDBRANCH   4   5
ENDBRANCH   3   4
ENDBRANCH   2   3
ENDBRANCH   1   2
BRANCH   1  10
ATOM     10  C   UNL     1       8.795  14.842  24.351  1.00  0.00     0.000 C 
BRANCH  10  11
ATOM     11  C   UNL     1       7.329  14.385  24.376  1.00  0.00    -0.000 C 
BRANCH  11  12
ATOM     12  C   UNL     1       7.129  13.064  25.136  1.00  0.00    -0.000 C 
BRANCH  12  13
ATOM     13  C   UNL     1       6.028  13.158  26.207  1.00  0.00    -0.000 C 
BRANCH  13  14
ATOM     14  C   UNL     1       6.229  12.158  27.359  1.00  0.00    -0.000 C 
BRANCH  14  15
ATOM     15  C   UNL     1       7.067  10.911  27.010  1.00  0.00    -0.000 C 
BRANCH  15  16
ATOM     16  C   UNL     1       8.377  10.765  27.802  1.00  0.00    -0.003 C 
ATOM     17  C   UNL     1       9.591  10.524  26.904  1.00  0.00     0.004 C 
ENDBRANCH  15  16
ENDBRANCH  14  15
ENDBRANCH  13  14
ENDBRANCH  12  13
ENDBRANCH  11  12
ENDBRANCH  10  11
ENDBRANCH   1  10
TORSDOF 13
ENDMDL
MODEL 3
REMARK VINA RESULT:    -1.350     23.258     24.951
REMARK INTER + INTRA:          -4.892
REMARK INTER:                  -2.711
REMARK INTRA:                  -2.181
REMARK UNBOUND:                -2.516
REMARK SMILES CCCCCCCCCCCCCCC(=O)[O-]
REMARK SMILES IDX 9 1 10 2 11 3 12 4 13 5 14 6 15 7 16 8 17 9 8 10 7 11 6 12
REMARK SMILES IDX 5 13 4 14 3 15 2 16 1 17
REMARK H PARENT
REMARK Flexibility Score: inf
ROOT
ATOM      1  C   UNL     1       8.742  11.286  24.014  1.00  0.00     0.000 C 
ENDROOT
BRANCH   1   2
ATOM      2  C   UNL     1       9.803  11.511  25.104  1.00  0.00     0.000 C 
BRANCH   2   3
ATOM      3  C   UNL     1      10.182  10.212  25.835  1.00  0.00     0.000 C 
BRANCH   3   4
ATOM      4  C   UNL     1      10.839  10.474  27.200  1.00  0.00     0.000 C 
BRANCH   4   5
ATOM      5  C   UNL     1       9.831  10.425  28.363  1.00  0.00     0.006 C 
BRANCH   5   6
ATOM      6  C   UNL     1      10.460   9.877  29.650  1.00  0.00     0.053 C 
BRANCH   6   7
ATOM      7  C   UNL     1      11.612  10.719  30.106  1.00  0.00     0.041 C 
ATOM      8  O   UNL     1      11.435  11.929  30.406  1.00  0.00    -0.550 OA
ATOM      9  O   UNL     1      12.876  10.157  30.231  1.00  0.00    -0.550 OA
ENDBRANCH   6   7
ENDBRANCH   5   6
ENDBRANCH   4   5
ENDBRANCH   3   4
ENDBRANCH   2   3
ENDBRANCH   1   2
BRANCH   1  10
ATOM     10  C   UNL     1       7.796  10.118  24.337  1.00  0.00     0.000 C 
BRANCH  10  11
ATOM     11  C   UNL     1       6.524  10.622  25.036  1.00  0.00    -0.000 C 
BRANCH  11  12
ATOM     12  C   UNL     1       6.535  10.364  26.551  1.00  0.00    -0.000 C 
BRANCH  12  13
ATOM     13  C   UNL     1       6.719  11.655  27.369  1.00  0.00    -0.000 C 
BRANCH  13  14
ATOM     14  C   UNL     1       6.358  12.922  26.574  1.00  0.00    -0.000 C 
BRANCH  14  15
ATOM     15  C   UNL     1       7.476  13.980  26.480  1.00  0.00    -0.000 C 
BRANCH  15  16
ATOM     16  C   UNL     1       8.171  14.313  27.811  1.00  0.00    -0.003 C 
ATOM     17  C   UNL     1       9.681  14.078  27.768  1.00  0.00     0.004 C 
ENDBRANCH  15  16
ENDBRANCH  14  15
ENDBRANCH  13  14
ENDBRANCH  12  13
ENDBRANCH  11  12
ENDBRANCH  10  11
ENDBRANCH   1  10
TORSDOF 13
ENDMDL
MODEL 4
REMARK VINA RESULT:    -1.340      2.752      4.828
REMARK INTER + INTRA:          -4.874
REMARK INTER:                  -2.321
REMARK INTRA:                  -2.553
REMARK UNBOUND:                -2.516
REMARK SMILES CCCCCCCCCCCCCCC(=O)[O-]
REMARK SMILES IDX 9 1 10 2 11 3 12 4 13 5 14 6 15 7 16 8 17 9 8 10 7 11 6 12
REMARK SMILES IDX 5 13 4 14 3 15 2 16 1 17
REMARK H PARENT
REMARK Flexibility Score: inf
ROOT
ATOM      1  C   UNL     1      21.335  28.864  15.668  1.00  0.00     0.000 C 
ENDROOT
BRANCH   1   2
ATOM      2  C   UNL     1      20.664  28.429  14.355  1.00  0.00     0.000 C 
BRANCH   2   3
ATOM      3  C   UNL     1      20.684  26.905  14.158  1.00  0.00     0.000 C 
BRANCH   3   4
ATOM      4  C   UNL     1      21.266  26.161  15.371  1.00  0.00     0.000 C 
BRANCH   4   5
ATOM      5  C   UNL     1      22.291  25.083  14.971  1.00  0.00     0.006 C 
BRANCH   5   6
ATOM      6  C   UNL     1      23.059  24.539  16.182  1.00  0.00     0.053 C 
BRANCH   6   7
ATOM      7  C   UNL     1      24.481  24.219  15.838  1.00  0.00     0.041 C 
ATOM      8  O   UNL     1      24.935  24.492  14.695  1.00  0.00    -0.550 OA
ATOM      9  O   UNL     1      25.316  23.651  16.792  1.00  0.00    -0.550 OA
ENDBRANCH   6   7
ENDBRANCH   5   6
ENDBRANCH   4   5
ENDBRANCH   3   4
ENDBRANCH   2   3
ENDBRANCH   1   2
BRANCH   1  10
ATOM     10  C   UNL     1      22.203  30.122  15.505  1.00  0.00     0.000 C 
BRANCH  10  11
ATOM     11  C   UNL     1      23.641  29.858  15.975  1.00  0.00    -0.000 C 
BRANCH  11  12
ATOM     12  C   UNL     1      23.903  28.377  16.291  1.00  0.00    -0.000 C 
BRANCH  12  13
ATOM     13  C   UNL     1      25.200  27.855  15.648  1.00  0.00    -0.000 C 
BRANCH  13  14
ATOM     14  C   UNL     1      25.321  28.230  14.160  1.00  0.00    -0.000 C 
BRANCH  14  15
ATOM     15  C   UNL     1      24.217  27.661  13.246  1.00  0.00    -0.000 C 
BRANCH  15  16
ATOM     16  C   UNL     1      23.550  28.687  12.314  1.00  0.00    -0.003 C 
ATOM     17  C   UNL     1      24.300  30.018  12.262  1.00  0.00     0.004 C 
ENDBRANCH  15  16
ENDBRANCH  14  15
ENDBRANCH  13  14
ENDBRANCH  12  13
ENDBRANCH  11  12
ENDBRANCH  10  11
ENDBRANCH   1  10
TORSDOF 13
ENDMDL
MODEL 5
REMARK VINA RESULT:    -1.332      1.519      2.947
REMARK INTER + INTRA:          -4.861
REMARK INTER:                  -2.556
REMARK INTRA:                  -2.304
REMARK UNBOUND:                -2.516
REMARK SMILES CCCCCCCCCCCCCCC(=O)[O-]
REMARK SMILES IDX 9 1 10 2 11 3 12 4 13 5 14 6 15 7 16 8 17 9 8 10 7 11 6 12
REMARK SMILES IDX 5 13 4 14 3 15 2 16 1 17
REMARK H PARENT
REMARK Flexibility Score: inf
ROOT
ATOM      1  C   UNL     1      21.374  23.745  14.658  1.00  0.00     0.000 C 
ENDROOT
BRANCH   1   2
ATOM      2  C   UNL     1      21.312  24.998  13.768  1.00  0.00     0.000 C 
BRANCH   2   3
ATOM      3  C   UNL     1      22.349  24.967  12.633  1.00  0.00     0.000 C 
BRANCH   3   4
ATOM      4  C   UNL     1      23.281  26.189  12.652  1.00  0.00     0.000 C 
BRANCH   4   5
ATOM      5  C   UNL     1      22.560  27.479  13.085  1.00  0.00     0.006 C 
BRANCH   5   6
ATOM      6  C   UNL     1      23.316  28.739  12.644  1.00  0.00     0.053 C 
BRANCH   6   7
ATOM      7  C   UNL     1      24.546  28.964  13.468  1.00  0.00     0.041 C 
ATOM      8  O   UNL     1      24.449  29.253  14.690  1.00  0.00    -0.550 OA
ATOM      9  O   UNL     1      25.803  28.820  12.893  1.00  0.00    -0.550 OA
ENDBRANCH   6   7
ENDBRANCH   5   6
ENDBRANCH   4   5
ENDBRANCH   3   4
ENDBRANCH   2   3
ENDBRANCH   1   2
BRANCH   1  10
ATOM     10  C   UNL     1      21.838  22.495  13.894  1.00  0.00     0.000 C 
BRANCH  10  11
ATOM     11  C   UNL     1      22.922  21.744  14.682  1.00  0.00    -0.000 C 
BRANCH  11  12
ATOM     12  C   UNL     1      24.176  21.453  13.841  1.00  0.00    -0.000 C 
BRANCH  12  13
ATOM     13  C   UNL     1      25.088  22.683  13.694  1.00  0.00    -0.000 C 
BRANCH  13  14
ATOM     14  C   UNL     1      25.558  23.243  15.048  1.00  0.00    -0.000 C 
BRANCH  14  15
ATOM     15  C   UNL     1      25.184  24.715  15.317  1.00  0.00    -0.000 C 
BRANCH  15  16
ATOM     16  C   UNL     1      24.254  24.941  16.522  1.00  0.00    -0.003 C 
ATOM     17  C   UNL     1      23.566  26.306  16.495  1.00  0.00     0.004 C 
ENDBRANCH  15  16
ENDBRANCH  14  15
ENDBRANCH  13  14
ENDBRANCH  12  13
ENDBRANCH  11  12
ENDBRANCH  10  11
ENDBRANCH   1  10
TORSDOF 13
ENDMDL
MODEL 6
REMARK VINA RESULT:    -1.325      2.880      4.914
REMARK INTER + INTRA:          -4.849
REMARK INTER:                  -2.709
REMARK INTRA:                  -2.140
REMARK UNBOUND:                -2.516
REMARK SMILES CCCCCCCCCCCCCCC(=O)[O-]
REMARK SMILES IDX 9 1 10 2 11 3 12 4 13 5 14 6 15 7 16 8 17 9 8 10 7 11 6 12
REMARK SMILES IDX 5 13 4 14 3 15 2 16 1 17
REMARK H PARENT
REMARK Flexibility Score: inf
ROOT
ATOM      1  C   UNL     1      21.143  27.202  13.707  1.00  0.00     0.000 C 
ENDROOT
BRANCH   1   2
ATOM      2  C   UNL     1      20.948  25.849  13.003  1.00  0.00     0.000 C 
BRANCH   2   3
ATOM      3  C   UNL     1      21.551  24.678  13.796  1.00  0.00     0.000 C 
BRANCH   3   4
ATOM      4  C   UNL     1      22.669  25.127  14.751  1.00  0.00     0.000 C 
BRANCH   4   5
ATOM      5  C   UNL     1      24.076  24.834  14.198  1.00  0.00     0.006 C 
BRANCH   5   6
ATOM      6  C   UNL     1      25.118  24.695  15.315  1.00  0.00     0.053 C 
BRANCH   6   7
ATOM      7  C   UNL     1      25.791  23.357  15.282  1.00  0.00     0.041 C 
ATOM      8  O   UNL     1      26.029  22.739  16.354  1.00  0.00    -0.550 OA
ATOM      9  O   UNL     1      26.125  22.777  14.065  1.00  0.00    -0.550 OA
ENDBRANCH   6   7
ENDBRANCH   5   6
ENDBRANCH   4   5
ENDBRANCH   3   4
ENDBRANCH   2   3
ENDBRANCH   1   2
BRANCH   1  10
ATOM     10  C   UNL     1      21.882  28.226  12.831  1.00  0.00     0.000 C 
BRANCH  10  11
ATOM     11  C   UNL     1      22.859  27.525  11.875  1.00  0.00    -0.000 C 
BRANCH  11  12
ATOM     12  C   UNL     1      24.256  28.165  11.875  1.00  0.00    -0.000 C 
BRANCH  12  13
ATOM     13  C   UNL     1      24.500  29.051  13.109  1.00  0.00    -0.000 C 
BRANCH  13  14
ATOM     14  C   UNL     1      25.274  28.323  14.223  1.00  0.00    -0.000 C 
BRANCH  14  15
ATOM     15  C   UNL     1      24.623  28.377  15.620  1.00  0.00    -0.000 C 
BRANCH  15  16
ATOM     16  C   UNL     1      23.956  29.717  15.976  1.00  0.00    -0.003 C 
ATOM     17  C   UNL     1      22.463  29.578  16.273  1.00  0.00     0.004 C 
ENDBRANCH  15  16
ENDBRANCH  14  15
ENDBRANCH  13  14
ENDBRANCH  12  13
ENDBRANCH  11  12
ENDBRANCH  10  11
ENDBRANCH   1  10
TORSDOF 13
ENDMDL
MODEL 7
REMARK VINA RESULT:    -1.315      2.743      5.345
REMARK INTER + INTRA:          -4.831
REMARK INTER:                  -2.548
REMARK INTRA:                  -2.283
REMARK UNBOUND:                -2.516
REMARK SMILES CCCCCCCCCCCCCCC(=O)[O-]
REMARK SMILES IDX 9 1 10 2 11 3 12 4 13 5 14 6 15 7 16 8 17 9 8 10 7 11 6 12
REMARK SMILES IDX 5 13 4 14 3 15 2 16 1 17
REMARK H PARENT
REMARK Flexibility Score: inf
ROOT
ATOM      1  C   UNL     1      21.942  28.786  16.262  1.00  0.00     0.000 C 
ENDROOT
BRANCH   1   2
ATOM      2  C   UNL     1      22.954  29.943  16.222  1.00  0.00     0.000 C 
BRANCH   2   3
ATOM      3  C   UNL     1      24.377  29.496  16.596  1.00  0.00     0.000 C 
BRANCH   3   4
ATOM      4  C   UNL     1      24.487  27.974  16.782  1.00  0.00     0.000 C 
BRANCH   4   5
ATOM      5  C   UNL     1      25.903  27.441  16.494  1.00  0.00     0.006 C 
BRANCH   5   6
ATOM      6  C   UNL     1      25.878  26.037  15.877  1.00  0.00     0.053 C 
BRANCH   6   7
ATOM      7  C   UNL     1      25.354  25.017  16.840  1.00  0.00     0.041 C 
ATOM      8  O   UNL     1      26.015  24.717  17.869  1.00  0.00    -0.550 OA
ATOM      9  O   UNL     1      24.119  24.422  16.619  1.00  0.00    -0.550 OA
ENDBRANCH   6   7
ENDBRANCH   5   6
ENDBRANCH   4   5
ENDBRANCH   3   4
ENDBRANCH   2   3
ENDBRANCH   1   2
BRANCH   1  10
ATOM     10  C   UNL     1      20.939  28.834  15.099  1.00  0.00     0.000 C 
BRANCH  10  11
ATOM     11  C   UNL     1      21.185  27.677  14.118  1.00  0.00    -0.000 C 
BRANCH  11  12
ATOM     12  C   UNL     1      22.121  26.600  14.690  1.00  0.00    -0.000 C 
BRANCH  12  13
ATOM     13  C   UNL     1      23.222  26.187  13.698  1.00  0.00    -0.000 C 
BRANCH  13  14
ATOM     14  C   UNL     1      23.083  26.877  12.329  1.00  0.00    -0.000 C 
BRANCH  14  15
ATOM     15  C   UNL     1      24.312  27.691  11.875  1.00  0.00    -0.000 C 
BRANCH  15  16
ATOM     16  C   UNL     1      24.814  28.733  12.889  1.00  0.00    -0.003 C 
ATOM     17  C   UNL     1      24.229  30.125  12.651  1.00  0.00     0.004 C 
ENDBRANCH  15  16
ENDBRANCH  14  15
ENDBRANCH  13  14
ENDBRANCH  12  13
ENDBRANCH  11  12
ENDBRANCH  10  11
ENDBRANCH   1  10
TORSDOF 13
ENDMDL
MODEL 8
REMARK VINA RESULT:    -1.311      2.973      5.271
REMARK INTER + INTRA:          -4.823
REMARK INTER:                  -2.408
REMARK INTRA:                  -2.416
REMARK UNBOUND:                -2.516
REMARK SMILES CCCCCCCCCCCCCCC(=O)[O-]
REMARK SMILES IDX 9 1 10 2 11 3 12 4 13 5 14 6 15 7 16 8 17 9 8 10 7 11 6 12
REMARK SMILES IDX 5 13 4 14 3 15 2 16 1 17
REMARK H PARENT
REMARK Flexibility Score: inf
ROOT
ATOM      1  C   UNL     1      25.758  26.008  15.622  1.00  0.00     0.000 C 
ENDROOT
BRANCH   1   2
ATOM      2  C   UNL     1      25.166  25.670  17.001  1.00  0.00     0.000 C 
BRANCH   2   3
ATOM      3  C   UNL     1      24.078  24.587  16.927  1.00  0.00     0.000 C 
BRANCH   3   4
ATOM      4  C   UNL     1      23.228  24.692  15.650  1.00  0.00     0.000 C 
BRANCH   4   5
ATOM      5  C   UNL     1      23.206  23.381  14.842  1.00  0.00     0.006 C 
BRANCH   5   6
ATOM      6  C   UNL     1      24.113  23.449  13.607  1.00  0.00     0.053 C 
BRANCH   6   7
ATOM      7  C   UNL     1      25.293  22.534  13.735  1.00  0.00     0.041 C 
ATOM      8  O   UNL     1      26.125  22.698  14.666  1.00  0.00    -0.550 OA
ATOM      9  O   UNL     1      25.454  21.480  12.845  1.00  0.00    -0.550 OA
ENDBRANCH   6   7
ENDBRANCH   5   6
ENDBRANCH   4   5
ENDBRANCH   3   4
ENDBRANCH   2   3
ENDBRANCH   1   2
BRANCH   1  10
ATOM     10  C   UNL     1      25.742  27.516  15.322  1.00  0.00     0.000 C 
BRANCH  10  11
ATOM     11  C   UNL     1      25.061  28.292  16.460  1.00  0.00    -0.000 C 
BRANCH  11  12
ATOM     12  C   UNL     1      23.798  29.038  15.999  1.00  0.00    -0.000 C 
BRANCH  12  13
ATOM     13  C   UNL     1      22.507  28.416  16.557  1.00  0.00    -0.000 C 
BRANCH  13  14
ATOM     14  C   UNL     1      21.563  27.906  15.453  1.00  0.00    -0.000 C 
BRANCH  14  15
ATOM     15  C   UNL     1      21.994  28.244  14.012  1.00  0.00    -0.000 C 
BRANCH  15  16
ATOM     16  C   UNL     1      22.138  27.033  13.074  1.00  0.00    -0.003 C 
ATOM     17  C   UNL     1      23.498  26.978  12.378  1.00  0.00     0.004 C 
ENDBRANCH  15  16
ENDBRANCH  14  15
ENDBRANCH  13  14
ENDBRANCH  12  13
ENDBRANCH  11  12
ENDBRANCH  10  11
ENDBRANCH   1  10
TORSDOF 13
ENDMDL
MODEL 9
REMARK VINA RESULT:    -1.301      3.060      5.652
REMARK INTER + INTRA:          -4.806
REMARK INTER:                  -2.848
REMARK INTRA:                  -1.958
REMARK UNBOUND:                -2.516
REMARK SMILES CCCCCCCCCCCCCCC(=O)[O-]
REMARK SMILES IDX 9 1 10 2 11 3 12 4 13 5 14 6 15 7 16 8 17 9 8 10 7 11 6 12
REMARK SMILES IDX 5 13 4 14 3 15 2 16 1 17
REMARK H PARENT
REMARK Flexibility Score: inf
ROOT
ATOM      1  C   UNL     1      25.742  27.526  15.288  1.00  0.00     0.000 C 
ENDROOT
BRANCH   1   2
ATOM      2  C   UNL     1      25.576  26.003  15.411  1.00  0.00     0.000 C 
BRANCH   2   3
ATOM      3  C   UNL     1      24.484  25.608  16.420  1.00  0.00     0.000 C 
BRANCH   3   4
ATOM      4  C   UNL     1      24.548  24.121  16.806  1.00  0.00     0.000 C 
BRANCH   4   5
ATOM      5  C   UNL     1      23.805  23.216  15.807  1.00  0.00     0.006 C 
BRANCH   5   6
ATOM      6  C   UNL     1      24.291  21.762  15.873  1.00  0.00     0.053 C 
BRANCH   6   7
ATOM      7  C   UNL     1      25.525  21.553  15.050  1.00  0.00     0.041 C 
ATOM      8  O   UNL     1      26.125  20.446  15.077  1.00  0.00    -0.550 OA
ATOM      9  O   UNL     1      25.993  22.570  14.229  1.00  0.00    -0.550 OA
ENDBRANCH   6   7
ENDBRANCH   5   6
ENDBRANCH   4   5
ENDBRANCH   3   4
ENDBRANCH   2   3
ENDBRANCH   1   2
BRANCH   1  10
ATOM     10  C   UNL     1      24.429  28.289  15.524  1.00  0.00     0.000 C 
BRANCH  10  11
ATOM     11  C   UNL     1      24.144  29.259  14.367  1.00  0.00    -0.000 C 
BRANCH  11  12
ATOM     12  C   UNL     1      25.047  29.012  13.147  1.00  0.00    -0.000 C 
BRANCH  12  13
ATOM     13  C   UNL     1      24.245  28.686  11.875  1.00  0.00    -0.000 C 
BRANCH  13  14
ATOM     14  C   UNL     1      22.970  27.875  12.164  1.00  0.00    -0.000 C 
BRANCH  14  15
ATOM     15  C   UNL     1      23.126  26.344  12.060  1.00  0.00    -0.000 C 
BRANCH  15  16
ATOM     16  C   UNL     1      22.544  25.549  13.241  1.00  0.00    -0.003 C 
ATOM     17  C   UNL     1      21.567  26.366  14.085  1.00  0.00     0.004 C 
ENDBRANCH  15  16
ENDBRANCH  14  15
ENDBRANCH  13  14
ENDBRANCH  12  13
ENDBRANCH  11  12
ENDBRANCH  10  11
ENDBRANCH   1  10
TORSDOF 13
ENDMDL
