MODEL 1
REMARK VINA RESULT:     4.962      0.000      0.000
REMARK INTER + INTRA:           6.257
REMARK INTER:                   5.397
REMARK INTRA:                   0.860
REMARK UNBOUND:                 0.860
REMARK SMILES CC1(C)CC[C@]2(C(=O)[O-])CC[C@@]3(C)C(=CC[C@H]4[C@]5(C)CC[C@@H](O)C(C)(C)[C@@H]5CC[C@]43C)[C@@H]2C1
REMARK SMILES IDX 6 1 5 2 10 3 32 4 4 5 11 6 14 7 33 8 2 9 12 10 15 11 1 12
REMARK SMILES IDX 3 13 13 14 30 15 16 16 17 17 29 18 31 19 18 20 28 21 27 22
REMARK SMILES IDX 20 23 19 24 24 25 21 26 22 27 25 28 26 29 7 30 8 31 9 32
REMARK SMILES IDX 23 33
REMARK H PARENT 23 34
REMARK Flexibility Score: inf
ROOT
ATOM      1  C   UNL     1      13.228 -19.495 -16.127  1.00  0.00     0.017 C 
ATOM      2  C   UNL     1      14.276 -19.764 -17.255  1.00  0.00     0.014 C 
ATOM      3  C   UNL     1      13.537 -18.093 -15.565  1.00  0.00     0.014 C 
ATOM      4  C   UNL     1      13.325 -20.559 -14.952  1.00  0.00     0.028 C 
ATOM      5  C   UNL     1      14.326 -21.243 -17.636  1.00  0.00     0.007 C 
ATOM      6  C   UNL     1      12.506 -17.669 -14.526  1.00  0.00     0.013 C 
ATOM      7  C   UNL     1      13.149 -19.957 -13.535  1.00  0.00    -0.064 C 
ATOM      8  C   UNL     1      14.647 -21.386 -15.073  1.00  0.00     0.015 C 
ATOM      9  C   UNL     1      14.771 -22.137 -16.436  1.00  0.00    -0.035 C 
ATOM     10  C   UNL     1      12.372 -18.649 -13.299  1.00  0.00    -0.006 C 
ATOM     11  C   UNL     1      13.319 -20.760 -12.474  1.00  0.00    -0.027 C 
ATOM     12  C   UNL     1      16.246 -22.567 -16.623  1.00  0.00     0.011 C 
ATOM     13  C   UNL     1      13.901 -23.419 -16.416  1.00  0.00     0.011 C 
ATOM     14  C   UNL     1      10.875 -19.095 -13.230  1.00  0.00     0.017 C 
ATOM     15  C   UNL     1      12.804 -17.923 -11.924  1.00  0.00    -0.020 C 
ATOM     16  C   UNL     1      13.490 -20.268 -11.081  1.00  0.00     0.032 C 
ATOM     17  C   UNL     1      12.778 -18.929 -10.696  1.00  0.00     0.006 C 
ATOM     18  C   UNL     1      14.266 -17.400 -12.028  1.00  0.00     0.008 C 
ATOM     19  C   UNL     1      11.809 -16.729 -11.698  1.00  0.00     0.012 C 
ATOM     20  C   UNL     1      13.361 -18.381  -9.292  1.00  0.00    -0.025 C 
ATOM     21  C   UNL     1      14.807 -16.781 -10.734  1.00  0.00     0.005 C 
ATOM     22  C   UNL     1      14.787 -17.713  -9.484  1.00  0.00     0.003 C 
ATOM     23  C   UNL     1      12.383 -17.367  -8.614  1.00  0.00     0.010 C 
ATOM     24  C   UNL     1      13.447 -19.612  -8.325  1.00  0.00     0.012 C 
ATOM     25  C   UNL     1      15.358 -16.963  -8.189  1.00  0.00    -0.006 C 
ATOM     26  C   UNL     1      12.925 -16.722  -7.331  1.00  0.00     0.033 C 
ATOM     27  C   UNL     1      14.272 -16.024  -7.575  1.00  0.00     0.120 C 
ATOM     28  C   UNL     1      15.884 -17.982  -7.133  1.00  0.00     0.014 C 
ATOM     29  C   UNL     1      16.591 -16.086  -8.553  1.00  0.00     0.014 C 
ENDROOT
BRANCH   1  30
ATOM     30  C   UNL     1      11.851 -19.509 -16.791  1.00  0.00     0.048 C 
ATOM     31  O   UNL     1      11.046 -18.554 -16.602  1.00  0.00    -0.550 OA
ATOM     32  O   UNL     1      11.498 -20.495 -17.707  1.00  0.00    -0.550 OA
ENDBRANCH   1  30
BRANCH  27  33
ATOM     33  O   UNL     1      14.730 -15.392  -6.402  1.00  0.00    -0.393 OA
ATOM     34  H   UNL     1      14.745 -16.063  -5.670  1.00  0.00     0.210 HD
ENDBRANCH  27  33
TORSDOF 2
ENDMDL
MODEL 2
REMARK VINA RESULT:     5.185      2.990      8.260
REMARK INTER + INTRA:           6.499
REMARK INTER:                   6.816
REMARK INTRA:                  -0.317
REMARK UNBOUND:                 0.860
REMARK SMILES CC1(C)CC[C@]2(C(=O)[O-])CC[C@@]3(C)C(=CC[C@H]4[C@]5(C)CC[C@@H](O)C(C)(C)[C@@H]5CC[C@]43C)[C@@H]2C1
REMARK SMILES IDX 6 1 5 2 10 3 32 4 4 5 11 6 14 7 33 8 2 9 12 10 15 11 1 12
REMARK SMILES IDX 3 13 13 14 30 15 16 16 17 17 29 18 31 19 18 20 28 21 27 22
REMARK SMILES IDX 20 23 19 24 24 25 21 26 22 27 25 28 26 29 7 30 8 31 9 32
REMARK SMILES IDX 23 33
REMARK H PARENT 23 34
REMARK Flexibility Score: inf
ROOT
ATOM      1  C   UNL     1      11.949 -18.195  -8.929  1.00  0.00     0.017 C 
ATOM      2  C   UNL     1      10.875 -18.177  -7.791  1.00  0.00     0.014 C 
ATOM      3  C   UNL     1      11.320 -18.956 -10.113  1.00  0.00     0.014 C 
ATOM      4  C   UNL     1      13.282 -18.934  -8.484  1.00  0.00     0.028 C 
ATOM      5  C   UNL     1      11.489 -17.792  -6.446  1.00  0.00     0.007 C 
ATOM      6  C   UNL     1      12.236 -18.944 -11.332  1.00  0.00     0.013 C 
ATOM      7  C   UNL     1      13.912 -19.823  -9.585  1.00  0.00    -0.064 C 
ATOM      8  C   UNL     1      13.048 -19.729  -7.158  1.00  0.00     0.015 C 
ATOM      9  C   UNL     1      12.566 -18.823  -5.981  1.00  0.00    -0.035 C 
ATOM     10  C   UNL     1      13.665 -19.559 -11.082  1.00  0.00    -0.006 C 
ATOM     11  C   UNL     1      14.981 -20.569  -9.271  1.00  0.00    -0.027 C 
ATOM     12  C   UNL     1      11.979 -19.730  -4.875  1.00  0.00     0.011 C 
ATOM     13  C   UNL     1      13.769 -18.053  -5.379  1.00  0.00     0.011 C 
ATOM     14  C   UNL     1      14.709 -18.457 -11.458  1.00  0.00     0.017 C 
ATOM     15  C   UNL     1      13.896 -20.878 -11.981  1.00  0.00    -0.020 C 
ATOM     16  C   UNL     1      15.492 -21.683 -10.113  1.00  0.00     0.032 C 
ATOM     17  C   UNL     1      15.289 -21.570 -11.660  1.00  0.00     0.006 C 
ATOM     18  C   UNL     1      12.802 -21.940 -11.670  1.00  0.00     0.008 C 
ATOM     19  C   UNL     1      13.818 -20.435 -13.486  1.00  0.00     0.012 C 
ATOM     20  C   UNL     1      15.571 -23.000 -12.358  1.00  0.00    -0.025 C 
ATOM     21  C   UNL     1      12.991 -23.274 -12.401  1.00  0.00     0.005 C 
ATOM     22  C   UNL     1      14.352 -23.992 -12.145  1.00  0.00     0.003 C 
ATOM     23  C   UNL     1      15.879 -22.852 -13.883  1.00  0.00     0.010 C 
ATOM     24  C   UNL     1      16.877 -23.573 -11.706  1.00  0.00     0.012 C 
ATOM     25  C   UNL     1      14.450 -25.364 -12.967  1.00  0.00    -0.006 C 
ATOM     26  C   UNL     1      16.046 -24.182 -14.630  1.00  0.00     0.033 C 
ATOM     27  C   UNL     1      14.815 -25.085 -14.459  1.00  0.00     0.120 C 
ATOM     28  C   UNL     1      15.469 -26.343 -12.311  1.00  0.00     0.014 C 
ATOM     29  C   UNL     1      13.091 -26.123 -12.946  1.00  0.00     0.014 C 
ENDROOT
BRANCH   1  30
ATOM     30  C   UNL     1      12.210 -16.738  -9.312  1.00  0.00     0.048 C 
ATOM     31  O   UNL     1      13.361 -16.240  -9.163  1.00  0.00    -0.550 OA
ATOM     32  O   UNL     1      11.236 -15.969  -9.941  1.00  0.00    -0.550 OA
ENDBRANCH   1  30
BRANCH  27  33
ATOM     33  O   UNL     1      14.960 -26.278 -15.194  1.00  0.00    -0.393 OA
ATOM     34  H   UNL     1      15.522 -26.904 -14.666  1.00  0.00     0.210 HD
ENDBRANCH  27  33
TORSDOF 2
ENDMDL
MODEL 3
REMARK VINA RESULT:     6.082      3.410      7.982
REMARK INTER + INTRA:           7.475
REMARK INTER:                   7.809
REMARK INTRA:                  -0.334
REMARK UNBOUND:                 0.860
REMARK SMILES CC1(C)CC[C@]2(C(=O)[O-])CC[C@@]3(C)C(=CC[C@H]4[C@]5(C)CC[C@@H](O)C(C)(C)[C@@H]5CC[C@]43C)[C@@H]2C1
REMARK SMILES IDX 6 1 5 2 10 3 32 4 4 5 11 6 14 7 33 8 2 9 12 10 15 11 1 12
REMARK SMILES IDX 3 13 13 14 30 15 16 16 17 17 29 18 31 19 18 20 28 21 27 22
REMARK SMILES IDX 20 23 19 24 24 25 21 26 22 27 25 28 26 29 7 30 8 31 9 32
REMARK SMILES IDX 23 33
REMARK H PARENT 23 34
REMARK Flexibility Score: inf
ROOT
ATOM      1  C   UNL     1      14.663 -17.349  -9.922  1.00  0.00     0.017 C 
ATOM      2  C   UNL     1      14.629 -15.917 -10.552  1.00  0.00     0.014 C 
ATOM      3  C   UNL     1      15.939 -18.031 -10.453  1.00  0.00     0.014 C 
ATOM      4  C   UNL     1      13.399 -18.216 -10.335  1.00  0.00     0.028 C 
ATOM      5  C   UNL     1      13.249 -15.276 -10.415  1.00  0.00     0.007 C 
ATOM      6  C   UNL     1      16.143 -19.402  -9.819  1.00  0.00     0.013 C 
ATOM      7  C   UNL     1      13.720 -19.701 -10.640  1.00  0.00    -0.064 C 
ATOM      8  C   UNL     1      12.631 -17.534 -11.515  1.00  0.00     0.015 C 
ATOM      9  C   UNL     1      12.152 -16.088 -11.174  1.00  0.00    -0.035 C 
ATOM     10  C   UNL     1      14.947 -20.407 -10.034  1.00  0.00    -0.006 C 
ATOM     11  C   UNL     1      12.735 -20.487 -11.098  1.00  0.00    -0.027 C 
ATOM     12  C   UNL     1      11.790 -15.369 -12.495  1.00  0.00     0.011 C 
ATOM     13  C   UNL     1      10.875 -16.146 -10.298  1.00  0.00     0.011 C 
ATOM     14  C   UNL     1      14.472 -20.862  -8.615  1.00  0.00     0.017 C 
ATOM     15  C   UNL     1      15.409 -21.683 -10.906  1.00  0.00    -0.020 C 
ATOM     16  C   UNL     1      12.959 -21.820 -11.718  1.00  0.00     0.032 C 
ATOM     17  C   UNL     1      14.190 -22.649 -11.222  1.00  0.00     0.006 C 
ATOM     18  C   UNL     1      15.966 -21.221 -12.284  1.00  0.00     0.008 C 
ATOM     19  C   UNL     1      16.523 -22.428 -10.085  1.00  0.00     0.012 C 
ATOM     20  C   UNL     1      14.474 -23.873 -12.239  1.00  0.00    -0.025 C 
ATOM     21  C   UNL     1      16.340 -22.368 -13.229  1.00  0.00     0.005 C 
ATOM     22  C   UNL     1      15.189 -23.366 -13.560  1.00  0.00     0.003 C 
ATOM     23  C   UNL     1      15.325 -24.999 -11.568  1.00  0.00     0.010 C 
ATOM     24  C   UNL     1      13.084 -24.520 -12.570  1.00  0.00     0.012 C 
ATOM     25  C   UNL     1      15.692 -24.529 -14.541  1.00  0.00    -0.006 C 
ATOM     26  C   UNL     1      15.726 -26.141 -12.513  1.00  0.00     0.033 C 
ATOM     27  C   UNL     1      16.480 -25.617 -13.744  1.00  0.00     0.120 C 
ATOM     28  C   UNL     1      14.502 -25.158 -15.326  1.00  0.00     0.014 C 
ATOM     29  C   UNL     1      16.642 -23.962 -15.635  1.00  0.00     0.014 C 
ENDROOT
BRANCH   1  30
ATOM     30  C   UNL     1      14.751 -17.162  -8.407  1.00  0.00     0.048 C 
ATOM     31  O   UNL     1      15.685 -16.475  -7.906  1.00  0.00    -0.550 OA
ATOM     32  O   UNL     1      13.752 -17.633  -7.560  1.00  0.00    -0.550 OA
ENDBRANCH   1  30
BRANCH  27  33
ATOM     33  O   UNL     1      16.888 -26.679 -14.574  1.00  0.00    -0.393 OA
ATOM     34  H   UNL     1      17.746 -26.427 -15.006  1.00  0.00     0.210 HD
ENDBRANCH  27  33
TORSDOF 2
ENDMDL
