MODEL 1
REMARK VINA RESULT:    -4.234      0.000      0.000
REMARK INTER + INTRA:          -6.929
REMARK INTER:                  -6.461
REMARK INTRA:                  -0.468
REMARK UNBOUND:                -0.468
REMARK SMILES O=C([O-])CCCCCCCCC(=O)[O-]
REMARK SMILES IDX 7 1 6 2 5 3 4 4 2 5 1 6 3 7 8 8 9 9 10 10 11 11 12 12 13 13
REMARK SMILES IDX 14 14
REMARK H PARENT
REMARK Flexibility Score: inf
ROOT
ATOM      1  C   UNL     1      36.241  33.180  26.647  1.00  0.00     0.000 C 
ENDROOT
BRANCH   1   2
ATOM      2  C   UNL     1      34.872  33.380  25.966  1.00  0.00     0.000 C 
BRANCH   2   3
ATOM      3  C   UNL     1      34.187  32.088  25.485  1.00  0.00     0.006 C 
BRANCH   3   4
ATOM      4  C   UNL     1      34.061  32.012  23.959  1.00  0.00     0.053 C 
BRANCH   4   5
ATOM      5  C   UNL     1      34.851  30.859  23.426  1.00  0.00     0.041 C 
ATOM      6  O   UNL     1      36.087  30.777  23.657  1.00  0.00    -0.550 OA
ATOM      7  O   UNL     1      34.215  29.848  22.718  1.00  0.00    -0.550 OA
ENDBRANCH   4   5
ENDBRANCH   3   4
ENDBRANCH   2   3
ENDBRANCH   1   2
BRANCH   1   8
ATOM      8  C   UNL     1      36.622  34.264  27.670  1.00  0.00     0.000 C 
BRANCH   8   9
ATOM      9  C   UNL     1      35.987  35.630  27.356  1.00  0.00     0.000 C 
BRANCH   9  10
ATOM     10  C   UNL     1      35.282  36.252  28.574  1.00  0.00     0.006 C 
BRANCH  10  11
ATOM     11  C   UNL     1      36.209  36.515  29.772  1.00  0.00     0.053 C 
BRANCH  11  12
ATOM     12  C   UNL     1      37.345  37.423  29.414  1.00  0.00     0.041 C 
ATOM     13  O   UNL     1      38.532  37.004  29.465  1.00  0.00    -0.550 OA
ATOM     14  O   UNL     1      37.095  38.741  29.052  1.00  0.00    -0.550 OA
ENDBRANCH  11  12
ENDBRANCH  10  11
ENDBRANCH   9  10
ENDBRANCH   8   9
ENDBRANCH   1   8
TORSDOF 9
ENDMDL
MODEL 2
REMARK VINA RESULT:    -4.174      3.187      5.317
REMARK INTER + INTRA:          -6.838
REMARK INTER:                  -6.404
REMARK INTRA:                  -0.434
REMARK UNBOUND:                -0.468
REMARK SMILES O=C([O-])CCCCCCCCC(=O)[O-]
REMARK SMILES IDX 7 1 6 2 5 3 4 4 2 5 1 6 3 7 8 8 9 9 10 10 11 11 12 12 13 13
REMARK SMILES IDX 14 14
REMARK H PARENT
REMARK Flexibility Score: inf
ROOT
ATOM      1  C   UNL     1      34.224  30.625  22.193  1.00  0.00     0.000 C 
ENDROOT
BRANCH   1   2
ATOM      2  C   UNL     1      32.746  30.888  21.835  1.00  0.00     0.000 C 
BRANCH   2   3
ATOM      3  C   UNL     1      32.107  29.847  20.898  1.00  0.00     0.006 C 
BRANCH   3   4
ATOM      4  C   UNL     1      33.032  28.660  20.605  1.00  0.00     0.053 C 
BRANCH   4   5
ATOM      5  C   UNL     1      33.401  28.632  19.156  1.00  0.00     0.041 C 
ATOM      6  O   UNL     1      32.929  29.491  18.365  1.00  0.00    -0.550 OA
ATOM      7  O   UNL     1      34.306  27.689  18.687  1.00  0.00    -0.550 OA
ENDBRANCH   4   5
ENDBRANCH   3   4
ENDBRANCH   2   3
ENDBRANCH   1   2
BRANCH   1   8
ATOM      8  C   UNL     1      34.616  30.981  23.637  1.00  0.00     0.000 C 
BRANCH   8   9
ATOM      9  C   UNL     1      33.971  32.291  24.124  1.00  0.00     0.000 C 
BRANCH   9  10
ATOM     10  C   UNL     1      34.104  32.490  25.644  1.00  0.00     0.006 C 
BRANCH  10  11
ATOM     11  C   UNL     1      34.985  33.683  26.049  1.00  0.00     0.053 C 
BRANCH  11  12
ATOM     12  C   UNL     1      36.268  33.243  26.685  1.00  0.00     0.041 C 
ATOM     13  O   UNL     1      36.627  33.727  27.790  1.00  0.00    -0.550 OA
ATOM     14  O   UNL     1      37.082  32.319  26.041  1.00  0.00    -0.550 OA
ENDBRANCH  11  12
ENDBRANCH  10  11
ENDBRANCH   9  10
ENDBRANCH   8   9
ENDBRANCH   1   8
TORSDOF 9
ENDMDL
MODEL 3
REMARK VINA RESULT:    -4.154      3.246      8.977
REMARK INTER + INTRA:          -6.808
REMARK INTER:                  -6.420
REMARK INTRA:                  -0.387
REMARK UNBOUND:                -0.468
REMARK SMILES O=C([O-])CCCCCCCCC(=O)[O-]
REMARK SMILES IDX 7 1 6 2 5 3 4 4 2 5 1 6 3 7 8 8 9 9 10 10 11 11 12 12 13 13
REMARK SMILES IDX 14 14
REMARK H PARENT
REMARK Flexibility Score: inf
ROOT
ATOM      1  C   UNL     1      34.737  30.951  23.720  1.00  0.00     0.000 C 
ENDROOT
BRANCH   1   2
ATOM      2  C   UNL     1      33.969  32.236  24.091  1.00  0.00     0.000 C 
BRANCH   2   3
ATOM      3  C   UNL     1      34.076  32.658  25.568  1.00  0.00     0.006 C 
BRANCH   3   4
ATOM      4  C   UNL     1      35.523  32.710  26.069  1.00  0.00     0.053 C 
BRANCH   4   5
ATOM      5  C   UNL     1      35.809  34.035  26.702  1.00  0.00     0.041 C 
ATOM      6  O   UNL     1      36.911  34.239  27.276  1.00  0.00    -0.550 OA
ATOM      7  O   UNL     1      34.880  35.063  26.613  1.00  0.00    -0.550 OA
ENDBRANCH   4   5
ENDBRANCH   3   4
ENDBRANCH   2   3
ENDBRANCH   1   2
BRANCH   1   8
ATOM      8  C   UNL     1      34.021  30.033  22.715  1.00  0.00     0.000 C 
BRANCH   8   9
ATOM      9  C   UNL     1      32.979  30.779  21.863  1.00  0.00     0.000 C 
BRANCH   9  10
ATOM     10  C   UNL     1      32.146  29.833  20.980  1.00  0.00     0.006 C 
BRANCH  10  11
ATOM     11  C   UNL     1      32.891  28.561  20.542  1.00  0.00     0.053 C 
BRANCH  11  12
ATOM     12  C   UNL     1      33.414  28.670  19.143  1.00  0.00     0.041 C 
ATOM     13  O   UNL     1      34.232  27.820  18.703  1.00  0.00    -0.550 OA
ATOM     14  O   UNL     1      33.017  29.727  18.333  1.00  0.00    -0.550 OA
ENDBRANCH  11  12
ENDBRANCH  10  11
ENDBRANCH   9  10
ENDBRANCH   8   9
ENDBRANCH   1   8
TORSDOF 9
ENDMDL
MODEL 4
REMARK VINA RESULT:    -4.126      2.568      4.146
REMARK INTER + INTRA:          -6.765
REMARK INTER:                  -6.342
REMARK INTRA:                  -0.423
REMARK UNBOUND:                -0.468
REMARK SMILES O=C([O-])CCCCCCCCC(=O)[O-]
REMARK SMILES IDX 7 1 6 2 5 3 4 4 2 5 1 6 3 7 8 8 9 9 10 10 11 11 12 12 13 13
REMARK SMILES IDX 14 14
REMARK H PARENT
REMARK Flexibility Score: inf
ROOT
ATOM      1  C   UNL     1      33.579  32.104  23.027  1.00  0.00     0.000 C 
ENDROOT
BRANCH   1   2
ATOM      2  C   UNL     1      34.273  30.740  23.216  1.00  0.00     0.000 C 
BRANCH   2   3
ATOM      3  C   UNL     1      33.679  29.585  22.390  1.00  0.00     0.006 C 
BRANCH   3   4
ATOM      4  C   UNL     1      32.611  30.051  21.395  1.00  0.00     0.053 C 
BRANCH   4   5
ATOM      5  C   UNL     1      32.895  29.506  20.031  1.00  0.00     0.041 C 
ATOM      6  O   UNL     1      33.344  28.337  19.897  1.00  0.00    -0.550 OA
ATOM      7  O   UNL     1      32.616  30.269  18.905  1.00  0.00    -0.550 OA
ENDBRANCH   4   5
ENDBRANCH   3   4
ENDBRANCH   2   3
ENDBRANCH   1   2
BRANCH   1   8
ATOM      8  C   UNL     1      33.666  33.051  24.236  1.00  0.00     0.000 C 
BRANCH   8   9
ATOM      9  C   UNL     1      34.094  32.331  25.527  1.00  0.00     0.000 C 
BRANCH   9  10
ATOM     10  C   UNL     1      35.453  32.821  26.059  1.00  0.00     0.006 C 
BRANCH  10  11
ATOM     11  C   UNL     1      35.606  34.351  26.081  1.00  0.00     0.053 C 
BRANCH  11  12
ATOM     12  C   UNL     1      35.894  34.867  27.457  1.00  0.00     0.041 C 
ATOM     13  O   UNL     1      36.684  34.246  28.216  1.00  0.00    -0.550 OA
ATOM     14  O   UNL     1      35.266  36.020  27.912  1.00  0.00    -0.550 OA
ENDBRANCH  11  12
ENDBRANCH  10  11
ENDBRANCH   9  10
ENDBRANCH   8   9
ENDBRANCH   1   8
TORSDOF 9
ENDMDL
MODEL 5
REMARK VINA RESULT:    -4.112      1.524      7.637
REMARK INTER + INTRA:          -6.743
REMARK INTER:                  -6.325
REMARK INTRA:                  -0.418
REMARK UNBOUND:                -0.468
REMARK SMILES O=C([O-])CCCCCCCCC(=O)[O-]
REMARK SMILES IDX 7 1 6 2 5 3 4 4 2 5 1 6 3 7 8 8 9 9 10 10 11 11 12 12 13 13
REMARK SMILES IDX 14 14
REMARK H PARENT
REMARK Flexibility Score: inf
ROOT
ATOM      1  C   UNL     1      36.222  33.373  25.970  1.00  0.00     0.000 C 
ENDROOT
BRANCH   1   2
ATOM      2  C   UNL     1      36.871  33.445  27.368  1.00  0.00     0.000 C 
BRANCH   2   3
ATOM      3  C   UNL     1      37.449  34.820  27.750  1.00  0.00     0.006 C 
BRANCH   3   4
ATOM      4  C   UNL     1      36.995  35.293  29.135  1.00  0.00     0.053 C 
BRANCH   4   5
ATOM      5  C   UNL     1      35.995  36.399  29.006  1.00  0.00     0.041 C 
ATOM      6  O   UNL     1      36.268  37.553  29.430  1.00  0.00    -0.550 OA
ATOM      7  O   UNL     1      34.781  36.168  28.373  1.00  0.00    -0.550 OA
ENDBRANCH   4   5
ENDBRANCH   3   4
ENDBRANCH   2   3
ENDBRANCH   1   2
BRANCH   1   8
ATOM      8  C   UNL     1      34.690  33.516  25.957  1.00  0.00     0.000 C 
BRANCH   8   9
ATOM      9  C   UNL     1      33.993  32.379  25.190  1.00  0.00     0.000 C 
BRANCH   9  10
ATOM     10  C   UNL     1      34.674  32.063  23.846  1.00  0.00     0.006 C 
BRANCH  10  11
ATOM     11  C   UNL     1      34.482  30.615  23.368  1.00  0.00     0.053 C 
BRANCH  11  12
ATOM     12  C   UNL     1      33.521  30.525  22.222  1.00  0.00     0.041 C 
ATOM     13  O   UNL     1      33.574  29.553  21.423  1.00  0.00    -0.550 OA
ATOM     14  O   UNL     1      32.584  31.531  22.020  1.00  0.00    -0.550 OA
ENDBRANCH  11  12
ENDBRANCH  10  11
ENDBRANCH   9  10
ENDBRANCH   8   9
ENDBRANCH   1   8
TORSDOF 9
ENDMDL
MODEL 6
REMARK VINA RESULT:    -4.076      1.711      2.388
REMARK INTER + INTRA:          -6.688
REMARK INTER:                  -6.255
REMARK INTRA:                  -0.433
REMARK UNBOUND:                -0.468
REMARK SMILES O=C([O-])CCCCCCCCC(=O)[O-]
REMARK SMILES IDX 7 1 6 2 5 3 4 4 2 5 1 6 3 7 8 8 9 9 10 10 11 11 12 12 13 13
REMARK SMILES IDX 14 14
REMARK H PARENT
REMARK Flexibility Score: inf
ROOT
ATOM      1  C   UNL     1      34.934  33.673  26.000  1.00  0.00     0.000 C 
ENDROOT
BRANCH   1   2
ATOM      2  C   UNL     1      33.959  32.578  25.519  1.00  0.00     0.000 C 
BRANCH   2   3
ATOM      3  C   UNL     1      34.200  32.072  24.085  1.00  0.00     0.006 C 
BRANCH   3   4
ATOM      4  C   UNL     1      33.251  32.707  23.062  1.00  0.00     0.053 C 
BRANCH   4   5
ATOM      5  C   UNL     1      33.110  31.823  21.863  1.00  0.00     0.041 C 
ATOM      6  O   UNL     1      32.244  30.909  21.849  1.00  0.00    -0.550 OA
ATOM      7  O   UNL     1      33.899  32.042  20.742  1.00  0.00    -0.550 OA
ENDBRANCH   4   5
ENDBRANCH   3   4
ENDBRANCH   2   3
ENDBRANCH   1   2
BRANCH   1   8
ATOM      8  C   UNL     1      36.412  33.425  25.652  1.00  0.00     0.000 C 
BRANCH   8   9
ATOM      9  C   UNL     1      37.338  33.526  26.878  1.00  0.00     0.000 C 
BRANCH   9  10
ATOM     10  C   UNL     1      36.631  34.121  28.108  1.00  0.00     0.006 C 
BRANCH  10  11
ATOM     11  C   UNL     1      37.285  35.401  28.653  1.00  0.00     0.053 C 
BRANCH  11  12
ATOM     12  C   UNL     1      36.283  36.492  28.879  1.00  0.00     0.041 C 
ATOM     13  O   UNL     1      36.641  37.586  29.387  1.00  0.00    -0.550 OA
ATOM     14  O   UNL     1      34.948  36.287  28.553  1.00  0.00    -0.550 OA
ENDBRANCH  11  12
ENDBRANCH  10  11
ENDBRANCH   9  10
ENDBRANCH   8   9
ENDBRANCH   1   8
TORSDOF 9
ENDMDL
MODEL 7
REMARK VINA RESULT:    -4.046      1.225      7.622
REMARK INTER + INTRA:          -6.642
REMARK INTER:                  -6.154
REMARK INTRA:                  -0.488
REMARK UNBOUND:                -0.468
REMARK SMILES O=C([O-])CCCCCCCCC(=O)[O-]
REMARK SMILES IDX 7 1 6 2 5 3 4 4 2 5 1 6 3 7 8 8 9 9 10 10 11 11 12 12 13 13
REMARK SMILES IDX 14 14
REMARK H PARENT
REMARK Flexibility Score: inf
ROOT
ATOM      1  C   UNL     1      36.118  34.131  26.260  1.00  0.00     0.000 C 
ENDROOT
BRANCH   1   2
ATOM      2  C   UNL     1      35.203  35.336  26.559  1.00  0.00     0.000 C 
BRANCH   2   3
ATOM      3  C   UNL     1      35.214  35.817  28.021  1.00  0.00     0.006 C 
BRANCH   3   4
ATOM      4  C   UNL     1      36.460  35.361  28.789  1.00  0.00     0.053 C 
BRANCH   4   5
ATOM      5  C   UNL     1      37.313  36.538  29.145  1.00  0.00     0.041 C 
ATOM      6  O   UNL     1      38.540  36.383  29.381  1.00  0.00    -0.550 OA
ATOM      7  O   UNL     1      36.763  37.813  29.169  1.00  0.00    -0.550 OA
ENDBRANCH   4   5
ENDBRANCH   3   4
ENDBRANCH   2   3
ENDBRANCH   1   2
BRANCH   1   8
ATOM      8  C   UNL     1      35.396  32.776  26.155  1.00  0.00     0.000 C 
BRANCH   8   9
ATOM      9  C   UNL     1      33.951  32.908  25.643  1.00  0.00     0.000 C 
BRANCH   9  10
ATOM     10  C   UNL     1      33.837  32.697  24.123  1.00  0.00     0.006 C 
BRANCH  10  11
ATOM     11  C   UNL     1      34.356  31.334  23.636  1.00  0.00     0.053 C 
BRANCH  11  12
ATOM     12  C   UNL     1      33.642  30.869  22.404  1.00  0.00     0.041 C 
ATOM     13  O   UNL     1      32.544  31.387  22.073  1.00  0.00    -0.550 OA
ATOM     14  O   UNL     1      34.177  29.840  21.638  1.00  0.00    -0.550 OA
ENDBRANCH  11  12
ENDBRANCH  10  11
ENDBRANCH   9  10
ENDBRANCH   8   9
ENDBRANCH   1   8
TORSDOF 9
ENDMDL
MODEL 8
REMARK VINA RESULT:    -4.023      1.061      7.461
REMARK INTER + INTRA:          -6.607
REMARK INTER:                  -6.066
REMARK INTRA:                  -0.541
REMARK UNBOUND:                -0.468
REMARK SMILES O=C([O-])CCCCCCCCC(=O)[O-]
REMARK SMILES IDX 7 1 6 2 5 3 4 4 2 5 1 6 3 7 8 8 9 9 10 10 11 11 12 12 13 13
REMARK SMILES IDX 14 14
REMARK H PARENT
REMARK Flexibility Score: inf
ROOT
ATOM      1  C   UNL     1      35.687  35.407  25.746  1.00  0.00     0.000 C 
ENDROOT
BRANCH   1   2
ATOM      2  C   UNL     1      35.735  35.038  27.243  1.00  0.00     0.000 C 
BRANCH   2   3
ATOM      3  C   UNL     1      35.163  36.103  28.196  1.00  0.00     0.006 C 
BRANCH   3   4
ATOM      4  C   UNL     1      35.966  36.233  29.495  1.00  0.00     0.053 C 
BRANCH   4   5
ATOM      5  C   UNL     1      37.177  37.084  29.277  1.00  0.00     0.041 C 
ATOM      6  O   UNL     1      37.060  38.331  29.144  1.00  0.00    -0.550 OA
ATOM      7  O   UNL     1      38.440  36.507  29.270  1.00  0.00    -0.550 OA
ENDBRANCH   4   5
ENDBRANCH   3   4
ENDBRANCH   2   3
ENDBRANCH   1   2
BRANCH   1   8
ATOM      8  C   UNL     1      34.856  34.456  24.867  1.00  0.00     0.000 C 
BRANCH   8   9
ATOM      9  C   UNL     1      34.058  33.429  25.691  1.00  0.00     0.000 C 
BRANCH   9  10
ATOM     10  C   UNL     1      34.470  31.977  25.390  1.00  0.00     0.006 C 
BRANCH  10  11
ATOM     11  C   UNL     1      35.011  31.757  23.968  1.00  0.00     0.053 C 
BRANCH  11  12
ATOM     12  C   UNL     1      33.971  31.186  23.054  1.00  0.00     0.041 C 
ATOM     13  O   UNL     1      34.027  29.978  22.704  1.00  0.00    -0.550 OA
ATOM     14  O   UNL     1      32.955  31.998  22.563  1.00  0.00    -0.550 OA
ENDBRANCH  11  12
ENDBRANCH  10  11
ENDBRANCH   9  10
ENDBRANCH   8   9
ENDBRANCH   1   8
TORSDOF 9
ENDMDL
MODEL 9
REMARK VINA RESULT:    -4.007      3.521      5.734
REMARK INTER + INTRA:          -6.582
REMARK INTER:                  -6.058
REMARK INTRA:                  -0.525
REMARK UNBOUND:                -0.468
REMARK SMILES O=C([O-])CCCCCCCCC(=O)[O-]
REMARK SMILES IDX 7 1 6 2 5 3 4 4 2 5 1 6 3 7 8 8 9 9 10 10 11 11 12 12 13 13
REMARK SMILES IDX 14 14
REMARK H PARENT
REMARK Flexibility Score: inf
ROOT
ATOM      1  C   UNL     1      34.310  29.750  22.297  1.00  0.00     0.000 C 
ENDROOT
BRANCH   1   2
ATOM      2  C   UNL     1      32.876  29.210  22.117  1.00  0.00     0.000 C 
BRANCH   2   3
ATOM      3  C   UNL     1      32.540  28.706  20.702  1.00  0.00     0.006 C 
BRANCH   3   4
ATOM      4  C   UNL     1      32.888  29.723  19.609  1.00  0.00     0.053 C 
BRANCH   4   5
ATOM      5  C   UNL     1      33.788  29.104  18.587  1.00  0.00     0.041 C 
ATOM      6  O   UNL     1      34.372  28.016  18.833  1.00  0.00    -0.550 OA
ATOM      7  O   UNL     1      33.942  29.701  17.343  1.00  0.00    -0.550 OA
ENDBRANCH   4   5
ENDBRANCH   3   4
ENDBRANCH   2   3
ENDBRANCH   1   2
BRANCH   1   8
ATOM      8  C   UNL     1      34.456  30.876  23.334  1.00  0.00     0.000 C 
BRANCH   8   9
ATOM      9  C   UNL     1      33.615  32.118  22.988  1.00  0.00     0.000 C 
BRANCH   9  10
ATOM     10  C   UNL     1      33.593  33.156  24.123  1.00  0.00     0.006 C 
BRANCH  10  11
ATOM     11  C   UNL     1      33.983  32.593  25.500  1.00  0.00     0.053 C 
BRANCH  11  12
ATOM     12  C   UNL     1      35.144  33.327  26.098  1.00  0.00     0.041 C 
ATOM     13  O   UNL     1      36.187  32.704  26.429  1.00  0.00    -0.550 OA
ATOM     14  O   UNL     1      35.061  34.697  26.318  1.00  0.00    -0.550 OA
ENDBRANCH  11  12
ENDBRANCH  10  11
ENDBRANCH   9  10
ENDBRANCH   8   9
ENDBRANCH   1   8
TORSDOF 9
ENDMDL
