MODEL 1
REMARK VINA RESULT:    -5.079      0.000      0.000
REMARK INTER + INTRA:          -5.568
REMARK INTER:                  -5.376
REMARK INTRA:                  -0.192
REMARK UNBOUND:                -0.192
REMARK SMILES CC1=CC[C@@H](C(C)C)C=C1
REMARK SMILES IDX 1 1 2 2 3 3 4 4 5 5 9 6 10 7 6 8 7 9 8 10
REMARK H PARENT
REMARK Flexibility Score: inf
ROOT
ATOM      1  C   UNL     1       7.408   5.310  12.748  1.00  0.00     0.044 C 
ATOM      2  C   UNL     1       6.414   6.416  12.553  1.00  0.00    -0.055 C 
ATOM      3  C   UNL     1       5.107   6.197  12.771  1.00  0.00    -0.023 C 
ATOM      4  C   UNL     1       4.110   7.320  12.647  1.00  0.00     0.035 C 
ATOM      5  C   UNL     1       4.505   8.279  11.497  1.00  0.00     0.018 C 
ATOM      6  C   UNL     1       5.977   8.625  11.584  1.00  0.00    -0.023 C 
ATOM      7  C   UNL     1       6.862   7.727  12.031  1.00  0.00    -0.001 C 
ENDROOT
BRANCH   5   8
ATOM      8  C   UNL     1       3.621   9.558  11.407  1.00  0.00    -0.010 C 
ATOM      9  C   UNL     1       2.950   9.884  12.749  1.00  0.00     0.008 C 
ATOM     10  C   UNL     1       4.375  10.789  10.875  1.00  0.00     0.008 C 
ENDBRANCH   5   8
TORSDOF 1
ENDMDL
MODEL 2
REMARK VINA RESULT:    -5.058      0.990      4.168
REMARK INTER + INTRA:          -5.545
REMARK INTER:                  -5.353
REMARK INTRA:                  -0.192
REMARK UNBOUND:                -0.192
REMARK SMILES CC1=CC[C@@H](C(C)C)C=C1
REMARK SMILES IDX 1 1 2 2 3 3 4 4 5 5 9 6 10 7 6 8 7 9 8 10
REMARK H PARENT
REMARK Flexibility Score: inf
ROOT
ATOM      1  C   UNL     1       3.469  10.332  11.134  1.00  0.00     0.044 C 
ATOM      2  C   UNL     1       4.299   9.161  11.571  1.00  0.00    -0.055 C 
ATOM      3  C   UNL     1       3.832   8.309  12.498  1.00  0.00    -0.023 C 
ATOM      4  C   UNL     1       4.627   7.091  12.891  1.00  0.00     0.035 C 
ATOM      5  C   UNL     1       6.145   7.403  12.886  1.00  0.00     0.018 C 
ATOM      6  C   UNL     1       6.527   8.138  11.619  1.00  0.00    -0.023 C 
ATOM      7  C   UNL     1       5.673   8.994  11.045  1.00  0.00    -0.001 C 
ENDROOT
BRANCH   5   8
ATOM      8  C   UNL     1       7.048   6.155  13.118  1.00  0.00    -0.010 C 
ATOM      9  C   UNL     1       6.219   4.875  13.294  1.00  0.00     0.008 C 
ATOM     10  C   UNL     1       8.111   5.956  12.025  1.00  0.00     0.008 C 
ENDBRANCH   5   8
TORSDOF 1
ENDMDL
MODEL 3
REMARK VINA RESULT:    -4.084      3.152      6.294
REMARK INTER + INTRA:          -4.514
REMARK INTER:                  -4.347
REMARK INTRA:                  -0.168
REMARK UNBOUND:                -0.192
REMARK SMILES CC1=CC[C@@H](C(C)C)C=C1
REMARK SMILES IDX 1 1 2 2 3 3 4 4 5 5 9 6 10 7 6 8 7 9 8 10
REMARK H PARENT
REMARK Flexibility Score: inf
ROOT
ATOM      1  C   UNL     1       4.397  16.254  12.146  1.00  0.00     0.044 C 
ATOM      2  C   UNL     1       3.966  14.817  12.134  1.00  0.00    -0.055 C 
ATOM      3  C   UNL     1       3.606  14.209  13.277  1.00  0.00    -0.023 C 
ATOM      4  C   UNL     1       3.104  12.789  13.265  1.00  0.00     0.035 C 
ATOM      5  C   UNL     1       3.854  11.951  12.199  1.00  0.00     0.018 C 
ATOM      6  C   UNL     1       3.920  12.706  10.888  1.00  0.00    -0.023 C 
ATOM      7  C   UNL     1       4.023  14.039  10.875  1.00  0.00    -0.001 C 
ENDROOT
BRANCH   5   8
ATOM      8  C   UNL     1       3.283  10.516  12.006  1.00  0.00    -0.010 C 
ATOM      9  C   UNL     1       2.001  10.521  11.161  1.00  0.00     0.008 C 
ATOM     10  C   UNL     1       4.302   9.523  11.420  1.00  0.00     0.008 C 
ENDBRANCH   5   8
TORSDOF 1
ENDMDL
MODEL 4
REMARK VINA RESULT:    -3.969      1.967      3.218
REMARK INTER + INTRA:          -4.392
REMARK INTER:                  -4.226
REMARK INTRA:                  -0.167
REMARK UNBOUND:                -0.192
REMARK SMILES CC1=CC[C@@H](C(C)C)C=C1
REMARK SMILES IDX 1 1 2 2 3 3 4 4 5 5 9 6 10 7 6 8 7 9 8 10
REMARK H PARENT
REMARK Flexibility Score: inf
ROOT
ATOM      1  C   UNL     1       9.696   8.303  13.837  1.00  0.00     0.044 C 
ATOM      2  C   UNL     1       8.288   7.845  13.592  1.00  0.00    -0.055 C 
ATOM      3  C   UNL     1       7.861   6.674  14.091  1.00  0.00    -0.023 C 
ATOM      4  C   UNL     1       6.430   6.240  13.912  1.00  0.00     0.035 C 
ATOM      5  C   UNL     1       5.892   6.681  12.528  1.00  0.00     0.018 C 
ATOM      6  C   UNL     1       6.247   8.130  12.264  1.00  0.00    -0.023 C 
ATOM      7  C   UNL     1       7.393   8.644  12.724  1.00  0.00    -0.001 C 
ENDROOT
BRANCH   5   8
ATOM      8  C   UNL     1       4.370   6.419  12.327  1.00  0.00    -0.010 C 
ATOM      9  C   UNL     1       4.024   4.930  12.467  1.00  0.00     0.008 C 
ATOM     10  C   UNL     1       3.475   7.264  13.250  1.00  0.00     0.008 C 
ENDBRANCH   5   8
TORSDOF 1
ENDMDL
MODEL 5
REMARK VINA RESULT:    -3.902      1.939      3.841
REMARK INTER + INTRA:          -4.322
REMARK INTER:                  -4.152
REMARK INTRA:                  -0.170
REMARK UNBOUND:                -0.192
REMARK SMILES CC1=CC[C@@H](C(C)C)C=C1
REMARK SMILES IDX 1 1 2 2 3 3 4 4 5 5 9 6 10 7 6 8 7 9 8 10
REMARK H PARENT
REMARK Flexibility Score: inf
ROOT
ATOM      1  C   UNL     1       3.642   4.875  12.216  1.00  0.00     0.044 C 
ATOM      2  C   UNL     1       4.708   5.861  12.595  1.00  0.00    -0.055 C 
ATOM      3  C   UNL     1       4.684   7.108  12.098  1.00  0.00    -0.023 C 
ATOM      4  C   UNL     1       5.708   8.125  12.529  1.00  0.00     0.035 C 
ATOM      5  C   UNL     1       7.087   7.456  12.747  1.00  0.00     0.018 C 
ATOM      6  C   UNL     1       6.934   6.192  13.568  1.00  0.00    -0.023 C 
ATOM      7  C   UNL     1       5.840   5.432  13.448  1.00  0.00    -0.001 C 
ENDROOT
BRANCH   5   8
ATOM      8  C   UNL     1       8.163   8.404  13.354  1.00  0.00    -0.010 C 
ATOM      9  C   UNL     1       7.913   8.671  14.845  1.00  0.00     0.008 C 
ATOM     10  C   UNL     1       9.605   7.917  13.134  1.00  0.00     0.008 C 
ENDBRANCH   5   8
TORSDOF 1
ENDMDL
MODEL 6
REMARK VINA RESULT:    -3.678      3.533      6.583
REMARK INTER + INTRA:          -4.084
REMARK INTER:                  -3.962
REMARK INTRA:                  -0.122
REMARK UNBOUND:                -0.192
REMARK SMILES CC1=CC[C@@H](C(C)C)C=C1
REMARK SMILES IDX 1 1 2 2 3 3 4 4 5 5 9 6 10 7 6 8 7 9 8 10
REMARK H PARENT
REMARK Flexibility Score: inf
ROOT
ATOM      1  C   UNL     1       4.151  16.521  11.894  1.00  0.00     0.044 C 
ATOM      2  C   UNL     1       3.990  15.032  11.983  1.00  0.00    -0.055 C 
ATOM      3  C   UNL     1       4.084  14.274  10.878  1.00  0.00    -0.023 C 
ATOM      4  C   UNL     1       3.995  12.773  10.968  1.00  0.00     0.035 C 
ATOM      5  C   UNL     1       2.979  12.348  12.058  1.00  0.00     0.018 C 
ATOM      6  C   UNL     1       3.213  13.137  13.330  1.00  0.00    -0.023 C 
ATOM      7  C   UNL     1       3.636  14.404  13.276  1.00  0.00    -0.001 C 
ENDROOT
BRANCH   5   8
ATOM      8  C   UNL     1       2.948  10.816  12.332  1.00  0.00    -0.010 C 
ATOM      9  C   UNL     1       1.550  10.339  12.751  1.00  0.00     0.008 C 
ATOM     10  C   UNL     1       3.468   9.971  11.156  1.00  0.00     0.008 C 
ENDBRANCH   5   8
TORSDOF 1
ENDMDL
MODEL 7
REMARK VINA RESULT:    -3.616      1.392      5.059
REMARK INTER + INTRA:          -4.019
REMARK INTER:                  -3.827
REMARK INTRA:                  -0.192
REMARK UNBOUND:                -0.192
REMARK SMILES CC1=CC[C@@H](C(C)C)C=C1
REMARK SMILES IDX 1 1 2 2 3 3 4 4 5 5 9 6 10 7 6 8 7 9 8 10
REMARK H PARENT
REMARK Flexibility Score: inf
ROOT
ATOM      1  C   UNL     1       1.832  12.901  11.626  1.00  0.00     0.044 C 
ATOM      2  C   UNL     1       2.721  11.696  11.727  1.00  0.00    -0.055 C 
ATOM      3  C   UNL     1       3.748  11.540  10.876  1.00  0.00    -0.023 C 
ATOM      4  C   UNL     1       4.688  10.371  11.014  1.00  0.00     0.035 C 
ATOM      5  C   UNL     1       3.923   9.104  11.473  1.00  0.00     0.018 C 
ATOM      6  C   UNL     1       3.005   9.435  12.632  1.00  0.00    -0.023 C 
ATOM      7  C   UNL     1       2.411  10.631  12.709  1.00  0.00    -0.001 C 
ENDROOT
BRANCH   5   8
ATOM      8  C   UNL     1       4.845   7.893  11.802  1.00  0.00    -0.010 C 
ATOM      9  C   UNL     1       6.314   8.316  11.946  1.00  0.00     0.008 C 
ATOM     10  C   UNL     1       4.396   7.098  13.040  1.00  0.00     0.008 C 
ENDBRANCH   5   8
TORSDOF 1
ENDMDL
MODEL 8
REMARK VINA RESULT:    -3.572      1.013      4.263
REMARK INTER + INTRA:          -3.972
REMARK INTER:                  -3.786
REMARK INTRA:                  -0.186
REMARK UNBOUND:                -0.192
REMARK SMILES CC1=CC[C@@H](C(C)C)C=C1
REMARK SMILES IDX 1 1 2 2 3 3 4 4 5 5 9 6 10 7 6 8 7 9 8 10
REMARK H PARENT
REMARK Flexibility Score: inf
ROOT
ATOM      1  C   UNL     1       3.212  11.871  11.122  1.00  0.00     0.044 C 
ATOM      2  C   UNL     1       3.621  10.499  11.573  1.00  0.00    -0.055 C 
ATOM      3  C   UNL     1       3.054   9.946  12.657  1.00  0.00    -0.023 C 
ATOM      4  C   UNL     1       3.406   8.543  13.076  1.00  0.00     0.035 C 
ATOM      5  C   UNL     1       4.903   8.251  12.809  1.00  0.00     0.018 C 
ATOM      6  C   UNL     1       5.288   8.709  11.418  1.00  0.00    -0.023 C 
ATOM      7  C   UNL     1       4.718   9.790  10.875  1.00  0.00    -0.001 C 
ENDROOT
BRANCH   5   8
ATOM      8  C   UNL     1       5.314   6.769  13.058  1.00  0.00    -0.010 C 
ATOM      9  C   UNL     1       4.363   5.788  12.357  1.00  0.00     0.008 C 
ATOM     10  C   UNL     1       6.772   6.463  12.674  1.00  0.00     0.008 C 
ENDBRANCH   5   8
TORSDOF 1
ENDMDL
