MODEL 1
REMARK VINA RESULT:    -3.352      0.000      0.000
REMARK INTER + INTRA:          -3.954
REMARK INTER:                  -4.724
REMARK INTRA:                   0.770
REMARK UNBOUND:                 0.770
REMARK SMILES CC1=CCC(=C(C)C)C(=O)CC(C)=CCC1
REMARK SMILES IDX 12 1 14 2 13 3 15 4 16 5 2 6 1 7 3 8 11 10 9 11 10 12 5 13
REMARK SMILES IDX 6 14 7 15 8 16 4 17
REMARK H PARENT
REMARK Flexibility Score: 60.00
ROOT
ATOM      1  C   UNL     1      23.627  35.787  87.996  1.00  0.00    -0.070 C 
ATOM      2  C   UNL     1      23.400  34.945  86.960  1.00  0.00    -0.027 C 
ATOM      3  C   UNL     1      23.690  35.186  89.379  1.00  0.00     0.039 C 
ENDROOT
BRANCH   2   4
ATOM      4  C   UNL     1      23.403  35.308  85.495  1.00  0.00     0.032 C 
BRANCH   4   5
ATOM      5  C   UNL     1      22.127  34.844  84.767  1.00  0.00     0.034 C 
BRANCH   5   6
ATOM      6  C   UNL     1      20.889  35.559  85.272  1.00  0.00    -0.077 C 
ATOM      7  C   UNL     1      19.639  34.748  85.503  1.00  0.00     0.039 C 
ATOM      8  C   UNL     1      20.832  36.889  85.504  1.00  0.00    -0.023 CG0
ATOM      9  G   UNL     1      21.962  37.869  85.300  1.00  0.00     0.000 G0
ENDBRANCH   5   6
ENDBRANCH   4   5
ENDBRANCH   2   4
BRANCH   1  10
ATOM     10  C   UNL     1      23.887  37.275  87.833  1.00  0.00     0.111 C 
BRANCH  10  11
ATOM     11  C   UNL     1      22.599  38.061  87.790  1.00  0.00     0.163 C 
ATOM     12  O   UNL     1      21.887  38.090  88.830  1.00  0.00    -0.294 OA
BRANCH  11  13
ATOM     13  C   UNL     1      22.134  38.751  86.547  1.00  0.00    -0.002 C 
ATOM     14  C   UNL     1      21.933  40.102  86.507  1.00  0.00    -0.069 C 
ATOM     15  C   UNL     1      22.241  40.985  87.696  1.00  0.00     0.039 C 
ATOM     16  C   UNL     1      21.425  40.787  85.257  1.00  0.00     0.039 C 
BRANCH  13  17
ATOM     17  C   UNL     1      21.965  37.894  85.305  1.00  0.00     0.066 CG0
ATOM     18  G   UNL     1      20.842  36.907  85.514  1.00  0.00     0.000 G0
ENDBRANCH  13  17
ENDBRANCH  11  13
ENDBRANCH  10  11
ENDBRANCH   1  10
TORSDOF 0
ENDMDL
MODEL 2
REMARK VINA RESULT:    -3.205      2.077      4.838
REMARK INTER + INTRA:          -3.747
REMARK INTER:                  -4.099
REMARK INTRA:                   0.352
REMARK UNBOUND:                 0.770
REMARK SMILES CC1=CCC(=C(C)C)C(=O)CC(C)=CCC1
REMARK SMILES IDX 12 1 14 2 13 3 15 4 16 5 2 6 1 7 3 8 11 10 9 11 10 12 5 13
REMARK SMILES IDX 6 14 7 15 8 16 4 17
REMARK H PARENT
REMARK Flexibility Score: 60.00
ROOT
ATOM      1  C   UNL     1      21.055  35.330  85.096  1.00  0.00    -0.070 C 
ATOM      2  C   UNL     1      20.504  36.551  84.893  1.00  0.00    -0.027 C 
ATOM      3  C   UNL     1      21.380  34.503  83.875  1.00  0.00     0.039 C 
ENDROOT
BRANCH   2   4
ATOM      4  C   UNL     1      20.199  37.581  85.953  1.00  0.00     0.032 C 
BRANCH   4   5
ATOM      5  C   UNL     1      21.460  38.316  86.445  1.00  0.00     0.034 C 
BRANCH   5   6
ATOM      6  C   UNL     1      21.493  38.447  87.955  1.00  0.00    -0.077 C 
ATOM      7  C   UNL     1      20.422  39.272  88.625  1.00  0.00     0.039 C 
ATOM      8  C   UNL     1      22.444  37.889  88.737  1.00  0.00    -0.023 CG0
ATOM      9  G   UNL     1      23.611  37.064  88.253  1.00  0.00     0.000 G0
ENDBRANCH   5   6
ENDBRANCH   4   5
ENDBRANCH   2   4
BRANCH   1  10
ATOM     10  C   UNL     1      21.418  34.785  86.466  1.00  0.00     0.111 C 
BRANCH  10  11
ATOM     11  C   UNL     1      22.857  35.077  86.816  1.00  0.00     0.163 C 
ATOM     12  O   UNL     1      23.739  34.837  85.947  1.00  0.00    -0.294 OA
BRANCH  11  13
ATOM     13  C   UNL     1      23.256  35.589  88.164  1.00  0.00    -0.002 C 
ATOM     14  C   UNL     1      23.345  34.763  89.249  1.00  0.00    -0.069 C 
ATOM     15  C   UNL     1      23.118  33.272  89.131  1.00  0.00     0.039 C 
ATOM     16  C   UNL     1      23.711  35.296  90.617  1.00  0.00     0.039 C 
BRANCH  13  17
ATOM     17  C   UNL     1      23.630  37.057  88.261  1.00  0.00     0.066 CG0
ATOM     18  G   UNL     1      22.448  37.855  88.757  1.00  0.00     0.000 G0
ENDBRANCH  13  17
ENDBRANCH  11  13
ENDBRANCH  10  11
ENDBRANCH   1  10
TORSDOF 0
ENDMDL
MODEL 3
REMARK VINA RESULT:    -3.195      8.869     10.674
REMARK INTER + INTRA:          -3.733
REMARK INTER:                  -4.554
REMARK INTRA:                   0.822
REMARK UNBOUND:                 0.770
REMARK SMILES CC1=CCC(=C(C)C)C(=O)CC(C)=CCC1
REMARK SMILES IDX 12 1 14 2 13 3 15 4 16 5 2 6 1 7 3 8 11 10 9 11 10 12 5 13
REMARK SMILES IDX 6 14 7 15 8 16 4 17
REMARK H PARENT
REMARK Flexibility Score: 60.00
ROOT
ATOM      1  C   UNL     1      25.702  45.325  85.404  1.00  0.00    -0.070 C 
ATOM      2  C   UNL     1      25.141  44.593  86.395  1.00  0.00    -0.027 C 
ATOM      3  C   UNL     1      25.730  44.718  84.022  1.00  0.00     0.039 C 
ENDROOT
BRANCH   2   4
ATOM      4  C   UNL     1      24.912  45.043  87.819  1.00  0.00     0.032 C 
BRANCH   4   5
ATOM      5  C   UNL     1      25.901  44.398  88.809  1.00  0.00     0.034 C 
BRANCH   5   6
ATOM      6  C   UNL     1      26.989  45.363  89.240  1.00  0.00    -0.077 C 
ATOM      7  C   UNL     1      26.714  46.275  90.409  1.00  0.00     0.039 C 
ATOM      8  C   UNL     1      28.185  45.472  88.620  1.00  0.00    -0.023 CG0
ATOM      9  G   UNL     1      28.630  44.675  87.417  1.00  0.00     0.000 G0
ENDBRANCH   5   6
ENDBRANCH   4   5
ENDBRANCH   2   4
BRANCH   1  10
ATOM     10  C   UNL     1      26.237  46.735  85.593  1.00  0.00     0.111 C 
BRANCH  10  11
ATOM     11  C   UNL     1      27.607  46.727  86.226  1.00  0.00     0.163 C 
ATOM     12  O   UNL     1      28.005  47.782  86.791  1.00  0.00    -0.294 OA
BRANCH  11  13
ATOM     13  C   UNL     1      28.506  45.534  86.153  1.00  0.00    -0.002 C 
ATOM     14  C   UNL     1      29.239  45.252  85.034  1.00  0.00    -0.069 C 
ATOM     15  C   UNL     1      29.238  46.173  83.833  1.00  0.00     0.039 C 
ATOM     16  C   UNL     1      30.115  44.022  84.954  1.00  0.00     0.039 C 
BRANCH  13  17
ATOM     17  C   UNL     1      28.628  44.685  87.406  1.00  0.00     0.066 CG0
ATOM     18  G   UNL     1      28.170  45.477  88.607  1.00  0.00     0.000 G0
ENDBRANCH  13  17
ENDBRANCH  11  13
ENDBRANCH  10  11
ENDBRANCH   1  10
TORSDOF 0
ENDMDL
MODEL 4
REMARK VINA RESULT:    -3.074      1.713      4.202
REMARK INTER + INTRA:          -3.562
REMARK INTER:                  -4.040
REMARK INTRA:                   0.478
REMARK UNBOUND:                 0.770
REMARK SMILES CC1=CCC(=C(C)C)C(=O)CC(C)=CCC1
REMARK SMILES IDX 12 1 14 2 13 3 15 4 16 5 2 6 1 7 3 8 11 10 9 11 10 12 5 13
REMARK SMILES IDX 6 14 7 15 8 16 4 17
REMARK H PARENT
REMARK Flexibility Score: 60.00
ROOT
ATOM      1  C   UNL     1      22.726  38.709  87.842  1.00  0.00    -0.070 C 
ATOM      2  C   UNL     1      22.342  38.784  86.545  1.00  0.00    -0.027 C 
ATOM      3  C   UNL     1      22.419  39.893  88.727  1.00  0.00     0.039 C 
ENDROOT
BRANCH   2   4
ATOM      4  C   UNL     1      22.451  37.685  85.516  1.00  0.00     0.032 C 
BRANCH   4   5
ATOM      5  C   UNL     1      21.190  36.801  85.458  1.00  0.00     0.034 C 
BRANCH   5   6
ATOM      6  C   UNL     1      21.527  35.323  85.470  1.00  0.00    -0.077 C 
ATOM      7  C   UNL     1      21.990  34.684  84.184  1.00  0.00     0.039 C 
ATOM      8  C   UNL     1      21.411  34.535  86.562  1.00  0.00    -0.023 CG0
ATOM      9  G   UNL     1      20.933  34.980  87.923  1.00  0.00     0.000 G0
ENDBRANCH   5   6
ENDBRANCH   4   5
ENDBRANCH   2   4
BRANCH   1  10
ATOM     10  C   UNL     1      23.382  37.486  88.459  1.00  0.00     0.111 C 
BRANCH  10  11
ATOM     11  C   UNL     1      22.386  36.648  89.223  1.00  0.00     0.163 C 
ATOM     12  O   UNL     1      21.825  37.164  90.227  1.00  0.00    -0.294 OA
BRANCH  11  13
ATOM     13  C   UNL     1      22.094  35.229  88.850  1.00  0.00    -0.002 C 
ATOM     14  C   UNL     1      22.812  34.187  89.366  1.00  0.00    -0.069 C 
ATOM     15  C   UNL     1      23.894  34.406  90.401  1.00  0.00     0.039 C 
ATOM     16  C   UNL     1      22.536  32.758  88.954  1.00  0.00     0.039 C 
BRANCH  13  17
ATOM     17  C   UNL     1      20.913  34.988  87.927  1.00  0.00     0.066 CG0
ATOM     18  G   UNL     1      21.405  34.527  86.576  1.00  0.00     0.000 G0
ENDBRANCH  13  17
ENDBRANCH  11  13
ENDBRANCH  10  11
ENDBRANCH   1  10
TORSDOF 0
ENDMDL
MODEL 5
REMARK VINA RESULT:    -3.060      2.134      4.586
REMARK INTER + INTRA:          -3.543
REMARK INTER:                  -4.241
REMARK INTRA:                   0.698
REMARK UNBOUND:                 0.770
REMARK SMILES CC1=CCC(=C(C)C)C(=O)CC(C)=CCC1
REMARK SMILES IDX 12 1 14 2 13 3 15 4 16 5 2 6 1 7 3 8 11 10 9 11 10 12 5 13
REMARK SMILES IDX 6 14 7 15 8 16 4 17
REMARK H PARENT
REMARK Flexibility Score: 60.00
ROOT
ATOM      1  C   UNL     1      23.203  35.954  86.070  1.00  0.00    -0.070 C 
ATOM      2  C   UNL     1      22.415  36.891  85.491  1.00  0.00    -0.027 C 
ATOM      3  C   UNL     1      23.344  34.630  85.359  1.00  0.00     0.039 C 
ENDROOT
BRANCH   2   4
ATOM      4  C   UNL     1      22.217  38.310  85.967  1.00  0.00     0.032 C 
BRANCH   4   5
ATOM      5  C   UNL     1      20.848  38.522  86.641  1.00  0.00     0.034 C 
BRANCH   5   6
ATOM      6  C   UNL     1      20.945  38.496  88.154  1.00  0.00    -0.077 C 
ATOM      7  C   UNL     1      21.227  39.790  88.875  1.00  0.00     0.039 C 
ATOM      8  C   UNL     1      20.820  37.372  88.895  1.00  0.00    -0.023 CG0
ATOM      9  G   UNL     1      20.573  35.983  88.357  1.00  0.00     0.000 G0
ENDBRANCH   5   6
ENDBRANCH   4   5
ENDBRANCH   2   4
BRANCH   1  10
ATOM     10  C   UNL     1      23.994  36.187  87.346  1.00  0.00     0.111 C 
BRANCH  10  11
ATOM     11  C   UNL     1      23.159  35.917  88.574  1.00  0.00     0.163 C 
ATOM     12  O   UNL     1      23.597  36.314  89.687  1.00  0.00    -0.294 OA
BRANCH  11  13
ATOM     13  C   UNL     1      21.871  35.159  88.504  1.00  0.00    -0.002 C 
ATOM     14  C   UNL     1      21.831  33.798  88.620  1.00  0.00    -0.069 C 
ATOM     15  C   UNL     1      23.079  32.989  88.900  1.00  0.00     0.039 C 
ATOM     16  C   UNL     1      20.529  33.035  88.509  1.00  0.00     0.039 C 
BRANCH  13  17
ATOM     17  C   UNL     1      20.597  35.974  88.372  1.00  0.00     0.066 CG0
ATOM     18  G   UNL     1      20.822  37.366  88.911  1.00  0.00     0.000 G0
ENDBRANCH  13  17
ENDBRANCH  11  13
ENDBRANCH  10  11
ENDBRANCH   1  10
TORSDOF 0
ENDMDL
MODEL 6
REMARK VINA RESULT:    -3.049      8.507     10.567
REMARK INTER + INTRA:          -3.527
REMARK INTER:                  -4.238
REMARK INTRA:                   0.712
REMARK UNBOUND:                 0.770
REMARK SMILES CC1=CCC(=C(C)C)C(=O)CC(C)=CCC1
REMARK SMILES IDX 12 1 14 2 13 3 15 4 16 5 2 6 1 7 3 8 11 10 9 11 10 12 5 13
REMARK SMILES IDX 6 14 7 15 8 16 4 17
REMARK H PARENT
REMARK Flexibility Score: 60.00
ROOT
ATOM      1  C   UNL     1      29.457  44.954  84.246  1.00  0.00    -0.070 C 
ATOM      2  C   UNL     1      29.553  44.338  83.043  1.00  0.00    -0.027 C 
ATOM      3  C   UNL     1      29.787  44.138  85.472  1.00  0.00     0.039 C 
ENDROOT
BRANCH   2   4
ATOM      4  C   UNL     1      29.375  44.985  81.691  1.00  0.00     0.032 C 
BRANCH   4   5
ATOM      5  C   UNL     1      28.081  44.537  80.986  1.00  0.00     0.034 C 
BRANCH   5   6
ATOM      6  C   UNL     1      26.984  45.579  81.086  1.00  0.00    -0.077 C 
ATOM      7  C   UNL     1      26.850  46.586  79.971  1.00  0.00     0.039 C 
ATOM      8  C   UNL     1      26.134  45.677  82.132  1.00  0.00    -0.023 CG0
ATOM      9  G   UNL     1      26.132  44.789  83.353  1.00  0.00     0.000 G0
ENDBRANCH   5   6
ENDBRANCH   4   5
ENDBRANCH   2   4
BRANCH   1  10
ATOM     10  C   UNL     1      29.105  46.422  84.417  1.00  0.00     0.111 C 
BRANCH  10  11
ATOM     11  C   UNL     1      27.618  46.653  84.305  1.00  0.00     0.163 C 
ATOM     12  O   UNL     1      27.219  47.813  84.018  1.00  0.00    -0.294 OA
BRANCH  11  13
ATOM     13  C   UNL     1      26.626  45.566  84.572  1.00  0.00    -0.002 C 
ATOM     14  C   UNL     1      26.143  45.325  85.828  1.00  0.00    -0.069 C 
ATOM     15  C   UNL     1      26.529  46.194  87.005  1.00  0.00     0.039 C 
ATOM     16  C   UNL     1      25.170  44.198  86.097  1.00  0.00     0.039 C 
BRANCH  13  17
ATOM     17  C   UNL     1      26.120  44.784  83.373  1.00  0.00     0.066 CG0
ATOM     18  G   UNL     1      26.135  45.663  82.146  1.00  0.00     0.000 G0
ENDBRANCH  13  17
ENDBRANCH  11  13
ENDBRANCH  10  11
ENDBRANCH   1  10
TORSDOF 0
ENDMDL
MODEL 7
REMARK VINA RESULT:    -3.039      2.233      4.732
REMARK INTER + INTRA:          -3.514
REMARK INTER:                  -4.302
REMARK INTRA:                   0.788
REMARK UNBOUND:                 0.770
REMARK SMILES CC1=CCC(=C(C)C)C(=O)CC(C)=CCC1
REMARK SMILES IDX 12 1 14 2 13 3 15 4 16 5 2 6 1 7 3 8 11 10 9 11 10 12 5 13
REMARK SMILES IDX 6 14 7 15 8 16 4 17
REMARK H PARENT
REMARK Flexibility Score: 60.00
ROOT
ATOM      1  C   UNL     1      23.240  36.974  87.028  1.00  0.00    -0.070 C 
ATOM      2  C   UNL     1      22.613  36.572  85.896  1.00  0.00    -0.027 C 
ATOM      3  C   UNL     1      23.035  38.404  87.465  1.00  0.00     0.039 C 
ENDROOT
BRANCH   2   4
ATOM      4  C   UNL     1      22.591  35.170  85.336  1.00  0.00     0.032 C 
BRANCH   4   5
ATOM      5  C   UNL     1      21.185  34.542  85.368  1.00  0.00     0.034 C 
BRANCH   5   6
ATOM      6  C   UNL     1      20.486  34.773  86.694  1.00  0.00    -0.077 C 
ATOM      7  C   UNL     1      19.315  35.722  86.730  1.00  0.00     0.039 C 
ATOM      8  C   UNL     1      20.869  34.195  87.855  1.00  0.00    -0.023 CG0
ATOM      9  G   UNL     1      22.032  33.249  88.027  1.00  0.00     0.000 G0
ENDBRANCH   5   6
ENDBRANCH   4   5
ENDBRANCH   2   4
BRANCH   1  10
ATOM     10  C   UNL     1      24.073  36.054  87.904  1.00  0.00     0.111 C 
BRANCH  10  11
ATOM     11  C   UNL     1      23.223  35.350  88.934  1.00  0.00     0.163 C 
ATOM     12  O   UNL     1      22.658  36.052  89.816  1.00  0.00    -0.294 OA
BRANCH  11  13
ATOM     13  C   UNL     1      23.081  33.861  88.960  1.00  0.00    -0.002 C 
ATOM     14  C   UNL     1      23.803  33.084  89.822  1.00  0.00    -0.069 C 
ATOM     15  C   UNL     1      24.731  33.694  90.850  1.00  0.00     0.039 C 
ATOM     16  C   UNL     1      23.682  31.576  89.815  1.00  0.00     0.039 C 
BRANCH  13  17
ATOM     17  C   UNL     1      22.043  33.252  88.034  1.00  0.00     0.066 CG0
ATOM     18  G   UNL     1      20.875  34.196  87.883  1.00  0.00     0.000 G0
ENDBRANCH  13  17
ENDBRANCH  11  13
ENDBRANCH  10  11
ENDBRANCH   1  10
TORSDOF 0
ENDMDL
MODEL 8
REMARK VINA RESULT:    -2.958      1.804      3.157
REMARK INTER + INTRA:          -3.400
REMARK INTER:                  -4.152
REMARK INTRA:                   0.752
REMARK UNBOUND:                 0.770
REMARK SMILES CC1=CCC(=C(C)C)C(=O)CC(C)=CCC1
REMARK SMILES IDX 12 1 14 2 13 3 15 4 16 5 2 6 1 7 3 8 11 10 9 11 10 12 5 13
REMARK SMILES IDX 6 14 7 15 8 16 4 17
REMARK H PARENT
REMARK Flexibility Score: 60.00
ROOT
ATOM      1  C   UNL     1      22.262  35.624  85.287  1.00  0.00    -0.070 C 
ATOM      2  C   UNL     1      22.996  34.843  86.115  1.00  0.00    -0.027 C 
ATOM      3  C   UNL     1      21.266  34.936  84.385  1.00  0.00     0.039 C 
ENDROOT
BRANCH   2   4
ATOM      4  C   UNL     1      23.966  35.322  87.168  1.00  0.00     0.032 C 
BRANCH   4   5
ATOM      5  C   UNL     1      23.548  34.906  88.591  1.00  0.00     0.034 C 
BRANCH   5   6
ATOM      6  C   UNL     1      22.128  35.326  88.916  1.00  0.00    -0.077 C 
ATOM      7  C   UNL     1      21.113  34.250  89.212  1.00  0.00     0.039 C 
ATOM      8  C   UNL     1      21.711  36.612  88.931  1.00  0.00    -0.023 CG0
ATOM      9  G   UNL     1      22.564  37.820  88.629  1.00  0.00     0.000 G0
ENDBRANCH   5   6
ENDBRANCH   4   5
ENDBRANCH   2   4
BRANCH   1  10
ATOM     10  C   UNL     1      22.340  37.141  85.266  1.00  0.00     0.111 C 
BRANCH  10  11
ATOM     11  C   UNL     1      21.437  37.757  86.307  1.00  0.00     0.163 C 
ATOM     12  O   UNL     1      20.192  37.601  86.178  1.00  0.00    -0.294 OA
BRANCH  11  13
ATOM     13  C   UNL     1      21.975  38.576  87.437  1.00  0.00    -0.002 C 
ATOM     14  C   UNL     1      21.891  39.940  87.441  1.00  0.00    -0.069 C 
ATOM     15  C   UNL     1      21.182  40.693  86.338  1.00  0.00     0.039 C 
ATOM     16  C   UNL     1      22.472  40.762  88.570  1.00  0.00     0.039 C 
BRANCH  13  17
ATOM     17  C   UNL     1      22.556  37.821  88.620  1.00  0.00     0.066 CG0
ATOM     18  G   UNL     1      21.692  36.623  88.936  1.00  0.00     0.000 G0
ENDBRANCH  13  17
ENDBRANCH  11  13
ENDBRANCH  10  11
ENDBRANCH   1  10
TORSDOF 0
ENDMDL
MODEL 9
REMARK VINA RESULT:    -2.890      9.331     11.407
REMARK INTER + INTRA:          -3.304
REMARK INTER:                  -4.118
REMARK INTRA:                   0.814
REMARK UNBOUND:                 0.770
REMARK SMILES CC1=CCC(=C(C)C)C(=O)CC(C)=CCC1
REMARK SMILES IDX 12 1 14 2 13 3 15 4 16 5 2 6 1 7 3 8 11 10 9 11 10 12 5 13
REMARK SMILES IDX 6 14 7 15 8 16 4 17
REMARK H PARENT
REMARK Flexibility Score: 60.00
ROOT
ATOM      1  C   UNL     1      28.988  46.069  79.813  1.00  0.00    -0.070 C 
ATOM      2  C   UNL     1      27.863  46.381  79.126  1.00  0.00    -0.027 C 
ATOM      3  C   UNL     1      30.159  45.536  79.024  1.00  0.00     0.039 C 
ENDROOT
BRANCH   2   4
ATOM      4  C   UNL     1      26.619  47.023  79.691  1.00  0.00     0.032 C 
BRANCH   4   5
ATOM      5  C   UNL     1      25.414  46.064  79.709  1.00  0.00     0.034 C 
BRANCH   5   6
ATOM      6  C   UNL     1      25.827  44.632  79.987  1.00  0.00    -0.077 C 
ATOM      7  C   UNL     1      25.734  43.629  78.864  1.00  0.00     0.039 C 
ATOM      8  C   UNL     1      26.251  44.193  81.193  1.00  0.00    -0.023 CG0
ATOM      9  G   UNL     1      26.378  45.032  82.442  1.00  0.00     0.000 G0
ENDBRANCH   5   6
ENDBRANCH   4   5
ENDBRANCH   2   4
BRANCH   1  10
ATOM     10  C   UNL     1      29.153  46.288  81.307  1.00  0.00     0.111 C 
BRANCH  10  11
ATOM     11  C   UNL     1      28.930  45.013  82.083  1.00  0.00     0.163 C 
ATOM     12  O   UNL     1      29.720  44.052  81.881  1.00  0.00    -0.294 OA
BRANCH  11  13
ATOM     13  C   UNL     1      27.783  44.852  83.029  1.00  0.00    -0.002 C 
ATOM     14  C   UNL     1      27.977  44.629  84.364  1.00  0.00    -0.069 C 
ATOM     15  C   UNL     1      29.363  44.607  84.970  1.00  0.00     0.039 C 
ATOM     16  C   UNL     1      26.812  44.428  85.308  1.00  0.00     0.039 C 
BRANCH  13  17
ATOM     17  C   UNL     1      26.387  45.021  82.456  1.00  0.00     0.066 CG0
ATOM     18  G   UNL     1      26.248  44.198  81.198  1.00  0.00     0.000 G0
ENDBRANCH  13  17
ENDBRANCH  11  13
ENDBRANCH  10  11
ENDBRANCH   1  10
TORSDOF 0
ENDMDL
