MODEL 1
REMARK VINA RESULT:    -4.222      0.000      0.000
REMARK INTER + INTRA:          -5.393
REMARK INTER:                  -5.949
REMARK INTRA:                   0.556
REMARK UNBOUND:                 0.556
REMARK SMILES CC1=CCC(=C(C)C)C(=O)CC(C)=CCC1
REMARK SMILES IDX 12 1 14 2 13 3 15 4 16 5 2 6 1 7 3 8 11 10 9 11 10 12 5 13
REMARK SMILES IDX 6 14 7 15 8 16 4 17
REMARK H PARENT
REMARK Flexibility Score: 60.00
ROOT
ATOM      1  C   UNL     1      -6.760  -4.210   2.368  1.00  0.00    -0.070 C 
ATOM      2  C   UNL     1      -6.474  -2.955   1.951  1.00  0.00    -0.027 C 
ATOM      3  C   UNL     1      -7.905  -4.934   1.706  1.00  0.00     0.039 C 
ENDROOT
BRANCH   2   4
ATOM      4  C   UNL     1      -5.329  -2.108   2.457  1.00  0.00     0.032 C 
BRANCH   4   5
ATOM      5  C   UNL     1      -4.049  -2.337   1.639  1.00  0.00     0.034 C 
BRANCH   5   6
ATOM      6  C   UNL     1      -2.848  -2.730   2.487  1.00  0.00    -0.077 C 
ATOM      7  C   UNL     1      -2.076  -1.647   3.201  1.00  0.00     0.039 C 
ATOM      8  C   UNL     1      -2.440  -4.009   2.653  1.00  0.00    -0.023 CG0
ATOM      9  G   UNL     1      -3.038  -5.215   1.969  1.00  0.00     0.000 G0
ENDBRANCH   5   6
ENDBRANCH   4   5
ENDBRANCH   2   4
BRANCH   1  10
ATOM     10  C   UNL     1      -5.984  -4.911   3.466  1.00  0.00     0.111 C 
BRANCH  10  11
ATOM     11  C   UNL     1      -5.259  -6.115   2.934  1.00  0.00     0.163 C 
ATOM     12  O   UNL     1      -5.922  -7.090   2.491  1.00  0.00    -0.294 OA
BRANCH  11  13
ATOM     13  C   UNL     1      -3.775  -6.168   2.897  1.00  0.00    -0.002 C 
ATOM     14  C   UNL     1      -3.099  -7.047   3.686  1.00  0.00    -0.069 C 
ATOM     15  C   UNL     1      -1.589  -7.079   3.702  1.00  0.00     0.039 C 
ATOM     16  C   UNL     1      -3.835  -8.051   4.545  1.00  0.00     0.039 C 
BRANCH  13  17
ATOM     17  C   UNL     1      -3.021  -5.226   1.963  1.00  0.00     0.066 CG0
ATOM     18  G   UNL     1      -2.469  -4.000   2.652  1.00  0.00     0.000 G0
ENDBRANCH  13  17
ENDBRANCH  11  13
ENDBRANCH  10  11
ENDBRANCH   1  10
TORSDOF 0
ENDMDL
MODEL 2
REMARK VINA RESULT:    -4.037     17.956     19.583
REMARK INTER + INTRA:          -5.134
REMARK INTER:                  -5.398
REMARK INTRA:                   0.265
REMARK UNBOUND:                 0.556
REMARK SMILES CC1=CCC(=C(C)C)C(=O)CC(C)=CCC1
REMARK SMILES IDX 12 1 14 2 13 3 15 4 16 5 2 6 1 7 3 8 11 10 9 11 10 12 5 13
REMARK SMILES IDX 6 14 7 15 8 16 4 17
REMARK H PARENT
REMARK Flexibility Score: 60.00
ROOT
ATOM      1  C   UNL     1      -1.909   6.217  19.641  1.00  0.00    -0.070 C 
ATOM      2  C   UNL     1      -0.991   7.212  19.654  1.00  0.00    -0.027 C 
ATOM      3  C   UNL     1      -3.218   6.452  20.353  1.00  0.00     0.039 C 
ENDROOT
BRANCH   2   4
ATOM      4  C   UNL     1       0.343   7.174  18.944  1.00  0.00     0.032 C 
BRANCH   4   5
ATOM      5  C   UNL     1       1.378   6.350  19.725  1.00  0.00     0.034 C 
BRANCH   5   6
ATOM      6  C   UNL     1       2.149   5.364  18.860  1.00  0.00    -0.077 C 
ATOM      7  C   UNL     1       3.006   5.896  17.738  1.00  0.00     0.039 C 
ATOM      8  C   UNL     1       2.125   4.026  19.054  1.00  0.00    -0.023 CG0
ATOM      9  G   UNL     1       1.279   3.304  20.076  1.00  0.00     0.000 G0
ENDBRANCH   5   6
ENDBRANCH   4   5
ENDBRANCH   2   4
BRANCH   1  10
ATOM     10  C   UNL     1      -1.678   4.889  18.948  1.00  0.00     0.111 C 
BRANCH  10  11
ATOM     11  C   UNL     1      -1.239   3.836  19.927  1.00  0.00     0.163 C 
ATOM     12  O   UNL     1      -1.852   3.714  21.020  1.00  0.00    -0.294 OA
BRANCH  11  13
ATOM     13  C   UNL     1      -0.113   2.918  19.618  1.00  0.00    -0.002 C 
ATOM     14  C   UNL     1      -0.333   1.770  18.921  1.00  0.00    -0.069 C 
ATOM     15  C   UNL     1       0.790   0.799  18.643  1.00  0.00     0.039 C 
ATOM     16  C   UNL     1      -1.701   1.445  18.364  1.00  0.00     0.039 C 
BRANCH  13  17
ATOM     17  C   UNL     1       1.292   3.281  20.091  1.00  0.00     0.066 CG0
ATOM     18  G   UNL     1       2.114   4.008  19.053  1.00  0.00     0.000 G0
ENDBRANCH  13  17
ENDBRANCH  11  13
ENDBRANCH  10  11
ENDBRANCH   1  10
TORSDOF 0
ENDMDL
MODEL 3
REMARK VINA RESULT:    -3.600      3.521      6.079
REMARK INTER + INTRA:          -4.518
REMARK INTER:                  -4.935
REMARK INTRA:                   0.418
REMARK UNBOUND:                 0.556
REMARK SMILES CC1=CCC(=C(C)C)C(=O)CC(C)=CCC1
REMARK SMILES IDX 12 1 14 2 13 3 15 4 16 5 2 6 1 7 3 8 11 10 9 11 10 12 5 13
REMARK SMILES IDX 6 14 7 15 8 16 4 17
REMARK H PARENT
REMARK Flexibility Score: 60.00
ROOT
ATOM      1  C   UNL     1      -1.227  -5.692   3.627  1.00  0.00    -0.070 C 
ATOM      2  C   UNL     1      -0.609  -6.364   4.626  1.00  0.00    -0.027 C 
ATOM      3  C   UNL     1      -2.463  -6.306   3.019  1.00  0.00     0.039 C 
ENDROOT
BRANCH   2   4
ATOM      4  C   UNL     1       0.600  -5.872   5.388  1.00  0.00     0.032 C 
BRANCH   4   5
ATOM      5  C   UNL     1       0.254  -4.676   6.288  1.00  0.00     0.034 C 
BRANCH   5   6
ATOM      6  C   UNL     1       1.227  -3.513   6.156  1.00  0.00    -0.077 C 
ATOM      7  C   UNL     1       2.687  -3.748   6.458  1.00  0.00     0.039 C 
ATOM      8  C   UNL     1       0.857  -2.274   5.760  1.00  0.00    -0.023 CG0
ATOM      9  G   UNL     1      -0.560  -1.830   5.481  1.00  0.00     0.000 G0
ENDBRANCH   5   6
ENDBRANCH   4   5
ENDBRANCH   2   4
BRANCH   1  10
ATOM     10  C   UNL     1      -0.733  -4.361   3.098  1.00  0.00     0.111 C 
BRANCH  10  11
ATOM     11  C   UNL     1      -1.601  -3.231   3.575  1.00  0.00     0.163 C 
ATOM     12  O   UNL     1      -2.851  -3.382   3.606  1.00  0.00    -0.294 OA
BRANCH  11  13
ATOM     13  C   UNL     1      -1.012  -1.947   4.035  1.00  0.00    -0.002 C 
ATOM     14  C   UNL     1      -0.874  -0.906   3.169  1.00  0.00    -0.069 C 
ATOM     15  C   UNL     1      -0.229   0.390   3.603  1.00  0.00     0.039 C 
ATOM     16  C   UNL     1      -1.397  -0.993   1.753  1.00  0.00     0.039 C 
BRANCH  13  17
ATOM     17  C   UNL     1      -0.567  -1.812   5.487  1.00  0.00     0.066 CG0
ATOM     18  G   UNL     1       0.851  -2.270   5.734  1.00  0.00     0.000 G0
ENDBRANCH  13  17
ENDBRANCH  11  13
ENDBRANCH  10  11
ENDBRANCH   1  10
TORSDOF 0
ENDMDL
MODEL 4
REMARK VINA RESULT:    -3.545      1.661      2.293
REMARK INTER + INTRA:          -4.440
REMARK INTER:                  -5.100
REMARK INTRA:                   0.659
REMARK UNBOUND:                 0.556
REMARK SMILES CC1=CCC(=C(C)C)C(=O)CC(C)=CCC1
REMARK SMILES IDX 12 1 14 2 13 3 15 4 16 5 2 6 1 7 3 8 11 10 9 11 10 12 5 13
REMARK SMILES IDX 6 14 7 15 8 16 4 17
REMARK H PARENT
REMARK Flexibility Score: 60.00
ROOT
ATOM      1  C   UNL     1      -5.016  -2.193   3.125  1.00  0.00    -0.070 C 
ATOM      2  C   UNL     1      -4.012  -1.486   3.694  1.00  0.00    -0.027 C 
ATOM      3  C   UNL     1      -6.016  -1.447   2.277  1.00  0.00     0.039 C 
ENDROOT
BRANCH   2   4
ATOM      4  C   UNL     1      -2.892  -2.076   4.520  1.00  0.00     0.032 C 
BRANCH   4   5
ATOM      5  C   UNL     1      -1.524  -1.864   3.854  1.00  0.00     0.034 C 
BRANCH   5   6
ATOM      6  C   UNL     1      -1.499  -2.250   2.381  1.00  0.00    -0.077 C 
ATOM      7  C   UNL     1      -1.376  -1.160   1.346  1.00  0.00     0.039 C 
ATOM      8  C   UNL     1      -1.563  -3.529   1.945  1.00  0.00    -0.023 CG0
ATOM      9  G   UNL     1      -1.757  -4.744   2.821  1.00  0.00     0.000 G0
ENDBRANCH   5   6
ENDBRANCH   4   5
ENDBRANCH   2   4
BRANCH   1  10
ATOM     10  C   UNL     1      -5.177  -3.689   3.303  1.00  0.00     0.111 C 
BRANCH  10  11
ATOM     11  C   UNL     1      -4.298  -4.447   2.348  1.00  0.00     0.163 C 
ATOM     12  O   UNL     1      -4.495  -4.341   1.109  1.00  0.00    -0.294 OA
BRANCH  11  13
ATOM     13  C   UNL     1      -3.183  -5.300   2.837  1.00  0.00    -0.002 C 
ATOM     14  C   UNL     1      -3.429  -6.563   3.279  1.00  0.00    -0.069 C 
ATOM     15  C   UNL     1      -2.318  -7.428   3.828  1.00  0.00     0.039 C 
ATOM     16  C   UNL     1      -4.815  -7.164   3.198  1.00  0.00     0.039 C 
BRANCH  13  17
ATOM     17  C   UNL     1      -1.764  -4.742   2.834  1.00  0.00     0.066 CG0
ATOM     18  G   UNL     1      -1.585  -3.539   1.937  1.00  0.00     0.000 G0
ENDBRANCH  13  17
ENDBRANCH  11  13
ENDBRANCH  10  11
ENDBRANCH   1  10
TORSDOF 0
ENDMDL
MODEL 5
REMARK VINA RESULT:    -3.530      4.878      7.179
REMARK INTER + INTRA:          -4.418
REMARK INTER:                  -4.815
REMARK INTRA:                   0.396
REMARK UNBOUND:                 0.556
REMARK SMILES CC1=CCC(=C(C)C)C(=O)CC(C)=CCC1
REMARK SMILES IDX 12 1 14 2 13 3 15 4 16 5 2 6 1 7 3 8 11 10 9 11 10 12 5 13
REMARK SMILES IDX 6 14 7 15 8 16 4 17
REMARK H PARENT
REMARK Flexibility Score: 60.00
ROOT
ATOM      1  C   UNL     1       0.474  -4.582   5.399  1.00  0.00    -0.070 C 
ATOM      2  C   UNL     1      -0.431  -4.471   4.399  1.00  0.00    -0.027 C 
ATOM      3  C   UNL     1       0.610  -5.918   6.086  1.00  0.00     0.039 C 
ENDROOT
BRANCH   2   4
ATOM      4  C   UNL     1      -0.658  -3.231   3.564  1.00  0.00     0.032 C 
BRANCH   4   5
ATOM      5  C   UNL     1      -1.707  -2.306   4.197  1.00  0.00     0.034 C 
BRANCH   5   6
ATOM      6  C   UNL     1      -1.359  -0.828   4.088  1.00  0.00    -0.077 C 
ATOM      7  C   UNL     1      -1.424  -0.163   2.735  1.00  0.00     0.039 C 
ATOM      8  C   UNL     1      -1.010  -0.065   5.149  1.00  0.00    -0.023 CG0
ATOM      9  G   UNL     1      -0.825  -0.563   6.563  1.00  0.00     0.000 G0
ENDBRANCH   5   6
ENDBRANCH   4   5
ENDBRANCH   2   4
BRANCH   1  10
ATOM     10  C   UNL     1       1.347  -3.430   5.854  1.00  0.00     0.111 C 
BRANCH  10  11
ATOM     11  C   UNL     1       0.678  -2.640   6.944  1.00  0.00     0.163 C 
ATOM     12  O   UNL     1       0.240  -3.239   7.962  1.00  0.00    -0.294 OA
BRANCH  11  13
ATOM     13  C   UNL     1       0.545  -1.163   6.855  1.00  0.00    -0.002 C 
ATOM     14  C   UNL     1       1.635  -0.365   7.020  1.00  0.00    -0.069 C 
ATOM     15  C   UNL     1       1.512   1.141   6.985  1.00  0.00     0.039 C 
ATOM     16  C   UNL     1       3.016  -0.955   7.200  1.00  0.00     0.039 C 
BRANCH  13  17
ATOM     17  C   UNL     1      -0.826  -0.555   6.577  1.00  0.00     0.066 CG0
ATOM     18  G   UNL     1      -0.995  -0.057   5.162  1.00  0.00     0.000 G0
ENDBRANCH  13  17
ENDBRANCH  11  13
ENDBRANCH  10  11
ENDBRANCH   1  10
TORSDOF 0
ENDMDL
MODEL 6
REMARK VINA RESULT:    -3.466     11.235     12.115
REMARK INTER + INTRA:          -4.328
REMARK INTER:                  -4.831
REMARK INTRA:                   0.503
REMARK UNBOUND:                 0.556
REMARK SMILES CC1=CCC(=C(C)C)C(=O)CC(C)=CCC1
REMARK SMILES IDX 12 1 14 2 13 3 15 4 16 5 2 6 1 7 3 8 11 10 9 11 10 12 5 13
REMARK SMILES IDX 6 14 7 15 8 16 4 17
REMARK H PARENT
REMARK Flexibility Score: 60.00
ROOT
ATOM      1  C   UNL     1      -3.938  -4.460  12.270  1.00  0.00    -0.070 C 
ATOM      2  C   UNL     1      -2.971  -3.937  11.481  1.00  0.00    -0.027 C 
ATOM      3  C   UNL     1      -5.315  -4.635  11.682  1.00  0.00     0.039 C 
ENDROOT
BRANCH   2   4
ATOM      4  C   UNL     1      -1.526  -3.748  11.882  1.00  0.00     0.032 C 
BRANCH   4   5
ATOM      5  C   UNL     1      -1.251  -2.311  12.350  1.00  0.00     0.034 C 
BRANCH   5   6
ATOM      6  C   UNL     1      -0.742  -2.225  13.782  1.00  0.00    -0.077 C 
ATOM      7  C   UNL     1       0.734  -2.400  14.041  1.00  0.00     0.039 C 
ATOM      8  C   UNL     1      -1.543  -1.979  14.844  1.00  0.00    -0.023 CG0
ATOM      9  G   UNL     1      -3.047  -1.846  14.793  1.00  0.00     0.000 G0
ENDBRANCH   5   6
ENDBRANCH   4   5
ENDBRANCH   2   4
BRANCH   1  10
ATOM     10  C   UNL     1      -3.696  -4.872  13.708  1.00  0.00     0.111 C 
BRANCH  10  11
ATOM     11  C   UNL     1      -4.472  -4.005  14.659  1.00  0.00     0.163 C 
ATOM     12  O   UNL     1      -5.718  -4.163  14.763  1.00  0.00    -0.294 OA
BRANCH  11  13
ATOM     13  C   UNL     1      -3.796  -2.981  15.498  1.00  0.00    -0.002 C 
ATOM     14  C   UNL     1      -3.840  -3.069  16.855  1.00  0.00    -0.069 C 
ATOM     15  C   UNL     1      -3.203  -2.010  17.726  1.00  0.00     0.039 C 
ATOM     16  C   UNL     1      -4.489  -4.249  17.542  1.00  0.00     0.039 C 
BRANCH  13  17
ATOM     17  C   UNL     1      -3.054  -1.835  14.818  1.00  0.00     0.066 CG0
ATOM     18  G   UNL     1      -1.552  -1.988  14.837  1.00  0.00     0.000 G0
ENDBRANCH  13  17
ENDBRANCH  11  13
ENDBRANCH  10  11
ENDBRANCH   1  10
TORSDOF 0
ENDMDL
MODEL 7
REMARK VINA RESULT:    -3.462     17.957     19.828
REMARK INTER + INTRA:          -4.322
REMARK INTER:                  -5.038
REMARK INTRA:                   0.716
REMARK UNBOUND:                 0.556
REMARK SMILES CC1=CCC(=C(C)C)C(=O)CC(C)=CCC1
REMARK SMILES IDX 12 1 14 2 13 3 15 4 16 5 2 6 1 7 3 8 11 10 9 11 10 12 5 13
REMARK SMILES IDX 6 14 7 15 8 16 4 17
REMARK H PARENT
REMARK Flexibility Score: 60.00
ROOT
ATOM      1  C   UNL     1      -1.775   3.138  19.649  1.00  0.00    -0.070 C 
ATOM      2  C   UNL     1      -1.354   1.931  19.206  1.00  0.00    -0.027 C 
ATOM      3  C   UNL     1      -2.681   3.174  20.855  1.00  0.00     0.039 C 
ENDROOT
BRANCH   2   4
ATOM      4  C   UNL     1      -0.399   1.712  18.055  1.00  0.00     0.032 C 
BRANCH   4   5
ATOM      5  C   UNL     1       0.981   1.247  18.545  1.00  0.00     0.034 C 
BRANCH   5   6
ATOM      6  C   UNL     1       1.366   1.812  19.905  1.00  0.00    -0.077 C 
ATOM      7  C   UNL     1       1.220   0.937  21.124  1.00  0.00     0.039 C 
ATOM      8  C   UNL     1       1.853   3.062  20.081  1.00  0.00    -0.023 CG0
ATOM      9  G   UNL     1       2.005   4.104  18.998  1.00  0.00     0.000 G0
ENDBRANCH   5   6
ENDBRANCH   4   5
ENDBRANCH   2   4
BRANCH   1  10
ATOM     10  C   UNL     1      -1.379   4.444  18.990  1.00  0.00     0.111 C 
BRANCH  10  11
ATOM     11  C   UNL     1      -0.268   5.118  19.745  1.00  0.00     0.163 C 
ATOM     12  O   UNL     1      -0.475   5.520  20.921  1.00  0.00    -0.294 OA
BRANCH  11  13
ATOM     13  C   UNL     1       1.077   5.297  19.141  1.00  0.00    -0.002 C 
ATOM     14  C   UNL     1       1.484   6.527  18.723  1.00  0.00    -0.069 C 
ATOM     15  C   UNL     1       2.827   6.720  18.058  1.00  0.00     0.039 C 
ATOM     16  C   UNL     1       0.625   7.751  18.945  1.00  0.00     0.039 C 
BRANCH  13  17
ATOM     17  C   UNL     1       1.995   4.087  18.998  1.00  0.00     0.066 CG0
ATOM     18  G   UNL     1       1.843   3.074  20.108  1.00  0.00     0.000 G0
ENDBRANCH  13  17
ENDBRANCH  11  13
ENDBRANCH  10  11
ENDBRANCH   1  10
TORSDOF 0
ENDMDL
MODEL 8
REMARK VINA RESULT:    -3.454      3.714      6.378
REMARK INTER + INTRA:          -4.312
REMARK INTER:                  -4.829
REMARK INTRA:                   0.517
REMARK UNBOUND:                 0.556
REMARK SMILES CC1=CCC(=C(C)C)C(=O)CC(C)=CCC1
REMARK SMILES IDX 12 1 14 2 13 3 15 4 16 5 2 6 1 7 3 8 11 10 9 11 10 12 5 13
REMARK SMILES IDX 6 14 7 15 8 16 4 17
REMARK H PARENT
REMARK Flexibility Score: 60.00
ROOT
ATOM      1  C   UNL     1       0.317  -5.562   5.713  1.00  0.00    -0.070 C 
ATOM      2  C   UNL     1      -0.509  -6.395   5.038  1.00  0.00    -0.027 C 
ATOM      3  C   UNL     1       0.811  -5.999   7.069  1.00  0.00     0.039 C 
ENDROOT
BRANCH   2   4
ATOM      4  C   UNL     1      -1.049  -6.148   3.648  1.00  0.00     0.032 C 
BRANCH   4   5
ATOM      5  C   UNL     1      -2.104  -5.031   3.641  1.00  0.00     0.034 C 
BRANCH   5   6
ATOM      6  C   UNL     1      -1.790  -3.904   2.667  1.00  0.00    -0.077 C 
ATOM      7  C   UNL     1      -1.591  -4.237   1.209  1.00  0.00     0.039 C 
ATOM      8  C   UNL     1      -1.696  -2.606   3.036  1.00  0.00    -0.023 CG0
ATOM      9  G   UNL     1      -1.794  -2.089   4.452  1.00  0.00     0.000 G0
ENDBRANCH   5   6
ENDBRANCH   4   5
ENDBRANCH   2   4
BRANCH   1  10
ATOM     10  C   UNL     1       0.761  -4.219   5.168  1.00  0.00     0.111 C 
BRANCH  10  11
ATOM     11  C   UNL     1       0.100  -3.089   5.906  1.00  0.00     0.163 C 
ATOM     12  O   UNL     1       0.049  -3.118   7.165  1.00  0.00    -0.294 OA
BRANCH  11  13
ATOM     13  C   UNL     1      -0.471  -1.924   5.182  1.00  0.00    -0.002 C 
ATOM     14  C   UNL     1       0.191  -0.736   5.163  1.00  0.00    -0.069 C 
ATOM     15  C   UNL     1      -0.399   0.475   4.476  1.00  0.00     0.039 C 
ATOM     16  C   UNL     1       1.560  -0.594   5.790  1.00  0.00     0.039 C 
BRANCH  13  17
ATOM     17  C   UNL     1      -1.807  -2.080   4.463  1.00  0.00     0.066 CG0
ATOM     18  G   UNL     1      -1.681  -2.613   3.055  1.00  0.00     0.000 G0
ENDBRANCH  13  17
ENDBRANCH  11  13
ENDBRANCH  10  11
ENDBRANCH   1  10
TORSDOF 0
ENDMDL
MODEL 9
REMARK VINA RESULT:    -3.149     17.539     19.198
REMARK INTER + INTRA:          -3.881
REMARK INTER:                  -4.820
REMARK INTRA:                   0.938
REMARK UNBOUND:                 0.556
REMARK SMILES CC1=CCC(=C(C)C)C(=O)CC(C)=CCC1
REMARK SMILES IDX 12 1 14 2 13 3 15 4 16 5 2 6 1 7 3 8 11 10 9 11 10 12 5 13
REMARK SMILES IDX 6 14 7 15 8 16 4 17
REMARK H PARENT
REMARK Flexibility Score: 60.00
ROOT
ATOM      1  C   UNL     1      -1.826   4.011  18.696  1.00  0.00    -0.070 C 
ATOM      2  C   UNL     1      -2.094   5.331  18.568  1.00  0.00    -0.027 C 
ATOM      3  C   UNL     1      -2.139   3.108  17.529  1.00  0.00     0.039 C 
ENDROOT
BRANCH   2   4
ATOM      4  C   UNL     1      -1.790   6.386  19.608  1.00  0.00     0.032 C 
BRANCH   4   5
ATOM      5  C   UNL     1      -0.413   6.167  20.252  1.00  0.00     0.034 C 
BRANCH   5   6
ATOM      6  C   UNL     1       0.750   6.417  19.302  1.00  0.00    -0.077 C 
ATOM      7  C   UNL     1       0.773   7.696  18.501  1.00  0.00     0.039 C 
ATOM      8  C   UNL     1       1.783   5.558  19.147  1.00  0.00    -0.023 CG0
ATOM      9  G   UNL     1       1.903   4.204  19.806  1.00  0.00     0.000 G0
ENDBRANCH   5   6
ENDBRANCH   4   5
ENDBRANCH   2   4
BRANCH   1  10
ATOM     10  C   UNL     1      -1.232   3.407  19.952  1.00  0.00     0.111 C 
BRANCH  10  11
ATOM     11  C   UNL     1      -0.059   2.524  19.628  1.00  0.00     0.163 C 
ATOM     12  O   UNL     1      -0.146   1.284  19.827  1.00  0.00    -0.294 OA
BRANCH  11  13
ATOM     13  C   UNL     1       1.192   3.083  19.054  1.00  0.00    -0.002 C 
ATOM     14  C   UNL     1       1.684   2.600  17.881  1.00  0.00    -0.069 C 
ATOM     15  C   UNL     1       2.982   3.119  17.307  1.00  0.00     0.039 C 
ATOM     16  C   UNL     1       0.930   1.557  17.087  1.00  0.00     0.039 C 
BRANCH  13  17
ATOM     17  C   UNL     1       1.914   4.204  19.795  1.00  0.00     0.066 CG0
ATOM     18  G   UNL     1       1.776   5.556  19.136  1.00  0.00     0.000 G0
ENDBRANCH  13  17
ENDBRANCH  11  13
ENDBRANCH  10  11
ENDBRANCH   1  10
TORSDOF 0
ENDMDL
