MODEL 1
REMARK VINA RESULT:    -5.803      0.000      0.000
REMARK INTER + INTRA:          -7.321
REMARK INTER:                  -6.991
REMARK INTRA:                  -0.331
REMARK UNBOUND:                -0.331
REMARK SMILES O=c1c(O)c(-c2ccc(O)c(O)c2)oc2cc(O)cc(O)c12
REMARK SMILES IDX 5 1 3 2 2 3 1 4 22 5 20 6 19 7 17 8 16 9 15 10 14 11 6 12
REMARK SMILES IDX 7 13 8 14 9 15 13 16 11 17 10 18 12 20 4 22 21 24 18 26
REMARK H PARENT 10 19 12 21 4 23 21 25 18 27
REMARK Flexibility Score: inf
ROOT
ATOM      1  C   UNL     1      16.417  -5.695   8.431  1.00  0.00     0.180 A 
ATOM      2  C   UNL     1      17.440  -6.174   9.267  1.00  0.00     0.208 A 
ATOM      3  C   UNL     1      17.646  -7.560   9.367  1.00  0.00     0.238 A 
ATOM      4  O   UNL     1      18.610  -7.978  10.058  1.00  0.00    -0.285 OA
ATOM      5  C   UNL     1      16.791  -8.451   8.674  1.00  0.00     0.111 A 
ATOM      6  C   UNL     1      16.879  -9.875   8.737  1.00  0.00     0.134 A 
ATOM      7  C   UNL     1      16.045 -10.655   7.925  1.00  0.00     0.093 A 
ATOM      8  C   UNL     1      15.087 -10.067   7.101  1.00  0.00     0.123 A 
ATOM      9  C   UNL     1      14.955  -8.679   7.072  1.00  0.00     0.094 A 
ATOM     10  C   UNL     1      15.797  -7.872   7.842  1.00  0.00     0.146 A 
ATOM     11  O   UNL     1      15.652  -6.554   7.768  1.00  0.00    -0.452 OA
ENDROOT
BRANCH   1  12
ATOM     12  C   UNL     1      16.148  -4.249   8.263  1.00  0.00     0.025 A 
ATOM     13  C   UNL     1      15.210  -3.620   9.096  1.00  0.00     0.016 A 
ATOM     14  C   UNL     1      14.924  -2.261   8.940  1.00  0.00     0.051 A 
ATOM     15  C   UNL     1      15.561  -1.516   7.941  1.00  0.00     0.157 A 
ATOM     16  C   UNL     1      16.770  -3.501   7.245  1.00  0.00     0.062 A 
ATOM     17  C   UNL     1      16.483  -2.137   7.089  1.00  0.00     0.158 A 
BRANCH  15  18
ATOM     18  O   UNL     1      15.281  -0.159   7.784  1.00  0.00    -0.504 OA
ATOM     19  H   UNL     1      16.019   0.534   7.759  1.00  0.00     0.293 HD
ENDBRANCH  15  18
BRANCH  17  20
ATOM     20  O   UNL     1      17.104  -1.397   6.085  1.00  0.00    -0.504 OA
ATOM     21  H   UNL     1      18.076  -1.119   6.155  1.00  0.00     0.293 HD
ENDBRANCH  17  20
ENDBRANCH   1  12
BRANCH   2  22
ATOM     22  O   UNL     1      18.224  -5.281  10.002  1.00  0.00    -0.502 OA
ATOM     23  H   UNL     1      19.231  -5.232   9.904  1.00  0.00     0.293 HD
ENDBRANCH   2  22
BRANCH   6  24
ATOM     24  O   UNL     1      17.740 -10.569   9.593  1.00  0.00    -0.507 OA
ATOM     25  H   UNL     1      18.136 -10.197  10.442  1.00  0.00     0.293 HD
ENDBRANCH   6  24
BRANCH   8  26
ATOM     26  O   UNL     1      14.265 -10.876   6.320  1.00  0.00    -0.508 OA
ATOM     27  H   UNL     1      13.266 -10.933   6.485  1.00  0.00     0.293 HD
ENDBRANCH   8  26
TORSDOF 6
ENDMDL
MODEL 2
REMARK VINA RESULT:    -5.599      1.706      6.669
REMARK INTER + INTRA:          -7.076
REMARK INTER:                  -7.189
REMARK INTRA:                   0.113
REMARK UNBOUND:                -0.331
REMARK SMILES O=c1c(O)c(-c2ccc(O)c(O)c2)oc2cc(O)cc(O)c12
REMARK SMILES IDX 5 1 3 2 2 3 1 4 22 5 20 6 19 7 17 8 16 9 15 10 14 11 6 12
REMARK SMILES IDX 7 13 8 14 9 15 13 16 11 17 10 18 12 20 4 22 21 24 18 26
REMARK H PARENT 10 19 12 21 4 23 21 25 18 27
REMARK Flexibility Score: inf
ROOT
ATOM      1  C   UNL     1      16.371  -6.068   8.582  1.00  0.00     0.180 A 
ATOM      2  C   UNL     1      17.085  -5.084   9.287  1.00  0.00     0.208 A 
ATOM      3  C   UNL     1      16.609  -3.763   9.281  1.00  0.00     0.238 A 
ATOM      4  O   UNL     1      17.210  -2.902   9.975  1.00  0.00    -0.285 OA
ATOM      5  C   UNL     1      15.459  -3.431   8.525  1.00  0.00     0.111 A 
ATOM      6  C   UNL     1      14.914  -2.116   8.410  1.00  0.00     0.134 A 
ATOM      7  C   UNL     1      13.710  -1.925   7.719  1.00  0.00     0.093 A 
ATOM      8  C   UNL     1      13.066  -2.987   7.087  1.00  0.00     0.123 A 
ATOM      9  C   UNL     1      13.619  -4.267   7.145  1.00  0.00     0.094 A 
ATOM     10  C   UNL     1      14.798  -4.496   7.859  1.00  0.00     0.146 A 
ATOM     11  O   UNL     1      15.278  -5.733   7.907  1.00  0.00    -0.452 OA
ENDROOT
BRANCH   1  12
ATOM     12  C   UNL     1      16.802  -7.484   8.552  1.00  0.00     0.025 A 
ATOM     13  C   UNL     1      16.656  -8.226   7.369  1.00  0.00     0.016 A 
ATOM     14  C   UNL     1      17.035  -9.570   7.325  1.00  0.00     0.051 A 
ATOM     15  C   UNL     1      17.550 -10.196   8.467  1.00  0.00     0.157 A 
ATOM     16  C   UNL     1      17.300  -8.123   9.703  1.00  0.00     0.062 A 
ATOM     17  C   UNL     1      17.680  -9.473   9.659  1.00  0.00     0.158 A 
BRANCH  15  18
ATOM     18  O   UNL     1      17.932 -11.536   8.426  1.00  0.00    -0.504 OA
ATOM     19  H   UNL     1      17.802 -12.148   9.224  1.00  0.00     0.293 HD
ENDBRANCH  15  18
BRANCH  17  20
ATOM     20  O   UNL     1      18.180 -10.102  10.797  1.00  0.00    -0.504 OA
ATOM     21  H   UNL     1      18.662  -9.582  11.522  1.00  0.00     0.293 HD
ENDBRANCH  17  20
ENDBRANCH   1  12
BRANCH   2  22
ATOM     22  O   UNL     1      18.260  -5.417   9.965  1.00  0.00    -0.502 OA
ATOM     23  H   UNL     1      18.398  -5.214  10.948  1.00  0.00     0.293 HD
ENDBRANCH   2  22
BRANCH   6  24
ATOM     24  O   UNL     1      15.522  -0.968   8.928  1.00  0.00    -0.507 OA
ATOM     25  H   UNL     1      15.162  -0.418   9.693  1.00  0.00     0.293 HD
ENDBRANCH   6  24
BRANCH   8  26
ATOM     26  O   UNL     1      11.880  -2.756   6.394  1.00  0.00    -0.508 OA
ATOM     27  H   UNL     1      11.873  -2.602   5.392  1.00  0.00     0.293 HD
ENDBRANCH   8  26
TORSDOF 6
ENDMDL
MODEL 3
REMARK VINA RESULT:    -5.557      1.232      2.816
REMARK INTER + INTRA:          -7.024
REMARK INTER:                  -6.778
REMARK INTRA:                  -0.246
REMARK UNBOUND:                -0.331
REMARK SMILES O=c1c(O)c(-c2ccc(O)c(O)c2)oc2cc(O)cc(O)c12
REMARK SMILES IDX 5 1 3 2 2 3 1 4 22 5 20 6 19 7 17 8 16 9 15 10 14 11 6 12
REMARK SMILES IDX 7 13 8 14 9 15 13 16 11 17 10 18 12 20 4 22 21 24 18 26
REMARK H PARENT 10 19 12 21 4 23 21 25 18 27
REMARK Flexibility Score: inf
ROOT
ATOM      1  C   UNL     1      16.181  -5.702   7.908  1.00  0.00     0.180 A 
ATOM      2  C   UNL     1      15.573  -6.473   6.903  1.00  0.00     0.208 A 
ATOM      3  C   UNL     1      15.711  -7.870   6.939  1.00  0.00     0.238 A 
ATOM      4  O   UNL     1      15.102  -8.558   6.080  1.00  0.00    -0.285 OA
ATOM      5  C   UNL     1      16.503  -8.474   7.945  1.00  0.00     0.111 A 
ATOM      6  C   UNL     1      16.750  -9.877   8.052  1.00  0.00     0.134 A 
ATOM      7  C   UNL     1      17.463 -10.372   9.152  1.00  0.00     0.093 A 
ATOM      8  C   UNL     1      17.991  -9.511  10.114  1.00  0.00     0.123 A 
ATOM      9  C   UNL     1      17.803  -8.134   9.991  1.00  0.00     0.094 A 
ATOM     10  C   UNL     1      17.064  -7.614   8.925  1.00  0.00     0.146 A 
ATOM     11  O   UNL     1      16.892  -6.299   8.858  1.00  0.00    -0.452 OA
ENDROOT
BRANCH   1  12
ATOM     12  C   UNL     1      16.069  -4.226   7.946  1.00  0.00     0.025 A 
ATOM     13  C   UNL     1      15.209  -3.622   8.877  1.00  0.00     0.016 A 
ATOM     14  C   UNL     1      15.070  -2.233   8.916  1.00  0.00     0.051 A 
ATOM     15  C   UNL     1      15.778  -1.428   8.015  1.00  0.00     0.157 A 
ATOM     16  C   UNL     1      16.762  -3.414   7.028  1.00  0.00     0.062 A 
ATOM     17  C   UNL     1      16.623  -2.019   7.067  1.00  0.00     0.158 A 
BRANCH  15  18
ATOM     18  O   UNL     1      15.645  -0.040   8.051  1.00  0.00    -0.504 OA
ATOM     19  H   UNL     1      16.455   0.568   8.099  1.00  0.00     0.293 HD
ENDBRANCH  15  18
BRANCH  17  20
ATOM     20  O   UNL     1      17.315  -1.217   6.162  1.00  0.00    -0.504 OA
ATOM     21  H   UNL     1      18.167  -0.735   6.424  1.00  0.00     0.293 HD
ENDBRANCH  17  20
ENDBRANCH   1  12
BRANCH   2  22
ATOM     22  O   UNL     1      14.859  -5.852   5.875  1.00  0.00    -0.502 OA
ATOM     23  H   UNL     1      13.846  -5.824   5.855  1.00  0.00     0.293 HD
ENDBRANCH   2  22
BRANCH   6  24
ATOM     24  O   UNL     1      16.344 -10.818   7.101  1.00  0.00    -0.507 OA
ATOM     25  H   UNL     1      16.666 -11.772   7.057  1.00  0.00     0.293 HD
ENDBRANCH   6  24
BRANCH   8  26
ATOM     26  O   UNL     1      18.709 -10.038  11.185  1.00  0.00    -0.508 OA
ATOM     27  H   UNL     1      18.544  -9.728  12.136  1.00  0.00     0.293 HD
ENDBRANCH   8  26
TORSDOF 6
ENDMDL
MODEL 4
REMARK VINA RESULT:    -5.333     13.417     16.038
REMARK INTER + INTRA:          -6.756
REMARK INTER:                  -6.710
REMARK INTRA:                  -0.046
REMARK UNBOUND:                -0.331
REMARK SMILES O=c1c(O)c(-c2ccc(O)c(O)c2)oc2cc(O)cc(O)c12
REMARK SMILES IDX 5 1 3 2 2 3 1 4 22 5 20 6 19 7 17 8 16 9 15 10 14 11 6 12
REMARK SMILES IDX 7 13 8 14 9 15 13 16 11 17 10 18 12 20 4 22 21 24 18 26
REMARK H PARENT 10 19 12 21 4 23 21 25 18 27
REMARK Flexibility Score: inf
ROOT
ATOM      1  C   UNL     1      12.930 -15.619  19.511  1.00  0.00     0.180 A 
ATOM      2  C   UNL     1      12.479 -16.947  19.605  1.00  0.00     0.208 A 
ATOM      3  C   UNL     1      12.663 -17.645  20.810  1.00  0.00     0.238 A 
ATOM      4  O   UNL     1      12.190 -18.806  20.912  1.00  0.00    -0.285 OA
ATOM      5  C   UNL     1      13.347 -17.027  21.885  1.00  0.00     0.111 A 
ATOM      6  C   UNL     1      13.629 -17.656  23.136  1.00  0.00     0.134 A 
ATOM      7  C   UNL     1      14.219 -16.911  24.165  1.00  0.00     0.093 A 
ATOM      8  C   UNL     1      14.593 -15.582  23.970  1.00  0.00     0.123 A 
ATOM      9  C   UNL     1      14.371 -14.974  22.735  1.00  0.00     0.094 A 
ATOM     10  C   UNL     1      13.751 -15.679  21.700  1.00  0.00     0.146 A 
ATOM     11  O   UNL     1      13.539 -15.055  20.547  1.00  0.00    -0.452 OA
ENDROOT
BRANCH   1  12
ATOM     12  C   UNL     1      12.760 -14.814  18.281  1.00  0.00     0.025 A 
ATOM     13  C   UNL     1      12.068 -13.595  18.343  1.00  0.00     0.016 A 
ATOM     14  C   UNL     1      11.876 -12.829  17.190  1.00  0.00     0.051 A 
ATOM     15  C   UNL     1      12.360 -13.279  15.956  1.00  0.00     0.157 A 
ATOM     16  C   UNL     1      13.226 -15.273  17.034  1.00  0.00     0.062 A 
ATOM     17  C   UNL     1      13.033 -14.505  15.876  1.00  0.00     0.158 A 
BRANCH  15  18
ATOM     18  O   UNL     1      12.174 -12.517  14.803  1.00  0.00    -0.504 OA
ATOM     19  H   UNL     1      12.590 -11.599  14.702  1.00  0.00     0.293 HD
ENDBRANCH  15  18
BRANCH  17  20
ATOM     20  O   UNL     1      13.501 -14.957  14.644  1.00  0.00    -0.504 OA
ATOM     21  H   UNL     1      13.960 -15.856  14.548  1.00  0.00     0.293 HD
ENDBRANCH  17  20
ENDBRANCH   1  12
BRANCH   2  22
ATOM     22  O   UNL     1      11.875 -17.564  18.507  1.00  0.00    -0.502 OA
ATOM     23  H   UNL     1      12.383 -18.177  17.880  1.00  0.00     0.293 HD
ENDBRANCH   2  22
BRANCH   6  24
ATOM     24  O   UNL     1      13.379 -19.004  23.409  1.00  0.00    -0.507 OA
ATOM     25  H   UNL     1      12.767 -19.599  22.872  1.00  0.00     0.293 HD
ENDBRANCH   6  24
BRANCH   8  26
ATOM     26  O   UNL     1      15.192 -14.878  25.012  1.00  0.00    -0.508 OA
ATOM     27  H   UNL     1      15.389 -13.886  24.936  1.00  0.00     0.293 HD
ENDBRANCH   8  26
TORSDOF 6
ENDMDL
MODEL 5
REMARK VINA RESULT:    -5.228      1.954      7.265
REMARK INTER + INTRA:          -6.628
REMARK INTER:                  -6.728
REMARK INTRA:                   0.100
REMARK UNBOUND:                -0.331
REMARK SMILES O=c1c(O)c(-c2ccc(O)c(O)c2)oc2cc(O)cc(O)c12
REMARK SMILES IDX 5 1 3 2 2 3 1 4 22 5 20 6 19 7 17 8 16 9 15 10 14 11 6 12
REMARK SMILES IDX 7 13 8 14 9 15 13 16 11 17 10 18 12 20 4 22 21 24 18 26
REMARK H PARENT 10 19 12 21 4 23 21 25 18 27
REMARK Flexibility Score: inf
ROOT
ATOM      1  C   UNL     1      15.841  -6.292   8.306  1.00  0.00     0.180 A 
ATOM      2  C   UNL     1      14.629  -6.090   7.623  1.00  0.00     0.208 A 
ATOM      3  C   UNL     1      14.087  -4.796   7.565  1.00  0.00     0.238 A 
ATOM      4  O   UNL     1      13.043  -4.610   6.889  1.00  0.00    -0.285 OA
ATOM      5  C   UNL     1      14.733  -3.731   8.238  1.00  0.00     0.111 A 
ATOM      6  C   UNL     1      14.250  -2.388   8.283  1.00  0.00     0.134 A 
ATOM      7  C   UNL     1      15.028  -1.394   8.890  1.00  0.00     0.093 A 
ATOM      8  C   UNL     1      16.240  -1.704   9.507  1.00  0.00     0.123 A 
ATOM      9  C   UNL     1      16.696  -3.022   9.516  1.00  0.00     0.094 A 
ATOM     10  C   UNL     1      15.960  -4.029   8.886  1.00  0.00     0.146 A 
ATOM     11  O   UNL     1      16.441  -5.267   8.900  1.00  0.00    -0.452 OA
ENDROOT
BRANCH   1  12
ATOM     12  C   UNL     1      16.482  -7.623   8.399  1.00  0.00     0.025 A 
ATOM     13  C   UNL     1      16.565  -8.432   7.255  1.00  0.00     0.016 A 
ATOM     14  C   UNL     1      17.145  -9.701   7.325  1.00  0.00     0.051 A 
ATOM     15  C   UNL     1      17.638 -10.185   8.543  1.00  0.00     0.157 A 
ATOM     16  C   UNL     1      16.959  -8.123   9.626  1.00  0.00     0.062 A 
ATOM     17  C   UNL     1      17.541  -9.397   9.696  1.00  0.00     0.158 A 
BRANCH  15  18
ATOM     18  O   UNL     1      18.220 -11.450   8.617  1.00  0.00    -0.504 OA
ATOM     19  H   UNL     1      18.706 -11.761   9.450  1.00  0.00     0.293 HD
ENDBRANCH  15  18
BRANCH  17  20
ATOM     20  O   UNL     1      18.018  -9.888  10.910  1.00  0.00    -0.504 OA
ATOM     21  H   UNL     1      18.823  -9.476  11.369  1.00  0.00     0.293 HD
ENDBRANCH  17  20
ENDBRANCH   1  12
BRANCH   2  22
ATOM     22  O   UNL     1      13.968  -7.169   7.031  1.00  0.00    -0.502 OA
ATOM     23  H   UNL     1      13.815  -8.046   7.515  1.00  0.00     0.293 HD
ENDBRANCH   2  22
BRANCH   6  24
ATOM     24  O   UNL     1      13.011  -1.983   7.777  1.00  0.00    -0.507 OA
ATOM     25  H   UNL     1      12.639  -1.048   7.836  1.00  0.00     0.293 HD
ENDBRANCH   6  24
BRANCH   8  26
ATOM     26  O   UNL     1      16.979  -0.692  10.115  1.00  0.00    -0.508 OA
ATOM     27  H   UNL     1      16.655   0.269  10.122  1.00  0.00     0.293 HD
ENDBRANCH   8  26
TORSDOF 6
ENDMDL
MODEL 6
REMARK VINA RESULT:    -5.107      4.244      7.250
REMARK INTER + INTRA:          -6.483
REMARK INTER:                  -6.157
REMARK INTRA:                  -0.326
REMARK UNBOUND:                -0.331
REMARK SMILES O=c1c(O)c(-c2ccc(O)c(O)c2)oc2cc(O)cc(O)c12
REMARK SMILES IDX 5 1 3 2 2 3 1 4 22 5 20 6 19 7 17 8 16 9 15 10 14 11 6 12
REMARK SMILES IDX 7 13 8 14 9 15 13 16 11 17 10 18 12 20 4 22 21 24 18 26
REMARK H PARENT 10 19 12 21 4 23 21 25 18 27
REMARK Flexibility Score: inf
ROOT
ATOM      1  C   UNL     1      17.575 -11.992   7.136  1.00  0.00     0.180 A 
ATOM      2  C   UNL     1      16.523 -12.921   7.071  1.00  0.00     0.208 A 
ATOM      3  C   UNL     1      16.814 -14.261   6.768  1.00  0.00     0.238 A 
ATOM      4  O   UNL     1      15.878 -15.100   6.785  1.00  0.00    -0.285 OA
ATOM      5  C   UNL     1      18.146 -14.644   6.478  1.00  0.00     0.111 A 
ATOM      6  C   UNL     1      18.551 -15.964   6.115  1.00  0.00     0.134 A 
ATOM      7  C   UNL     1      19.912 -16.250   5.953  1.00  0.00     0.093 A 
ATOM      8  C   UNL     1      20.878 -15.252   6.080  1.00  0.00     0.123 A 
ATOM      9  C   UNL     1      20.490 -13.946   6.381  1.00  0.00     0.094 A 
ATOM     10  C   UNL     1      19.142 -13.638   6.585  1.00  0.00     0.146 A 
ATOM     11  O   UNL     1      18.819 -12.387   6.891  1.00  0.00    -0.452 OA
ENDROOT
BRANCH   1  12
ATOM     12  C   UNL     1      17.349 -10.566   7.463  1.00  0.00     0.025 A 
ATOM     13  C   UNL     1      17.078  -9.655   6.430  1.00  0.00     0.016 A 
ATOM     14  C   UNL     1      16.883  -8.301   6.714  1.00  0.00     0.051 A 
ATOM     15  C   UNL     1      16.972  -7.836   8.031  1.00  0.00     0.157 A 
ATOM     16  C   UNL     1      17.459 -10.090   8.783  1.00  0.00     0.062 A 
ATOM     17  C   UNL     1      17.264  -8.731   9.068  1.00  0.00     0.158 A 
BRANCH  15  18
ATOM     18  O   UNL     1      16.776  -6.485   8.319  1.00  0.00    -0.504 OA
ATOM     19  H   UNL     1      17.160  -5.757   7.728  1.00  0.00     0.293 HD
ENDBRANCH  15  18
BRANCH  17  20
ATOM     20  O   UNL     1      17.367  -8.263  10.376  1.00  0.00    -0.504 OA
ATOM     21  H   UNL     1      17.965  -7.479  10.614  1.00  0.00     0.293 HD
ENDBRANCH  17  20
ENDBRANCH   1  12
BRANCH   2  22
ATOM     22  O   UNL     1      15.205 -12.508   7.285  1.00  0.00    -0.502 OA
ATOM     23  H   UNL     1      14.482 -12.609   6.584  1.00  0.00     0.293 HD
ENDBRANCH   2  22
BRANCH   6  24
ATOM     24  O   UNL     1      17.662 -17.017   5.875  1.00  0.00    -0.507 OA
ATOM     25  H   UNL     1      17.440 -17.748   6.533  1.00  0.00     0.293 HD
ENDBRANCH   6  24
BRANCH   8  26
ATOM     26  O   UNL     1      22.222 -15.570   5.896  1.00  0.00    -0.508 OA
ATOM     27  H   UNL     1      22.514 -16.505   5.634  1.00  0.00     0.293 HD
ENDBRANCH   8  26
TORSDOF 6
ENDMDL
MODEL 7
REMARK VINA RESULT:    -5.053      2.022      7.262
REMARK INTER + INTRA:          -6.418
REMARK INTER:                  -6.257
REMARK INTRA:                  -0.161
REMARK UNBOUND:                -0.331
REMARK SMILES O=c1c(O)c(-c2ccc(O)c(O)c2)oc2cc(O)cc(O)c12
REMARK SMILES IDX 5 1 3 2 2 3 1 4 22 5 20 6 19 7 17 8 16 9 15 10 14 11 6 12
REMARK SMILES IDX 7 13 8 14 9 15 13 16 11 17 10 18 12 20 4 22 21 24 18 26
REMARK H PARENT 10 19 12 21 4 23 21 25 18 27
REMARK Flexibility Score: inf
ROOT
ATOM      1  C   UNL     1      16.308  -9.649   7.828  1.00  0.00     0.180 A 
ATOM      2  C   UNL     1      17.129  -9.580   8.966  1.00  0.00     0.208 A 
ATOM      3  C   UNL     1      17.586  -8.326   9.401  1.00  0.00     0.238 A 
ATOM      4  O   UNL     1      18.259  -8.264  10.463  1.00  0.00    -0.285 OA
ATOM      5  C   UNL     1      17.264  -7.163   8.662  1.00  0.00     0.111 A 
ATOM      6  C   UNL     1      17.709  -5.845   8.985  1.00  0.00     0.134 A 
ATOM      7  C   UNL     1      17.240  -4.755   8.241  1.00  0.00     0.093 A 
ATOM      8  C   UNL     1      16.392  -4.939   7.149  1.00  0.00     0.123 A 
ATOM      9  C   UNL     1      15.994  -6.227   6.790  1.00  0.00     0.094 A 
ATOM     10  C   UNL     1      16.415  -7.331   7.536  1.00  0.00     0.146 A 
ATOM     11  O   UNL     1      15.995  -8.537   7.173  1.00  0.00    -0.452 OA
ENDROOT
BRANCH   1  12
ATOM     12  C   UNL     1      15.775 -10.932   7.316  1.00  0.00     0.025 A 
ATOM     13  C   UNL     1      14.395 -11.180   7.375  1.00  0.00     0.016 A 
ATOM     14  C   UNL     1      13.873 -12.393   6.918  1.00  0.00     0.051 A 
ATOM     15  C   UNL     1      14.725 -13.381   6.410  1.00  0.00     0.157 A 
ATOM     16  C   UNL     1      16.630 -11.937   6.825  1.00  0.00     0.062 A 
ATOM     17  C   UNL     1      16.107 -13.154   6.367  1.00  0.00     0.158 A 
BRANCH  15  18
ATOM     18  O   UNL     1      14.209 -14.592   5.951  1.00  0.00    -0.504 OA
ATOM     19  H   UNL     1      13.543 -14.628   5.188  1.00  0.00     0.293 HD
ENDBRANCH  15  18
BRANCH  17  20
ATOM     20  O   UNL     1      16.954 -14.145   5.875  1.00  0.00    -0.504 OA
ATOM     21  H   UNL     1      17.954 -13.997   5.795  1.00  0.00     0.293 HD
ENDBRANCH  17  20
ENDBRANCH   1  12
BRANCH   2  22
ATOM     22  O   UNL     1      17.500 -10.748   9.638  1.00  0.00    -0.502 OA
ATOM     23  H   UNL     1      17.710 -10.762  10.629  1.00  0.00     0.293 HD
ENDBRANCH   2  22
BRANCH   6  24
ATOM     24  O   UNL     1      18.626  -5.555  10.000  1.00  0.00    -0.507 OA
ATOM     25  H   UNL     1      18.568  -5.897  10.947  1.00  0.00     0.293 HD
ENDBRANCH   6  24
BRANCH   8  26
ATOM     26  O   UNL     1      15.959  -3.833   6.422  1.00  0.00    -0.508 OA
ATOM     27  H   UNL     1      16.121  -3.758   5.424  1.00  0.00     0.293 HD
ENDBRANCH   8  26
TORSDOF 6
ENDMDL
MODEL 8
REMARK VINA RESULT:    -4.973      1.554      6.980
REMARK INTER + INTRA:          -6.321
REMARK INTER:                  -6.061
REMARK INTRA:                  -0.261
REMARK UNBOUND:                -0.331
REMARK SMILES O=c1c(O)c(-c2ccc(O)c(O)c2)oc2cc(O)cc(O)c12
REMARK SMILES IDX 5 1 3 2 2 3 1 4 22 5 20 6 19 7 17 8 16 9 15 10 14 11 6 12
REMARK SMILES IDX 7 13 8 14 9 15 13 16 11 17 10 18 12 20 4 22 21 24 18 26
REMARK H PARENT 10 19 12 21 4 23 21 25 18 27
REMARK Flexibility Score: inf
ROOT
ATOM      1  C   UNL     1      17.046  -6.009   7.968  1.00  0.00     0.180 A 
ATOM      2  C   UNL     1      17.971  -5.333   7.154  1.00  0.00     0.208 A 
ATOM      3  C   UNL     1      17.825  -3.950   6.963  1.00  0.00     0.238 A 
ATOM      4  O   UNL     1      18.699  -3.339   6.295  1.00  0.00    -0.285 OA
ATOM      5  C   UNL     1      16.726  -3.270   7.539  1.00  0.00     0.111 A 
ATOM      6  C   UNL     1      16.455  -1.877   7.375  1.00  0.00     0.134 A 
ATOM      7  C   UNL     1      15.396  -1.291   8.080  1.00  0.00     0.093 A 
ATOM      8  C   UNL     1      14.561  -2.057   8.894  1.00  0.00     0.123 A 
ATOM      9  C   UNL     1      14.783  -3.428   9.019  1.00  0.00     0.094 A 
ATOM     10  C   UNL     1      15.854  -4.035   8.358  1.00  0.00     0.146 A 
ATOM     11  O   UNL     1      16.042  -5.339   8.523  1.00  0.00    -0.452 OA
ENDROOT
BRANCH   1  12
ATOM     12  C   UNL     1      17.140  -7.463   8.229  1.00  0.00     0.025 A 
ATOM     13  C   UNL     1      16.742  -8.371   7.235  1.00  0.00     0.016 A 
ATOM     14  C   UNL     1      16.802  -9.747   7.468  1.00  0.00     0.051 A 
ATOM     15  C   UNL     1      17.246 -10.235   8.703  1.00  0.00     0.157 A 
ATOM     16  C   UNL     1      17.565  -7.958   9.477  1.00  0.00     0.062 A 
ATOM     17  C   UNL     1      17.625  -9.340   9.711  1.00  0.00     0.158 A 
BRANCH  15  18
ATOM     18  O   UNL     1      17.310 -11.608   8.939  1.00  0.00    -0.504 OA
ATOM     19  H   UNL     1      18.070 -12.172   8.578  1.00  0.00     0.293 HD
ENDBRANCH  15  18
BRANCH  17  20
ATOM     20  O   UNL     1      18.053  -9.828  10.944  1.00  0.00    -0.504 OA
ATOM     21  H   UNL     1      18.648  -9.279  11.554  1.00  0.00     0.293 HD
ENDBRANCH  17  20
ENDBRANCH   1  12
BRANCH   2  22
ATOM     22  O   UNL     1      19.005  -6.036   6.531  1.00  0.00    -0.502 OA
ATOM     23  H   UNL     1      19.822  -6.362   7.034  1.00  0.00     0.293 HD
ENDBRANCH   2  22
BRANCH   6  24
ATOM     24  O   UNL     1      17.170  -1.036   6.517  1.00  0.00    -0.507 OA
ATOM     25  H   UNL     1      16.855  -0.134   6.195  1.00  0.00     0.293 HD
ENDBRANCH   6  24
BRANCH   8  26
ATOM     26  O   UNL     1      13.507  -1.443   9.567  1.00  0.00    -0.508 OA
ATOM     27  H   UNL     1      13.477  -1.404  10.579  1.00  0.00     0.293 HD
ENDBRANCH   8  26
TORSDOF 6
ENDMDL
MODEL 9
REMARK VINA RESULT:    -4.874      2.393      4.808
REMARK INTER + INTRA:          -6.202
REMARK INTER:                  -6.310
REMARK INTRA:                   0.108
REMARK UNBOUND:                -0.331
REMARK SMILES O=c1c(O)c(-c2ccc(O)c(O)c2)oc2cc(O)cc(O)c12
REMARK SMILES IDX 5 1 3 2 2 3 1 4 22 5 20 6 19 7 17 8 16 9 15 10 14 11 6 12
REMARK SMILES IDX 7 13 8 14 9 15 13 16 11 17 10 18 12 20 4 22 21 24 18 26
REMARK H PARENT 10 19 12 21 4 23 21 25 18 27
REMARK Flexibility Score: inf
ROOT
ATOM      1  C   UNL     1      16.401  -9.425   7.815  1.00  0.00     0.180 A 
ATOM      2  C   UNL     1      15.144 -10.054   7.845  1.00  0.00     0.208 A 
ATOM      3  C   UNL     1      15.048 -11.401   7.463  1.00  0.00     0.238 A 
ATOM      4  O   UNL     1      13.934 -11.978   7.563  1.00  0.00    -0.285 OA
ATOM      5  C   UNL     1      16.198 -12.087   7.002  1.00  0.00     0.111 A 
ATOM      6  C   UNL     1      16.208 -13.441   6.547  1.00  0.00     0.134 A 
ATOM      7  C   UNL     1      17.425 -14.048   6.213  1.00  0.00     0.093 A 
ATOM      8  C   UNL     1      18.623 -13.335   6.258  1.00  0.00     0.123 A 
ATOM      9  C   UNL     1      18.618 -11.996   6.648  1.00  0.00     0.094 A 
ATOM     10  C   UNL     1      17.424 -11.372   7.023  1.00  0.00     0.146 A 
ATOM     11  O   UNL     1      17.468 -10.103   7.409  1.00  0.00    -0.452 OA
ENDROOT
BRANCH   1  12
ATOM     12  C   UNL     1      16.585  -8.012   8.217  1.00  0.00     0.025 A 
ATOM     13  C   UNL     1      15.690  -7.038   7.748  1.00  0.00     0.016 A 
ATOM     14  C   UNL     1      15.857  -5.695   8.095  1.00  0.00     0.051 A 
ATOM     15  C   UNL     1      16.931  -5.305   8.905  1.00  0.00     0.157 A 
ATOM     16  C   UNL     1      17.676  -7.612   9.012  1.00  0.00     0.062 A 
ATOM     17  C   UNL     1      17.844  -6.264   9.361  1.00  0.00     0.158 A 
BRANCH  15  18
ATOM     18  O   UNL     1      17.101  -3.967   9.256  1.00  0.00    -0.504 OA
ATOM     19  H   UNL     1      17.926  -3.650   9.753  1.00  0.00     0.293 HD
ENDBRANCH  15  18
BRANCH  17  20
ATOM     20  O   UNL     1      18.921  -5.870  10.153  1.00  0.00    -0.504 OA
ATOM     21  H   UNL     1      19.289  -6.470  10.883  1.00  0.00     0.293 HD
ENDBRANCH  17  20
ENDBRANCH   1  12
BRANCH   2  22
ATOM     22  O   UNL     1      14.008  -9.337   8.230  1.00  0.00    -0.502 OA
ATOM     23  H   UNL     1      13.420  -8.850   7.564  1.00  0.00     0.293 HD
ENDBRANCH   2  22
BRANCH   6  24
ATOM     24  O   UNL     1      15.059 -14.219   6.379  1.00  0.00    -0.507 OA
ATOM     25  H   UNL     1      14.349 -14.060   5.681  1.00  0.00     0.293 HD
ENDBRANCH   6  24
BRANCH   8  26
ATOM     26  O   UNL     1      19.812 -13.967   5.903  1.00  0.00    -0.508 OA
ATOM     27  H   UNL     1      19.826 -14.735   5.241  1.00  0.00     0.293 HD
ENDBRANCH   8  26
TORSDOF 6
ENDMDL
