MODEL 1
REMARK VINA RESULT:    -3.998      0.000      0.000
REMARK INTER + INTRA:          -4.658
REMARK INTER:                  -4.349
REMARK INTRA:                  -0.309
REMARK UNBOUND:                -0.309
REMARK SMILES CC(=O)c1cc(C)ccc1O
REMARK SMILES IDX 7 1 6 2 5 3 4 4 10 5 9 6 8 7 2 8 3 9 1 10 11 11
REMARK H PARENT 11 12
REMARK Flexibility Score: inf
ROOT
ATOM      1  C   UNL     1    -116.445 -98.883   0.784  1.00  0.00     0.044 C 
ATOM      2  C   UNL     1    -117.446 -99.988   0.951  1.00  0.00    -0.050 A 
ATOM      3  C   UNL     1    -118.785 -99.691   1.247  1.00  0.00     0.019 A 
ATOM      4  C   UNL     1    -119.740-100.717   1.379  1.00  0.00     0.059 A 
ATOM      5  C   UNL     1    -119.340-102.059   1.168  1.00  0.00     0.126 A 
ATOM      6  C   UNL     1    -118.003-102.346   0.873  1.00  0.00     0.047 A 
ATOM      7  C   UNL     1    -117.063-101.321   0.756  1.00  0.00     0.007 A 
ENDROOT
BRANCH   4   8
ATOM      8  C   UNL     1    -121.126-100.363   1.767  1.00  0.00     0.163 C 
ATOM      9  O   UNL     1    -122.101-100.920   1.196  1.00  0.00    -0.294 OA
ATOM     10  C   UNL     1    -121.397 -99.421   2.901  1.00  0.00     0.093 C 
ENDBRANCH   4   8
BRANCH   5  11
ATOM     11  O   UNL     1    -120.243-103.125   1.209  1.00  0.00    -0.507 OA
ATOM     12  H   UNL     1    -121.183-103.071   0.842  1.00  0.00     0.293 HD
ENDBRANCH   5  11
TORSDOF 2
ENDMDL
MODEL 2
REMARK VINA RESULT:    -3.995      1.437      3.396
REMARK INTER + INTRA:          -4.654
REMARK INTER:                  -4.349
REMARK INTRA:                  -0.305
REMARK UNBOUND:                -0.309
REMARK SMILES CC(=O)c1cc(C)ccc1O
REMARK SMILES IDX 7 1 6 2 5 3 4 4 10 5 9 6 8 7 2 8 3 9 1 10 11 11
REMARK H PARENT 11 12
REMARK Flexibility Score: inf
ROOT
ATOM      1  C   UNL     1    -119.591 -97.448   1.628  1.00  0.00     0.044 C 
ATOM      2  C   UNL     1    -119.778 -98.932   1.505  1.00  0.00    -0.050 A 
ATOM      3  C   UNL     1    -118.855 -99.702   0.782  1.00  0.00     0.019 A 
ATOM      4  C   UNL     1    -119.003-101.099   0.681  1.00  0.00     0.059 A 
ATOM      5  C   UNL     1    -120.079-101.726   1.356  1.00  0.00     0.126 A 
ATOM      6  C   UNL     1    -120.995-100.949   2.074  1.00  0.00     0.047 A 
ATOM      7  C   UNL     1    -120.843 -99.564   2.157  1.00  0.00     0.007 A 
ENDROOT
BRANCH   4   8
ATOM      8  C   UNL     1    -118.048-101.865  -0.155  1.00  0.00     0.163 C 
ATOM      9  O   UNL     1    -118.464-102.804  -0.885  1.00  0.00    -0.294 OA
ATOM     10  C   UNL     1    -116.601-101.484  -0.225  1.00  0.00     0.093 C 
ENDBRANCH   4   8
BRANCH   5  11
ATOM     11  O   UNL     1    -120.252-103.112   1.365  1.00  0.00    -0.507 OA
ATOM     12  H   UNL     1    -120.087-103.698   0.557  1.00  0.00     0.293 HD
ENDBRANCH   5  11
TORSDOF 2
ENDMDL
MODEL 3
REMARK VINA RESULT:    -3.976      1.208      1.705
REMARK INTER + INTRA:          -4.634
REMARK INTER:                  -4.343
REMARK INTRA:                  -0.290
REMARK UNBOUND:                -0.309
REMARK SMILES CC(=O)c1cc(C)ccc1O
REMARK SMILES IDX 7 1 6 2 5 3 4 4 10 5 9 6 8 7 2 8 3 9 1 10 11 11
REMARK H PARENT 11 12
REMARK Flexibility Score: inf
ROOT
ATOM      1  C   UNL     1    -115.966 -98.366   1.117  1.00  0.00     0.044 C 
ATOM      2  C   UNL     1    -116.652 -99.639   0.714  1.00  0.00    -0.050 A 
ATOM      3  C   UNL     1    -117.923 -99.947   1.222  1.00  0.00     0.019 A 
ATOM      4  C   UNL     1    -118.590-101.124   0.832  1.00  0.00     0.059 A 
ATOM      5  C   UNL     1    -117.977-101.978  -0.117  1.00  0.00     0.126 A 
ATOM      6  C   UNL     1    -116.709-101.662  -0.619  1.00  0.00     0.047 A 
ATOM      7  C   UNL     1    -116.053-100.499  -0.214  1.00  0.00     0.007 A 
ENDROOT
BRANCH   4   8
ATOM      8  C   UNL     1    -119.897-101.449   1.450  1.00  0.00     0.163 C 
ATOM      9  O   UNL     1    -120.246-102.652   1.588  1.00  0.00    -0.294 OA
ATOM     10  C   UNL     1    -120.779-100.374   2.007  1.00  0.00     0.093 C 
ENDBRANCH   4   8
BRANCH   5  11
ATOM     11  O   UNL     1    -118.606-103.125  -0.610  1.00  0.00    -0.507 OA
ATOM     12  H   UNL     1    -118.353-104.062  -0.327  1.00  0.00     0.293 HD
ENDBRANCH   5  11
TORSDOF 2
ENDMDL
MODEL 4
REMARK VINA RESULT:    -3.910      8.069      9.097
REMARK INTER + INTRA:          -4.562
REMARK INTER:                  -4.266
REMARK INTRA:                  -0.297
REMARK UNBOUND:                -0.309
REMARK SMILES CC(=O)c1cc(C)ccc1O
REMARK SMILES IDX 7 1 6 2 5 3 4 4 10 5 9 6 8 7 2 8 3 9 1 10 11 11
REMARK H PARENT 11 12
REMARK Flexibility Score: inf
ROOT
ATOM      1  C   UNL     1    -113.031 -96.079   4.059  1.00  0.00     0.044 C 
ATOM      2  C   UNL     1    -114.235 -95.292   4.485  1.00  0.00    -0.050 A 
ATOM      3  C   UNL     1    -114.469 -94.015   3.953  1.00  0.00     0.019 A 
ATOM      4  C   UNL     1    -115.609 -93.276   4.323  1.00  0.00     0.059 A 
ATOM      5  C   UNL     1    -116.545 -93.858   5.214  1.00  0.00     0.126 A 
ATOM      6  C   UNL     1    -116.303 -95.133   5.739  1.00  0.00     0.047 A 
ATOM      7  C   UNL     1    -115.163 -95.849   5.374  1.00  0.00     0.007 A 
ENDROOT
BRANCH   4   8
ATOM      8  C   UNL     1    -115.779 -91.902   3.796  1.00  0.00     0.163 C 
ATOM      9  O   UNL     1    -115.962 -90.941   4.591  1.00  0.00    -0.294 OA
ATOM     10  C   UNL     1    -115.639 -91.611   2.333  1.00  0.00     0.093 C 
ENDBRANCH   4   8
BRANCH   5  11
ATOM     11  O   UNL     1    -117.736 -93.220   5.571  1.00  0.00    -0.507 OA
ATOM     12  H   UNL     1    -118.597 -93.319   5.051  1.00  0.00     0.293 HD
ENDBRANCH   5  11
TORSDOF 2
ENDMDL
MODEL 5
REMARK VINA RESULT:    -3.900      1.774      4.709
REMARK INTER + INTRA:          -4.551
REMARK INTER:                  -4.258
REMARK INTRA:                  -0.293
REMARK UNBOUND:                -0.309
REMARK SMILES CC(=O)c1cc(C)ccc1O
REMARK SMILES IDX 7 1 6 2 5 3 4 4 10 5 9 6 8 7 2 8 3 9 1 10 11 11
REMARK H PARENT 11 12
REMARK Flexibility Score: inf
ROOT
ATOM      1  C   UNL     1    -122.517 -99.198   5.350  1.00  0.00     0.044 C 
ATOM      2  C   UNL     1    -122.596 -99.894   4.023  1.00  0.00    -0.050 A 
ATOM      3  C   UNL     1    -121.433-100.393   3.417  1.00  0.00     0.019 A 
ATOM      4  C   UNL     1    -121.495-101.073   2.185  1.00  0.00     0.059 A 
ATOM      5  C   UNL     1    -122.759-101.285   1.581  1.00  0.00     0.126 A 
ATOM      6  C   UNL     1    -123.914-100.783   2.194  1.00  0.00     0.047 A 
ATOM      7  C   UNL     1    -123.837-100.101   3.408  1.00  0.00     0.007 A 
ENDROOT
BRANCH   4   8
ATOM      8  C   UNL     1    -120.235-101.517   1.544  1.00  0.00     0.163 C 
ATOM      9  O   UNL     1    -120.037-102.742   1.326  1.00  0.00    -0.294 OA
ATOM     10  C   UNL     1    -119.224-100.525   1.056  1.00  0.00     0.093 C 
ENDBRANCH   4   8
BRANCH   5  11
ATOM     11  O   UNL     1    -122.912-102.013   0.399  1.00  0.00    -0.507 OA
ATOM     12  H   UNL     1    -122.497-102.923   0.249  1.00  0.00     0.293 HD
ENDBRANCH   5  11
TORSDOF 2
ENDMDL
MODEL 6
REMARK VINA RESULT:    -3.802      1.996      3.037
REMARK INTER + INTRA:          -4.445
REMARK INTER:                  -4.135
REMARK INTRA:                  -0.309
REMARK UNBOUND:                -0.309
REMARK SMILES CC(=O)c1cc(C)ccc1O
REMARK SMILES IDX 7 1 6 2 5 3 4 4 10 5 9 6 8 7 2 8 3 9 1 10 11 11
REMARK H PARENT 11 12
REMARK Flexibility Score: inf
ROOT
ATOM      1  C   UNL     1    -119.194 -97.126   1.507  1.00  0.00     0.044 C 
ATOM      2  C   UNL     1    -118.437 -98.393   1.236  1.00  0.00    -0.050 A 
ATOM      3  C   UNL     1    -119.124 -99.565   0.886  1.00  0.00     0.019 A 
ATOM      4  C   UNL     1    -118.425-100.754   0.602  1.00  0.00     0.059 A 
ATOM      5  C   UNL     1    -117.009-100.742   0.634  1.00  0.00     0.126 A 
ATOM      6  C   UNL     1    -116.332 -99.568   0.984  1.00  0.00     0.047 A 
ATOM      7  C   UNL     1    -117.037 -98.400   1.275  1.00  0.00     0.007 A 
ENDROOT
BRANCH   4   8
ATOM      8  C   UNL     1    -119.192-101.988   0.311  1.00  0.00     0.163 C 
ATOM      9  O   UNL     1    -118.832-102.747  -0.628  1.00  0.00    -0.294 OA
ATOM     10  C   UNL     1    -120.340-102.408   1.177  1.00  0.00     0.093 C 
ENDBRANCH   4   8
BRANCH   5  11
ATOM     11  O   UNL     1    -116.242-101.860   0.294  1.00  0.00    -0.507 OA
ATOM     12  H   UNL     1    -116.119-102.656   0.904  1.00  0.00     0.293 HD
ENDBRANCH   5  11
TORSDOF 2
ENDMDL
MODEL 7
REMARK VINA RESULT:    -3.766      2.475      4.027
REMARK INTER + INTRA:          -4.405
REMARK INTER:                  -4.108
REMARK INTRA:                  -0.297
REMARK UNBOUND:                -0.309
REMARK SMILES CC(=O)c1cc(C)ccc1O
REMARK SMILES IDX 7 1 6 2 5 3 4 4 10 5 9 6 8 7 2 8 3 9 1 10 11 11
REMARK H PARENT 11 12
REMARK Flexibility Score: inf
ROOT
ATOM      1  C   UNL     1    -120.929-100.331   1.877  1.00  0.00     0.044 C 
ATOM      2  C   UNL     1    -119.607-100.740   1.297  1.00  0.00    -0.050 A 
ATOM      3  C   UNL     1    -118.536 -99.834   1.272  1.00  0.00     0.019 A 
ATOM      4  C   UNL     1    -117.282-100.213   0.756  1.00  0.00     0.059 A 
ATOM      5  C   UNL     1    -117.101-101.541   0.298  1.00  0.00     0.126 A 
ATOM      6  C   UNL     1    -118.175-102.438   0.327  1.00  0.00     0.047 A 
ATOM      7  C   UNL     1    -119.416-102.046   0.829  1.00  0.00     0.007 A 
ENDROOT
BRANCH   4   8
ATOM      8  C   UNL     1    -116.201 -99.202   0.678  1.00  0.00     0.163 C 
ATOM      9  O   UNL     1    -115.365 -99.246  -0.264  1.00  0.00    -0.294 OA
ATOM     10  C   UNL     1    -116.135 -98.063   1.648  1.00  0.00     0.093 C 
ENDBRANCH   4   8
BRANCH   5  11
ATOM     11  O   UNL     1    -115.868-102.014  -0.160  1.00  0.00    -0.507 OA
ATOM     12  H   UNL     1    -115.643-102.997  -0.232  1.00  0.00     0.293 HD
ENDBRANCH   5  11
TORSDOF 2
ENDMDL
MODEL 8
REMARK VINA RESULT:    -3.736     14.926     15.863
REMARK INTER + INTRA:          -4.373
REMARK INTER:                  -4.080
REMARK INTRA:                  -0.292
REMARK UNBOUND:                -0.309
REMARK SMILES CC(=O)c1cc(C)ccc1O
REMARK SMILES IDX 7 1 6 2 5 3 4 4 10 5 9 6 8 7 2 8 3 9 1 10 11 11
REMARK H PARENT 11 12
REMARK Flexibility Score: inf
ROOT
ATOM      1  C   UNL     1    -115.420 -98.802  13.938  1.00  0.00     0.044 C 
ATOM      2  C   UNL     1    -115.761 -97.787  14.989  1.00  0.00    -0.050 A 
ATOM      3  C   UNL     1    -115.866 -96.429  14.652  1.00  0.00     0.019 A 
ATOM      4  C   UNL     1    -116.212 -95.469  15.622  1.00  0.00     0.059 A 
ATOM      5  C   UNL     1    -116.495 -95.898  16.942  1.00  0.00     0.126 A 
ATOM      6  C   UNL     1    -116.387 -97.255  17.269  1.00  0.00     0.047 A 
ATOM      7  C   UNL     1    -116.032 -98.195  16.301  1.00  0.00     0.007 A 
ENDROOT
BRANCH   4   8
ATOM      8  C   UNL     1    -116.238 -94.037  15.241  1.00  0.00     0.163 C 
ATOM      9  O   UNL     1    -117.309 -93.381  15.334  1.00  0.00    -0.294 OA
ATOM     10  C   UNL     1    -114.986 -93.322  14.835  1.00  0.00     0.093 C 
ENDBRANCH   4   8
BRANCH   5  11
ATOM     11  O   UNL     1    -116.916 -95.018  17.943  1.00  0.00    -0.507 OA
ATOM     12  H   UNL     1    -116.427 -94.898  18.819  1.00  0.00     0.293 HD
ENDBRANCH   5  11
TORSDOF 2
ENDMDL
MODEL 9
REMARK VINA RESULT:    -3.722      1.740      3.708
REMARK INTER + INTRA:          -4.358
REMARK INTER:                  -4.051
REMARK INTRA:                  -0.307
REMARK UNBOUND:                -0.309
REMARK SMILES CC(=O)c1cc(C)ccc1O
REMARK SMILES IDX 7 1 6 2 5 3 4 4 10 5 9 6 8 7 2 8 3 9 1 10 11 11
REMARK H PARENT 11 12
REMARK Flexibility Score: inf
ROOT
ATOM      1  C   UNL     1    -121.726 -99.646   2.979  1.00  0.00     0.044 C 
ATOM      2  C   UNL     1    -120.958-100.517   2.028  1.00  0.00    -0.050 A 
ATOM      3  C   UNL     1    -119.676-100.139   1.602  1.00  0.00     0.019 A 
ATOM      4  C   UNL     1    -118.933-100.960   0.732  1.00  0.00     0.059 A 
ATOM      5  C   UNL     1    -119.482-102.199   0.322  1.00  0.00     0.126 A 
ATOM      6  C   UNL     1    -120.762-102.568   0.752  1.00  0.00     0.047 A 
ATOM      7  C   UNL     1    -121.493-101.740   1.604  1.00  0.00     0.007 A 
ENDROOT
BRANCH   4   8
ATOM      8  C   UNL     1    -117.615-100.487   0.247  1.00  0.00     0.163 C 
ATOM      9  O   UNL     1    -117.324-100.579  -0.975  1.00  0.00    -0.294 OA
ATOM     10  C   UNL     1    -116.648 -99.808   1.169  1.00  0.00     0.093 C 
ENDBRANCH   4   8
BRANCH   5  11
ATOM     11  O   UNL     1    -118.778-103.102  -0.480  1.00  0.00    -0.507 OA
ATOM     12  H   UNL     1    -118.288-102.832  -1.322  1.00  0.00     0.293 HD
ENDBRANCH   5  11
TORSDOF 2
ENDMDL
