MODEL 1
REMARK VINA RESULT:    -3.213      0.000      0.000
REMARK INTER + INTRA:          -3.210
REMARK INTER:                  -3.965
REMARK INTRA:                   0.754
REMARK UNBOUND:                 0.754
REMARK SMILES CC1=CC=CC(C)(C)CC1=O
REMARK SMILES IDX 1 1 2 2 3 3 10 4 11 5 9 6 4 8 5 9 6 10 7 11 8 12
REMARK H PARENT
REMARK Flexibility Score: 80.00
ROOT
ATOM      1  C   UNL     1      10.338 -28.249  17.110  1.00  0.00     0.048 C 
ATOM      2  C   UNL     1       9.083 -29.051  16.859  1.00  0.00    -0.008 C 
ATOM      3  C   UNL     1       8.277 -29.297  17.915  1.00  0.00     0.007 C 
ENDROOT
BRANCH   2   4
ATOM      4  C   UNL     1       8.874 -29.568  15.483  1.00  0.00     0.159 C 
ATOM      5  O   UNL     1       9.821 -29.488  14.654  1.00  0.00    -0.295 OA
BRANCH   4   6
ATOM      6  C   UNL     1       7.586 -30.173  15.014  1.00  0.00     0.091 CG0
ATOM      7  G   UNL     1       7.160 -31.411  15.835  1.00  0.00     0.000 G0
ENDBRANCH   4   6
ENDBRANCH   2   4
BRANCH   3   8
ATOM      8  C   UNL     1       7.011 -30.064  17.986  1.00  0.00    -0.003 C 
ATOM      9  C   UNL     1       6.522 -30.968  17.128  1.00  0.00    -0.020 C 
BRANCH   9  10
ATOM     10  C   UNL     1       7.158 -31.412  15.833  1.00  0.00    -0.010 CG0
ATOM     11  C   UNL     1       6.098 -32.179  15.009  1.00  0.00     0.016 C 
ATOM     12  C   UNL     1       8.329 -32.380  16.122  1.00  0.00     0.016 C 
ATOM     13  G   UNL     1       7.597 -30.175  15.018  1.00  0.00     0.000 G0
ENDBRANCH   9  10
ENDBRANCH   3   8
TORSDOF 0
ENDMDL
MODEL 2
REMARK VINA RESULT:    -3.012      1.753      2.641
REMARK INTER + INTRA:          -2.962
REMARK INTER:                  -3.712
REMARK INTRA:                   0.750
REMARK UNBOUND:                 0.754
REMARK SMILES CC1=CC=CC(C)(C)CC1=O
REMARK SMILES IDX 1 1 2 2 3 3 10 4 11 5 9 6 4 8 5 9 6 10 7 11 8 12
REMARK H PARENT
REMARK Flexibility Score: 80.00
ROOT
ATOM      1  C   UNL     1       9.173 -28.550  19.121  1.00  0.00     0.048 C 
ATOM      2  C   UNL     1       8.816 -29.393  17.919  1.00  0.00    -0.008 C 
ATOM      3  C   UNL     1       9.272 -28.989  16.713  1.00  0.00     0.007 C 
ENDROOT
BRANCH   2   4
ATOM      4  C   UNL     1       7.928 -30.560  18.151  1.00  0.00     0.159 C 
ATOM      5  O   UNL     1       7.369 -30.684  19.275  1.00  0.00    -0.295 OA
BRANCH   4   6
ATOM      6  C   UNL     1       7.664 -31.615  17.122  1.00  0.00     0.091 CG0
ATOM      7  G   UNL     1       7.056 -31.055  15.816  1.00  0.00     0.000 G0
ENDBRANCH   4   6
ENDBRANCH   2   4
BRANCH   3   8
ATOM      8  C   UNL     1       9.068 -29.583  15.371  1.00  0.00    -0.003 C 
ATOM      9  C   UNL     1       8.134 -30.451  14.966  1.00  0.00    -0.020 C 
BRANCH   9  10
ATOM     10  C   UNL     1       7.049 -31.066  15.817  1.00  0.00    -0.010 CG0
ATOM     11  C   UNL     1       6.443 -32.260  15.044  1.00  0.00     0.016 C 
ATOM     12  C   UNL     1       5.922 -30.036  16.064  1.00  0.00     0.016 C 
ATOM     13  G   UNL     1       7.661 -31.604  17.130  1.00  0.00     0.000 G0
ENDBRANCH   9  10
ENDBRANCH   3   8
TORSDOF 0
ENDMDL
MODEL 3
REMARK VINA RESULT:    -3.007      1.959      3.376
REMARK INTER + INTRA:          -2.955
REMARK INTER:                  -3.705
REMARK INTRA:                   0.750
REMARK UNBOUND:                 0.754
REMARK SMILES CC1=CC=CC(C)(C)CC1=O
REMARK SMILES IDX 1 1 2 2 3 3 10 4 11 5 9 6 4 8 5 9 6 10 7 11 8 12
REMARK H PARENT
REMARK Flexibility Score: 80.00
ROOT
ATOM      1  C   UNL     1       7.462 -33.034  17.534  1.00  0.00     0.048 C 
ATOM      2  C   UNL     1       8.137 -31.972  16.698  1.00  0.00    -0.008 C 
ATOM      3  C   UNL     1       8.274 -30.742  17.240  1.00  0.00     0.007 C 
ENDROOT
BRANCH   2   4
ATOM      4  C   UNL     1       8.530 -32.348  15.317  1.00  0.00     0.159 C 
ATOM      5  O   UNL     1       8.114 -33.439  14.842  1.00  0.00    -0.295 OA
BRANCH   4   6
ATOM      6  C   UNL     1       9.412 -31.502  14.450  1.00  0.00     0.091 CG0
ATOM      7  G   UNL     1       8.830 -30.097  14.175  1.00  0.00     0.000 G0
ENDBRANCH   4   6
ENDBRANCH   2   4
BRANCH   3   8
ATOM      8  C   UNL     1       8.860 -29.509  16.664  1.00  0.00    -0.003 C 
ATOM      9  C   UNL     1       9.096 -29.206  15.382  1.00  0.00    -0.020 C 
BRANCH   9  10
ATOM     10  C   UNL     1       8.836 -30.091  14.187  1.00  0.00    -0.010 CG0
ATOM     11  C   UNL     1       9.585 -29.499  12.971  1.00  0.00     0.016 C 
ATOM     12  C   UNL     1       7.325 -30.103  13.857  1.00  0.00     0.016 C 
ATOM     13  G   UNL     1       9.397 -31.506  14.456  1.00  0.00     0.000 G0
ENDBRANCH   9  10
ENDBRANCH   3   8
TORSDOF 0
ENDMDL
MODEL 4
REMARK VINA RESULT:    -2.845      2.284      3.514
REMARK INTER + INTRA:          -2.756
REMARK INTER:                  -3.507
REMARK INTRA:                   0.750
REMARK UNBOUND:                 0.754
REMARK SMILES CC1=CC=CC(C)(C)CC1=O
REMARK SMILES IDX 1 1 2 2 3 3 10 4 11 5 9 6 4 8 5 9 6 10 7 11 8 12
REMARK H PARENT
REMARK Flexibility Score: 80.00
ROOT
ATOM      1  C   UNL     1      11.371 -28.736  14.129  1.00  0.00     0.048 C 
ATOM      2  C   UNL     1      10.348 -29.809  13.841  1.00  0.00    -0.008 C 
ATOM      3  C   UNL     1      10.450 -30.474  12.670  1.00  0.00     0.007 C 
ENDROOT
BRANCH   2   4
ATOM      4  C   UNL     1       9.264 -29.995  14.839  1.00  0.00     0.159 C 
ATOM      5  O   UNL     1       9.136 -29.145  15.762  1.00  0.00    -0.295 OA
BRANCH   4   6
ATOM      6  C   UNL     1       8.313 -31.152  14.820  1.00  0.00     0.091 CG0
ATOM      7  G   UNL     1       7.499 -31.251  13.510  1.00  0.00     0.000 G0
ENDBRANCH   4   6
ENDBRANCH   2   4
BRANCH   3   8
ATOM      8  C   UNL     1       9.593 -31.543  12.105  1.00  0.00    -0.003 C 
ATOM      9  C   UNL     1       8.342 -31.884  12.435  1.00  0.00    -0.020 C 
BRANCH   9  10
ATOM     10  C   UNL     1       7.494 -31.255  13.514  1.00  0.00    -0.010 CG0
ATOM     11  C   UNL     1       6.289 -32.184  13.789  1.00  0.00     0.016 C 
ATOM     12  C   UNL     1       6.946 -29.893  13.029  1.00  0.00     0.016 C 
ATOM     13  G   UNL     1       8.316 -31.135  14.818  1.00  0.00     0.000 G0
ENDBRANCH   9  10
ENDBRANCH   3   8
TORSDOF 0
ENDMDL
MODEL 5
REMARK VINA RESULT:    -2.829      2.044      2.516
REMARK INTER + INTRA:          -2.736
REMARK INTER:                  -3.495
REMARK INTRA:                   0.759
REMARK UNBOUND:                 0.754
REMARK SMILES CC1=CC=CC(C)(C)CC1=O
REMARK SMILES IDX 1 1 2 2 3 3 10 4 11 5 9 6 4 8 5 9 6 10 7 11 8 12
REMARK H PARENT
REMARK Flexibility Score: 80.00
ROOT
ATOM      1  C   UNL     1      11.272 -28.754  14.356  1.00  0.00     0.048 C 
ATOM      2  C   UNL     1       9.839 -29.229  14.318  1.00  0.00    -0.008 C 
ATOM      3  C   UNL     1       9.237 -29.498  15.497  1.00  0.00     0.007 C 
ENDROOT
BRANCH   2   4
ATOM      4  C   UNL     1       9.230 -29.433  12.980  1.00  0.00     0.159 C 
ATOM      5  O   UNL     1       9.973 -29.398  11.962  1.00  0.00    -0.295 OA
BRANCH   4   6
ATOM      6  C   UNL     1       7.766 -29.668  12.766  1.00  0.00     0.091 CG0
ATOM      7  G   UNL     1       7.242 -30.937  13.476  1.00  0.00     0.000 G0
ENDBRANCH   4   6
ENDBRANCH   2   4
BRANCH   3   8
ATOM      8  C   UNL     1       7.869 -29.996  15.775  1.00  0.00    -0.003 C 
ATOM      9  C   UNL     1       7.012 -30.613  14.953  1.00  0.00    -0.020 C 
BRANCH   9  10
ATOM     10  C   UNL     1       7.239 -30.932  13.494  1.00  0.00    -0.010 CG0
ATOM     11  C   UNL     1       5.880 -31.311  12.863  1.00  0.00     0.016 C 
ATOM     12  C   UNL     1       8.184 -32.148  13.359  1.00  0.00     0.016 C 
ATOM     13  G   UNL     1       7.775 -29.678  12.765  1.00  0.00     0.000 G0
ENDBRANCH   9  10
ENDBRANCH   3   8
TORSDOF 0
ENDMDL
MODEL 6
REMARK VINA RESULT:    -2.796      1.613      2.922
REMARK INTER + INTRA:          -2.695
REMARK INTER:                  -3.451
REMARK INTRA:                   0.756
REMARK UNBOUND:                 0.754
REMARK SMILES CC1=CC=CC(C)(C)CC1=O
REMARK SMILES IDX 1 1 2 2 3 3 10 4 11 5 9 6 4 8 5 9 6 10 7 11 8 12
REMARK H PARENT
REMARK Flexibility Score: 80.00
ROOT
ATOM      1  C   UNL     1      10.686 -31.639  12.917  1.00  0.00     0.048 C 
ATOM      2  C   UNL     1       9.690 -31.467  14.040  1.00  0.00    -0.008 C 
ATOM      3  C   UNL     1       9.134 -32.583  14.560  1.00  0.00     0.007 C 
ENDROOT
BRANCH   2   4
ATOM      4  C   UNL     1       9.346 -30.077  14.431  1.00  0.00     0.159 C 
ATOM      5  O   UNL     1       9.748 -29.125  13.708  1.00  0.00    -0.295 OA
BRANCH   4   6
ATOM      6  C   UNL     1       8.553 -29.735  15.655  1.00  0.00     0.091 CG0
ATOM      7  G   UNL     1       7.146 -30.375  15.669  1.00  0.00     0.000 G0
ENDBRANCH   4   6
ENDBRANCH   2   4
BRANCH   3   8
ATOM      8  C   UNL     1       8.122 -32.730  15.633  1.00  0.00    -0.003 C 
ATOM      9  C   UNL     1       7.267 -31.821  16.117  1.00  0.00    -0.020 C 
BRANCH   9  10
ATOM     10  C   UNL     1       7.149 -30.379  15.685  1.00  0.00    -0.010 CG0
ATOM     11  C   UNL     1       6.304 -29.624  16.737  1.00  0.00     0.016 C 
ATOM     12  C   UNL     1       6.413 -30.291  14.329  1.00  0.00     0.016 C 
ATOM     13  G   UNL     1       8.553 -29.732  15.643  1.00  0.00     0.000 G0
ENDBRANCH   9  10
ENDBRANCH   3   8
TORSDOF 0
ENDMDL
MODEL 7
REMARK VINA RESULT:    -2.735      1.951      3.367
REMARK INTER + INTRA:          -2.620
REMARK INTER:                  -3.362
REMARK INTRA:                   0.742
REMARK UNBOUND:                 0.754
REMARK SMILES CC1=CC=CC(C)(C)CC1=O
REMARK SMILES IDX 1 1 2 2 3 3 10 4 11 5 9 6 4 8 5 9 6 10 7 11 8 12
REMARK H PARENT
REMARK Flexibility Score: 80.00
ROOT
ATOM      1  C   UNL     1       8.336 -32.000  12.375  1.00  0.00     0.048 C 
ATOM      2  C   UNL     1       8.162 -31.167  13.622  1.00  0.00    -0.008 C 
ATOM      3  C   UNL     1       9.188 -30.369  13.991  1.00  0.00     0.007 C 
ENDROOT
BRANCH   2   4
ATOM      4  C   UNL     1       6.901 -31.348  14.385  1.00  0.00     0.159 C 
ATOM      5  O   UNL     1       6.138 -32.303  14.079  1.00  0.00    -0.295 OA
BRANCH   4   6
ATOM      6  C   UNL     1       6.475 -30.444  15.502  1.00  0.00     0.091 CG0
ATOM      7  G   UNL     1       7.500 -30.375  16.656  1.00  0.00     0.000 G0
ENDBRANCH   4   6
ENDBRANCH   2   4
BRANCH   3   8
ATOM      8  C   UNL     1       9.321 -29.470  15.161  1.00  0.00    -0.003 C 
ATOM      9  C   UNL     1       8.624 -29.463  16.303  1.00  0.00    -0.020 C 
BRANCH   9  10
ATOM     10  C   UNL     1       7.484 -30.384  16.666  1.00  0.00    -0.010 CG0
ATOM     11  C   UNL     1       6.744 -29.786  17.884  1.00  0.00     0.016 C 
ATOM     12  C   UNL     1       8.034 -31.770  17.075  1.00  0.00     0.016 C 
ATOM     13  G   UNL     1       6.486 -30.464  15.489  1.00  0.00     0.000 G0
ENDBRANCH   9  10
ENDBRANCH   3   8
TORSDOF 0
ENDMDL
MODEL 8
REMARK VINA RESULT:    -2.461      1.832      2.841
REMARK INTER + INTRA:          -2.283
REMARK INTER:                  -3.044
REMARK INTRA:                   0.761
REMARK UNBOUND:                 0.754
REMARK SMILES CC1=CC=CC(C)(C)CC1=O
REMARK SMILES IDX 1 1 2 2 3 3 10 4 11 5 9 6 4 8 5 9 6 10 7 11 8 12
REMARK H PARENT
REMARK Flexibility Score: 80.00
ROOT
ATOM      1  C   UNL     1       9.606 -28.888  15.844  1.00  0.00     0.048 C 
ATOM      2  C   UNL     1       9.064 -30.296  15.787  1.00  0.00    -0.008 C 
ATOM      3  C   UNL     1       9.327 -31.025  14.680  1.00  0.00     0.007 C 
ENDROOT
BRANCH   2   4
ATOM      4  C   UNL     1       8.219 -30.742  16.924  1.00  0.00     0.159 C 
ATOM      5  O   UNL     1       7.817 -29.884  17.755  1.00  0.00    -0.295 OA
BRANCH   4   6
ATOM      6  C   UNL     1       7.823 -32.169  17.149  1.00  0.00     0.091 CG0
ATOM      7  G   UNL     1       6.996 -32.764  15.987  1.00  0.00     0.000 G0
ENDBRANCH   4   6
ENDBRANCH   2   4
BRANCH   3   8
ATOM      8  C   UNL     1       8.915 -32.404  14.328  1.00  0.00    -0.003 C 
ATOM      9  C   UNL     1       7.933 -33.150  14.848  1.00  0.00    -0.020 C 
BRANCH   9  10
ATOM     10  C   UNL     1       7.003 -32.755  15.971  1.00  0.00    -0.010 CG0
ATOM     11  C   UNL     1       6.283 -34.026  16.475  1.00  0.00     0.016 C 
ATOM     12  C   UNL     1       5.928 -31.774  15.447  1.00  0.00     0.016 C 
ATOM     13  G   UNL     1       7.822 -32.168  17.143  1.00  0.00     0.000 G0
ENDBRANCH   9  10
ENDBRANCH   3   8
TORSDOF 0
ENDMDL
MODEL 9
REMARK VINA RESULT:    -2.381      2.072      2.783
REMARK INTER + INTRA:          -2.183
REMARK INTER:                  -2.923
REMARK INTRA:                   0.740
REMARK UNBOUND:                 0.754
REMARK SMILES CC1=CC=CC(C)(C)CC1=O
REMARK SMILES IDX 1 1 2 2 3 3 10 4 11 5 9 6 4 8 5 9 6 10 7 11 8 12
REMARK H PARENT
REMARK Flexibility Score: 80.00
ROOT
ATOM      1  C   UNL     1       8.622 -30.016  17.531  1.00  0.00     0.048 C 
ATOM      2  C   UNL     1       8.326 -30.841  16.301  1.00  0.00    -0.008 C 
ATOM      3  C   UNL     1       7.870 -32.099  16.485  1.00  0.00     0.007 C 
ENDROOT
BRANCH   2   4
ATOM      4  C   UNL     1       8.631 -30.225  14.985  1.00  0.00     0.159 C 
ATOM      5  O   UNL     1       9.280 -29.145  14.955  1.00  0.00    -0.295 OA
BRANCH   4   6
ATOM      6  C   UNL     1       8.197 -30.813  13.677  1.00  0.00     0.091 CG0
ATOM      7  G   UNL     1       8.731 -32.245  13.445  1.00  0.00     0.000 G0
ENDBRANCH   4   6
ENDBRANCH   2   4
BRANCH   3   8
ATOM      8  C   UNL     1       7.523 -33.140  15.489  1.00  0.00    -0.003 C 
ATOM      9  C   UNL     1       7.878 -33.229  14.202  1.00  0.00    -0.020 C 
BRANCH   9  10
ATOM     10  C   UNL     1       8.723 -32.242  13.433  1.00  0.00    -0.010 CG0
ATOM     11  C   UNL     1       8.571 -32.543  11.925  1.00  0.00     0.016 C 
ATOM     12  C   UNL     1      10.213 -32.418  13.806  1.00  0.00     0.016 C 
ATOM     13  G   UNL     1       8.210 -30.807  13.691  1.00  0.00     0.000 G0
ENDBRANCH   9  10
ENDBRANCH   3   8
TORSDOF 0
ENDMDL
