MODEL 1
REMARK VINA RESULT:    -4.334      0.000      0.000
REMARK INTER + INTRA:          -4.334
REMARK INTER:                  -4.334
REMARK INTRA:                   0.000
REMARK UNBOUND:                 0.000
REMARK SMILES C=C1CCC[C@]2(C)CC(=O)C(=C(C)C)C[C@H]12
REMARK SMILES IDX 13 1 12 2 11 3 15 4 16 5 2 6 1 7 3 8 4 9 5 10 6 11 8 12 9 13
REMARK SMILES IDX 10 14 7 15 14 16
REMARK H PARENT
REMARK Flexibility Score: inf
ROOT
ATOM      1  C   UNL     1      24.692  36.722  20.134  1.00  0.00     0.039 C 
ATOM      2  C   UNL     1      24.556  38.110  20.717  1.00  0.00    -0.070 C 
ATOM      3  C   UNL     1      25.446  39.098  20.417  1.00  0.00    -0.006 C 
ATOM      4  C   UNL     1      25.345  40.485  21.020  1.00  0.00     0.047 C 
ATOM      5  C   UNL     1      26.724  41.149  21.273  1.00  0.00     0.025 C 
ATOM      6  C   UNL     1      26.501  42.606  21.643  1.00  0.00    -0.073 C 
ATOM      7  C   UNL     1      26.499  42.991  22.929  1.00  0.00     0.008 C 
ATOM      8  C   UNL     1      26.125  43.585  20.551  1.00  0.00     0.031 C 
ATOM      9  C   UNL     1      27.025  43.430  19.317  1.00  0.00     0.005 C 
ATOM     10  C   UNL     1      27.208  41.960  18.895  1.00  0.00     0.008 C 
ATOM     11  C   UNL     1      27.704  41.053  20.060  1.00  0.00    -0.018 C 
ATOM     12  C   UNL     1      27.823  39.583  19.579  1.00  0.00     0.088 C 
ATOM     13  C   UNL     1      26.491  38.932  19.381  1.00  0.00     0.159 C 
ATOM     14  O   UNL     1      26.281  38.257  18.338  1.00  0.00    -0.295 OA
ATOM     15  C   UNL     1      29.125  41.496  20.502  1.00  0.00     0.012 C 
ATOM     16  C   UNL     1      23.414  38.347  21.679  1.00  0.00     0.039 C 
ENDROOT
TORSDOF 0
ENDMDL
MODEL 2
REMARK VINA RESULT:    -3.998      1.777      4.740
REMARK INTER + INTRA:          -3.998
REMARK INTER:                  -3.998
REMARK INTRA:                   0.000
REMARK UNBOUND:                 0.000
REMARK SMILES C=C1CCC[C@]2(C)CC(=O)C(=C(C)C)C[C@H]12
REMARK SMILES IDX 13 1 12 2 11 3 15 4 16 5 2 6 1 7 3 8 4 9 5 10 6 11 8 12 9 13
REMARK SMILES IDX 10 14 7 15 14 16
REMARK H PARENT
REMARK Flexibility Score: inf
ROOT
ATOM      1  C   UNL     1      27.629  44.008  21.249  1.00  0.00     0.039 C 
ATOM      2  C   UNL     1      27.023  42.707  21.720  1.00  0.00    -0.070 C 
ATOM      3  C   UNL     1      27.158  41.557  20.998  1.00  0.00    -0.006 C 
ATOM      4  C   UNL     1      26.528  40.250  21.437  1.00  0.00     0.047 C 
ATOM      5  C   UNL     1      26.058  39.365  20.254  1.00  0.00     0.025 C 
ATOM      6  C   UNL     1      25.672  37.998  20.793  1.00  0.00    -0.073 C 
ATOM      7  C   UNL     1      24.387  37.698  21.040  1.00  0.00     0.008 C 
ATOM      8  C   UNL     1      26.772  37.038  21.197  1.00  0.00     0.031 C 
ATOM      9  C   UNL     1      27.870  36.952  20.128  1.00  0.00     0.005 C 
ATOM     10  C   UNL     1      28.312  38.337  19.617  1.00  0.00     0.008 C 
ATOM     11  C   UNL     1      27.121  39.208  19.120  1.00  0.00    -0.018 C 
ATOM     12  C   UNL     1      27.631  40.600  18.664  1.00  0.00     0.088 C 
ATOM     13  C   UNL     1      28.040  41.468  19.812  1.00  0.00     0.159 C 
ATOM     14  O   UNL     1      29.125  42.105  19.751  1.00  0.00    -0.295 OA
ATOM     15  C   UNL     1      26.465  38.544  17.880  1.00  0.00     0.012 C 
ATOM     16  C   UNL     1      26.227  42.739  23.004  1.00  0.00     0.039 C 
ENDROOT
TORSDOF 0
ENDMDL
MODEL 3
REMARK VINA RESULT:    -3.616      2.386      3.541
REMARK INTER + INTRA:          -3.616
REMARK INTER:                  -3.616
REMARK INTRA:                   0.000
REMARK UNBOUND:                 0.000
REMARK SMILES C=C1CCC[C@]2(C)CC(=O)C(=C(C)C)C[C@H]12
REMARK SMILES IDX 13 1 12 2 11 3 15 4 16 5 2 6 1 7 3 8 4 9 5 10 6 11 8 12 9 13
REMARK SMILES IDX 10 14 7 15 14 16
REMARK H PARENT
REMARK Flexibility Score: inf
ROOT
ATOM      1  C   UNL     1      28.430  37.158  18.753  1.00  0.00     0.039 C 
ATOM      2  C   UNL     1      28.355  38.605  18.325  1.00  0.00    -0.070 C 
ATOM      3  C   UNL     1      28.234  39.612  19.238  1.00  0.00    -0.006 C 
ATOM      4  C   UNL     1      28.123  41.065  18.826  1.00  0.00     0.047 C 
ATOM      5  C   UNL     1      27.214  41.903  19.763  1.00  0.00     0.025 C 
ATOM      6  C   UNL     1      27.369  43.372  19.403  1.00  0.00    -0.073 C 
ATOM      7  C   UNL     1      26.472  43.978  18.609  1.00  0.00     0.008 C 
ATOM      8  C   UNL     1      28.631  44.096  19.825  1.00  0.00     0.031 C 
ATOM      9  C   UNL     1      28.980  43.817  21.293  1.00  0.00     0.005 C 
ATOM     10  C   UNL     1      28.886  42.323  21.653  1.00  0.00     0.008 C 
ATOM     11  C   UNL     1      27.509  41.695  21.283  1.00  0.00    -0.018 C 
ATOM     12  C   UNL     1      27.501  40.183  21.631  1.00  0.00     0.088 C 
ATOM     13  C   UNL     1      28.341  39.372  20.696  1.00  0.00     0.159 C 
ATOM     14  O   UNL     1      29.125  38.504  21.163  1.00  0.00    -0.295 OA
ATOM     15  C   UNL     1      26.386  42.355  22.127  1.00  0.00     0.012 C 
ATOM     16  C   UNL     1      28.379  38.890  16.841  1.00  0.00     0.039 C 
ENDROOT
TORSDOF 0
ENDMDL
MODEL 4
REMARK VINA RESULT:    -2.741      1.071      1.233
REMARK INTER + INTRA:          -2.741
REMARK INTER:                  -2.741
REMARK INTRA:                   0.000
REMARK UNBOUND:                 0.000
REMARK SMILES C=C1CCC[C@]2(C)CC(=O)C(=C(C)C)C[C@H]12
REMARK SMILES IDX 13 1 12 2 11 3 15 4 16 5 2 6 1 7 3 8 4 9 5 10 6 11 8 12 9 13
REMARK SMILES IDX 10 14 7 15 14 16
REMARK H PARENT
REMARK Flexibility Score: inf
ROOT
ATOM      1  C   UNL     1      23.976  36.332  21.172  1.00  0.00     0.039 C 
ATOM      2  C   UNL     1      24.011  37.842  21.211  1.00  0.00    -0.070 C 
ATOM      3  C   UNL     1      25.142  38.536  20.893  1.00  0.00    -0.006 C 
ATOM      4  C   UNL     1      25.205  40.049  20.960  1.00  0.00     0.047 C 
ATOM      5  C   UNL     1      26.593  40.589  21.390  1.00  0.00     0.025 C 
ATOM      6  C   UNL     1      26.612  42.095  21.190  1.00  0.00    -0.073 C 
ATOM      7  C   UNL     1      26.386  42.924  22.221  1.00  0.00     0.008 C 
ATOM      8  C   UNL     1      26.731  42.641  19.782  1.00  0.00     0.031 C 
ATOM      9  C   UNL     1      27.844  41.936  18.994  1.00  0.00     0.005 C 
ATOM     10  C   UNL     1      27.797  40.403  19.141  1.00  0.00     0.008 C 
ATOM     11  C   UNL     1      27.790  39.937  20.627  1.00  0.00    -0.018 C 
ATOM     12  C   UNL     1      27.697  38.390  20.701  1.00  0.00     0.088 C 
ATOM     13  C   UNL     1      26.342  37.876  20.330  1.00  0.00     0.159 C 
ATOM     14  O   UNL     1      26.245  36.895  19.546  1.00  0.00    -0.295 OA
ATOM     15  C   UNL     1      29.125  40.338  21.310  1.00  0.00     0.012 C 
ATOM     16  C   UNL     1      22.752  38.551  21.655  1.00  0.00     0.039 C 
ENDROOT
TORSDOF 0
ENDMDL
MODEL 5
REMARK VINA RESULT:    -2.493      3.247      4.278
REMARK INTER + INTRA:          -2.493
REMARK INTER:                  -2.493
REMARK INTRA:                   0.000
REMARK UNBOUND:                 0.000
REMARK SMILES C=C1CCC[C@]2(C)CC(=O)C(=C(C)C)C[C@H]12
REMARK SMILES IDX 13 1 12 2 11 3 15 4 16 5 2 6 1 7 3 8 4 9 5 10 6 11 8 12 9 13
REMARK SMILES IDX 10 14 7 15 14 16
REMARK H PARENT
REMARK Flexibility Score: inf
ROOT
ATOM      1  C   UNL     1      28.807  33.257  22.071  1.00  0.00     0.039 C 
ATOM      2  C   UNL     1      28.084  34.554  22.348  1.00  0.00    -0.070 C 
ATOM      3  C   UNL     1      27.990  35.532  21.402  1.00  0.00    -0.006 C 
ATOM      4  C   UNL     1      27.299  36.853  21.673  1.00  0.00     0.047 C 
ATOM      5  C   UNL     1      27.951  38.052  20.937  1.00  0.00     0.025 C 
ATOM      6  C   UNL     1      27.045  39.264  21.084  1.00  0.00    -0.073 C 
ATOM      7  C   UNL     1      27.291  40.190  22.024  1.00  0.00     0.008 C 
ATOM      8  C   UNL     1      25.775  39.328  20.262  1.00  0.00     0.031 C 
ATOM      9  C   UNL     1      26.034  38.972  18.791  1.00  0.00     0.005 C 
ATOM     10  C   UNL     1      26.901  37.709  18.629  1.00  0.00     0.008 C 
ATOM     11  C   UNL     1      28.238  37.786  19.425  1.00  0.00    -0.018 C 
ATOM     12  C   UNL     1      29.038  36.467  19.253  1.00  0.00     0.088 C 
ATOM     13  C   UNL     1      28.432  35.324  20.004  1.00  0.00     0.159 C 
ATOM     14  O   UNL     1      28.305  34.207  19.434  1.00  0.00    -0.295 OA
ATOM     15  C   UNL     1      29.125  38.924  18.854  1.00  0.00     0.012 C 
ATOM     16  C   UNL     1      27.504  34.741  23.731  1.00  0.00     0.039 C 
ENDROOT
TORSDOF 0
ENDMDL
MODEL 6
REMARK VINA RESULT:    -2.129      1.562      2.022
REMARK INTER + INTRA:          -2.129
REMARK INTER:                  -2.129
REMARK INTRA:                   0.000
REMARK UNBOUND:                 0.000
REMARK SMILES C=C1CCC[C@]2(C)CC(=O)C(=C(C)C)C[C@H]12
REMARK SMILES IDX 13 1 12 2 11 3 15 4 16 5 2 6 1 7 3 8 4 9 5 10 6 11 8 12 9 13
REMARK SMILES IDX 10 14 7 15 14 16
REMARK H PARENT
REMARK Flexibility Score: inf
ROOT
ATOM      1  C   UNL     1      26.772  36.911  21.226  1.00  0.00     0.039 C 
ATOM      2  C   UNL     1      26.181  38.243  20.825  1.00  0.00    -0.070 C 
ATOM      3  C   UNL     1      26.940  39.375  20.786  1.00  0.00    -0.006 C 
ATOM      4  C   UNL     1      26.356  40.725  20.420  1.00  0.00     0.047 C 
ATOM      5  C   UNL     1      27.014  41.906  21.179  1.00  0.00     0.025 C 
ATOM      6  C   UNL     1      26.529  43.209  20.565  1.00  0.00    -0.073 C 
ATOM      7  C   UNL     1      25.523  43.897  21.129  1.00  0.00     0.008 C 
ATOM      8  C   UNL     1      27.089  43.636  19.224  1.00  0.00     0.031 C 
ATOM      9  C   UNL     1      28.618  43.508  19.184  1.00  0.00     0.005 C 
ATOM     10  C   UNL     1      29.119  42.165  19.747  1.00  0.00     0.008 C 
ATOM     11  C   UNL     1      28.576  41.869  21.177  1.00  0.00    -0.018 C 
ATOM     12  C   UNL     1      29.082  40.485  21.664  1.00  0.00     0.088 C 
ATOM     13  C   UNL     1      28.410  39.347  20.962  1.00  0.00     0.159 C 
ATOM     14  O   UNL     1      29.105  38.388  20.532  1.00  0.00    -0.295 OA
ATOM     15  C   UNL     1      29.125  42.922  22.177  1.00  0.00     0.012 C 
ATOM     16  C   UNL     1      24.704  38.276  20.508  1.00  0.00     0.039 C 
ENDROOT
TORSDOF 0
ENDMDL
MODEL 7
REMARK VINA RESULT:    -1.739      3.112      4.919
REMARK INTER + INTRA:          -1.739
REMARK INTER:                  -1.739
REMARK INTRA:                   0.000
REMARK UNBOUND:                 0.000
REMARK SMILES C=C1CCC[C@]2(C)CC(=O)C(=C(C)C)C[C@H]12
REMARK SMILES IDX 13 1 12 2 11 3 15 4 16 5 2 6 1 7 3 8 4 9 5 10 6 11 8 12 9 13
REMARK SMILES IDX 10 14 7 15 14 16
REMARK H PARENT
REMARK Flexibility Score: inf
ROOT
ATOM      1  C   UNL     1      28.172  33.264  21.640  1.00  0.00     0.039 C 
ATOM      2  C   UNL     1      28.367  34.335  20.592  1.00  0.00    -0.070 C 
ATOM      3  C   UNL     1      27.850  35.587  20.749  1.00  0.00    -0.006 C 
ATOM      4  C   UNL     1      28.006  36.662  19.693  1.00  0.00     0.047 C 
ATOM      5  C   UNL     1      26.785  37.614  19.598  1.00  0.00     0.025 C 
ATOM      6  C   UNL     1      27.147  38.780  18.693  1.00  0.00    -0.073 C 
ATOM      7  C   UNL     1      26.776  38.784  17.402  1.00  0.00     0.008 C 
ATOM      8  C   UNL     1      28.065  39.859  19.228  1.00  0.00     0.031 C 
ATOM      9  C   UNL     1      27.640  40.321  20.628  1.00  0.00     0.005 C 
ATOM     10  C   UNL     1      27.330  39.145  21.573  1.00  0.00     0.008 C 
ATOM     11  C   UNL     1      26.290  38.148  20.980  1.00  0.00    -0.018 C 
ATOM     12  C   UNL     1      26.060  36.969  21.962  1.00  0.00     0.088 C 
ATOM     13  C   UNL     1      27.221  36.029  22.015  1.00  0.00     0.159 C 
ATOM     14  O   UNL     1      27.645  35.630  23.132  1.00  0.00    -0.295 OA
ATOM     15  C   UNL     1      24.922  38.859  20.805  1.00  0.00     0.012 C 
ATOM     16  C   UNL     1      29.125  33.949  19.342  1.00  0.00     0.039 C 
ENDROOT
TORSDOF 0
ENDMDL
