MODEL 1
REMARK VINA RESULT:    -3.369      0.000      0.000
REMARK INTER + INTRA:          -9.365
REMARK INTER:                  -6.520
REMARK INTRA:                  -2.845
REMARK UNBOUND:                -2.845
REMARK SMILES CCCCCCCCCCCCCCCCCC(=O)[O-]
REMARK SMILES IDX 10 1 11 2 12 3 13 4 14 5 15 6 16 7 17 8 18 9 19 10 20 11
REMARK SMILES IDX 9 12 8 13 7 14 6 15 5 16 4 17 3 18 2 19 1 20
REMARK H PARENT
REMARK Flexibility Score: inf
ROOT
ATOM      1  C   UNL     1      -5.447  -3.268  35.509  1.00  0.00     0.000 C 
ENDROOT
BRANCH   1   2
ATOM      2  C   UNL     1      -3.932  -3.498  35.332  1.00  0.00     0.000 C 
BRANCH   2   3
ATOM      3  C   UNL     1      -3.222  -2.482  34.420  1.00  0.00     0.000 C 
BRANCH   3   4
ATOM      4  C   UNL     1      -1.826  -2.094  34.930  1.00  0.00     0.000 C 
BRANCH   4   5
ATOM      5  C   UNL     1      -1.468  -2.879  36.200  1.00  0.00     0.000 C 
BRANCH   5   6
ATOM      6  C   UNL     1       0.044  -2.912  36.472  1.00  0.00     0.000 C 
BRANCH   6   7
ATOM      7  C   UNL     1       0.826  -1.920  35.594  1.00  0.00     0.006 C 
BRANCH   7   8
ATOM      8  C   UNL     1       2.178  -2.488  35.142  1.00  0.00     0.053 C 
BRANCH   8   9
ATOM      9  C   UNL     1       3.289  -1.502  35.338  1.00  0.00     0.041 C 
ATOM     10  O   UNL     1       4.268  -1.789  36.075  1.00  0.00    -0.550 OA
ATOM     11  O   UNL     1       3.228  -0.256  34.728  1.00  0.00    -0.550 OA
ENDBRANCH   8   9
ENDBRANCH   7   8
ENDBRANCH   6   7
ENDBRANCH   5   6
ENDBRANCH   4   5
ENDBRANCH   3   4
ENDBRANCH   2   3
ENDBRANCH   1   2
BRANCH   1  12
ATOM     12  C   UNL     1      -5.846  -2.503  36.786  1.00  0.00     0.000 C 
BRANCH  12  13
ATOM     13  C   UNL     1      -4.750  -2.432  37.868  1.00  0.00    -0.000 C 
BRANCH  13  14
ATOM     14  C   UNL     1      -4.542  -1.040  38.496  1.00  0.00    -0.000 C 
BRANCH  14  15
ATOM     15  C   UNL     1      -3.106  -0.494  38.399  1.00  0.00    -0.000 C 
BRANCH  15  16
ATOM     16  C   UNL     1      -2.920   0.492  37.234  1.00  0.00    -0.000 C 
BRANCH  16  17
ATOM     17  C   UNL     1      -4.250   1.086  36.744  1.00  0.00    -0.000 C 
BRANCH  17  18
ATOM     18  C   UNL     1      -4.481   0.851  35.241  1.00  0.00    -0.000 C 
BRANCH  18  19
ATOM     19  C   UNL     1      -5.965   0.645  34.899  1.00  0.00    -0.003 C 
ATOM     20  C   UNL     1      -6.168  -0.181  33.629  1.00  0.00     0.004 C 
ENDBRANCH  18  19
ENDBRANCH  17  18
ENDBRANCH  16  17
ENDBRANCH  15  16
ENDBRANCH  14  15
ENDBRANCH  13  14
ENDBRANCH  12  13
ENDBRANCH   1  12
TORSDOF 16
ENDMDL
MODEL 2
REMARK VINA RESULT:    -3.368      1.072      1.944
REMARK INTER + INTRA:          -9.364
REMARK INTER:                  -6.326
REMARK INTRA:                  -3.038
REMARK UNBOUND:                -2.845
REMARK SMILES CCCCCCCCCCCCCCCCCC(=O)[O-]
REMARK SMILES IDX 10 1 11 2 12 3 13 4 14 5 15 6 16 7 17 8 18 9 19 10 20 11
REMARK SMILES IDX 9 12 8 13 7 14 6 15 5 16 4 17 3 18 2 19 1 20
REMARK H PARENT
REMARK Flexibility Score: inf
ROOT
ATOM      1  C   UNL     1      -6.471  -1.481  37.251  1.00  0.00     0.000 C 
ENDROOT
BRANCH   1   2
ATOM      2  C   UNL     1      -5.334  -2.513  37.106  1.00  0.00     0.000 C 
BRANCH   2   3
ATOM      3  C   UNL     1      -5.418  -3.401  35.852  1.00  0.00     0.000 C 
BRANCH   3   4
ATOM      4  C   UNL     1      -4.105  -3.438  35.056  1.00  0.00     0.000 C 
BRANCH   4   5
ATOM      5  C   UNL     1      -2.894  -3.281  35.987  1.00  0.00     0.000 C 
BRANCH   5   6
ATOM      6  C   UNL     1      -1.743  -2.497  35.337  1.00  0.00     0.000 C 
BRANCH   6   7
ATOM      7  C   UNL     1      -0.418  -2.646  36.105  1.00  0.00     0.006 C 
BRANCH   7   8
ATOM      8  C   UNL     1       0.314  -1.307  36.261  1.00  0.00     0.053 C 
BRANCH   8   9
ATOM      9  C   UNL     1       1.727  -1.383  35.768  1.00  0.00     0.041 C 
ATOM     10  O   UNL     1       2.283  -2.501  35.608  1.00  0.00    -0.550 OA
ATOM     11  O   UNL     1       2.437  -0.218  35.513  1.00  0.00    -0.550 OA
ENDBRANCH   8   9
ENDBRANCH   7   8
ENDBRANCH   6   7
ENDBRANCH   5   6
ENDBRANCH   4   5
ENDBRANCH   3   4
ENDBRANCH   2   3
ENDBRANCH   1   2
BRANCH   1  12
ATOM     12  C   UNL     1      -6.290  -0.468  38.399  1.00  0.00     0.000 C 
BRANCH  12  13
ATOM     13  C   UNL     1      -4.904  -0.494  39.074  1.00  0.00    -0.000 C 
BRANCH  13  14
ATOM     14  C   UNL     1      -3.933   0.610  38.612  1.00  0.00    -0.000 C 
BRANCH  14  15
ATOM     15  C   UNL     1      -2.789   0.127  37.703  1.00  0.00    -0.000 C 
BRANCH  15  16
ATOM     16  C   UNL     1      -2.743   0.868  36.356  1.00  0.00    -0.000 C 
BRANCH  16  17
ATOM     17  C   UNL     1      -4.112   0.909  35.659  1.00  0.00    -0.000 C 
BRANCH  17  18
ATOM     18  C   UNL     1      -4.120   0.125  34.334  1.00  0.00    -0.000 C 
BRANCH  18  19
ATOM     19  C   UNL     1      -5.543  -0.177  33.838  1.00  0.00    -0.003 C 
ATOM     20  C   UNL     1      -6.580   0.798  34.395  1.00  0.00     0.004 C 
ENDBRANCH  18  19
ENDBRANCH  17  18
ENDBRANCH  16  17
ENDBRANCH  15  16
ENDBRANCH  14  15
ENDBRANCH  13  14
ENDBRANCH  12  13
ENDBRANCH   1  12
TORSDOF 16
ENDMDL
MODEL 3
REMARK VINA RESULT:    -3.319      3.426      5.960
REMARK INTER + INTRA:          -9.269
REMARK INTER:                  -6.105
REMARK INTRA:                  -3.164
REMARK UNBOUND:                -2.845
REMARK SMILES CCCCCCCCCCCCCCCCCC(=O)[O-]
REMARK SMILES IDX 10 1 11 2 12 3 13 4 14 5 15 6 16 7 17 8 18 9 19 10 20 11
REMARK SMILES IDX 9 12 8 13 7 14 6 15 5 16 4 17 3 18 2 19 1 20
REMARK H PARENT
REMARK Flexibility Score: inf
ROOT
ATOM      1  C   UNL     1      -5.397  -3.228  35.729  1.00  0.00     0.000 C 
ENDROOT
BRANCH   1   2
ATOM      2  C   UNL     1      -5.827  -2.133  36.726  1.00  0.00     0.000 C 
BRANCH   2   3
ATOM      3  C   UNL     1      -5.019  -2.091  38.035  1.00  0.00     0.000 C 
BRANCH   3   4
ATOM      4  C   UNL     1      -4.219  -0.791  38.203  1.00  0.00     0.000 C 
BRANCH   4   5
ATOM      5  C   UNL     1      -4.771   0.314  37.292  1.00  0.00     0.000 C 
BRANCH   5   6
ATOM      6  C   UNL     1      -3.713   0.872  36.326  1.00  0.00     0.000 C 
BRANCH   6   7
ATOM      7  C   UNL     1      -4.229   0.980  34.881  1.00  0.00     0.006 C 
BRANCH   7   8
ATOM      8  C   UNL     1      -5.755   1.123  34.822  1.00  0.00     0.053 C 
BRANCH   8   9
ATOM      9  C   UNL     1      -6.315   0.590  33.537  1.00  0.00     0.041 C 
ATOM     10  O   UNL     1      -7.290  -0.206  33.552  1.00  0.00    -0.550 OA
ATOM     11  O   UNL     1      -5.739   0.953  32.326  1.00  0.00    -0.550 OA
ENDBRANCH   8   9
ENDBRANCH   7   8
ENDBRANCH   6   7
ENDBRANCH   5   6
ENDBRANCH   4   5
ENDBRANCH   3   4
ENDBRANCH   2   3
ENDBRANCH   1   2
BRANCH   1  12
ATOM     12  C   UNL     1      -4.695  -2.713  34.457  1.00  0.00     0.000 C 
BRANCH  12  13
ATOM     13  C   UNL     1      -3.181  -2.465  34.607  1.00  0.00    -0.000 C 
BRANCH  13  14
ATOM     14  C   UNL     1      -2.495  -3.272  35.727  1.00  0.00    -0.000 C 
BRANCH  14  15
ATOM     15  C   UNL     1      -1.068  -2.816  36.073  1.00  0.00    -0.000 C 
BRANCH  15  16
ATOM     16  C   UNL     1      -1.031  -1.438  36.758  1.00  0.00    -0.000 C 
BRANCH  16  17
ATOM     17  C   UNL     1      -0.106  -0.446  36.036  1.00  0.00    -0.000 C 
BRANCH  17  18
ATOM     18  C   UNL     1       0.534  -1.049  34.773  1.00  0.00    -0.000 C 
BRANCH  18  19
ATOM     19  C   UNL     1       0.382  -0.140  33.545  1.00  0.00    -0.003 C 
ATOM     20  C   UNL     1      -1.077   0.052  33.131  1.00  0.00     0.004 C 
ENDBRANCH  18  19
ENDBRANCH  17  18
ENDBRANCH  16  17
ENDBRANCH  15  16
ENDBRANCH  14  15
ENDBRANCH  13  14
ENDBRANCH  12  13
ENDBRANCH   1  12
TORSDOF 16
ENDMDL
MODEL 4
REMARK VINA RESULT:    -3.316      3.499      6.208
REMARK INTER + INTRA:          -9.263
REMARK INTER:                  -6.388
REMARK INTRA:                  -2.874
REMARK UNBOUND:                -2.845
REMARK SMILES CCCCCCCCCCCCCCCCCC(=O)[O-]
REMARK SMILES IDX 10 1 11 2 12 3 13 4 14 5 15 6 16 7 17 8 18 9 19 10 20 11
REMARK SMILES IDX 9 12 8 13 7 14 6 15 5 16 4 17 3 18 2 19 1 20
REMARK H PARENT
REMARK Flexibility Score: inf
ROOT
ATOM      1  C   UNL     1      -6.417  -1.677  37.176  1.00  0.00     0.000 C 
ENDROOT
BRANCH   1   2
ATOM      2  C   UNL     1      -5.636  -0.685  38.063  1.00  0.00     0.000 C 
BRANCH   2   3
ATOM      3  C   UNL     1      -4.208  -1.125  38.430  1.00  0.00     0.000 C 
BRANCH   3   4
ATOM      4  C   UNL     1      -3.128  -0.208  37.836  1.00  0.00     0.000 C 
BRANCH   4   5
ATOM      5  C   UNL     1      -3.714   0.688  36.737  1.00  0.00     0.000 C 
BRANCH   5   6
ATOM      6  C   UNL     1      -3.185   0.336  35.337  1.00  0.00     0.000 C 
BRANCH   6   7
ATOM      7  C   UNL     1      -3.949   1.061  34.216  1.00  0.00     0.006 C 
BRANCH   7   8
ATOM      8  C   UNL     1      -5.449   1.176  34.519  1.00  0.00     0.053 C 
BRANCH   8   9
ATOM      9  C   UNL     1      -6.287   0.626  33.405  1.00  0.00     0.041 C 
ATOM     10  O   UNL     1      -6.033   0.931  32.211  1.00  0.00    -0.550 OA
ATOM     11  O   UNL     1      -7.364  -0.202  33.691  1.00  0.00    -0.550 OA
ENDBRANCH   8   9
ENDBRANCH   7   8
ENDBRANCH   6   7
ENDBRANCH   5   6
ENDBRANCH   4   5
ENDBRANCH   3   4
ENDBRANCH   2   3
ENDBRANCH   1   2
BRANCH   1  12
ATOM     12  C   UNL     1      -5.587  -2.856  36.630  1.00  0.00     0.000 C 
BRANCH  12  13
ATOM     13  C   UNL     1      -5.287  -2.792  35.119  1.00  0.00    -0.000 C 
BRANCH  13  14
ATOM     14  C   UNL     1      -3.927  -3.385  34.698  1.00  0.00    -0.000 C 
BRANCH  14  15
ATOM     15  C   UNL     1      -2.860  -3.407  35.806  1.00  0.00    -0.000 C 
BRANCH  15  16
ATOM     16  C   UNL     1      -1.582  -2.644  35.418  1.00  0.00    -0.000 C 
BRANCH  16  17
ATOM     17  C   UNL     1      -0.551  -2.602  36.557  1.00  0.00    -0.000 C 
BRANCH  17  18
ATOM     18  C   UNL     1       0.694  -1.772  36.194  1.00  0.00    -0.000 C 
BRANCH  18  19
ATOM     19  C   UNL     1       0.343  -0.331  35.794  1.00  0.00    -0.003 C 
ATOM     20  C   UNL     1       1.266   0.701  36.439  1.00  0.00     0.004 C 
ENDBRANCH  18  19
ENDBRANCH  17  18
ENDBRANCH  16  17
ENDBRANCH  15  16
ENDBRANCH  14  15
ENDBRANCH  13  14
ENDBRANCH  12  13
ENDBRANCH   1  12
TORSDOF 16
ENDMDL
MODEL 5
REMARK VINA RESULT:    -3.286      1.268      1.955
REMARK INTER + INTRA:          -9.205
REMARK INTER:                  -6.152
REMARK INTRA:                  -3.053
REMARK UNBOUND:                -2.845
REMARK SMILES CCCCCCCCCCCCCCCCCC(=O)[O-]
REMARK SMILES IDX 10 1 11 2 12 3 13 4 14 5 15 6 16 7 17 8 18 9 19 10 20 11
REMARK SMILES IDX 9 12 8 13 7 14 6 15 5 16 4 17 3 18 2 19 1 20
REMARK H PARENT
REMARK Flexibility Score: inf
ROOT
ATOM      1  C   UNL     1      -4.822  -1.783  34.236  1.00  0.00     0.000 C 
ENDROOT
BRANCH   1   2
ATOM      2  C   UNL     1      -3.774  -2.907  34.368  1.00  0.00     0.000 C 
BRANCH   2   3
ATOM      3  C   UNL     1      -2.386  -2.449  34.848  1.00  0.00     0.000 C 
BRANCH   3   4
ATOM      4  C   UNL     1      -1.892  -3.225  36.079  1.00  0.00     0.000 C 
BRANCH   4   5
ATOM      5  C   UNL     1      -0.654  -2.554  36.690  1.00  0.00     0.000 C 
BRANCH   5   6
ATOM      6  C   UNL     1       0.360  -2.098  35.628  1.00  0.00     0.000 C 
BRANCH   6   7
ATOM      7  C   UNL     1       1.077  -0.794  36.016  1.00  0.00     0.006 C 
BRANCH   7   8
ATOM      8  C   UNL     1       2.455  -0.672  35.351  1.00  0.00     0.053 C 
BRANCH   8   9
ATOM      9  C   UNL     1       3.568  -0.865  36.336  1.00  0.00     0.041 C 
ATOM     10  O   UNL     1       4.430  -1.763  36.150  1.00  0.00    -0.550 OA
ATOM     11  O   UNL     1       3.634  -0.072  37.474  1.00  0.00    -0.550 OA
ENDBRANCH   8   9
ENDBRANCH   7   8
ENDBRANCH   6   7
ENDBRANCH   5   6
ENDBRANCH   4   5
ENDBRANCH   3   4
ENDBRANCH   2   3
ENDBRANCH   1   2
BRANCH   1  12
ATOM     12  C   UNL     1      -5.710  -1.570  35.478  1.00  0.00     0.000 C 
BRANCH  12  13
ATOM     13  C   UNL     1      -5.572  -2.653  36.566  1.00  0.00    -0.000 C 
BRANCH  13  14
ATOM     14  C   UNL     1      -4.979  -2.163  37.903  1.00  0.00    -0.000 C 
BRANCH  14  15
ATOM     15  C   UNL     1      -4.572  -0.680  37.926  1.00  0.00    -0.000 C 
BRANCH  15  16
ATOM     16  C   UNL     1      -3.175  -0.453  38.527  1.00  0.00    -0.000 C 
BRANCH  16  17
ATOM     17  C   UNL     1      -2.291   0.444  37.646  1.00  0.00    -0.000 C 
BRANCH  17  18
ATOM     18  C   UNL     1      -2.989   0.851  36.336  1.00  0.00    -0.000 C 
BRANCH  18  19
ATOM     19  C   UNL     1      -1.990   1.168  35.212  1.00  0.00    -0.003 C 
ATOM     20  C   UNL     1      -2.634   1.139  33.826  1.00  0.00     0.004 C 
ENDBRANCH  18  19
ENDBRANCH  17  18
ENDBRANCH  16  17
ENDBRANCH  15  16
ENDBRANCH  14  15
ENDBRANCH  13  14
ENDBRANCH  12  13
ENDBRANCH   1  12
TORSDOF 16
ENDMDL
MODEL 6
REMARK VINA RESULT:    -3.274      4.582      7.407
REMARK INTER + INTRA:          -9.181
REMARK INTER:                  -6.244
REMARK INTRA:                  -2.937
REMARK UNBOUND:                -2.845
REMARK SMILES CCCCCCCCCCCCCCCCCC(=O)[O-]
REMARK SMILES IDX 10 1 11 2 12 3 13 4 14 5 15 6 16 7 17 8 18 9 19 10 20 11
REMARK SMILES IDX 9 12 8 13 7 14 6 15 5 16 4 17 3 18 2 19 1 20
REMARK H PARENT
REMARK Flexibility Score: inf
ROOT
ATOM      1  C   UNL     1      -3.210  -0.225  38.352  1.00  0.00     0.000 C 
ENDROOT
BRANCH   1   2
ATOM      2  C   UNL     1      -3.628   1.010  37.528  1.00  0.00     0.000 C 
BRANCH   2   3
ATOM      3  C   UNL     1      -3.338   0.913  36.019  1.00  0.00     0.000 C 
BRANCH   3   4
ATOM      4  C   UNL     1      -4.586   1.141  35.154  1.00  0.00     0.000 C 
BRANCH   4   5
ATOM      5  C   UNL     1      -4.583   0.212  33.932  1.00  0.00     0.000 C 
BRANCH   5   6
ATOM      6  C   UNL     1      -5.995  -0.238  33.523  1.00  0.00     0.000 C 
BRANCH   6   7
ATOM      7  C   UNL     1      -7.100   0.534  34.265  1.00  0.00     0.006 C 
BRANCH   7   8
ATOM      8  C   UNL     1      -7.925   1.416  33.319  1.00  0.00     0.053 C 
BRANCH   8   9
ATOM      9  C   UNL     1      -9.397   1.191  33.489  1.00  0.00     0.041 C 
ATOM     10  O   UNL     1     -10.169   1.275  32.499  1.00  0.00    -0.550 OA
ATOM     11  O   UNL     1      -9.916   0.918  34.747  1.00  0.00    -0.550 OA
ENDBRANCH   8   9
ENDBRANCH   7   8
ENDBRANCH   6   7
ENDBRANCH   5   6
ENDBRANCH   4   5
ENDBRANCH   3   4
ENDBRANCH   2   3
ENDBRANCH   1   2
BRANCH   1  12
ATOM     12  C   UNL     1      -4.375  -1.108  38.842  1.00  0.00     0.000 C 
BRANCH  12  13
ATOM     13  C   UNL     1      -5.758  -0.726  38.278  1.00  0.00    -0.000 C 
BRANCH  13  14
ATOM     14  C   UNL     1      -6.234  -1.578  37.085  1.00  0.00    -0.000 C 
BRANCH  14  15
ATOM     15  C   UNL     1      -5.424  -2.864  36.843  1.00  0.00    -0.000 C 
BRANCH  15  16
ATOM     16  C   UNL     1      -5.296  -3.218  35.352  1.00  0.00    -0.000 C 
BRANCH  16  17
ATOM     17  C   UNL     1      -3.834  -3.324  34.894  1.00  0.00    -0.000 C 
BRANCH  17  18
ATOM     18  C   UNL     1      -2.838  -3.081  36.043  1.00  0.00    -0.000 C 
BRANCH  18  19
ATOM     19  C   UNL     1      -1.559  -2.372  35.573  1.00  0.00    -0.003 C 
ATOM     20  C   UNL     1      -0.340  -2.732  36.421  1.00  0.00     0.004 C 
ENDBRANCH  18  19
ENDBRANCH  17  18
ENDBRANCH  16  17
ENDBRANCH  15  16
ENDBRANCH  14  15
ENDBRANCH  13  14
ENDBRANCH  12  13
ENDBRANCH   1  12
TORSDOF 16
ENDMDL
MODEL 7
REMARK VINA RESULT:    -3.255      1.698      3.035
REMARK INTER + INTRA:          -9.144
REMARK INTER:                  -6.279
REMARK INTRA:                  -2.865
REMARK UNBOUND:                -2.845
REMARK SMILES CCCCCCCCCCCCCCCCCC(=O)[O-]
REMARK SMILES IDX 10 1 11 2 12 3 13 4 14 5 15 6 16 7 17 8 18 9 19 10 20 11
REMARK SMILES IDX 9 12 8 13 7 14 6 15 5 16 4 17 3 18 2 19 1 20
REMARK H PARENT
REMARK Flexibility Score: inf
ROOT
ATOM      1  C   UNL     1      -4.831  -2.044  37.888  1.00  0.00     0.000 C 
ENDROOT
BRANCH   1   2
ATOM      2  C   UNL     1      -5.826  -2.486  36.795  1.00  0.00     0.000 C 
BRANCH   2   3
ATOM      3  C   UNL     1      -5.208  -3.299  35.643  1.00  0.00     0.000 C 
BRANCH   3   4
ATOM      4  C   UNL     1      -4.741  -2.419  34.474  1.00  0.00     0.000 C 
BRANCH   4   5
ATOM      5  C   UNL     1      -3.223  -2.531  34.276  1.00  0.00     0.000 C 
BRANCH   5   6
ATOM      6  C   UNL     1      -2.558  -1.172  34.001  1.00  0.00     0.000 C 
BRANCH   6   7
ATOM      7  C   UNL     1      -1.547  -0.777  35.091  1.00  0.00     0.006 C 
BRANCH   7   8
ATOM      8  C   UNL     1      -1.525  -1.781  36.251  1.00  0.00     0.053 C 
BRANCH   8   9
ATOM      9  C   UNL     1      -0.184  -2.433  36.398  1.00  0.00     0.041 C 
ATOM     10  O   UNL     1      -0.097  -3.616  36.818  1.00  0.00    -0.550 OA
ATOM     11  O   UNL     1       0.971  -1.722  36.097  1.00  0.00    -0.550 OA
ENDBRANCH   8   9
ENDBRANCH   7   8
ENDBRANCH   6   7
ENDBRANCH   5   6
ENDBRANCH   4   5
ENDBRANCH   3   4
ENDBRANCH   2   3
ENDBRANCH   1   2
BRANCH   1  12
ATOM     12  C   UNL     1      -5.379  -1.006  38.888  1.00  0.00     0.000 C 
BRANCH  12  13
ATOM     13  C   UNL     1      -5.203   0.464  38.457  1.00  0.00    -0.000 C 
BRANCH  13  14
ATOM     14  C   UNL     1      -4.053   0.720  37.464  1.00  0.00    -0.000 C 
BRANCH  14  15
ATOM     15  C   UNL     1      -4.494   1.225  36.079  1.00  0.00    -0.000 C 
BRANCH  15  16
ATOM     16  C   UNL     1      -5.577   2.315  36.158  1.00  0.00    -0.000 C 
BRANCH  16  17
ATOM     17  C   UNL     1      -6.758   2.042  35.214  1.00  0.00    -0.000 C 
BRANCH  17  18
ATOM     18  C   UNL     1      -7.077   0.542  35.089  1.00  0.00    -0.000 C 
BRANCH  18  19
ATOM     19  C   UNL     1      -7.154   0.076  33.628  1.00  0.00    -0.003 C 
ATOM     20  C   UNL     1      -6.132   0.776  32.732  1.00  0.00     0.004 C 
ENDBRANCH  18  19
ENDBRANCH  17  18
ENDBRANCH  16  17
ENDBRANCH  15  16
ENDBRANCH  14  15
ENDBRANCH  13  14
ENDBRANCH  12  13
ENDBRANCH   1  12
TORSDOF 16
ENDMDL
MODEL 8
REMARK VINA RESULT:    -3.250      4.343      7.146
REMARK INTER + INTRA:          -9.136
REMARK INTER:                  -5.652
REMARK INTRA:                  -3.484
REMARK UNBOUND:                -2.845
REMARK SMILES CCCCCCCCCCCCCCCCCC(=O)[O-]
REMARK SMILES IDX 10 1 11 2 12 3 13 4 14 5 15 6 16 7 17 8 18 9 19 10 20 11
REMARK SMILES IDX 9 12 8 13 7 14 6 15 5 16 4 17 3 18 2 19 1 20
REMARK H PARENT
REMARK Flexibility Score: inf
ROOT
ATOM      1  C   UNL     1      -5.027  -3.267  35.439  1.00  0.00     0.000 C 
ENDROOT
BRANCH   1   2
ATOM      2  C   UNL     1      -5.756  -2.652  36.652  1.00  0.00     0.000 C 
BRANCH   2   3
ATOM      3  C   UNL     1      -4.837  -2.177  37.791  1.00  0.00     0.000 C 
BRANCH   3   4
ATOM      4  C   UNL     1      -5.426  -0.999  38.582  1.00  0.00     0.000 C 
BRANCH   4   5
ATOM      5  C   UNL     1      -6.753  -0.533  37.966  1.00  0.00     0.000 C 
BRANCH   5   6
ATOM      6  C   UNL     1      -7.047   0.951  38.241  1.00  0.00     0.000 C 
BRANCH   6   7
ATOM      7  C   UNL     1      -7.930   1.590  37.156  1.00  0.00     0.006 C 
BRANCH   7   8
ATOM      8  C   UNL     1      -8.428   0.559  36.134  1.00  0.00     0.053 C 
BRANCH   8   9
ATOM      9  C   UNL     1      -8.922   1.212  34.879  1.00  0.00     0.041 C 
ATOM     10  O   UNL     1      -8.170   1.985  34.229  1.00  0.00    -0.550 OA
ATOM     11  O   UNL     1     -10.221   0.988  34.444  1.00  0.00    -0.550 OA
ENDBRANCH   8   9
ENDBRANCH   7   8
ENDBRANCH   6   7
ENDBRANCH   5   6
ENDBRANCH   4   5
ENDBRANCH   3   4
ENDBRANCH   2   3
ENDBRANCH   1   2
BRANCH   1  12
ATOM     12  C   UNL     1      -4.814  -2.309  34.251  1.00  0.00     0.000 C 
BRANCH  12  13
ATOM     13  C   UNL     1      -5.760  -1.091  34.223  1.00  0.00    -0.000 C 
BRANCH  13  14
ATOM     14  C   UNL     1      -5.070   0.265  33.975  1.00  0.00    -0.000 C 
BRANCH  14  15
ATOM     15  C   UNL     1      -4.787   1.089  35.243  1.00  0.00    -0.000 C 
BRANCH  15  16
ATOM     16  C   UNL     1      -3.437   0.740  35.893  1.00  0.00    -0.000 C 
BRANCH  16  17
ATOM     17  C   UNL     1      -2.284   0.706  34.878  1.00  0.00    -0.000 C 
BRANCH  17  18
ATOM     18  C   UNL     1      -1.564  -0.654  34.852  1.00  0.00    -0.000 C 
BRANCH  18  19
ATOM     19  C   UNL     1      -1.658  -1.396  36.194  1.00  0.00    -0.003 C 
ATOM     20  C   UNL     1      -1.306  -2.878  36.074  1.00  0.00     0.004 C 
ENDBRANCH  18  19
ENDBRANCH  17  18
ENDBRANCH  16  17
ENDBRANCH  15  16
ENDBRANCH  14  15
ENDBRANCH  13  14
ENDBRANCH  12  13
ENDBRANCH   1  12
TORSDOF 16
ENDMDL
MODEL 9
REMARK VINA RESULT:    -3.236      1.701      3.189
REMARK INTER + INTRA:          -9.109
REMARK INTER:                  -6.253
REMARK INTRA:                  -2.856
REMARK UNBOUND:                -2.845
REMARK SMILES CCCCCCCCCCCCCCCCCC(=O)[O-]
REMARK SMILES IDX 10 1 11 2 12 3 13 4 14 5 15 6 16 7 17 8 18 9 19 10 20 11
REMARK SMILES IDX 9 12 8 13 7 14 6 15 5 16 4 17 3 18 2 19 1 20
REMARK H PARENT
REMARK Flexibility Score: inf
ROOT
ATOM      1  C   UNL     1      -6.123  -1.711  37.268  1.00  0.00     0.000 C 
ENDROOT
BRANCH   1   2
ATOM      2  C   UNL     1      -5.520  -0.574  38.118  1.00  0.00     0.000 C 
BRANCH   2   3
ATOM      3  C   UNL     1      -4.091  -0.831  38.630  1.00  0.00     0.000 C 
BRANCH   3   4
ATOM      4  C   UNL     1      -3.078   0.208  38.125  1.00  0.00     0.000 C 
BRANCH   4   5
ATOM      5  C   UNL     1      -1.796  -0.473  37.627  1.00  0.00     0.000 C 
BRANCH   5   6
ATOM      6  C   UNL     1      -0.900   0.472  36.810  1.00  0.00     0.000 C 
BRANCH   6   7
ATOM      7  C   UNL     1       0.441  -0.174  36.420  1.00  0.00     0.006 C 
BRANCH   7   8
ATOM      8  C   UNL     1       0.274  -1.241  35.331  1.00  0.00     0.053 C 
BRANCH   8   9
ATOM      9  C   UNL     1       0.676  -2.600  35.816  1.00  0.00     0.041 C 
ATOM     10  O   UNL     1       1.748  -3.125  35.416  1.00  0.00    -0.550 OA
ATOM     11  O   UNL     1      -0.149  -3.298  36.689  1.00  0.00    -0.550 OA
ENDBRANCH   8   9
ENDBRANCH   7   8
ENDBRANCH   6   7
ENDBRANCH   5   6
ENDBRANCH   4   5
ENDBRANCH   3   4
ENDBRANCH   2   3
ENDBRANCH   1   2
BRANCH   1  12
ATOM     12  C   UNL     1      -5.114  -2.775  36.793  1.00  0.00     0.000 C 
BRANCH  12  13
ATOM     13  C   UNL     1      -5.393  -3.351  35.390  1.00  0.00    -0.000 C 
BRANCH  13  14
ATOM     14  C   UNL     1      -4.462  -2.833  34.275  1.00  0.00    -0.000 C 
BRANCH  14  15
ATOM     15  C   UNL     1      -3.233  -2.051  34.770  1.00  0.00    -0.000 C 
BRANCH  15  16
ATOM     16  C   UNL     1      -3.067  -0.693  34.067  1.00  0.00    -0.000 C 
BRANCH  16  17
ATOM     17  C   UNL     1      -4.073   0.356  34.566  1.00  0.00    -0.000 C 
BRANCH  17  18
ATOM     18  C   UNL     1      -4.779   1.090  33.412  1.00  0.00    -0.000 C 
BRANCH  18  19
ATOM     19  C   UNL     1      -6.137   0.465  33.061  1.00  0.00    -0.003 C 
ATOM     20  C   UNL     1      -6.956   0.102  34.299  1.00  0.00     0.004 C 
ENDBRANCH  18  19
ENDBRANCH  17  18
ENDBRANCH  16  17
ENDBRANCH  15  16
ENDBRANCH  14  15
ENDBRANCH  13  14
ENDBRANCH  12  13
ENDBRANCH   1  12
TORSDOF 16
ENDMDL
