MODEL 1
REMARK VINA RESULT:    -4.455      0.000      0.000
REMARK INTER + INTRA:          -4.846
REMARK INTER:                  -4.846
REMARK INTRA:                   0.000
REMARK UNBOUND:                 0.000
REMARK SMILES Oc1cccc(O)c1O
REMARK SMILES IDX 4 1 5 2 6 3 8 4 2 5 3 6 7 7 1 9 9 11
REMARK H PARENT 7 8 1 10 9 12
REMARK Flexibility Score: inf
ROOT
ATOM      1  C   UNL     1     129.668 121.558 140.912  1.00  0.00     0.008 A 
ATOM      2  C   UNL     1     130.783 122.400 140.930  1.00  0.00     0.050 A 
ATOM      3  C   UNL     1     131.652 122.445 139.830  1.00  0.00     0.161 A 
ATOM      4  C   UNL     1     131.397 121.638 138.706  1.00  0.00     0.200 A 
ATOM      5  C   UNL     1     130.276 120.794 138.692  1.00  0.00     0.161 A 
ATOM      6  C   UNL     1     129.414 120.757 139.797  1.00  0.00     0.050 A 
ENDROOT
BRANCH   3   7
ATOM      7  O   UNL     1     132.763 123.285 139.850  1.00  0.00    -0.504 OA
ATOM      8  H   UNL     1     133.286 123.493 139.008  1.00  0.00     0.293 HD
ENDBRANCH   3   7
BRANCH   5   9
ATOM      9  O   UNL     1     130.027 119.995 137.577  1.00  0.00    -0.504 OA
ATOM     10  H   UNL     1     130.566 120.092 136.724  1.00  0.00     0.293 HD
ENDBRANCH   5   9
BRANCH   4  11
ATOM     11  O   UNL     1     132.244 121.663 137.599  1.00  0.00    -0.502 OA
ATOM     12  H   UNL     1     133.022 122.309 137.530  1.00  0.00     0.293 HD
ENDBRANCH   4  11
TORSDOF 3
ENDMDL
MODEL 2
REMARK VINA RESULT:    -4.434      0.060      2.799
REMARK INTER + INTRA:          -4.823
REMARK INTER:                  -4.823
REMARK INTRA:                   0.000
REMARK UNBOUND:                 0.000
REMARK SMILES Oc1cccc(O)c1O
REMARK SMILES IDX 4 1 5 2 6 3 8 4 2 5 3 6 7 7 1 9 9 11
REMARK H PARENT 7 8 1 10 9 12
REMARK Flexibility Score: inf
ROOT
ATOM      1  C   UNL     1     129.625 121.610 140.867  1.00  0.00     0.008 A 
ATOM      2  C   UNL     1     129.382 120.801 139.755  1.00  0.00     0.050 A 
ATOM      3  C   UNL     1     130.278 120.797 138.675  1.00  0.00     0.161 A 
ATOM      4  C   UNL     1     131.424 121.612 138.716  1.00  0.00     0.200 A 
ATOM      5  C   UNL     1     131.664 122.424 139.835  1.00  0.00     0.161 A 
ATOM      6  C   UNL     1     130.762 122.421 140.909  1.00  0.00     0.050 A 
ENDROOT
BRANCH   3   7
ATOM      7  O   UNL     1     130.034 119.989 137.567  1.00  0.00    -0.504 OA
ATOM      8  H   UNL     1     130.786 119.663 136.972  1.00  0.00     0.293 HD
ENDBRANCH   3   7
BRANCH   5   9
ATOM      9  O   UNL     1     132.800 123.231 139.872  1.00  0.00    -0.504 OA
ATOM     10  H   UNL     1     133.443 123.205 140.655  1.00  0.00     0.293 HD
ENDBRANCH   5   9
BRANCH   4  11
ATOM     11  O   UNL     1     132.331 121.627 137.657  1.00  0.00    -0.502 OA
ATOM     12  H   UNL     1     133.333 121.626 137.805  1.00  0.00     0.293 HD
ENDBRANCH   4  11
TORSDOF 3
ENDMDL
MODEL 3
REMARK VINA RESULT:    -4.429      1.747      3.528
REMARK INTER + INTRA:          -4.817
REMARK INTER:                  -4.817
REMARK INTRA:                   0.000
REMARK UNBOUND:                 0.000
REMARK SMILES Oc1cccc(O)c1O
REMARK SMILES IDX 4 1 5 2 6 3 8 4 2 5 3 6 7 7 1 9 9 11
REMARK H PARENT 7 8 1 10 9 12
REMARK Flexibility Score: inf
ROOT
ATOM      1  C   UNL     1     130.651 120.492 138.032  1.00  0.00     0.008 A 
ATOM      2  C   UNL     1     129.777 120.026 139.017  1.00  0.00     0.050 A 
ATOM      3  C   UNL     1     129.775 120.608 140.292  1.00  0.00     0.161 A 
ATOM      4  C   UNL     1     130.659 121.666 140.578  1.00  0.00     0.200 A 
ATOM      5  C   UNL     1     131.536 122.131 139.587  1.00  0.00     0.161 A 
ATOM      6  C   UNL     1     131.529 121.542 138.314  1.00  0.00     0.050 A 
ENDROOT
BRANCH   3   7
ATOM      7  O   UNL     1     128.902 120.142 141.273  1.00  0.00    -0.504 OA
ATOM      8  H   UNL     1     128.783 120.630 142.153  1.00  0.00     0.293 HD
ENDBRANCH   3   7
BRANCH   5   9
ATOM      9  O   UNL     1     132.410 123.178 139.874  1.00  0.00    -0.504 OA
ATOM     10  H   UNL     1     132.596 123.467 140.827  1.00  0.00     0.293 HD
ENDBRANCH   5   9
BRANCH   4  11
ATOM     11  O   UNL     1     130.678 122.263 141.839  1.00  0.00    -0.502 OA
ATOM     12  H   UNL     1     130.425 123.234 141.980  1.00  0.00     0.293 HD
ENDBRANCH   4  11
TORSDOF 3
ENDMDL
MODEL 4
REMARK VINA RESULT:    -4.409      1.715      2.590
REMARK INTER + INTRA:          -4.795
REMARK INTER:                  -4.795
REMARK INTRA:                   0.000
REMARK UNBOUND:                 0.000
REMARK SMILES Oc1cccc(O)c1O
REMARK SMILES IDX 4 1 5 2 6 3 8 4 2 5 3 6 7 7 1 9 9 11
REMARK H PARENT 7 8 1 10 9 12
REMARK Flexibility Score: inf
ROOT
ATOM      1  C   UNL     1     130.239 120.939 137.912  1.00  0.00     0.008 A 
ATOM      2  C   UNL     1     131.336 121.776 138.133  1.00  0.00     0.050 A 
ATOM      3  C   UNL     1     131.677 122.162 139.438  1.00  0.00     0.161 A 
ATOM      4  C   UNL     1     130.910 121.704 140.525  1.00  0.00     0.200 A 
ATOM      5  C   UNL     1     129.809 120.864 140.298  1.00  0.00     0.161 A 
ATOM      6  C   UNL     1     129.477 120.484 138.990  1.00  0.00     0.050 A 
ENDROOT
BRANCH   3   7
ATOM      7  O   UNL     1     132.771 122.997 139.656  1.00  0.00    -0.504 OA
ATOM      8  H   UNL     1     133.025 123.724 138.998  1.00  0.00     0.293 HD
ENDBRANCH   3   7
BRANCH   5   9
ATOM      9  O   UNL     1     129.051 120.413 141.377  1.00  0.00    -0.504 OA
ATOM     10  H   UNL     1     129.188 120.780 142.312  1.00  0.00     0.293 HD
ENDBRANCH   5   9
BRANCH   4  11
ATOM     11  O   UNL     1     131.227 122.073 141.832  1.00  0.00    -0.502 OA
ATOM     12  H   UNL     1     131.958 122.743 142.040  1.00  0.00     0.293 HD
ENDBRANCH   4  11
TORSDOF 3
ENDMDL
MODEL 5
REMARK VINA RESULT:    -4.376      1.632      2.579
REMARK INTER + INTRA:          -4.759
REMARK INTER:                  -4.759
REMARK INTRA:                   0.000
REMARK UNBOUND:                 0.000
REMARK SMILES Oc1cccc(O)c1O
REMARK SMILES IDX 4 1 5 2 6 3 8 4 2 5 3 6 7 7 1 9 9 11
REMARK H PARENT 7 8 1 10 9 12
REMARK Flexibility Score: inf
ROOT
ATOM      1  C   UNL     1     132.300 122.697 139.129  1.00  0.00     0.008 A 
ATOM      2  C   UNL     1     131.607 122.925 140.321  1.00  0.00     0.050 A 
ATOM      3  C   UNL     1     130.454 122.186 140.620  1.00  0.00     0.161 A 
ATOM      4  C   UNL     1     129.995 121.211 139.715  1.00  0.00     0.200 A 
ATOM      5  C   UNL     1     130.693 120.985 138.519  1.00  0.00     0.161 A 
ATOM      6  C   UNL     1     131.845 121.730 138.230  1.00  0.00     0.050 A 
ENDROOT
BRANCH   3   7
ATOM      7  O   UNL     1     129.765 122.415 141.809  1.00  0.00    -0.504 OA
ATOM      8  H   UNL     1     129.477 123.347 142.085  1.00  0.00     0.293 HD
ENDBRANCH   3   7
BRANCH   5   9
ATOM      9  O   UNL     1     130.236 120.019 137.624  1.00  0.00    -0.504 OA
ATOM     10  H   UNL     1     129.276 120.011 137.297  1.00  0.00     0.293 HD
ENDBRANCH   5   9
BRANCH   4  11
ATOM     11  O   UNL     1     128.851 120.462 139.988  1.00  0.00    -0.502 OA
ATOM     12  H   UNL     1     128.000 120.886 140.338  1.00  0.00     0.293 HD
ENDBRANCH   4  11
TORSDOF 3
ENDMDL
MODEL 6
REMARK VINA RESULT:    -4.374      1.639      3.474
REMARK INTER + INTRA:          -4.757
REMARK INTER:                  -4.757
REMARK INTRA:                   0.000
REMARK UNBOUND:                 0.000
REMARK SMILES Oc1cccc(O)c1O
REMARK SMILES IDX 4 1 5 2 6 3 8 4 2 5 3 6 7 7 1 9 9 11
REMARK H PARENT 7 8 1 10 9 12
REMARK Flexibility Score: inf
ROOT
ATOM      1  C   UNL     1     132.306 122.698 139.121  1.00  0.00     0.008 A 
ATOM      2  C   UNL     1     131.839 121.735 138.223  1.00  0.00     0.050 A 
ATOM      3  C   UNL     1     130.689 120.990 138.522  1.00  0.00     0.161 A 
ATOM      4  C   UNL     1     130.005 121.217 139.730  1.00  0.00     0.200 A 
ATOM      5  C   UNL     1     130.476 122.185 140.629  1.00  0.00     0.161 A 
ATOM      6  C   UNL     1     131.628 122.924 140.321  1.00  0.00     0.050 A 
ENDROOT
BRANCH   3   7
ATOM      7  O   UNL     1     130.226 120.029 137.625  1.00  0.00    -0.504 OA
ATOM      8  H   UNL     1     130.759 119.769 136.804  1.00  0.00     0.293 HD
ENDBRANCH   3   7
BRANCH   5   9
ATOM      9  O   UNL     1     129.797 122.407 141.826  1.00  0.00    -0.504 OA
ATOM     10  H   UNL     1     129.261 121.673 142.275  1.00  0.00     0.293 HD
ENDBRANCH   5   9
BRANCH   4  11
ATOM     11  O   UNL     1     128.858 120.490 140.052  1.00  0.00    -0.502 OA
ATOM     12  H   UNL     1     128.256 120.748 140.825  1.00  0.00     0.293 HD
ENDBRANCH   4  11
TORSDOF 3
ENDMDL
MODEL 7
REMARK VINA RESULT:    -4.224      1.106      2.714
REMARK INTER + INTRA:          -4.595
REMARK INTER:                  -4.595
REMARK INTRA:                   0.000
REMARK UNBOUND:                 0.000
REMARK SMILES Oc1cccc(O)c1O
REMARK SMILES IDX 4 1 5 2 6 3 8 4 2 5 3 6 7 7 1 9 9 11
REMARK H PARENT 7 8 1 10 9 12
REMARK Flexibility Score: inf
ROOT
ATOM      1  C   UNL     1     131.321 122.695 140.715  1.00  0.00     0.008 A 
ATOM      2  C   UNL     1     130.298 121.768 140.928  1.00  0.00     0.050 A 
ATOM      3  C   UNL     1     129.940 120.866 139.917  1.00  0.00     0.161 A 
ATOM      4  C   UNL     1     130.617 120.896 138.683  1.00  0.00     0.200 A 
ATOM      5  C   UNL     1     131.644 121.828 138.472  1.00  0.00     0.161 A 
ATOM      6  C   UNL     1     131.994 122.726 139.491  1.00  0.00     0.050 A 
ENDROOT
BRANCH   3   7
ATOM      7  O   UNL     1     128.920 119.942 140.132  1.00  0.00    -0.504 OA
ATOM      8  H   UNL     1     128.549 119.375 139.378  1.00  0.00     0.293 HD
ENDBRANCH   3   7
BRANCH   5   9
ATOM      9  O   UNL     1     132.312 121.856 137.249  1.00  0.00    -0.504 OA
ATOM     10  H   UNL     1     133.061 122.515 137.069  1.00  0.00     0.293 HD
ENDBRANCH   5   9
BRANCH   4  11
ATOM     11  O   UNL     1     130.282 120.009 137.660  1.00  0.00    -0.502 OA
ATOM     12  H   UNL     1     129.839 119.116 137.844  1.00  0.00     0.293 HD
ENDBRANCH   4  11
TORSDOF 3
ENDMDL
MODEL 8
REMARK VINA RESULT:    -4.152      1.418      2.770
REMARK INTER + INTRA:          -4.516
REMARK INTER:                  -4.516
REMARK INTRA:                   0.000
REMARK UNBOUND:                 0.000
REMARK SMILES Oc1cccc(O)c1O
REMARK SMILES IDX 4 1 5 2 6 3 8 4 2 5 3 6 7 7 1 9 9 11
REMARK H PARENT 7 8 1 10 9 12
REMARK Flexibility Score: inf
ROOT
ATOM      1  C   UNL     1     129.058 119.979 139.124  1.00  0.00     0.008 A 
ATOM      2  C   UNL     1     130.208 120.067 138.335  1.00  0.00     0.050 A 
ATOM      3  C   UNL     1     131.237 120.954 138.683  1.00  0.00     0.161 A 
ATOM      4  C   UNL     1     131.108 121.758 139.831  1.00  0.00     0.200 A 
ATOM      5  C   UNL     1     129.952 121.667 140.620  1.00  0.00     0.161 A 
ATOM      6  C   UNL     1     128.929 120.776 140.264  1.00  0.00     0.050 A 
ENDROOT
BRANCH   3   7
ATOM      7  O   UNL     1     132.383 121.040 137.895  1.00  0.00    -0.504 OA
ATOM      8  H   UNL     1     132.725 120.245 137.368  1.00  0.00     0.293 HD
ENDBRANCH   3   7
BRANCH   5   9
ATOM      9  O   UNL     1     129.827 122.464 141.757  1.00  0.00    -0.504 OA
ATOM     10  H   UNL     1     129.056 123.115 141.866  1.00  0.00     0.293 HD
ENDBRANCH   5   9
BRANCH   4  11
ATOM     11  O   UNL     1     132.116 122.648 140.199  1.00  0.00    -0.502 OA
ATOM     12  H   UNL     1     132.114 123.617 139.903  1.00  0.00     0.293 HD
ENDBRANCH   4  11
TORSDOF 3
ENDMDL
MODEL 9
REMARK VINA RESULT:    -4.147      2.373      3.799
REMARK INTER + INTRA:          -4.511
REMARK INTER:                  -4.511
REMARK INTRA:                   0.000
REMARK UNBOUND:                 0.000
REMARK SMILES Oc1cccc(O)c1O
REMARK SMILES IDX 4 1 5 2 6 3 8 4 2 5 3 6 7 7 1 9 9 11
REMARK H PARENT 7 8 1 10 9 12
REMARK Flexibility Score: inf
ROOT
ATOM      1  C   UNL     1     130.465 121.033 138.218  1.00  0.00     0.008 A 
ATOM      2  C   UNL     1     129.138 121.461 138.142  1.00  0.00     0.050 A 
ATOM      3  C   UNL     1     128.532 122.081 139.244  1.00  0.00     0.161 A 
ATOM      4  C   UNL     1     129.267 122.272 140.429  1.00  0.00     0.200 A 
ATOM      5  C   UNL     1     130.600 121.840 140.501  1.00  0.00     0.161 A 
ATOM      6  C   UNL     1     131.196 121.221 139.393  1.00  0.00     0.050 A 
ENDROOT
BRANCH   3   7
ATOM      7  O   UNL     1     127.208 122.507 139.167  1.00  0.00    -0.504 OA
ATOM      8  H   UNL     1     126.464 122.020 139.654  1.00  0.00     0.293 HD
ENDBRANCH   3   7
BRANCH   5   9
ATOM      9  O   UNL     1     131.325 122.031 141.676  1.00  0.00    -0.504 OA
ATOM     10  H   UNL     1     131.399 121.302 142.378  1.00  0.00     0.293 HD
ENDBRANCH   5   9
BRANCH   4  11
ATOM     11  O   UNL     1     128.689 122.886 141.540  1.00  0.00    -0.502 OA
ATOM     12  H   UNL     1     129.064 123.737 141.941  1.00  0.00     0.293 HD
ENDBRANCH   4  11
TORSDOF 3
ENDMDL
