MODEL 1
REMARK VINA RESULT:    -3.856      0.000      0.000
REMARK INTER + INTRA:         -15.137
REMARK INTER:                  -9.717
REMARK INTRA:                  -5.420
REMARK UNBOUND:                -5.420
REMARK SMILES CCCCCCCCCCCCCCCCCCCCCCCCCCCC(=O)[O-]
REMARK SMILES IDX 15 1 16 2 17 3 18 4 19 5 20 6 21 7 22 8 23 9 24 10 25 11
REMARK SMILES IDX 26 12 27 13 28 14 29 15 30 16 14 17 13 18 12 19 11 20 10 21
REMARK SMILES IDX 9 22 8 23 7 24 6 25 5 26 4 27 3 28 2 29 1 30
REMARK H PARENT
REMARK Flexibility Score: inf
ROOT
ATOM      1  C   UNL     1      13.721 -29.904  44.371  1.00  0.00     0.000 C 
ENDROOT
BRANCH   1   2
ATOM      2  C   UNL     1      14.276 -31.340  44.448  1.00  0.00     0.000 C 
BRANCH   2   3
ATOM      3  C   UNL     1      14.473 -32.009  43.070  1.00  0.00     0.000 C 
BRANCH   3   4
ATOM      4  C   UNL     1      13.295 -32.919  42.679  1.00  0.00     0.000 C 
BRANCH   4   5
ATOM      5  C   UNL     1      12.899 -32.757  41.202  1.00  0.00     0.000 C 
BRANCH   5   6
ATOM      6  C   UNL     1      13.936 -31.946  40.404  1.00  0.00     0.000 C 
BRANCH   6   7
ATOM      7  C   UNL     1      13.281 -30.899  39.476  1.00  0.00     0.000 C 
BRANCH   7   8
ATOM      8  C   UNL     1      14.225 -29.755  39.055  1.00  0.00     0.000 C 
BRANCH   8   9
ATOM      9  C   UNL     1      13.558 -28.604  38.281  1.00  0.00     0.000 C 
BRANCH   9  10
ATOM     10  C   UNL     1      12.315 -28.047  39.000  1.00  0.00     0.000 C 
BRANCH  10  11
ATOM     11  C   UNL     1      11.107 -27.866  38.060  1.00  0.00     0.000 C 
BRANCH  11  12
ATOM     12  C   UNL     1      10.237 -29.123  37.856  1.00  0.00     0.006 C 
BRANCH  12  13
ATOM     13  C   UNL     1       8.722 -28.866  37.878  1.00  0.00     0.053 C 
BRANCH  13  14
ATOM     14  C   UNL     1       7.960 -30.031  38.435  1.00  0.00     0.041 C 
ATOM     15  O   UNL     1       6.726 -29.925  38.673  1.00  0.00    -0.550 OA
ATOM     16  O   UNL     1       8.617 -31.219  38.727  1.00  0.00    -0.550 OA
ENDBRANCH  13  14
ENDBRANCH  12  13
ENDBRANCH  11  12
ENDBRANCH  10  11
ENDBRANCH   9  10
ENDBRANCH   8   9
ENDBRANCH   7   8
ENDBRANCH   6   7
ENDBRANCH   5   6
ENDBRANCH   4   5
ENDBRANCH   3   4
ENDBRANCH   2   3
ENDBRANCH   1   2
BRANCH   1  17
ATOM     17  C   UNL     1      13.820 -29.238  42.985  1.00  0.00     0.000 C 
BRANCH  17  18
ATOM     18  C   UNL     1      12.471 -28.835  42.359  1.00  0.00     0.000 C 
BRANCH  18  19
ATOM     19  C   UNL     1      11.329 -29.792  42.735  1.00  0.00     0.000 C 
BRANCH  19  20
ATOM     20  C   UNL     1      10.351 -29.973  41.564  1.00  0.00     0.000 C 
BRANCH  20  21
ATOM     21  C   UNL     1       8.885 -29.794  41.993  1.00  0.00     0.000 C 
BRANCH  21  22
ATOM     22  C   UNL     1       8.556 -28.339  42.376  1.00  0.00    -0.000 C 
BRANCH  22  23
ATOM     23  C   UNL     1       7.820 -27.589  41.254  1.00  0.00    -0.000 C 
BRANCH  23  24
ATOM     24  C   UNL     1       8.630 -26.399  40.711  1.00  0.00    -0.000 C 
BRANCH  24  25
ATOM     25  C   UNL     1       9.982 -26.213  41.438  1.00  0.00    -0.000 C 
BRANCH  25  26
ATOM     26  C   UNL     1      10.889 -25.145  40.798  1.00  0.00    -0.000 C 
BRANCH  26  27
ATOM     27  C   UNL     1      10.142 -24.085  39.968  1.00  0.00    -0.000 C 
BRANCH  27  28
ATOM     28  C   UNL     1       9.948 -22.743  40.712  1.00  0.00    -0.000 C 
BRANCH  28  29
ATOM     29  C   UNL     1      10.926 -22.568  41.882  1.00  0.00    -0.003 C 
ATOM     30  C   UNL     1      12.082 -21.644  41.503  1.00  0.00     0.004 C 
ENDBRANCH  28  29
ENDBRANCH  27  28
ENDBRANCH  26  27
ENDBRANCH  25  26
ENDBRANCH  24  25
ENDBRANCH  23  24
ENDBRANCH  22  23
ENDBRANCH  21  22
ENDBRANCH  20  21
ENDBRANCH  19  20
ENDBRANCH  18  19
ENDBRANCH  17  18
ENDBRANCH   1  17
TORSDOF 26
ENDMDL
MODEL 2
REMARK VINA RESULT:    -3.795      2.664      6.774
REMARK INTER + INTRA:         -14.983
REMARK INTER:                 -10.356
REMARK INTRA:                  -4.627
REMARK UNBOUND:                -5.420
REMARK SMILES CCCCCCCCCCCCCCCCCCCCCCCCCCCC(=O)[O-]
REMARK SMILES IDX 15 1 16 2 17 3 18 4 19 5 20 6 21 7 22 8 23 9 24 10 25 11
REMARK SMILES IDX 26 12 27 13 28 14 29 15 30 16 14 17 13 18 12 19 11 20 10 21
REMARK SMILES IDX 9 22 8 23 7 24 6 25 5 26 4 27 3 28 2 29 1 30
REMARK H PARENT
REMARK Flexibility Score: inf
ROOT
ATOM      1  C   UNL     1       8.612 -28.715  42.446  1.00  0.00     0.000 C 
ENDROOT
BRANCH   1   2
ATOM      2  C   UNL     1       7.714 -27.715  41.691  1.00  0.00     0.000 C 
BRANCH   2   3
ATOM      3  C   UNL     1       8.407 -26.375  41.366  1.00  0.00     0.000 C 
BRANCH   3   4
ATOM      4  C   UNL     1       9.922 -26.410  41.635  1.00  0.00     0.000 C 
BRANCH   4   5
ATOM      5  C   UNL     1      10.597 -25.060  41.340  1.00  0.00     0.000 C 
BRANCH   5   6
ATOM      6  C   UNL     1       9.684 -24.111  40.542  1.00  0.00     0.000 C 
BRANCH   6   7
ATOM      7  C   UNL     1       9.976 -22.624  40.836  1.00  0.00     0.000 C 
BRANCH   7   8
ATOM      8  C   UNL     1      11.264 -22.385  41.648  1.00  0.00     0.000 C 
BRANCH   8   9
ATOM      9  C   UNL     1      12.310 -21.482  40.971  1.00  0.00     0.000 C 
BRANCH   9  10
ATOM     10  C   UNL     1      13.751 -21.992  41.166  1.00  0.00     0.000 C 
BRANCH  10  11
ATOM     11  C   UNL     1      13.825 -23.515  41.388  1.00  0.00     0.000 C 
BRANCH  11  12
ATOM     12  C   UNL     1      14.639 -24.294  40.335  1.00  0.00     0.006 C 
BRANCH  12  13
ATOM     13  C   UNL     1      14.635 -23.671  38.930  1.00  0.00     0.053 C 
BRANCH  13  14
ATOM     14  C   UNL     1      13.534 -24.220  38.072  1.00  0.00     0.041 C 
ATOM     15  O   UNL     1      12.329 -24.010  38.378  1.00  0.00    -0.550 OA
ATOM     16  O   UNL     1      13.837 -24.995  36.960  1.00  0.00    -0.550 OA
ENDBRANCH  13  14
ENDBRANCH  12  13
ENDBRANCH  11  12
ENDBRANCH  10  11
ENDBRANCH   9  10
ENDBRANCH   8   9
ENDBRANCH   7   8
ENDBRANCH   6   7
ENDBRANCH   5   6
ENDBRANCH   4   5
ENDBRANCH   3   4
ENDBRANCH   2   3
ENDBRANCH   1   2
BRANCH   1  17
ATOM     17  C   UNL     1       8.788 -30.084  41.760  1.00  0.00     0.000 C 
BRANCH  17  18
ATOM     18  C   UNL     1      10.112 -30.805  42.074  1.00  0.00     0.000 C 
BRANCH  18  19
ATOM     19  C   UNL     1      11.211 -29.847  42.562  1.00  0.00     0.000 C 
BRANCH  19  20
ATOM     20  C   UNL     1      12.381 -30.622  43.190  1.00  0.00     0.000 C 
BRANCH  20  21
ATOM     21  C   UNL     1      13.745 -30.145  42.666  1.00  0.00     0.000 C 
BRANCH  21  22
ATOM     22  C   UNL     1      13.735 -29.880  41.149  1.00  0.00    -0.000 C 
BRANCH  22  23
ATOM     23  C   UNL     1      13.860 -31.173  40.326  1.00  0.00    -0.000 C 
BRANCH  23  24
ATOM     24  C   UNL     1      12.693 -31.358  39.341  1.00  0.00    -0.000 C 
BRANCH  24  25
ATOM     25  C   UNL     1      12.040 -30.019  38.925  1.00  0.00    -0.000 C 
BRANCH  25  26
ATOM     26  C   UNL     1      12.571 -29.457  37.593  1.00  0.00    -0.000 C 
BRANCH  26  27
ATOM     27  C   UNL     1      12.072 -28.042  37.251  1.00  0.00    -0.000 C 
BRANCH  27  28
ATOM     28  C   UNL     1      11.235 -27.394  38.378  1.00  0.00    -0.000 C 
BRANCH  28  29
ATOM     29  C   UNL     1       9.776 -27.148  37.966  1.00  0.00    -0.003 C 
ATOM     30  C   UNL     1       8.896 -28.348  38.307  1.00  0.00     0.004 C 
ENDBRANCH  28  29
ENDBRANCH  27  28
ENDBRANCH  26  27
ENDBRANCH  25  26
ENDBRANCH  24  25
ENDBRANCH  23  24
ENDBRANCH  22  23
ENDBRANCH  21  22
ENDBRANCH  20  21
ENDBRANCH  19  20
ENDBRANCH  18  19
ENDBRANCH  17  18
ENDBRANCH   1  17
TORSDOF 26
ENDMDL
MODEL 3
REMARK VINA RESULT:    -3.786      2.706      4.575
REMARK INTER + INTRA:         -14.960
REMARK INTER:                  -9.795
REMARK INTRA:                  -5.164
REMARK UNBOUND:                -5.420
REMARK SMILES CCCCCCCCCCCCCCCCCCCCCCCCCCCC(=O)[O-]
REMARK SMILES IDX 15 1 16 2 17 3 18 4 19 5 20 6 21 7 22 8 23 9 24 10 25 11
REMARK SMILES IDX 26 12 27 13 28 14 29 15 30 16 14 17 13 18 12 19 11 20 10 21
REMARK SMILES IDX 9 22 8 23 7 24 6 25 5 26 4 27 3 28 2 29 1 30
REMARK H PARENT
REMARK Flexibility Score: inf
ROOT
ATOM      1  C   UNL     1      11.308 -30.798  39.222  1.00  0.00     0.000 C 
ENDROOT
BRANCH   1   2
ATOM      2  C   UNL     1      12.597 -30.011  38.911  1.00  0.00     0.000 C 
BRANCH   2   3
ATOM      3  C   UNL     1      13.859 -30.590  39.585  1.00  0.00     0.000 C 
BRANCH   3   4
ATOM      4  C   UNL     1      13.556 -31.826  40.450  1.00  0.00     0.000 C 
BRANCH   4   5
ATOM      5  C   UNL     1      13.932 -31.610  41.926  1.00  0.00     0.000 C 
BRANCH   5   6
ATOM      6  C   UNL     1      12.968 -30.645  42.640  1.00  0.00     0.000 C 
BRANCH   6   7
ATOM      7  C   UNL     1      13.648 -29.875  43.792  1.00  0.00     0.000 C 
BRANCH   7   8
ATOM      8  C   UNL     1      15.116 -29.496  43.514  1.00  0.00     0.000 C 
BRANCH   8   9
ATOM      9  C   UNL     1      15.349 -28.034  43.094  1.00  0.00     0.000 C 
BRANCH   9  10
ATOM     10  C   UNL     1      15.207 -27.822  41.574  1.00  0.00     0.000 C 
BRANCH  10  11
ATOM     11  C   UNL     1      13.858 -27.191  41.178  1.00  0.00     0.000 C 
BRANCH  11  12
ATOM     12  C   UNL     1      13.934 -26.110  40.082  1.00  0.00     0.006 C 
BRANCH  12  13
ATOM     13  C   UNL     1      15.278 -26.042  39.338  1.00  0.00     0.053 C 
BRANCH  13  14
ATOM     14  C   UNL     1      15.217 -26.717  38.000  1.00  0.00     0.041 C 
ATOM     15  O   UNL     1      15.672 -27.884  37.858  1.00  0.00    -0.550 OA
ATOM     16  O   UNL     1      14.695 -26.043  36.903  1.00  0.00    -0.550 OA
ENDBRANCH  13  14
ENDBRANCH  12  13
ENDBRANCH  11  12
ENDBRANCH  10  11
ENDBRANCH   9  10
ENDBRANCH   8   9
ENDBRANCH   7   8
ENDBRANCH   6   7
ENDBRANCH   5   6
ENDBRANCH   4   5
ENDBRANCH   3   4
ENDBRANCH   2   3
ENDBRANCH   1   2
BRANCH   1  17
ATOM     17  C   UNL     1      10.289 -30.058  40.111  1.00  0.00     0.000 C 
BRANCH  17  18
ATOM     18  C   UNL     1      10.555 -28.551  40.290  1.00  0.00     0.000 C 
BRANCH  18  19
ATOM     19  C   UNL     1      10.425 -28.093  41.752  1.00  0.00     0.000 C 
BRANCH  19  20
ATOM     20  C   UNL     1       8.954 -27.865  42.131  1.00  0.00     0.000 C 
BRANCH  20  21
ATOM     21  C   UNL     1       8.164 -27.165  41.013  1.00  0.00     0.000 C 
BRANCH  21  22
ATOM     22  C   UNL     1       8.421 -25.647  40.971  1.00  0.00    -0.000 C 
BRANCH  22  23
ATOM     23  C   UNL     1       9.127 -25.207  39.678  1.00  0.00    -0.000 C 
BRANCH  23  24
ATOM     24  C   UNL     1      10.252 -24.190  39.938  1.00  0.00    -0.000 C 
BRANCH  24  25
ATOM     25  C   UNL     1      10.859 -24.316  41.355  1.00  0.00    -0.000 C 
BRANCH  25  26
ATOM     26  C   UNL     1      11.756 -23.130  41.754  1.00  0.00    -0.000 C 
BRANCH  26  27
ATOM     27  C   UNL     1      11.609 -21.886  40.858  1.00  0.00    -0.000 C 
BRANCH  27  28
ATOM     28  C   UNL     1      12.961 -21.300  40.391  1.00  0.00    -0.000 C 
BRANCH  28  29
ATOM     29  C   UNL     1      13.871 -22.352  39.743  1.00  0.00    -0.003 C 
ATOM     30  C   UNL     1      13.347 -22.767  38.371  1.00  0.00     0.004 C 
ENDBRANCH  28  29
ENDBRANCH  27  28
ENDBRANCH  26  27
ENDBRANCH  25  26
ENDBRANCH  24  25
ENDBRANCH  23  24
ENDBRANCH  22  23
ENDBRANCH  21  22
ENDBRANCH  20  21
ENDBRANCH  19  20
ENDBRANCH  18  19
ENDBRANCH  17  18
ENDBRANCH   1  17
TORSDOF 26
ENDMDL
MODEL 4
REMARK VINA RESULT:    -3.767      2.347      4.036
REMARK INTER + INTRA:         -14.913
REMARK INTER:                 -10.027
REMARK INTRA:                  -4.886
REMARK UNBOUND:                -5.420
REMARK SMILES CCCCCCCCCCCCCCCCCCCCCCCCCCCC(=O)[O-]
REMARK SMILES IDX 15 1 16 2 17 3 18 4 19 5 20 6 21 7 22 8 23 9 24 10 25 11
REMARK SMILES IDX 26 12 27 13 28 14 29 15 30 16 14 17 13 18 12 19 11 20 10 21
REMARK SMILES IDX 9 22 8 23 7 24 6 25 5 26 4 27 3 28 2 29 1 30
REMARK H PARENT
REMARK Flexibility Score: inf
ROOT
ATOM      1  C   UNL     1      12.797 -30.181  39.766  1.00  0.00     0.000 C 
ENDROOT
BRANCH   1   2
ATOM      2  C   UNL     1      13.845 -31.297  39.949  1.00  0.00     0.000 C 
BRANCH   2   3
ATOM      3  C   UNL     1      13.738 -32.040  41.298  1.00  0.00     0.000 C 
BRANCH   3   4
ATOM      4  C   UNL     1      12.585 -31.516  42.173  1.00  0.00     0.000 C 
BRANCH   4   5
ATOM      5  C   UNL     1      12.678 -32.023  43.622  1.00  0.00     0.000 C 
BRANCH   5   6
ATOM      6  C   UNL     1      12.776 -30.872  44.640  1.00  0.00     0.000 C 
BRANCH   6   7
ATOM      7  C   UNL     1      13.359 -29.583  44.020  1.00  0.00     0.000 C 
BRANCH   7   8
ATOM      8  C   UNL     1      14.894 -29.479  44.116  1.00  0.00     0.000 C 
BRANCH   8   9
ATOM      9  C   UNL     1      15.550 -28.510  43.117  1.00  0.00     0.000 C 
BRANCH   9  10
ATOM     10  C   UNL     1      14.596 -28.088  41.984  1.00  0.00     0.000 C 
BRANCH  10  11
ATOM     11  C   UNL     1      15.337 -27.647  40.706  1.00  0.00     0.000 C 
BRANCH  11  12
ATOM     12  C   UNL     1      14.688 -26.478  39.939  1.00  0.00     0.006 C 
BRANCH  12  13
ATOM     13  C   UNL     1      14.260 -26.812  38.501  1.00  0.00     0.053 C 
BRANCH  13  14
ATOM     14  C   UNL     1      13.013 -26.083  38.099  1.00  0.00     0.041 C 
ATOM     15  O   UNL     1      13.021 -24.827  37.992  1.00  0.00    -0.550 OA
ATOM     16  O   UNL     1      11.834 -26.785  37.883  1.00  0.00    -0.550 OA
ENDBRANCH  13  14
ENDBRANCH  12  13
ENDBRANCH  11  12
ENDBRANCH  10  11
ENDBRANCH   9  10
ENDBRANCH   8   9
ENDBRANCH   7   8
ENDBRANCH   6   7
ENDBRANCH   5   6
ENDBRANCH   4   5
ENDBRANCH   3   4
ENDBRANCH   2   3
ENDBRANCH   1   2
BRANCH   1  17
ATOM     17  C   UNL     1      11.733 -30.454  38.685  1.00  0.00     0.000 C 
BRANCH  17  18
ATOM     18  C   UNL     1      11.052 -31.833  38.775  1.00  0.00     0.000 C 
BRANCH  18  19
ATOM     19  C   UNL     1       9.689 -31.780  39.482  1.00  0.00     0.000 C 
BRANCH  19  20
ATOM     20  C   UNL     1       9.395 -30.369  40.013  1.00  0.00     0.000 C 
BRANCH  20  21
ATOM     21  C   UNL     1       9.190 -30.348  41.537  1.00  0.00     0.000 C 
BRANCH  21  22
ATOM     22  C   UNL     1       9.362 -28.940  42.136  1.00  0.00    -0.000 C 
BRANCH  22  23
ATOM     23  C   UNL     1      10.750 -28.345  41.848  1.00  0.00    -0.000 C 
BRANCH  23  24
ATOM     24  C   UNL     1      10.670 -26.968  41.165  1.00  0.00    -0.000 C 
BRANCH  24  25
ATOM     25  C   UNL     1       9.342 -26.231  41.456  1.00  0.00    -0.000 C 
BRANCH  25  26
ATOM     26  C   UNL     1       8.860 -25.341  40.295  1.00  0.00    -0.000 C 
BRANCH  26  27
ATOM     27  C   UNL     1       9.881 -24.289  39.827  1.00  0.00    -0.000 C 
BRANCH  27  28
ATOM     28  C   UNL     1       9.645 -22.887  40.435  1.00  0.00    -0.000 C 
BRANCH  28  29
ATOM     29  C   UNL     1      10.833 -22.398  41.275  1.00  0.00    -0.003 C 
ATOM     30  C   UNL     1      12.005 -23.373  41.196  1.00  0.00     0.004 C 
ENDBRANCH  28  29
ENDBRANCH  27  28
ENDBRANCH  26  27
ENDBRANCH  25  26
ENDBRANCH  24  25
ENDBRANCH  23  24
ENDBRANCH  22  23
ENDBRANCH  21  22
ENDBRANCH  20  21
ENDBRANCH  19  20
ENDBRANCH  18  19
ENDBRANCH  17  18
ENDBRANCH   1  17
TORSDOF 26
ENDMDL
MODEL 5
REMARK VINA RESULT:    -3.758      3.506      6.652
REMARK INTER + INTRA:         -14.890
REMARK INTER:                  -9.991
REMARK INTRA:                  -4.898
REMARK UNBOUND:                -5.420
REMARK SMILES CCCCCCCCCCCCCCCCCCCCCCCCCCCC(=O)[O-]
REMARK SMILES IDX 15 1 16 2 17 3 18 4 19 5 20 6 21 7 22 8 23 9 24 10 25 11
REMARK SMILES IDX 26 12 27 13 28 14 29 15 30 16 14 17 13 18 12 19 11 20 10 21
REMARK SMILES IDX 9 22 8 23 7 24 6 25 5 26 4 27 3 28 2 29 1 30
REMARK H PARENT
REMARK Flexibility Score: inf
ROOT
ATOM      1  C   UNL     1      12.482 -29.830  42.796  1.00  0.00     0.000 C 
ENDROOT
BRANCH   1   2
ATOM      2  C   UNL     1      11.432 -28.898  42.160  1.00  0.00     0.000 C 
BRANCH   2   3
ATOM      3  C   UNL     1       9.980 -29.405  42.300  1.00  0.00     0.000 C 
BRANCH   3   4
ATOM      4  C   UNL     1       8.940 -28.291  42.083  1.00  0.00     0.000 C 
BRANCH   4   5
ATOM      5  C   UNL     1       9.592 -26.905  41.943  1.00  0.00     0.000 C 
BRANCH   5   6
ATOM      6  C   UNL     1       8.787 -25.971  41.021  1.00  0.00     0.000 C 
BRANCH   6   7
ATOM      7  C   UNL     1       9.626 -25.441  39.839  1.00  0.00     0.000 C 
BRANCH   7   8
ATOM      8  C   UNL     1       9.492 -23.923  39.604  1.00  0.00     0.000 C 
BRANCH   8   9
ATOM      9  C   UNL     1       9.456 -23.061  40.878  1.00  0.00     0.000 C 
BRANCH   9  10
ATOM     10  C   UNL     1      10.721 -22.198  41.047  1.00  0.00     0.000 C 
BRANCH  10  11
ATOM     11  C   UNL     1      11.905 -22.978  41.650  1.00  0.00     0.000 C 
BRANCH  11  12
ATOM     12  C   UNL     1      13.284 -22.660  41.036  1.00  0.00     0.006 C 
BRANCH  12  13
ATOM     13  C   UNL     1      13.240 -22.167  39.582  1.00  0.00     0.053 C 
BRANCH  13  14
ATOM     14  C   UNL     1      13.538 -20.701  39.473  1.00  0.00     0.041 C 
ATOM     15  O   UNL     1      13.506 -20.130  38.350  1.00  0.00    -0.550 OA
ATOM     16  O   UNL     1      13.889 -19.975  40.604  1.00  0.00    -0.550 OA
ENDBRANCH  13  14
ENDBRANCH  12  13
ENDBRANCH  11  12
ENDBRANCH  10  11
ENDBRANCH   9  10
ENDBRANCH   8   9
ENDBRANCH   7   8
ENDBRANCH   6   7
ENDBRANCH   5   6
ENDBRANCH   4   5
ENDBRANCH   3   4
ENDBRANCH   2   3
ENDBRANCH   1   2
BRANCH   1  17
ATOM     17  C   UNL     1      13.657 -30.216  41.877  1.00  0.00     0.000 C 
BRANCH  17  18
ATOM     18  C   UNL     1      13.879 -31.730  41.704  1.00  0.00     0.000 C 
BRANCH  18  19
ATOM     19  C   UNL     1      13.636 -32.209  40.264  1.00  0.00     0.000 C 
BRANCH  19  20
ATOM     20  C   UNL     1      12.334 -33.019  40.162  1.00  0.00     0.000 C 
BRANCH  20  21
ATOM     21  C   UNL     1      11.126 -32.140  39.796  1.00  0.00     0.000 C 
BRANCH  21  22
ATOM     22  C   UNL     1      11.391 -31.259  38.561  1.00  0.00    -0.000 C 
BRANCH  22  23
ATOM     23  C   UNL     1      10.804 -29.846  38.712  1.00  0.00    -0.000 C 
BRANCH  23  24
ATOM     24  C   UNL     1      11.848 -28.744  38.455  1.00  0.00    -0.000 C 
BRANCH  24  25
ATOM     25  C   UNL     1      13.090 -29.261  37.693  1.00  0.00    -0.000 C 
BRANCH  25  26
ATOM     26  C   UNL     1      14.397 -29.166  38.501  1.00  0.00    -0.000 C 
BRANCH  26  27
ATOM     27  C   UNL     1      14.890 -27.730  38.756  1.00  0.00    -0.000 C 
BRANCH  27  28
ATOM     28  C   UNL     1      15.516 -27.533  40.156  1.00  0.00    -0.000 C 
BRANCH  28  29
ATOM     29  C   UNL     1      14.644 -26.668  41.078  1.00  0.00    -0.003 C 
ATOM     30  C   UNL     1      13.376 -26.205  40.365  1.00  0.00     0.004 C 
ENDBRANCH  28  29
ENDBRANCH  27  28
ENDBRANCH  26  27
ENDBRANCH  25  26
ENDBRANCH  24  25
ENDBRANCH  23  24
ENDBRANCH  22  23
ENDBRANCH  21  22
ENDBRANCH  20  21
ENDBRANCH  19  20
ENDBRANCH  18  19
ENDBRANCH  17  18
ENDBRANCH   1  17
TORSDOF 26
ENDMDL
MODEL 6
REMARK VINA RESULT:    -3.755      2.833      7.002
REMARK INTER + INTRA:         -14.882
REMARK INTER:                 -10.315
REMARK INTRA:                  -4.567
REMARK UNBOUND:                -5.420
REMARK SMILES CCCCCCCCCCCCCCCCCCCCCCCCCCCC(=O)[O-]
REMARK SMILES IDX 15 1 16 2 17 3 18 4 19 5 20 6 21 7 22 8 23 9 24 10 25 11
REMARK SMILES IDX 26 12 27 13 28 14 29 15 30 16 14 17 13 18 12 19 11 20 10 21
REMARK SMILES IDX 9 22 8 23 7 24 6 25 5 26 4 27 3 28 2 29 1 30
REMARK H PARENT
REMARK Flexibility Score: inf
ROOT
ATOM      1  C   UNL     1      10.541 -23.781  40.384  1.00  0.00     0.000 C 
ENDROOT
BRANCH   1   2
ATOM      2  C   UNL     1      10.573 -22.376  41.016  1.00  0.00     0.000 C 
BRANCH   2   3
ATOM      3  C   UNL     1      11.997 -21.817  41.226  1.00  0.00     0.000 C 
BRANCH   3   4
ATOM      4  C   UNL     1      12.621 -22.269  42.558  1.00  0.00     0.000 C 
BRANCH   4   5
ATOM      5  C   UNL     1      14.142 -22.470  42.450  1.00  0.00     0.000 C 
BRANCH   5   6
ATOM      6  C   UNL     1      14.525 -23.441  41.318  1.00  0.00     0.000 C 
BRANCH   6   7
ATOM      7  C   UNL     1      15.478 -24.558  41.795  1.00  0.00     0.000 C 
BRANCH   7   8
ATOM      8  C   UNL     1      15.493 -25.802  40.885  1.00  0.00     0.000 C 
BRANCH   8   9
ATOM      9  C   UNL     1      14.994 -27.102  41.540  1.00  0.00     0.000 C 
BRANCH   9  10
ATOM     10  C   UNL     1      13.765 -27.694  40.824  1.00  0.00     0.000 C 
BRANCH  10  11
ATOM     11  C   UNL     1      12.854 -26.617  40.203  1.00  0.00     0.000 C 
BRANCH  11  12
ATOM     12  C   UNL     1      12.278 -26.963  38.815  1.00  0.00     0.006 C 
BRANCH  12  13
ATOM     13  C   UNL     1      13.329 -27.347  37.762  1.00  0.00     0.053 C 
BRANCH  13  14
ATOM     14  C   UNL     1      14.187 -26.181  37.368  1.00  0.00     0.041 C 
ATOM     15  O   UNL     1      15.438 -26.314  37.289  1.00  0.00    -0.550 OA
ATOM     16  O   UNL     1      13.610 -24.941  37.129  1.00  0.00    -0.550 OA
ENDBRANCH  13  14
ENDBRANCH  12  13
ENDBRANCH  11  12
ENDBRANCH  10  11
ENDBRANCH   9  10
ENDBRANCH   8   9
ENDBRANCH   7   8
ENDBRANCH   6   7
ENDBRANCH   5   6
ENDBRANCH   4   5
ENDBRANCH   3   4
ENDBRANCH   2   3
ENDBRANCH   1   2
BRANCH   1  17
ATOM     17  C   UNL     1       9.234 -24.568  40.604  1.00  0.00     0.000 C 
BRANCH  17  18
ATOM     18  C   UNL     1       9.406 -25.933  41.299  1.00  0.00     0.000 C 
BRANCH  18  19
ATOM     19  C   UNL     1       8.153 -26.817  41.194  1.00  0.00     0.000 C 
BRANCH  19  20
ATOM     20  C   UNL     1       8.400 -28.202  41.812  1.00  0.00     0.000 C 
BRANCH  20  21
ATOM     21  C   UNL     1       9.887 -28.448  42.117  1.00  0.00     0.000 C 
BRANCH  21  22
ATOM     22  C   UNL     1      10.350 -29.855  41.696  1.00  0.00    -0.000 C 
BRANCH  22  23
ATOM     23  C   UNL     1      10.631 -29.954  40.187  1.00  0.00    -0.000 C 
BRANCH  23  24
ATOM     24  C   UNL     1      11.452 -31.203  39.822  1.00  0.00    -0.000 C 
BRANCH  24  25
ATOM     25  C   UNL     1      12.955 -30.897  39.627  1.00  0.00    -0.000 C 
BRANCH  25  26
ATOM     26  C   UNL     1      13.872 -31.630  40.624  1.00  0.00    -0.000 C 
BRANCH  26  27
ATOM     27  C   UNL     1      13.444 -31.507  42.097  1.00  0.00    -0.000 C 
BRANCH  27  28
ATOM     28  C   UNL     1      14.351 -30.570  42.927  1.00  0.00    -0.000 C 
BRANCH  28  29
ATOM     29  C   UNL     1      13.576 -29.792  44.000  1.00  0.00    -0.003 C 
ATOM     30  C   UNL     1      12.391 -30.601  44.522  1.00  0.00     0.004 C 
ENDBRANCH  28  29
ENDBRANCH  27  28
ENDBRANCH  26  27
ENDBRANCH  25  26
ENDBRANCH  24  25
ENDBRANCH  23  24
ENDBRANCH  22  23
ENDBRANCH  21  22
ENDBRANCH  20  21
ENDBRANCH  19  20
ENDBRANCH  18  19
ENDBRANCH  17  18
ENDBRANCH   1  17
TORSDOF 26
ENDMDL
MODEL 7
REMARK VINA RESULT:    -3.751      2.060      7.285
REMARK INTER + INTRA:         -14.873
REMARK INTER:                  -9.979
REMARK INTRA:                  -4.894
REMARK UNBOUND:                -5.420
REMARK SMILES CCCCCCCCCCCCCCCCCCCCCCCCCCCC(=O)[O-]
REMARK SMILES IDX 15 1 16 2 17 3 18 4 19 5 20 6 21 7 22 8 23 9 24 10 25 11
REMARK SMILES IDX 26 12 27 13 28 14 29 15 30 16 14 17 13 18 12 19 11 20 10 21
REMARK SMILES IDX 9 22 8 23 7 24 6 25 5 26 4 27 3 28 2 29 1 30
REMARK H PARENT
REMARK Flexibility Score: inf
ROOT
ATOM      1  C   UNL     1      13.935 -25.666  37.762  1.00  0.00     0.000 C 
ENDROOT
BRANCH   1   2
ATOM      2  C   UNL     1      13.378 -24.463  38.550  1.00  0.00     0.000 C 
BRANCH   2   3
ATOM      3  C   UNL     1      14.252 -24.046  39.753  1.00  0.00     0.000 C 
BRANCH   3   4
ATOM      4  C   UNL     1      13.511 -24.173  41.096  1.00  0.00     0.000 C 
BRANCH   4   5
ATOM      5  C   UNL     1      13.362 -22.818  41.809  1.00  0.00     0.000 C 
BRANCH   5   6
ATOM      6  C   UNL     1      11.888 -22.437  42.039  1.00  0.00     0.000 C 
BRANCH   6   7
ATOM      7  C   UNL     1      11.113 -22.244  40.717  1.00  0.00     0.000 C 
BRANCH   7   8
ATOM      8  C   UNL     1       9.722 -22.909  40.701  1.00  0.00     0.000 C 
BRANCH   8   9
ATOM      9  C   UNL     1       9.671 -24.312  40.071  1.00  0.00     0.000 C 
BRANCH   9  10
ATOM     10  C   UNL     1       9.003 -25.352  40.990  1.00  0.00     0.000 C 
BRANCH  10  11
ATOM     11  C   UNL     1       9.989 -26.412  41.516  1.00  0.00     0.000 C 
BRANCH  11  12
ATOM     12  C   UNL     1      11.209 -26.683  40.612  1.00  0.00     0.006 C 
BRANCH  12  13
ATOM     13  C   UNL     1      11.203 -28.056  39.921  1.00  0.00     0.053 C 
BRANCH  13  14
ATOM     14  C   UNL     1      10.631 -27.988  38.536  1.00  0.00     0.041 C 
ATOM     15  O   UNL     1      10.141 -29.019  38.002  1.00  0.00    -0.550 OA
ATOM     16  O   UNL     1      10.677 -26.798  37.820  1.00  0.00    -0.550 OA
ENDBRANCH  13  14
ENDBRANCH  12  13
ENDBRANCH  11  12
ENDBRANCH  10  11
ENDBRANCH   9  10
ENDBRANCH   8   9
ENDBRANCH   7   8
ENDBRANCH   6   7
ENDBRANCH   5   6
ENDBRANCH   4   5
ENDBRANCH   3   4
ENDBRANCH   2   3
ENDBRANCH   1   2
BRANCH   1  17
ATOM     17  C   UNL     1      15.425 -25.975  38.008  1.00  0.00     0.000 C 
BRANCH  17  18
ATOM     18  C   UNL     1      15.744 -27.456  38.290  1.00  0.00     0.000 C 
BRANCH  18  19
ATOM     19  C   UNL     1      14.848 -28.062  39.382  1.00  0.00     0.000 C 
BRANCH  19  20
ATOM     20  C   UNL     1      15.245 -27.545  40.773  1.00  0.00     0.000 C 
BRANCH  20  21
ATOM     21  C   UNL     1      14.494 -28.270  41.902  1.00  0.00     0.000 C 
BRANCH  21  22
ATOM     22  C   UNL     1      15.252 -28.222  43.241  1.00  0.00    -0.000 C 
BRANCH  22  23
ATOM     23  C   UNL     1      14.561 -29.051  44.337  1.00  0.00    -0.000 C 
BRANCH  23  24
ATOM     24  C   UNL     1      13.158 -29.526  43.918  1.00  0.00    -0.000 C 
BRANCH  24  25
ATOM     25  C   UNL     1      12.927 -31.029  44.195  1.00  0.00    -0.000 C 
BRANCH  25  26
ATOM     26  C   UNL     1      14.211 -31.876  44.133  1.00  0.00    -0.000 C 
BRANCH  26  27
ATOM     27  C   UNL     1      14.603 -32.343  42.719  1.00  0.00    -0.000 C 
BRANCH  27  28
ATOM     28  C   UNL     1      13.448 -32.245  41.695  1.00  0.00    -0.000 C 
BRANCH  28  29
ATOM     29  C   UNL     1      13.862 -31.526  40.404  1.00  0.00    -0.003 C 
ATOM     30  C   UNL     1      12.680 -31.381  39.448  1.00  0.00     0.004 C 
ENDBRANCH  28  29
ENDBRANCH  27  28
ENDBRANCH  26  27
ENDBRANCH  25  26
ENDBRANCH  24  25
ENDBRANCH  23  24
ENDBRANCH  22  23
ENDBRANCH  21  22
ENDBRANCH  20  21
ENDBRANCH  19  20
ENDBRANCH  18  19
ENDBRANCH  17  18
ENDBRANCH   1  17
TORSDOF 26
ENDMDL
MODEL 8
REMARK VINA RESULT:    -3.737      2.407      6.766
REMARK INTER + INTRA:         -14.837
REMARK INTER:                  -9.385
REMARK INTRA:                  -5.452
REMARK UNBOUND:                -5.420
REMARK SMILES CCCCCCCCCCCCCCCCCCCCCCCCCCCC(=O)[O-]
REMARK SMILES IDX 15 1 16 2 17 3 18 4 19 5 20 6 21 7 22 8 23 9 24 10 25 11
REMARK SMILES IDX 26 12 27 13 28 14 29 15 30 16 14 17 13 18 12 19 11 20 10 21
REMARK SMILES IDX 9 22 8 23 7 24 6 25 5 26 4 27 3 28 2 29 1 30
REMARK H PARENT
REMARK Flexibility Score: inf
ROOT
ATOM      1  C   UNL     1       9.708 -22.956  40.627  1.00  0.00     0.000 C 
ENDROOT
BRANCH   1   2
ATOM      2  C   UNL     1      10.090 -24.376  40.164  1.00  0.00     0.000 C 
BRANCH   2   3
ATOM      3  C   UNL     1       9.772 -25.477  41.199  1.00  0.00     0.000 C 
BRANCH   3   4
ATOM      4  C   UNL     1       8.336 -26.016  41.069  1.00  0.00     0.000 C 
BRANCH   4   5
ATOM      5  C   UNL     1       8.294 -27.553  41.018  1.00  0.00     0.000 C 
BRANCH   5   6
ATOM      6  C   UNL     1       9.030 -28.198  42.206  1.00  0.00     0.000 C 
BRANCH   6   7
ATOM      7  C   UNL     1       9.383 -29.679  41.949  1.00  0.00     0.000 C 
BRANCH   7   8
ATOM      8  C   UNL     1       8.943 -30.199  40.566  1.00  0.00     0.000 C 
BRANCH   8   9
ATOM      9  C   UNL     1       9.573 -31.535  40.135  1.00  0.00     0.000 C 
BRANCH   9  10
ATOM     10  C   UNL     1      10.080 -31.511  38.681  1.00  0.00     0.000 C 
BRANCH  10  11
ATOM     11  C   UNL     1      11.533 -32.005  38.542  1.00  0.00     0.000 C 
BRANCH  11  12
ATOM     12  C   UNL     1      12.162 -32.571  39.832  1.00  0.00     0.006 C 
BRANCH  12  13
ATOM     13  C   UNL     1      13.459 -31.875  40.272  1.00  0.00     0.053 C 
BRANCH  13  14
ATOM     14  C   UNL     1      13.597 -31.831  41.765  1.00  0.00     0.041 C 
ATOM     15  O   UNL     1      12.725 -31.247  42.464  1.00  0.00    -0.550 OA
ATOM     16  O   UNL     1      14.706 -32.397  42.380  1.00  0.00    -0.550 OA
ENDBRANCH  13  14
ENDBRANCH  12  13
ENDBRANCH  11  12
ENDBRANCH  10  11
ENDBRANCH   9  10
ENDBRANCH   8   9
ENDBRANCH   7   8
ENDBRANCH   6   7
ENDBRANCH   5   6
ENDBRANCH   4   5
ENDBRANCH   3   4
ENDBRANCH   2   3
ENDBRANCH   1   2
BRANCH   1  17
ATOM     17  C   UNL     1      10.820 -22.189  41.369  1.00  0.00     0.000 C 
BRANCH  17  18
ATOM     18  C   UNL     1      12.154 -22.076  40.606  1.00  0.00     0.000 C 
BRANCH  18  19
ATOM     19  C   UNL     1      13.372 -22.419  41.478  1.00  0.00     0.000 C 
BRANCH  19  20
ATOM     20  C   UNL     1      14.383 -23.278  40.704  1.00  0.00     0.000 C 
BRANCH  20  21
ATOM     21  C   UNL     1      13.761 -24.585  40.184  1.00  0.00     0.000 C 
BRANCH  21  22
ATOM     22  C   UNL     1      14.074 -24.837  38.698  1.00  0.00    -0.000 C 
BRANCH  22  23
ATOM     23  C   UNL     1      14.872 -26.133  38.478  1.00  0.00    -0.000 C 
BRANCH  23  24
ATOM     24  C   UNL     1      15.499 -26.666  39.778  1.00  0.00    -0.000 C 
BRANCH  24  25
ATOM     25  C   UNL     1      15.002 -28.083  40.147  1.00  0.00    -0.000 C 
BRANCH  25  26
ATOM     26  C   UNL     1      14.084 -28.116  41.383  1.00  0.00    -0.000 C 
BRANCH  26  27
ATOM     27  C   UNL     1      12.584 -27.965  41.071  1.00  0.00    -0.000 C 
BRANCH  27  28
ATOM     28  C   UNL     1      12.161 -28.630  39.742  1.00  0.00    -0.000 C 
BRANCH  28  29
ATOM     29  C   UNL     1      11.462 -27.652  38.786  1.00  0.00    -0.003 C 
ATOM     30  C   UNL     1      11.854 -27.922  37.335  1.00  0.00     0.004 C 
ENDBRANCH  28  29
ENDBRANCH  27  28
ENDBRANCH  26  27
ENDBRANCH  25  26
ENDBRANCH  24  25
ENDBRANCH  23  24
ENDBRANCH  22  23
ENDBRANCH  21  22
ENDBRANCH  20  21
ENDBRANCH  19  20
ENDBRANCH  18  19
ENDBRANCH  17  18
ENDBRANCH   1  17
TORSDOF 26
ENDMDL
MODEL 9
REMARK VINA RESULT:    -3.727      3.293      6.654
REMARK INTER + INTRA:         -14.812
REMARK INTER:                  -9.347
REMARK INTRA:                  -5.466
REMARK UNBOUND:                -5.420
REMARK SMILES CCCCCCCCCCCCCCCCCCCCCCCCCCCC(=O)[O-]
REMARK SMILES IDX 15 1 16 2 17 3 18 4 19 5 20 6 21 7 22 8 23 9 24 10 25 11
REMARK SMILES IDX 26 12 27 13 28 14 29 15 30 16 14 17 13 18 12 19 11 20 10 21
REMARK SMILES IDX 9 22 8 23 7 24 6 25 5 26 4 27 3 28 2 29 1 30
REMARK H PARENT
REMARK Flexibility Score: inf
ROOT
ATOM      1  C   UNL     1      13.606 -28.675  38.052  1.00  0.00     0.000 C 
ENDROOT
BRANCH   1   2
ATOM      2  C   UNL     1      14.886 -27.950  38.517  1.00  0.00     0.000 C 
BRANCH   2   3
ATOM      3  C   UNL     1      15.205 -28.147  40.014  1.00  0.00     0.000 C 
BRANCH   3   4
ATOM      4  C   UNL     1      14.985 -26.868  40.841  1.00  0.00     0.000 C 
BRANCH   4   5
ATOM      5  C   UNL     1      14.784 -25.628  39.953  1.00  0.00     0.000 C 
BRANCH   5   6
ATOM      6  C   UNL     1      13.451 -24.914  40.239  1.00  0.00     0.000 C 
BRANCH   6   7
ATOM      7  C   UNL     1      12.379 -25.211  39.168  1.00  0.00     0.000 C 
BRANCH   7   8
ATOM      8  C   UNL     1      11.245 -26.134  39.655  1.00  0.00     0.000 C 
BRANCH   8   9
ATOM      9  C   UNL     1       9.848 -25.490  39.703  1.00  0.00     0.000 C 
BRANCH   9  10
ATOM     10  C   UNL     1       9.687 -24.507  40.878  1.00  0.00     0.000 C 
BRANCH  10  11
ATOM     11  C   UNL     1       9.824 -23.032  40.451  1.00  0.00     0.000 C 
BRANCH  11  12
ATOM     12  C   UNL     1      10.944 -22.243  41.159  1.00  0.00     0.006 C 
BRANCH  12  13
ATOM     13  C   UNL     1      11.310 -22.763  42.558  1.00  0.00     0.053 C 
BRANCH  13  14
ATOM     14  C   UNL     1      12.619 -22.212  43.041  1.00  0.00     0.041 C 
ATOM     15  O   UNL     1      12.924 -22.283  44.262  1.00  0.00    -0.550 OA
ATOM     16  O   UNL     1      13.481 -21.585  42.151  1.00  0.00    -0.550 OA
ENDBRANCH  13  14
ENDBRANCH  12  13
ENDBRANCH  11  12
ENDBRANCH  10  11
ENDBRANCH   9  10
ENDBRANCH   8   9
ENDBRANCH   7   8
ENDBRANCH   6   7
ENDBRANCH   5   6
ENDBRANCH   4   5
ENDBRANCH   3   4
ENDBRANCH   2   3
ENDBRANCH   1   2
BRANCH   1  17
ATOM     17  C   UNL     1      12.842 -29.427  39.159  1.00  0.00     0.000 C 
BRANCH  17  18
ATOM     18  C   UNL     1      12.323 -30.821  38.759  1.00  0.00     0.000 C 
BRANCH  18  19
ATOM     19  C   UNL     1      12.585 -31.886  39.837  1.00  0.00     0.000 C 
BRANCH  19  20
ATOM     20  C   UNL     1      13.871 -31.577  40.619  1.00  0.00     0.000 C 
BRANCH  20  21
ATOM     21  C   UNL     1      13.646 -31.591  42.140  1.00  0.00     0.000 C 
BRANCH  21  22
ATOM     22  C   UNL     1      13.995 -30.244  42.800  1.00  0.00    -0.000 C 
BRANCH  22  23
ATOM     23  C   UNL     1      12.751 -29.510  43.328  1.00  0.00    -0.000 C 
BRANCH  23  24
ATOM     24  C   UNL     1      12.021 -28.721  42.227  1.00  0.00    -0.000 C 
BRANCH  24  25
ATOM     25  C   UNL     1      10.492 -28.955  42.234  1.00  0.00    -0.000 C 
BRANCH  25  26
ATOM     26  C   UNL     1      10.079 -30.371  41.791  1.00  0.00    -0.000 C 
BRANCH  26  27
ATOM     27  C   UNL     1       8.610 -30.500  41.349  1.00  0.00    -0.000 C 
BRANCH  27  28
ATOM     28  C   UNL     1       8.425 -30.487  39.814  1.00  0.00    -0.000 C 
BRANCH  28  29
ATOM     29  C   UNL     1       8.303 -29.067  39.244  1.00  0.00    -0.003 C 
ATOM     30  C   UNL     1       9.280 -28.847  38.092  1.00  0.00     0.004 C 
ENDBRANCH  28  29
ENDBRANCH  27  28
ENDBRANCH  26  27
ENDBRANCH  25  26
ENDBRANCH  24  25
ENDBRANCH  23  24
ENDBRANCH  22  23
ENDBRANCH  21  22
ENDBRANCH  20  21
ENDBRANCH  19  20
ENDBRANCH  18  19
ENDBRANCH  17  18
ENDBRANCH   1  17
TORSDOF 26
ENDMDL
