MODEL 1
REMARK VINA RESULT:    -4.342      0.000      0.000
REMARK INTER + INTRA:          -8.385
REMARK INTER:                  -6.881
REMARK INTRA:                  -1.505
REMARK UNBOUND:                -1.505
REMARK SMILES CCCCCCCCCCCC(=O)[O-]
REMARK SMILES IDX 7 1 8 2 9 3 10 4 11 5 12 6 13 7 14 8 6 9 5 10 4 11 3 12 2 13
REMARK SMILES IDX 1 14
REMARK H PARENT
REMARK Flexibility Score: inf
ROOT
ATOM      1  C   UNL     1      33.942   7.721   9.190  1.00  0.00     0.000 C 
ENDROOT
BRANCH   1   2
ATOM      2  C   UNL     1      33.372   7.768  10.621  1.00  0.00     0.000 C 
BRANCH   2   3
ATOM      3  C   UNL     1      34.345   7.320  11.731  1.00  0.00     0.000 C 
BRANCH   3   4
ATOM      4  C   UNL     1      35.820   7.682  11.484  1.00  0.00     0.006 C 
BRANCH   4   5
ATOM      5  C   UNL     1      36.753   6.468  11.572  1.00  0.00     0.053 C 
BRANCH   5   6
ATOM      6  C   UNL     1      38.048   6.752  10.878  1.00  0.00     0.041 C 
ATOM      7  O   UNL     1      38.062   7.018   9.646  1.00  0.00    -0.550 OA
ATOM      8  O   UNL     1      39.244   6.674  11.578  1.00  0.00    -0.550 OA
ENDBRANCH   5   6
ENDBRANCH   4   5
ENDBRANCH   3   4
ENDBRANCH   2   3
ENDBRANCH   1   2
BRANCH   1   9
ATOM      9  C   UNL     1      33.788   6.369   8.472  1.00  0.00     0.000 C 
BRANCH   9  10
ATOM     10  C   UNL     1      35.092   5.558   8.444  1.00  0.00    -0.000 C 
BRANCH  10  11
ATOM     11  C   UNL     1      34.923   4.222   9.180  1.00  0.00    -0.000 C 
BRANCH  11  12
ATOM     12  C   UNL     1      33.516   4.095   9.774  1.00  0.00    -0.000 C 
BRANCH  12  13
ATOM     13  C   UNL     1      33.515   3.166  10.993  1.00  0.00    -0.003 C 
ATOM     14  C   UNL     1      33.011   3.890  12.238  1.00  0.00     0.004 C 
ENDBRANCH  12  13
ENDBRANCH  11  12
ENDBRANCH  10  11
ENDBRANCH   9  10
ENDBRANCH   1   9
TORSDOF 10
ENDMDL
MODEL 2
REMARK VINA RESULT:    -4.332      2.497      4.566
REMARK INTER + INTRA:          -8.370
REMARK INTER:                  -6.839
REMARK INTRA:                  -1.531
REMARK UNBOUND:                -1.505
REMARK SMILES CCCCCCCCCCCC(=O)[O-]
REMARK SMILES IDX 7 1 8 2 9 3 10 4 11 5 12 6 13 7 14 8 6 9 5 10 4 11 3 12 2 13
REMARK SMILES IDX 1 14
REMARK H PARENT
REMARK Flexibility Score: inf
ROOT
ATOM      1  C   UNL     1      34.987   5.401   8.434  1.00  0.00     0.000 C 
ENDROOT
BRANCH   1   2
ATOM      2  C   UNL     1      34.847   4.204   9.394  1.00  0.00     0.000 C 
BRANCH   2   3
ATOM      3  C   UNL     1      33.431   3.977   9.959  1.00  0.00     0.000 C 
BRANCH   3   4
ATOM      4  C   UNL     1      33.386   3.341  11.360  1.00  0.00     0.006 C 
BRANCH   4   5
ATOM      5  C   UNL     1      32.954   4.331  12.450  1.00  0.00     0.053 C 
BRANCH   5   6
ATOM      6  C   UNL     1      33.740   4.105  13.703  1.00  0.00     0.041 C 
ATOM      7  O   UNL     1      33.590   3.041  14.362  1.00  0.00    -0.550 OA
ATOM      8  O   UNL     1      34.601   5.089  14.171  1.00  0.00    -0.550 OA
ENDBRANCH   5   6
ENDBRANCH   4   5
ENDBRANCH   3   4
ENDBRANCH   2   3
ENDBRANCH   1   2
BRANCH   1   9
ATOM      9  C   UNL     1      33.815   6.399   8.464  1.00  0.00     0.000 C 
BRANCH   9  10
ATOM     10  C   UNL     1      34.137   7.671   9.261  1.00  0.00    -0.000 C 
BRANCH  10  11
ATOM     11  C   UNL     1      33.469   7.635  10.642  1.00  0.00    -0.000 C 
BRANCH  11  12
ATOM     12  C   UNL     1      34.517   7.568  11.759  1.00  0.00    -0.000 C 
BRANCH  12  13
ATOM     13  C   UNL     1      35.936   7.657  11.188  1.00  0.00    -0.003 C 
ATOM     14  C   UNL     1      36.789   6.475  11.641  1.00  0.00     0.004 C 
ENDBRANCH  12  13
ENDBRANCH  11  12
ENDBRANCH  10  11
ENDBRANCH   9  10
ENDBRANCH   1   9
TORSDOF 10
ENDMDL
MODEL 3
REMARK VINA RESULT:    -4.293      2.278      4.735
REMARK INTER + INTRA:          -8.308
REMARK INTER:                  -6.735
REMARK INTRA:                  -1.573
REMARK UNBOUND:                -1.505
REMARK SMILES CCCCCCCCCCCC(=O)[O-]
REMARK SMILES IDX 7 1 8 2 9 3 10 4 11 5 12 6 13 7 14 8 6 9 5 10 4 11 3 12 2 13
REMARK SMILES IDX 1 14
REMARK H PARENT
REMARK Flexibility Score: inf
ROOT
ATOM      1  C   UNL     1      34.036   4.683  13.398  1.00  0.00     0.000 C 
ENDROOT
BRANCH   1   2
ATOM      2  C   UNL     1      32.534   4.856  13.096  1.00  0.00     0.000 C 
BRANCH   2   3
ATOM      3  C   UNL     1      32.157   4.826  11.601  1.00  0.00     0.000 C 
BRANCH   3   4
ATOM      4  C   UNL     1      32.998   3.867  10.740  1.00  0.00     0.006 C 
BRANCH   4   5
ATOM      5  C   UNL     1      32.791   4.082   9.235  1.00  0.00     0.053 C 
BRANCH   5   6
ATOM      6  C   UNL     1      33.920   4.878   8.660  1.00  0.00     0.041 C 
ATOM      7  O   UNL     1      35.107   4.475   8.784  1.00  0.00    -0.550 OA
ATOM      8  O   UNL     1      33.666   6.091   8.032  1.00  0.00    -0.550 OA
ENDBRANCH   5   6
ENDBRANCH   4   5
ENDBRANCH   3   4
ENDBRANCH   2   3
ENDBRANCH   1   2
BRANCH   1   9
ATOM      9  C   UNL     1      34.862   5.981  13.350  1.00  0.00     0.000 C 
BRANCH   9  10
ATOM     10  C   UNL     1      35.637   6.145  12.035  1.00  0.00    -0.000 C 
BRANCH  10  11
ATOM     11  C   UNL     1      35.058   7.293  11.197  1.00  0.00    -0.000 C 
BRANCH  11  12
ATOM     12  C   UNL     1      34.183   8.214  12.056  1.00  0.00    -0.000 C 
BRANCH  12  13
ATOM     13  C   UNL     1      32.788   8.377  11.442  1.00  0.00    -0.003 C 
ATOM     14  C   UNL     1      31.714   8.452  12.524  1.00  0.00     0.004 C 
ENDBRANCH  12  13
ENDBRANCH  11  12
ENDBRANCH  10  11
ENDBRANCH   9  10
ENDBRANCH   1   9
TORSDOF 10
ENDMDL
MODEL 4
REMARK VINA RESULT:    -4.286      3.026      4.418
REMARK INTER + INTRA:          -8.296
REMARK INTER:                  -6.719
REMARK INTRA:                  -1.576
REMARK UNBOUND:                -1.505
REMARK SMILES CCCCCCCCCCCC(=O)[O-]
REMARK SMILES IDX 7 1 8 2 9 3 10 4 11 5 12 6 13 7 14 8 6 9 5 10 4 11 3 12 2 13
REMARK SMILES IDX 1 14
REMARK H PARENT
REMARK Flexibility Score: inf
ROOT
ATOM      1  C   UNL     1      33.536   4.770  13.091  1.00  0.00     0.000 C 
ENDROOT
BRANCH   1   2
ATOM      2  C   UNL     1      34.707   5.745  13.324  1.00  0.00     0.000 C 
BRANCH   2   3
ATOM      3  C   UNL     1      35.239   6.446  12.058  1.00  0.00     0.000 C 
BRANCH   3   4
ATOM      4  C   UNL     1      34.730   7.883  11.850  1.00  0.00     0.006 C 
BRANCH   4   5
ATOM      5  C   UNL     1      33.329   7.934  11.226  1.00  0.00     0.053 C 
BRANCH   5   6
ATOM      6  C   UNL     1      32.382   8.663  12.126  1.00  0.00     0.041 C 
ATOM      7  O   UNL     1      31.953   9.803  11.804  1.00  0.00    -0.550 OA
ATOM      8  O   UNL     1      32.012   8.107  13.343  1.00  0.00    -0.550 OA
ENDBRANCH   5   6
ENDBRANCH   4   5
ENDBRANCH   3   4
ENDBRANCH   2   3
ENDBRANCH   1   2
BRANCH   1   9
ATOM      9  C   UNL     1      33.589   3.995  11.762  1.00  0.00     0.000 C 
BRANCH   9  10
ATOM     10  C   UNL     1      32.417   4.332  10.830  1.00  0.00    -0.000 C 
BRANCH  10  11
ATOM     11  C   UNL     1      32.856   4.291   9.360  1.00  0.00    -0.000 C 
BRANCH  11  12
ATOM     12  C   UNL     1      34.381   4.188   9.244  1.00  0.00    -0.000 C 
BRANCH  12  13
ATOM     13  C   UNL     1      34.957   5.384   8.479  1.00  0.00    -0.003 C 
ATOM     14  C   UNL     1      33.846   6.278   7.935  1.00  0.00     0.004 C 
ENDBRANCH  12  13
ENDBRANCH  11  12
ENDBRANCH  10  11
ENDBRANCH   9  10
ENDBRANCH   1   9
TORSDOF 10
ENDMDL
MODEL 5
REMARK VINA RESULT:    -4.276      2.721      4.648
REMARK INTER + INTRA:          -8.280
REMARK INTER:                  -6.944
REMARK INTRA:                  -1.336
REMARK UNBOUND:                -1.505
REMARK SMILES CCCCCCCCCCCC(=O)[O-]
REMARK SMILES IDX 7 1 8 2 9 3 10 4 11 5 12 6 13 7 14 8 6 9 5 10 4 11 3 12 2 13
REMARK SMILES IDX 1 14
REMARK H PARENT
REMARK Flexibility Score: inf
ROOT
ATOM      1  C   UNL     1      35.015   4.345   9.283  1.00  0.00     0.000 C 
ENDROOT
BRANCH   1   2
ATOM      2  C   UNL     1      33.482   4.193   9.244  1.00  0.00     0.000 C 
BRANCH   2   3
ATOM      3  C   UNL     1      32.758   4.502  10.570  1.00  0.00     0.000 C 
BRANCH   3   4
ATOM      4  C   UNL     1      33.222   3.663  11.773  1.00  0.00     0.006 C 
BRANCH   4   5
ATOM      5  C   UNL     1      32.841   4.290  13.120  1.00  0.00     0.053 C 
BRANCH   5   6
ATOM      6  C   UNL     1      33.863   3.957  14.160  1.00  0.00     0.041 C 
ATOM      7  O   UNL     1      34.731   4.807  14.491  1.00  0.00    -0.550 OA
ATOM      8  O   UNL     1      33.888   2.690  14.729  1.00  0.00    -0.550 OA
ENDBRANCH   5   6
ENDBRANCH   4   5
ENDBRANCH   3   4
ENDBRANCH   2   3
ENDBRANCH   1   2
BRANCH   1   9
ATOM      9  C   UNL     1      35.523   5.795   9.372  1.00  0.00     0.000 C 
BRANCH   9  10
ATOM     10  C   UNL     1      36.070   6.150  10.761  1.00  0.00    -0.000 C 
BRANCH  10  11
ATOM     11  C   UNL     1      35.605   7.547  11.193  1.00  0.00    -0.000 C 
BRANCH  11  12
ATOM     12  C   UNL     1      34.417   7.457  12.159  1.00  0.00    -0.000 C 
BRANCH  12  13
ATOM     13  C   UNL     1      33.158   8.075  11.542  1.00  0.00    -0.003 C 
ATOM     14  C   UNL     1      32.021   8.140  12.557  1.00  0.00     0.004 C 
ENDBRANCH  12  13
ENDBRANCH  11  12
ENDBRANCH  10  11
ENDBRANCH   9  10
ENDBRANCH   1   9
TORSDOF 10
ENDMDL
MODEL 6
REMARK VINA RESULT:    -4.268      3.035      5.141
REMARK INTER + INTRA:          -8.268
REMARK INTER:                  -6.765
REMARK INTRA:                  -1.503
REMARK UNBOUND:                -1.505
REMARK SMILES CCCCCCCCCCCC(=O)[O-]
REMARK SMILES IDX 7 1 8 2 9 3 10 4 11 5 12 6 13 7 14 8 6 9 5 10 4 11 3 12 2 13
REMARK SMILES IDX 1 14
REMARK H PARENT
REMARK Flexibility Score: inf
ROOT
ATOM      1  C   UNL     1      32.734   5.213  12.210  1.00  0.00     0.000 C 
ENDROOT
BRANCH   1   2
ATOM      2  C   UNL     1      32.628   4.465  10.867  1.00  0.00     0.000 C 
BRANCH   2   3
ATOM      3  C   UNL     1      33.942   3.834  10.362  1.00  0.00     0.000 C 
BRANCH   3   4
ATOM      4  C   UNL     1      34.490   4.435   9.056  1.00  0.00     0.006 C 
BRANCH   4   5
ATOM      5  C   UNL     1      33.507   5.406   8.389  1.00  0.00     0.053 C 
BRANCH   5   6
ATOM      6  C   UNL     1      32.880   4.773   7.188  1.00  0.00     0.041 C 
ATOM      7  O   UNL     1      32.879   5.376   6.081  1.00  0.00    -0.550 OA
ATOM      8  O   UNL     1      32.251   3.540   7.300  1.00  0.00    -0.550 OA
ENDBRANCH   5   6
ENDBRANCH   4   5
ENDBRANCH   3   4
ENDBRANCH   2   3
ENDBRANCH   1   2
BRANCH   1   9
ATOM      9  C   UNL     1      32.149   6.637  12.210  1.00  0.00     0.000 C 
BRANCH   9  10
ATOM     10  C   UNL     1      32.998   7.628  11.402  1.00  0.00    -0.000 C 
BRANCH  10  11
ATOM     11  C   UNL     1      34.380   7.815  12.041  1.00  0.00    -0.000 C 
BRANCH  11  12
ATOM     12  C   UNL     1      35.497   7.560  11.022  1.00  0.00    -0.000 C 
BRANCH  12  13
ATOM     13  C   UNL     1      36.451   6.466  11.514  1.00  0.00    -0.003 C 
ATOM     14  C   UNL     1      37.727   6.430  10.677  1.00  0.00     0.004 C 
ENDBRANCH  12  13
ENDBRANCH  11  12
ENDBRANCH  10  11
ENDBRANCH   9  10
ENDBRANCH   1   9
TORSDOF 10
ENDMDL
MODEL 7
REMARK VINA RESULT:    -4.134      1.204      2.872
REMARK INTER + INTRA:          -8.055
REMARK INTER:                  -6.662
REMARK INTRA:                  -1.393
REMARK UNBOUND:                -1.505
REMARK SMILES CCCCCCCCCCCC(=O)[O-]
REMARK SMILES IDX 7 1 8 2 9 3 10 4 11 5 12 6 13 7 14 8 6 9 5 10 4 11 3 12 2 13
REMARK SMILES IDX 1 14
REMARK H PARENT
REMARK Flexibility Score: inf
ROOT
ATOM      1  C   UNL     1      31.844   5.800  12.294  1.00  0.00     0.000 C 
ENDROOT
BRANCH   1   2
ATOM      2  C   UNL     1      32.564   7.151  12.478  1.00  0.00     0.000 C 
BRANCH   2   3
ATOM      3  C   UNL     1      33.696   7.434  11.470  1.00  0.00     0.000 C 
BRANCH   3   4
ATOM      4  C   UNL     1      35.110   7.090  11.970  1.00  0.00     0.006 C 
BRANCH   4   5
ATOM      5  C   UNL     1      36.214   7.636  11.055  1.00  0.00     0.053 C 
BRANCH   5   6
ATOM      6  C   UNL     1      37.328   6.645  10.932  1.00  0.00     0.041 C 
ATOM      7  O   UNL     1      37.153   5.570  10.298  1.00  0.00    -0.550 OA
ATOM      8  O   UNL     1      38.544   6.884  11.558  1.00  0.00    -0.550 OA
ENDBRANCH   5   6
ENDBRANCH   4   5
ENDBRANCH   3   4
ENDBRANCH   2   3
ENDBRANCH   1   2
BRANCH   1   9
ATOM      9  C   UNL     1      32.459   4.624  13.074  1.00  0.00     0.000 C 
BRANCH   9  10
ATOM     10  C   UNL     1      33.234   3.653  12.172  1.00  0.00    -0.000 C 
BRANCH  10  11
ATOM     11  C   UNL     1      32.817   3.815  10.705  1.00  0.00    -0.000 C 
BRANCH  11  12
ATOM     12  C   UNL     1      34.038   4.042   9.807  1.00  0.00    -0.000 C 
BRANCH  12  13
ATOM     13  C   UNL     1      33.623   4.617   8.448  1.00  0.00    -0.003 C 
ATOM     14  C   UNL     1      34.342   5.931   8.161  1.00  0.00     0.004 C 
ENDBRANCH  12  13
ENDBRANCH  11  12
ENDBRANCH  10  11
ENDBRANCH   9  10
ENDBRANCH   1   9
TORSDOF 10
ENDMDL
MODEL 8
REMARK VINA RESULT:    -4.131      2.716      4.070
REMARK INTER + INTRA:          -8.050
REMARK INTER:                  -6.735
REMARK INTRA:                  -1.316
REMARK UNBOUND:                -1.505
REMARK SMILES CCCCCCCCCCCC(=O)[O-]
REMARK SMILES IDX 7 1 8 2 9 3 10 4 11 5 12 6 13 7 14 8 6 9 5 10 4 11 3 12 2 13
REMARK SMILES IDX 1 14
REMARK H PARENT
REMARK Flexibility Score: inf
ROOT
ATOM      1  C   UNL     1      35.415   7.654  11.135  1.00  0.00     0.000 C 
ENDROOT
BRANCH   1   2
ATOM      2  C   UNL     1      34.177   7.748  12.048  1.00  0.00     0.000 C 
BRANCH   2   3
ATOM      3  C   UNL     1      32.958   6.922  11.589  1.00  0.00     0.000 C 
BRANCH   3   4
ATOM      4  C   UNL     1      32.422   5.925  12.631  1.00  0.00     0.006 C 
BRANCH   4   5
ATOM      5  C   UNL     1      33.020   4.521  12.475  1.00  0.00     0.053 C 
BRANCH   5   6
ATOM      6  C   UNL     1      33.812   4.152  13.689  1.00  0.00     0.041 C 
ATOM      7  O   UNL     1      34.654   4.959  14.166  1.00  0.00    -0.550 OA
ATOM      8  O   UNL     1      33.657   2.899  14.267  1.00  0.00    -0.550 OA
ENDBRANCH   5   6
ENDBRANCH   4   5
ENDBRANCH   3   4
ENDBRANCH   2   3
ENDBRANCH   1   2
BRANCH   1   9
ATOM      9  C   UNL     1      36.354   6.471  11.433  1.00  0.00     0.000 C 
BRANCH   9  10
ATOM     10  C   UNL     1      36.706   5.660  10.178  1.00  0.00    -0.000 C 
BRANCH  10  11
ATOM     11  C   UNL     1      35.492   4.861   9.683  1.00  0.00    -0.000 C 
BRANCH  11  12
ATOM     12  C   UNL     1      35.113   5.265   8.254  1.00  0.00    -0.000 C 
BRANCH  12  13
ATOM     13  C   UNL     1      33.640   5.681   8.172  1.00  0.00    -0.003 C 
ATOM     14  C   UNL     1      32.791   4.583   7.539  1.00  0.00     0.004 C 
ENDBRANCH  12  13
ENDBRANCH  11  12
ENDBRANCH  10  11
ENDBRANCH   9  10
ENDBRANCH   1   9
TORSDOF 10
ENDMDL
MODEL 9
REMARK VINA RESULT:    -4.115      2.495      4.454
REMARK INTER + INTRA:          -8.025
REMARK INTER:                  -6.747
REMARK INTRA:                  -1.278
REMARK UNBOUND:                -1.505
REMARK SMILES CCCCCCCCCCCC(=O)[O-]
REMARK SMILES IDX 7 1 8 2 9 3 10 4 11 5 12 6 13 7 14 8 6 9 5 10 4 11 3 12 2 13
REMARK SMILES IDX 1 14
REMARK H PARENT
REMARK Flexibility Score: inf
ROOT
ATOM      1  C   UNL     1      33.235   4.520   7.866  1.00  0.00     0.000 C 
ENDROOT
BRANCH   1   2
ATOM      2  C   UNL     1      32.653   3.878   9.140  1.00  0.00     0.000 C 
BRANCH   2   3
ATOM      3  C   UNL     1      33.660   3.670  10.289  1.00  0.00     0.000 C 
BRANCH   3   4
ATOM      4  C   UNL     1      33.088   3.895  11.700  1.00  0.00     0.006 C 
BRANCH   4   5
ATOM      5  C   UNL     1      32.333   5.224  11.832  1.00  0.00     0.053 C 
BRANCH   5   6
ATOM      6  C   UNL     1      33.075   6.160  12.733  1.00  0.00     0.041 C 
ATOM      7  O   UNL     1      32.591   7.290  13.009  1.00  0.00    -0.550 OA
ATOM      8  O   UNL     1      34.323   5.806  13.228  1.00  0.00    -0.550 OA
ENDBRANCH   5   6
ENDBRANCH   4   5
ENDBRANCH   3   4
ENDBRANCH   2   3
ENDBRANCH   1   2
BRANCH   1   9
ATOM      9  C   UNL     1      34.413   5.482   8.102  1.00  0.00     0.000 C 
BRANCH   9  10
ATOM     10  C   UNL     1      33.959   6.888   8.519  1.00  0.00    -0.000 C 
BRANCH  10  11
ATOM     11  C   UNL     1      34.692   7.347   9.787  1.00  0.00    -0.000 C 
BRANCH  11  12
ATOM     12  C   UNL     1      35.969   6.529  10.011  1.00  0.00    -0.000 C 
BRANCH  12  13
ATOM     13  C   UNL     1      36.872   7.195  11.056  1.00  0.00    -0.003 C 
ATOM     14  C   UNL     1      38.290   6.634  10.997  1.00  0.00     0.004 C 
ENDBRANCH  12  13
ENDBRANCH  11  12
ENDBRANCH  10  11
ENDBRANCH   9  10
ENDBRANCH   1   9
TORSDOF 10
ENDMDL
