MODEL 1
REMARK VINA RESULT:    -4.929      0.000      0.000
REMARK INTER + INTRA:          -6.268
REMARK INTER:                  -6.081
REMARK INTRA:                  -0.187
REMARK UNBOUND:                -0.187
REMARK SMILES CCCCC=CC(C)=O
REMARK SMILES IDX 4 1 3 2 2 3 1 4 5 5 6 6 7 7 9 8 8 9
REMARK H PARENT
REMARK Flexibility Score: inf
ROOT
ATOM      1  C   UNL     1     -10.402 -34.209 -11.520  1.00  0.00     0.027 C 
ENDROOT
BRANCH   1   2
ATOM      2  C   UNL     1     -11.462 -33.706 -10.532  1.00  0.00     0.004 C 
BRANCH   2   3
ATOM      3  C   UNL     1     -12.849 -33.678 -11.182  1.00  0.00    -0.003 C 
ATOM      4  C   UNL     1     -13.779 -34.706 -10.543  1.00  0.00     0.004 C 
ENDBRANCH   2   3
ENDBRANCH   1   2
BRANCH   1   5
ATOM      5  C   UNL     1     -10.695 -35.617 -11.965  1.00  0.00    -0.023 C 
ATOM      6  C   UNL     1     -10.721 -36.704 -11.175  1.00  0.00     0.042 C 
BRANCH   6   7
ATOM      7  C   UNL     1     -10.516 -36.733  -9.710  1.00  0.00     0.152 C 
ATOM      8  O   UNL     1      -9.430 -36.370  -9.185  1.00  0.00    -0.295 OA
ATOM      9  C   UNL     1     -11.648 -37.140  -8.822  1.00  0.00     0.093 C 
ENDBRANCH   6   7
ENDBRANCH   1   5
TORSDOF 4
ENDMDL
MODEL 2
REMARK VINA RESULT:    -4.700      1.827      3.394
REMARK INTER + INTRA:          -5.986
REMARK INTER:                  -5.546
REMARK INTRA:                  -0.440
REMARK UNBOUND:                -0.187
REMARK SMILES CCCCC=CC(C)=O
REMARK SMILES IDX 4 1 3 2 2 3 1 4 5 5 6 6 7 7 9 8 8 9
REMARK H PARENT
REMARK Flexibility Score: inf
ROOT
ATOM      1  C   UNL     1     -10.385 -36.099 -11.451  1.00  0.00     0.027 C 
ENDROOT
BRANCH   1   2
ATOM      2  C   UNL     1     -10.228 -36.575 -10.001  1.00  0.00     0.004 C 
BRANCH   2   3
ATOM      3  C   UNL     1      -9.626 -35.472  -9.124  1.00  0.00    -0.003 C 
ATOM      4  C   UNL     1      -9.948 -34.088  -9.680  1.00  0.00     0.004 C 
ENDBRANCH   2   3
ENDBRANCH   1   2
BRANCH   1   5
ATOM      5  C   UNL     1     -11.684 -36.574 -12.044  1.00  0.00    -0.023 C 
ATOM      6  C   UNL     1     -12.909 -36.123 -11.722  1.00  0.00     0.042 C 
BRANCH   6   7
ATOM      7  C   UNL     1     -13.226 -35.045 -10.759  1.00  0.00     0.152 C 
ATOM      8  O   UNL     1     -13.375 -35.276  -9.530  1.00  0.00    -0.295 OA
ATOM      9  C   UNL     1     -13.307 -33.633 -11.244  1.00  0.00     0.093 C 
ENDBRANCH   6   7
ENDBRANCH   1   5
TORSDOF 4
ENDMDL
MODEL 3
REMARK VINA RESULT:    -4.627      6.911      8.838
REMARK INTER + INTRA:          -5.896
REMARK INTER:                  -5.879
REMARK INTRA:                  -0.016
REMARK UNBOUND:                -0.187
REMARK SMILES CCCCC=CC(C)=O
REMARK SMILES IDX 4 1 3 2 2 3 1 4 5 5 6 6 7 7 9 8 8 9
REMARK H PARENT
REMARK Flexibility Score: inf
ROOT
ATOM      1  C   UNL     1     -16.800 -38.627  -5.370  1.00  0.00     0.027 C 
ENDROOT
BRANCH   1   2
ATOM      2  C   UNL     1     -15.862 -39.364  -6.334  1.00  0.00     0.004 C 
BRANCH   2   3
ATOM      3  C   UNL     1     -14.395 -39.149  -5.942  1.00  0.00    -0.003 C 
ATOM      4  C   UNL     1     -13.556 -38.739  -7.149  1.00  0.00     0.004 C 
ENDBRANCH   2   3
ENDBRANCH   1   2
BRANCH   1   5
ATOM      5  C   UNL     1     -16.026 -37.819  -4.363  1.00  0.00    -0.023 C 
ATOM      6  C   UNL     1     -16.466 -36.718  -3.730  1.00  0.00     0.042 C 
BRANCH   6   7
ATOM      7  C   UNL     1     -17.807 -36.104  -3.857  1.00  0.00     0.152 C 
ATOM      8  O   UNL     1     -17.955 -34.891  -4.162  1.00  0.00    -0.295 OA
ATOM      9  C   UNL     1     -19.020 -36.961  -3.686  1.00  0.00     0.093 C 
ENDBRANCH   6   7
ENDBRANCH   1   5
TORSDOF 4
ENDMDL
MODEL 4
REMARK VINA RESULT:    -4.607      1.217      2.097
REMARK INTER + INTRA:          -5.871
REMARK INTER:                  -5.839
REMARK INTRA:                  -0.033
REMARK UNBOUND:                -0.187
REMARK SMILES CCCCC=CC(C)=O
REMARK SMILES IDX 4 1 3 2 2 3 1 4 5 5 6 6 7 7 9 8 8 9
REMARK H PARENT
REMARK Flexibility Score: inf
ROOT
ATOM      1  C   UNL     1     -13.361 -35.341 -10.906  1.00  0.00     0.027 C 
ENDROOT
BRANCH   1   2
ATOM      2  C   UNL     1     -13.129 -33.832 -11.051  1.00  0.00     0.004 C 
BRANCH   2   3
ATOM      3  C   UNL     1     -11.634 -33.499 -10.995  1.00  0.00    -0.003 C 
ATOM      4  C   UNL     1     -11.189 -33.194  -9.568  1.00  0.00     0.004 C 
ENDBRANCH   2   3
ENDBRANCH   1   2
BRANCH   1   5
ATOM      5  C   UNL     1     -12.326 -36.128 -11.664  1.00  0.00    -0.023 C 
ATOM      6  C   UNL     1     -11.245 -36.726 -11.133  1.00  0.00     0.042 C 
BRANCH   6   7
ATOM      7  C   UNL     1     -10.878 -36.769  -9.699  1.00  0.00     0.152 C 
ATOM      8  O   UNL     1     -11.603 -37.346  -8.846  1.00  0.00    -0.295 OA
ATOM      9  C   UNL     1      -9.579 -36.172  -9.260  1.00  0.00     0.093 C 
ENDBRANCH   6   7
ENDBRANCH   1   5
TORSDOF 4
ENDMDL
MODEL 5
REMARK VINA RESULT:    -4.569      1.732      3.847
REMARK INTER + INTRA:          -5.825
REMARK INTER:                  -5.650
REMARK INTRA:                  -0.175
REMARK UNBOUND:                -0.187
REMARK SMILES CCCCC=CC(C)=O
REMARK SMILES IDX 4 1 3 2 2 3 1 4 5 5 6 6 7 7 9 8 8 9
REMARK H PARENT
REMARK Flexibility Score: inf
ROOT
ATOM      1  C   UNL     1     -10.815 -36.776  -9.148  1.00  0.00     0.027 C 
ENDROOT
BRANCH   1   2
ATOM      2  C   UNL     1     -12.220 -37.236  -8.737  1.00  0.00     0.004 C 
BRANCH   2   3
ATOM      3  C   UNL     1     -12.149 -38.276  -7.613  1.00  0.00    -0.003 C 
ATOM      4  C   UNL     1     -13.544 -38.690  -7.155  1.00  0.00     0.004 C 
ENDBRANCH   2   3
ENDBRANCH   1   2
BRANCH   1   5
ATOM      5  C   UNL     1     -10.733 -36.529 -10.630  1.00  0.00    -0.023 C 
ATOM      6  C   UNL     1     -11.226 -35.461 -11.281  1.00  0.00     0.042 C 
BRANCH   6   7
ATOM      7  C   UNL     1     -11.905 -34.295 -10.671  1.00  0.00     0.152 C 
ATOM      8  O   UNL     1     -11.289 -33.478  -9.937  1.00  0.00    -0.295 OA
ATOM      9  C   UNL     1     -13.344 -34.040 -10.989  1.00  0.00     0.093 C 
ENDBRANCH   6   7
ENDBRANCH   1   5
TORSDOF 4
ENDMDL
MODEL 6
REMARK VINA RESULT:    -4.317      8.138      8.998
REMARK INTER + INTRA:          -5.514
REMARK INTER:                  -5.053
REMARK INTRA:                  -0.461
REMARK UNBOUND:                -0.187
REMARK SMILES CCCCC=CC(C)=O
REMARK SMILES IDX 4 1 3 2 2 3 1 4 5 5 6 6 7 7 9 8 8 9
REMARK H PARENT
REMARK Flexibility Score: inf
ROOT
ATOM      1  C   UNL     1     -16.017 -37.843  -4.820  1.00  0.00     0.027 C 
ENDROOT
BRANCH   1   2
ATOM      2  C   UNL     1     -16.342 -36.978  -3.595  1.00  0.00     0.004 C 
BRANCH   2   3
ATOM      3  C   UNL     1     -17.353 -35.882  -3.950  1.00  0.00    -0.003 C 
ATOM      4  C   UNL     1     -18.783 -36.412  -3.896  1.00  0.00     0.004 C 
ENDBRANCH   2   3
ENDBRANCH   1   2
BRANCH   1   5
ATOM      5  C   UNL     1     -16.513 -39.253  -4.641  1.00  0.00    -0.023 C 
ATOM      6  C   UNL     1     -17.415 -39.877  -5.418  1.00  0.00     0.042 C 
BRANCH   6   7
ATOM      7  C   UNL     1     -18.066 -39.326  -6.628  1.00  0.00     0.152 C 
ATOM      8  O   UNL     1     -17.475 -39.286  -7.740  1.00  0.00    -0.295 OA
ATOM      9  C   UNL     1     -19.487 -38.865  -6.546  1.00  0.00     0.093 C 
ENDBRANCH   6   7
ENDBRANCH   1   5
TORSDOF 4
ENDMDL
MODEL 7
REMARK VINA RESULT:    -4.314      8.858     10.336
REMARK INTER + INTRA:          -5.510
REMARK INTER:                  -5.219
REMARK INTRA:                  -0.291
REMARK UNBOUND:                -0.187
REMARK SMILES CCCCC=CC(C)=O
REMARK SMILES IDX 4 1 3 2 2 3 1 4 5 5 6 6 7 7 9 8 8 9
REMARK H PARENT
REMARK Flexibility Score: inf
ROOT
ATOM      1  C   UNL     1     -19.203 -38.364  -5.645  1.00  0.00     0.027 C 
ENDROOT
BRANCH   1   2
ATOM      2  C   UNL     1     -20.477 -38.445  -6.497  1.00  0.00     0.004 C 
BRANCH   2   3
ATOM      3  C   UNL     1     -21.649 -37.746  -5.799  1.00  0.00    -0.003 C 
ATOM      4  C   UNL     1     -22.003 -36.435  -6.496  1.00  0.00     0.004 C 
ENDBRANCH   2   3
ENDBRANCH   1   2
BRANCH   1   5
ATOM      5  C   UNL     1     -19.523 -38.020  -4.215  1.00  0.00    -0.023 C 
ATOM      6  C   UNL     1     -18.877 -37.116  -3.459  1.00  0.00     0.042 C 
BRANCH   6   7
ATOM      7  C   UNL     1     -17.758 -36.247  -3.887  1.00  0.00     0.152 C 
ATOM      8  O   UNL     1     -17.935 -35.038  -4.193  1.00  0.00    -0.295 OA
ATOM      9  C   UNL     1     -16.368 -36.799  -3.893  1.00  0.00     0.093 C 
ENDBRANCH   6   7
ENDBRANCH   1   5
TORSDOF 4
ENDMDL
MODEL 8
REMARK VINA RESULT:    -4.308      6.464      8.128
REMARK INTER + INTRA:          -5.502
REMARK INTER:                  -5.178
REMARK INTRA:                  -0.325
REMARK UNBOUND:                -0.187
REMARK SMILES CCCCC=CC(C)=O
REMARK SMILES IDX 4 1 3 2 2 3 1 4 5 5 6 6 7 7 9 8 8 9
REMARK H PARENT
REMARK Flexibility Score: inf
ROOT
ATOM      1  C   UNL     1     -17.094 -38.500  -5.007  1.00  0.00     0.027 C 
ENDROOT
BRANCH   1   2
ATOM      2  C   UNL     1     -16.127 -37.600  -4.228  1.00  0.00     0.004 C 
BRANCH   2   3
ATOM      3  C   UNL     1     -16.787 -36.264  -3.871  1.00  0.00    -0.003 C 
ATOM      4  C   UNL     1     -18.309 -36.379  -3.888  1.00  0.00     0.004 C 
ENDBRANCH   2   3
ENDBRANCH   1   2
BRANCH   1   5
ATOM      5  C   UNL     1     -16.577 -39.911  -5.096  1.00  0.00    -0.023 C 
ATOM      6  C   UNL     1     -15.824 -40.414  -6.089  1.00  0.00     0.042 C 
BRANCH   6   7
ATOM      7  C   UNL     1     -15.314 -39.677  -7.267  1.00  0.00     0.152 C 
ATOM      8  O   UNL     1     -15.933 -39.670  -8.364  1.00  0.00    -0.295 OA
ATOM      9  C   UNL     1     -14.066 -38.865  -7.136  1.00  0.00     0.093 C 
ENDBRANCH   6   7
ENDBRANCH   1   5
TORSDOF 4
ENDMDL
MODEL 9
REMARK VINA RESULT:    -4.280      8.524      9.740
REMARK INTER + INTRA:          -5.468
REMARK INTER:                  -5.077
REMARK INTRA:                  -0.391
REMARK UNBOUND:                -0.187
REMARK SMILES CCCCC=CC(C)=O
REMARK SMILES IDX 4 1 3 2 2 3 1 4 5 5 6 6 7 7 9 8 8 9
REMARK H PARENT
REMARK Flexibility Score: inf
ROOT
ATOM      1  C   UNL     1     -18.653 -37.836  -3.930  1.00  0.00     0.027 C 
ENDROOT
BRANCH   1   2
ATOM      2  C   UNL     1     -17.941 -36.478  -3.898  1.00  0.00     0.004 C 
BRANCH   2   3
ATOM      3  C   UNL     1     -16.421 -36.657  -3.811  1.00  0.00    -0.003 C 
ATOM      4  C   UNL     1     -15.977 -37.945  -4.498  1.00  0.00     0.004 C 
ENDBRANCH   2   3
ENDBRANCH   1   2
BRANCH   1   5
ATOM      5  C   UNL     1     -19.752 -37.853  -4.957  1.00  0.00    -0.023 C 
ATOM      6  C   UNL     1     -19.778 -38.603  -6.072  1.00  0.00     0.042 C 
BRANCH   6   7
ATOM      7  C   UNL     1     -18.760 -39.592  -6.492  1.00  0.00     0.152 C 
ATOM      8  O   UNL     1     -18.538 -40.638  -5.827  1.00  0.00    -0.295 OA
ATOM      9  C   UNL     1     -18.022 -39.379  -7.775  1.00  0.00     0.093 C 
ENDBRANCH   6   7
ENDBRANCH   1   5
TORSDOF 4
ENDMDL
