MODEL 1
REMARK VINA RESULT:    -4.294      0.000      0.000
REMARK INTER + INTRA:          -5.465
REMARK INTER:                  -5.173
REMARK INTRA:                  -0.292
REMARK UNBOUND:                -0.292
REMARK SMILES NC(=O)C[C@H]([NH3+])C(=O)[O-]
REMARK SMILES IDX 4 1 5 2 6 3 7 7 8 8 9 9 2 10 3 11 1 12
REMARK H PARENT 6 4 6 5 6 6 1 13 1 14
REMARK Flexibility Score: inf
ROOT
ATOM      1  C   UNL     1      46.749  13.693  95.845  1.00  0.00     0.171 C 
ENDROOT
BRANCH   1   2
ATOM      2  C   UNL     1      48.060  14.443  95.536  1.00  0.00     0.237 C 
BRANCH   2   3
ATOM      3  N   UNL     1      48.881  14.610  96.744  1.00  0.00    -0.350 N 
ATOM      4  H   UNL     1      48.511  14.008  97.515  1.00  0.00     0.345 HD
ATOM      5  H   UNL     1      49.865  14.310  96.548  1.00  0.00     0.345 HD
ATOM      6  H   UNL     1      48.884  15.608  97.055  1.00  0.00     0.345 HD
ENDBRANCH   2   3
BRANCH   2   7
ATOM      7  C   UNL     1      47.745  15.787  94.935  1.00  0.00     0.100 C 
ATOM      8  O   UNL     1      48.302  16.825  95.380  1.00  0.00    -0.544 OA
ATOM      9  O   UNL     1      46.850  15.888  93.876  1.00  0.00    -0.544 OA
ENDBRANCH   2   7
ENDBRANCH   1   2
BRANCH   1  10
ATOM     10  C   UNL     1      46.517  12.561  94.885  1.00  0.00     0.223 C 
ATOM     11  O   UNL     1      46.579  11.372  95.296  1.00  0.00    -0.275 OA
ATOM     12  N   UNL     1      46.194  12.822  93.519  1.00  0.00    -0.369 N 
ATOM     13  H   UNL     1      46.116  13.802  93.167  1.00  0.00     0.159 HD
ATOM     14  H   UNL     1      46.024  12.033  92.858  1.00  0.00     0.159 HD
ENDBRANCH   1  10
TORSDOF 4
ENDMDL
MODEL 2
REMARK VINA RESULT:    -4.024      2.032      3.580
REMARK INTER + INTRA:          -5.140
REMARK INTER:                  -4.789
REMARK INTRA:                  -0.350
REMARK UNBOUND:                -0.292
REMARK SMILES NC(=O)C[C@H]([NH3+])C(=O)[O-]
REMARK SMILES IDX 4 1 5 2 6 3 7 7 8 8 9 9 2 10 3 11 1 12
REMARK H PARENT 6 4 6 5 6 6 1 13 1 14
REMARK Flexibility Score: inf
ROOT
ATOM      1  C   UNL     1      48.254  15.890  95.359  1.00  0.00     0.171 C 
ENDROOT
BRANCH   1   2
ATOM      2  C   UNL     1      47.154  14.809  95.350  1.00  0.00     0.237 C 
BRANCH   2   3
ATOM      3  N   UNL     1      47.388  13.796  96.389  1.00  0.00    -0.350 N 
ATOM      4  H   UNL     1      46.530  13.214  96.522  1.00  0.00     0.345 HD
ATOM      5  H   UNL     1      48.165  13.159  96.095  1.00  0.00     0.345 HD
ATOM      6  H   UNL     1      47.643  14.248  97.297  1.00  0.00     0.345 HD
ENDBRANCH   2   3
BRANCH   2   7
ATOM      7  C   UNL     1      47.098  14.156  93.995  1.00  0.00     0.100 C 
ATOM      8  O   UNL     1      47.722  14.659  93.024  1.00  0.00    -0.544 OA
ATOM      9  O   UNL     1      46.370  12.986  93.811  1.00  0.00    -0.544 OA
ENDBRANCH   2   7
ENDBRANCH   1   2
BRANCH   1  10
ATOM     10  C   UNL     1      49.429  15.480  96.199  1.00  0.00     0.223 C 
ATOM     11  O   UNL     1      50.175  14.542  95.814  1.00  0.00    -0.275 OA
ATOM     12  N   UNL     1      49.727  16.167  97.415  1.00  0.00    -0.369 N 
ATOM     13  H   UNL     1      49.132  16.962  97.738  1.00  0.00     0.159 HD
ATOM     14  H   UNL     1      50.550  15.885  97.991  1.00  0.00     0.159 HD
ENDBRANCH   1  10
TORSDOF 4
ENDMDL
MODEL 3
REMARK VINA RESULT:    -3.929      1.984      2.677
REMARK INTER + INTRA:          -5.024
REMARK INTER:                  -4.669
REMARK INTRA:                  -0.355
REMARK UNBOUND:                -0.292
REMARK SMILES NC(=O)C[C@H]([NH3+])C(=O)[O-]
REMARK SMILES IDX 4 1 5 2 6 3 7 7 8 8 9 9 2 10 3 11 1 12
REMARK H PARENT 6 4 6 5 6 6 1 13 1 14
REMARK Flexibility Score: inf
ROOT
ATOM      1  C   UNL     1      48.701  15.194  94.626  1.00  0.00     0.171 C 
ENDROOT
BRANCH   1   2
ATOM      2  C   UNL     1      49.701  15.400  95.782  1.00  0.00     0.237 C 
BRANCH   2   3
ATOM      3  N   UNL     1      49.376  14.546  96.933  1.00  0.00    -0.350 N 
ATOM      4  H   UNL     1      49.185  13.569  96.613  1.00  0.00     0.345 HD
ATOM      5  H   UNL     1      50.188  14.514  97.592  1.00  0.00     0.345 HD
ATOM      6  H   UNL     1      48.538  14.913  97.441  1.00  0.00     0.345 HD
ENDBRANCH   2   3
BRANCH   2   7
ATOM      7  C   UNL     1      49.705  16.847  96.196  1.00  0.00     0.100 C 
ATOM      8  O   UNL     1      49.101  17.706  95.501  1.00  0.00    -0.544 OA
ATOM      9  O   UNL     1      50.362  17.242  97.356  1.00  0.00    -0.544 OA
ENDBRANCH   2   7
ENDBRANCH   1   2
BRANCH   1  10
ATOM     10  C   UNL     1      47.445  14.516  95.094  1.00  0.00     0.223 C 
ATOM     11  O   UNL     1      47.422  13.263  95.221  1.00  0.00    -0.275 OA
ATOM     12  N   UNL     1      46.287  15.282  95.426  1.00  0.00    -0.369 N 
ATOM     13  H   UNL     1      46.296  16.324  95.349  1.00  0.00     0.159 HD
ATOM     14  H   UNL     1      45.420  14.807  95.760  1.00  0.00     0.159 HD
ENDBRANCH   1  10
TORSDOF 4
ENDMDL
MODEL 4
REMARK VINA RESULT:    -3.860      8.683      8.908
REMARK INTER + INTRA:          -4.942
REMARK INTER:                  -4.485
REMARK INTRA:                  -0.457
REMARK UNBOUND:                -0.292
REMARK SMILES NC(=O)C[C@H]([NH3+])C(=O)[O-]
REMARK SMILES IDX 4 1 5 2 6 3 7 7 8 8 9 9 2 10 3 11 1 12
REMARK H PARENT 6 4 6 5 6 6 1 13 1 14
REMARK Flexibility Score: inf
ROOT
ATOM      1  C   UNL     1      54.779   7.903  95.867  1.00  0.00     0.171 C 
ENDROOT
BRANCH   1   2
ATOM      2  C   UNL     1      54.861   9.380  95.430  1.00  0.00     0.237 C 
BRANCH   2   3
ATOM      3  N   UNL     1      53.846  10.198  96.109  1.00  0.00    -0.350 N 
ATOM      4  H   UNL     1      54.301  10.818  96.817  1.00  0.00     0.345 HD
ATOM      5  H   UNL     1      53.360  10.810  95.413  1.00  0.00     0.345 HD
ATOM      6  H   UNL     1      53.138   9.592  96.584  1.00  0.00     0.345 HD
ENDBRANCH   2   3
BRANCH   2   7
ATOM      7  C   UNL     1      54.689   9.476  93.937  1.00  0.00     0.100 C 
ATOM      8  O   UNL     1      55.054  10.513  93.324  1.00  0.00    -0.544 OA
ATOM      9  O   UNL     1      54.141   8.415  93.226  1.00  0.00    -0.544 OA
ENDBRANCH   2   7
ENDBRANCH   1   2
BRANCH   1  10
ATOM     10  C   UNL     1      53.391   7.528  96.298  1.00  0.00     0.223 C 
ATOM     11  O   UNL     1      53.004   7.802  97.465  1.00  0.00    -0.275 OA
ATOM     12  N   UNL     1      52.494   6.893  95.386  1.00  0.00    -0.369 N 
ATOM     13  H   UNL     1      52.790   6.679  94.408  1.00  0.00     0.159 HD
ATOM     14  H   UNL     1      51.526   6.643  95.687  1.00  0.00     0.159 HD
ENDBRANCH   1  10
TORSDOF 4
ENDMDL
MODEL 5
REMARK VINA RESULT:    -3.849      8.657      9.146
REMARK INTER + INTRA:          -4.928
REMARK INTER:                  -4.574
REMARK INTRA:                  -0.354
REMARK UNBOUND:                -0.292
REMARK SMILES NC(=O)C[C@H]([NH3+])C(=O)[O-]
REMARK SMILES IDX 4 1 5 2 6 3 7 7 8 8 9 9 2 10 3 11 1 12
REMARK H PARENT 6 4 6 5 6 6 1 13 1 14
REMARK Flexibility Score: inf
ROOT
ATOM      1  C   UNL     1      54.641   7.264  94.899  1.00  0.00     0.171 C 
ENDROOT
BRANCH   1   2
ATOM      2  C   UNL     1      54.315   8.028  96.198  1.00  0.00     0.237 C 
BRANCH   2   3
ATOM      3  N   UNL     1      52.872   8.019  96.478  1.00  0.00    -0.350 N 
ATOM      4  H   UNL     1      52.706   8.131  97.505  1.00  0.00     0.345 HD
ATOM      5  H   UNL     1      52.411   8.822  95.990  1.00  0.00     0.345 HD
ATOM      6  H   UNL     1      52.436   7.126  96.153  1.00  0.00     0.345 HD
ENDBRANCH   2   3
BRANCH   2   7
ATOM      7  C   UNL     1      54.812   9.445  96.089  1.00  0.00     0.100 C 
ATOM      8  O   UNL     1      54.011  10.377  95.817  1.00  0.00    -0.544 OA
ATOM      9  O   UNL     1      56.154   9.734  96.306  1.00  0.00    -0.544 OA
ENDBRANCH   2   7
ENDBRANCH   1   2
BRANCH   1  10
ATOM     10  C   UNL     1      53.584   7.471  93.852  1.00  0.00     0.223 C 
ATOM     11  O   UNL     1      52.517   6.804  93.902  1.00  0.00    -0.275 OA
ATOM     12  N   UNL     1      53.764   8.441  92.821  1.00  0.00    -0.369 N 
ATOM     13  H   UNL     1      54.633   9.019  92.777  1.00  0.00     0.159 HD
ATOM     14  H   UNL     1      53.022   8.589  92.101  1.00  0.00     0.159 HD
ENDBRANCH   1  10
TORSDOF 4
ENDMDL
MODEL 6
REMARK VINA RESULT:    -3.756      8.646      9.005
REMARK INTER + INTRA:          -4.816
REMARK INTER:                  -4.521
REMARK INTRA:                  -0.295
REMARK UNBOUND:                -0.292
REMARK SMILES NC(=O)C[C@H]([NH3+])C(=O)[O-]
REMARK SMILES IDX 4 1 5 2 6 3 7 7 8 8 9 9 2 10 3 11 1 12
REMARK H PARENT 6 4 6 5 6 6 1 13 1 14
REMARK Flexibility Score: inf
ROOT
ATOM      1  C   UNL     1      54.395   7.753  94.271  1.00  0.00     0.171 C 
ENDROOT
BRANCH   1   2
ATOM      2  C   UNL     1      54.185   9.091  93.534  1.00  0.00     0.237 C 
BRANCH   2   3
ATOM      3  N   UNL     1      54.632   9.011  92.136  1.00  0.00    -0.350 N 
ATOM      4  H   UNL     1      55.488   8.415  92.067  1.00  0.00     0.345 HD
ATOM      5  H   UNL     1      53.886   8.568  91.550  1.00  0.00     0.345 HD
ATOM      6  H   UNL     1      54.843   9.963  91.759  1.00  0.00     0.345 HD
ENDBRANCH   2   3
BRANCH   2   7
ATOM      7  C   UNL     1      54.928  10.186  94.252  1.00  0.00     0.100 C 
ATOM      8  O   UNL     1      55.796  10.866  93.644  1.00  0.00    -0.544 OA
ATOM      9  O   UNL     1      54.650  10.464  95.586  1.00  0.00    -0.544 OA
ENDBRANCH   2   7
ENDBRANCH   1   2
BRANCH   1  10
ATOM     10  C   UNL     1      53.180   7.356  95.058  1.00  0.00     0.223 C 
ATOM     11  O   UNL     1      52.423   6.448  94.623  1.00  0.00    -0.275 OA
ATOM     12  N   UNL     1      52.892   7.976  96.312  1.00  0.00    -0.369 N 
ATOM     13  H   UNL     1      53.521   8.715  96.698  1.00  0.00     0.159 HD
ATOM     14  H   UNL     1      52.051   7.690  96.860  1.00  0.00     0.159 HD
ENDBRANCH   1  10
TORSDOF 4
ENDMDL
MODEL 7
REMARK VINA RESULT:    -3.755     15.751     16.667
REMARK INTER + INTRA:          -4.816
REMARK INTER:                  -4.458
REMARK INTRA:                  -0.358
REMARK UNBOUND:                -0.292
REMARK SMILES NC(=O)C[C@H]([NH3+])C(=O)[O-]
REMARK SMILES IDX 4 1 5 2 6 3 7 7 8 8 9 9 2 10 3 11 1 12
REMARK H PARENT 6 4 6 5 6 6 1 13 1 14
REMARK Flexibility Score: inf
ROOT
ATOM      1  C   UNL     1      58.113   6.562 102.994  1.00  0.00     0.171 C 
ENDROOT
BRANCH   1   2
ATOM      2  C   UNL     1      57.521   6.188 104.368  1.00  0.00     0.237 C 
BRANCH   2   3
ATOM      3  N   UNL     1      57.777   7.236 105.367  1.00  0.00    -0.350 N 
ATOM      4  H   UNL     1      56.984   7.918 105.382  1.00  0.00     0.345 HD
ATOM      5  H   UNL     1      57.849   6.808 106.319  1.00  0.00     0.345 HD
ATOM      6  H   UNL     1      58.665   7.744 105.152  1.00  0.00     0.345 HD
ENDBRANCH   2   3
BRANCH   2   7
ATOM      7  C   UNL     1      58.104   4.880 104.831  1.00  0.00     0.100 C 
ATOM      8  O   UNL     1      57.424   4.104 105.553  1.00  0.00    -0.544 OA
ATOM      9  O   UNL     1      59.390   4.513 104.451  1.00  0.00    -0.544 OA
ENDBRANCH   2   7
ENDBRANCH   1   2
BRANCH   1  10
ATOM     10  C   UNL     1      58.947   7.809 103.070  1.00  0.00     0.223 C 
ATOM     11  O   UNL     1      60.059   7.781 103.660  1.00  0.00    -0.275 OA
ATOM     12  N   UNL     1      58.505   9.017 102.450  1.00  0.00    -0.369 N 
ATOM     13  H   UNL     1      57.596   9.051 101.936  1.00  0.00     0.159 HD
ATOM     14  H   UNL     1      59.093   9.878 102.496  1.00  0.00     0.159 HD
ENDBRANCH   1  10
TORSDOF 4
ENDMDL
MODEL 8
REMARK VINA RESULT:    -3.744     12.367     12.815
REMARK INTER + INTRA:          -4.801
REMARK INTER:                  -4.443
REMARK INTRA:                  -0.359
REMARK UNBOUND:                -0.292
REMARK SMILES NC(=O)C[C@H]([NH3+])C(=O)[O-]
REMARK SMILES IDX 4 1 5 2 6 3 7 7 8 8 9 9 2 10 3 11 1 12
REMARK H PARENT 6 4 6 5 6 6 1 13 1 14
REMARK Flexibility Score: inf
ROOT
ATOM      1  C   UNL     1      58.349  11.242  88.942  1.00  0.00     0.171 C 
ENDROOT
BRANCH   1   2
ATOM      2  C   UNL     1      58.617  10.426  90.223  1.00  0.00     0.237 C 
BRANCH   2   3
ATOM      3  N   UNL     1      57.465  10.465  91.135  1.00  0.00    -0.350 N 
ATOM      4  H   UNL     1      57.768  10.225  92.107  1.00  0.00     0.345 HD
ATOM      5  H   UNL     1      57.061  11.431  91.156  1.00  0.00     0.345 HD
ATOM      6  H   UNL     1      56.725   9.792  90.828  1.00  0.00     0.345 HD
ENDBRANCH   2   3
BRANCH   2   7
ATOM      7  C   UNL     1      59.842  10.960  90.916  1.00  0.00     0.100 C 
ATOM      8  O   UNL     1      60.984  10.537  90.596  1.00  0.00    -0.544 OA
ATOM      9  O   UNL     1      59.723  11.934  91.900  1.00  0.00    -0.544 OA
ENDBRANCH   2   7
ENDBRANCH   1   2
BRANCH   1  10
ATOM     10  C   UNL     1      57.187  12.177  89.112  1.00  0.00     0.223 C 
ATOM     11  O   UNL     1      57.289  13.166  89.885  1.00  0.00    -0.275 OA
ATOM     12  N   UNL     1      55.979  11.974  88.378  1.00  0.00    -0.369 N 
ATOM     13  H   UNL     1      55.885  11.173  87.715  1.00  0.00     0.159 HD
ATOM     14  H   UNL     1      55.177  12.633  88.492  1.00  0.00     0.159 HD
ENDBRANCH   1  10
TORSDOF 4
ENDMDL
MODEL 9
REMARK VINA RESULT:    -3.724     15.402     16.072
REMARK INTER + INTRA:          -4.777
REMARK INTER:                  -4.423
REMARK INTRA:                  -0.355
REMARK UNBOUND:                -0.292
REMARK SMILES NC(=O)C[C@H]([NH3+])C(=O)[O-]
REMARK SMILES IDX 4 1 5 2 6 3 7 7 8 8 9 9 2 10 3 11 1 12
REMARK H PARENT 6 4 6 5 6 6 1 13 1 14
REMARK Flexibility Score: inf
ROOT
ATOM      1  C   UNL     1      60.046   7.368 101.854  1.00  0.00     0.171 C 
ENDROOT
BRANCH   1   2
ATOM      2  C   UNL     1      58.719   7.502 102.628  1.00  0.00     0.237 C 
BRANCH   2   3
ATOM      3  N   UNL     1      58.205   8.879 102.580  1.00  0.00    -0.350 N 
ATOM      4  H   UNL     1      58.990   9.548 102.407  1.00  0.00     0.345 HD
ATOM      5  H   UNL     1      57.523   8.976 101.793  1.00  0.00     0.345 HD
ATOM      6  H   UNL     1      57.730   9.129 103.478  1.00  0.00     0.345 HD
ENDBRANCH   2   3
BRANCH   2   7
ATOM      7  C   UNL     1      58.921   7.075 104.057  1.00  0.00     0.100 C 
ATOM      8  O   UNL     1      60.066   7.133 104.579  1.00  0.00    -0.544 OA
ATOM      9  O   UNL     1      57.844   6.630 104.815  1.00  0.00    -0.544 OA
ENDBRANCH   2   7
ENDBRANCH   1   2
BRANCH   1  10
ATOM     10  C   UNL     1      60.567   8.704 101.410  1.00  0.00     0.223 C 
ATOM     11  O   UNL     1      61.064   9.494 102.256  1.00  0.00    -0.275 OA
ATOM     12  N   UNL     1      60.534   9.074 100.031  1.00  0.00    -0.369 N 
ATOM     13  H   UNL     1      60.147   8.423  99.313  1.00  0.00     0.159 HD
ATOM     14  H   UNL     1      60.907  10.000  99.725  1.00  0.00     0.159 HD
ENDBRANCH   1  10
TORSDOF 4
ENDMDL
