MODEL 1
REMARK VINA RESULT:    -4.105      0.000      0.000
REMARK INTER + INTRA:          -5.565
REMARK INTER:                  -5.785
REMARK INTRA:                   0.220
REMARK UNBOUND:                 0.220
REMARK SMILES CC1=CCC(=C(C)C)C(=O)CC(C)=CCC1
REMARK SMILES IDX 12 1 14 2 13 3 15 4 16 5 2 6 1 7 3 8 11 10 9 11 10 12 5 13
REMARK SMILES IDX 6 14 7 15 8 16 4 17
REMARK H PARENT
REMARK Flexibility Score: 60.00
ROOT
ATOM      1  C   UNL     1     -17.631  -0.965  11.001  1.00  0.00    -0.070 C 
ATOM      2  C   UNL     1     -17.292  -2.208  10.589  1.00  0.00    -0.027 C 
ATOM      3  C   UNL     1     -17.131  -0.501  12.345  1.00  0.00     0.039 C 
ENDROOT
BRANCH   2   4
ATOM      4  C   UNL     1     -17.822  -2.883   9.350  1.00  0.00     0.032 C 
BRANCH   4   5
ATOM      5  C   UNL     1     -18.641  -4.118   9.740  1.00  0.00     0.034 C 
BRANCH   5   6
ATOM      6  C   UNL     1     -20.107  -3.980   9.379  1.00  0.00    -0.077 C 
ATOM      7  C   UNL     1     -20.612  -4.670   8.136  1.00  0.00     0.039 C 
ATOM      8  C   UNL     1     -21.012  -3.329  10.151  1.00  0.00    -0.023 CG0
ATOM      9  G   UNL     1     -20.741  -2.516  11.404  1.00  0.00     0.000 G0
ENDBRANCH   5   6
ENDBRANCH   4   5
ENDBRANCH   2   4
BRANCH   1  10
ATOM     10  C   UNL     1     -18.469  -0.012  10.172  1.00  0.00     0.111 C 
BRANCH  10  11
ATOM     11  C   UNL     1     -19.912  -0.451  10.096  1.00  0.00     0.163 C 
ATOM     12  O   UNL     1     -20.482  -0.358   8.975  1.00  0.00    -0.294 OA
BRANCH  11  13
ATOM     13  C   UNL     1     -20.679  -1.003  11.262  1.00  0.00    -0.002 C 
ATOM     14  C   UNL     1     -21.424  -0.175  12.059  1.00  0.00    -0.069 C 
ATOM     15  C   UNL     1     -22.389  -0.713  13.092  1.00  0.00     0.039 C 
ATOM     16  C   UNL     1     -21.285   1.328  11.984  1.00  0.00     0.039 C 
BRANCH  13  17
ATOM     17  C   UNL     1     -20.748  -2.518  11.416  1.00  0.00     0.066 CG0
ATOM     18  G   UNL     1     -21.004  -3.316  10.151  1.00  0.00     0.000 G0
ENDBRANCH  13  17
ENDBRANCH  11  13
ENDBRANCH  10  11
ENDBRANCH   1  10
TORSDOF 0
ENDMDL
MODEL 2
REMARK VINA RESULT:    -3.641      1.653      2.154
REMARK INTER + INTRA:          -4.911
REMARK INTER:                  -5.206
REMARK INTRA:                   0.295
REMARK UNBOUND:                 0.220
REMARK SMILES CC1=CCC(=C(C)C)C(=O)CC(C)=CCC1
REMARK SMILES IDX 12 1 14 2 13 3 15 4 16 5 2 6 1 7 3 8 11 10 9 11 10 12 5 13
REMARK SMILES IDX 6 14 7 15 8 16 4 17
REMARK H PARENT
REMARK Flexibility Score: 60.00
ROOT
ATOM      1  C   UNL     1     -17.642  -1.144  10.958  1.00  0.00    -0.070 C 
ATOM      2  C   UNL     1     -17.300  -2.386  10.543  1.00  0.00    -0.027 C 
ATOM      3  C   UNL     1     -17.178  -0.699  12.322  1.00  0.00     0.039 C 
ENDROOT
BRANCH   2   4
ATOM      4  C   UNL     1     -17.799  -3.042   9.282  1.00  0.00     0.032 C 
BRANCH   4   5
ATOM      5  C   UNL     1     -19.072  -3.842   9.580  1.00  0.00     0.034 C 
BRANCH   5   6
ATOM      6  C   UNL     1     -20.108  -3.714   8.480  1.00  0.00    -0.077 C 
ATOM      7  C   UNL     1     -19.946  -4.550   7.235  1.00  0.00     0.039 C 
ATOM      8  C   UNL     1     -21.218  -2.941   8.582  1.00  0.00    -0.023 CG0
ATOM      9  G   UNL     1     -21.572  -1.976   9.699  1.00  0.00     0.000 G0
ENDBRANCH   5   6
ENDBRANCH   4   5
ENDBRANCH   2   4
BRANCH   1  10
ATOM     10  C   UNL     1     -18.448  -0.175  10.116  1.00  0.00     0.111 C 
BRANCH  10  11
ATOM     11  C   UNL     1     -19.906  -0.166  10.507  1.00  0.00     0.163 C 
ATOM     12  O   UNL     1     -20.184   0.212  11.677  1.00  0.00    -0.294 OA
BRANCH  11  13
ATOM     13  C   UNL     1     -21.020  -0.557   9.580  1.00  0.00    -0.002 C 
ATOM     14  C   UNL     1     -21.406   0.278   8.566  1.00  0.00    -0.069 C 
ATOM     15  C   UNL     1     -22.356  -0.169   7.477  1.00  0.00     0.039 C 
ATOM     16  C   UNL     1     -20.942   1.716   8.507  1.00  0.00     0.039 C 
BRANCH  13  17
ATOM     17  C   UNL     1     -21.576  -1.973   9.690  1.00  0.00     0.066 CG0
ATOM     18  G   UNL     1     -21.214  -2.930   8.569  1.00  0.00     0.000 G0
ENDBRANCH  13  17
ENDBRANCH  11  13
ENDBRANCH  10  11
ENDBRANCH   1  10
TORSDOF 0
ENDMDL
MODEL 3
REMARK VINA RESULT:    -3.610      1.988      3.781
REMARK INTER + INTRA:          -4.867
REMARK INTER:                  -4.771
REMARK INTRA:                  -0.097
REMARK UNBOUND:                 0.220
REMARK SMILES CC1=CCC(=C(C)C)C(=O)CC(C)=CCC1
REMARK SMILES IDX 12 1 14 2 13 3 15 4 16 5 2 6 1 7 3 8 11 10 9 11 10 12 5 13
REMARK SMILES IDX 6 14 7 15 8 16 4 17
REMARK H PARENT
REMARK Flexibility Score: 60.00
ROOT
ATOM      1  C   UNL     1     -18.585  -3.180   9.585  1.00  0.00    -0.070 C 
ATOM      2  C   UNL     1     -17.625  -2.500  10.253  1.00  0.00    -0.027 C 
ATOM      3  C   UNL     1     -18.407  -4.666   9.404  1.00  0.00     0.039 C 
ENDROOT
BRANCH   2   4
ATOM      4  C   UNL     1     -17.569  -1.000  10.396  1.00  0.00     0.032 C 
BRANCH   4   5
ATOM      5  C   UNL     1     -18.158  -0.585  11.749  1.00  0.00     0.034 C 
BRANCH   5   6
ATOM      6  C   UNL     1     -19.118   0.582  11.629  1.00  0.00    -0.077 C 
ATOM      7  C   UNL     1     -18.550   1.972  11.477  1.00  0.00     0.039 C 
ATOM      8  C   UNL     1     -20.466   0.442  11.576  1.00  0.00    -0.023 CG0
ATOM      9  G   UNL     1     -21.270  -0.832  11.762  1.00  0.00     0.000 G0
ENDBRANCH   5   6
ENDBRANCH   4   5
ENDBRANCH   2   4
BRANCH   1  10
ATOM     10  C   UNL     1     -19.837  -2.528   9.030  1.00  0.00     0.111 C 
BRANCH  10  11
ATOM     11  C   UNL     1     -21.011  -2.674   9.967  1.00  0.00     0.163 C 
ATOM     12  O   UNL     1     -21.327  -3.845  10.313  1.00  0.00    -0.294 OA
BRANCH  11  13
ATOM     13  C   UNL     1     -21.792  -1.515  10.514  1.00  0.00    -0.002 C 
ATOM     14  C   UNL     1     -23.014  -1.191   9.990  1.00  0.00    -0.069 C 
ATOM     15  C   UNL     1     -23.932  -0.189  10.654  1.00  0.00     0.039 C 
ATOM     16  C   UNL     1     -23.495  -1.782   8.684  1.00  0.00     0.039 C 
BRANCH  13  17
ATOM     17  C   UNL     1     -21.270  -0.836  11.775  1.00  0.00     0.066 CG0
ATOM     18  G   UNL     1     -20.479   0.444  11.576  1.00  0.00     0.000 G0
ENDBRANCH  13  17
ENDBRANCH  11  13
ENDBRANCH  10  11
ENDBRANCH   1  10
TORSDOF 0
ENDMDL
MODEL 4
REMARK VINA RESULT:    -3.390      2.002      4.168
REMARK INTER + INTRA:          -4.557
REMARK INTER:                  -4.658
REMARK INTRA:                   0.101
REMARK UNBOUND:                 0.220
REMARK SMILES CC1=CCC(=C(C)C)C(=O)CC(C)=CCC1
REMARK SMILES IDX 12 1 14 2 13 3 15 4 16 5 2 6 1 7 3 8 11 10 9 11 10 12 5 13
REMARK SMILES IDX 6 14 7 15 8 16 4 17
REMARK H PARENT
REMARK Flexibility Score: 60.00
ROOT
ATOM      1  C   UNL     1     -17.903  -0.565  11.189  1.00  0.00    -0.070 C 
ATOM      2  C   UNL     1     -18.468   0.656  11.045  1.00  0.00    -0.027 C 
ATOM      3  C   UNL     1     -17.063  -0.818  12.415  1.00  0.00     0.039 C 
ENDROOT
BRANCH   2   4
ATOM      4  C   UNL     1     -19.209   1.125   9.820  1.00  0.00     0.032 C 
BRANCH   4   5
ATOM      5  C   UNL     1     -20.713   0.892  10.001  1.00  0.00     0.034 C 
BRANCH   5   6
ATOM      6  C   UNL     1     -21.416   0.595   8.691  1.00  0.00    -0.077 C 
ATOM      7  C   UNL     1     -21.668   1.733   7.733  1.00  0.00     0.039 C 
ATOM      8  C   UNL     1     -21.768  -0.654   8.294  1.00  0.00    -0.023 CG0
ATOM      9  G   UNL     1     -21.671  -1.938   9.096  1.00  0.00     0.000 G0
ENDBRANCH   5   6
ENDBRANCH   4   5
ENDBRANCH   2   4
BRANCH   1  10
ATOM     10  C   UNL     1     -18.089  -1.693  10.194  1.00  0.00     0.111 C 
BRANCH  10  11
ATOM     11  C   UNL     1     -19.444  -2.345  10.328  1.00  0.00     0.163 C 
ATOM     12  O   UNL     1     -19.830  -2.631  11.494  1.00  0.00    -0.294 OA
BRANCH  11  13
ATOM     13  C   UNL     1     -20.345  -2.644   9.165  1.00  0.00    -0.002 C 
ATOM     14  C   UNL     1     -20.032  -3.641   8.281  1.00  0.00    -0.069 C 
ATOM     15  C   UNL     1     -21.016  -4.127   7.240  1.00  0.00     0.039 C 
ATOM     16  C   UNL     1     -18.661  -4.279   8.263  1.00  0.00     0.039 C 
BRANCH  13  17
ATOM     17  C   UNL     1     -21.693  -1.934   9.108  1.00  0.00     0.066 CG0
ATOM     18  G   UNL     1     -21.751  -0.657   8.290  1.00  0.00     0.000 G0
ENDBRANCH  13  17
ENDBRANCH  11  13
ENDBRANCH  10  11
ENDBRANCH   1  10
TORSDOF 0
ENDMDL
MODEL 5
REMARK VINA RESULT:    -3.260      2.037      3.916
REMARK INTER + INTRA:          -4.374
REMARK INTER:                  -4.225
REMARK INTRA:                  -0.149
REMARK UNBOUND:                 0.220
REMARK SMILES CC1=CCC(=C(C)C)C(=O)CC(C)=CCC1
REMARK SMILES IDX 12 1 14 2 13 3 15 4 16 5 2 6 1 7 3 8 11 10 9 11 10 12 5 13
REMARK SMILES IDX 6 14 7 15 8 16 4 17
REMARK H PARENT
REMARK Flexibility Score: 60.00
ROOT
ATOM      1  C   UNL     1     -22.533  -1.882   8.194  1.00  0.00    -0.070 C 
ATOM      2  C   UNL     1     -22.387  -2.996   7.440  1.00  0.00    -0.027 C 
ATOM      3  C   UNL     1     -23.927  -1.477   8.600  1.00  0.00     0.039 C 
ENDROOT
BRANCH   2   4
ATOM      4  C   UNL     1     -21.092  -3.460   6.826  1.00  0.00     0.032 C 
BRANCH   4   5
ATOM      5  C   UNL     1     -20.550  -4.665   7.603  1.00  0.00     0.034 C 
BRANCH   5   6
ATOM      6  C   UNL     1     -19.049  -4.598   7.804  1.00  0.00    -0.077 C 
ATOM      7  C   UNL     1     -18.150  -5.130   6.715  1.00  0.00     0.039 C 
ATOM      8  C   UNL     1     -18.460  -4.016   8.879  1.00  0.00    -0.023 CG0
ATOM      9  G   UNL     1     -19.142  -3.466  10.119  1.00  0.00     0.000 G0
ENDBRANCH   5   6
ENDBRANCH   4   5
ENDBRANCH   2   4
BRANCH   1  10
ATOM     10  C   UNL     1     -21.367  -1.035   8.666  1.00  0.00     0.111 C 
BRANCH  10  11
ATOM     11  C   UNL     1     -20.815  -1.521   9.984  1.00  0.00     0.163 C 
ATOM     12  O   UNL     1     -21.612  -1.557  10.961  1.00  0.00    -0.294 OA
BRANCH  11  13
ATOM     13  C   UNL     1     -19.399  -1.977  10.179  1.00  0.00    -0.002 C 
ATOM     14  C   UNL     1     -18.425  -1.085  10.542  1.00  0.00    -0.069 C 
ATOM     15  C   UNL     1     -17.047  -1.535  10.972  1.00  0.00     0.039 C 
ATOM     16  C   UNL     1     -18.660   0.407  10.483  1.00  0.00     0.039 C 
BRANCH  13  17
ATOM     17  C   UNL     1     -19.120  -3.476  10.140  1.00  0.00     0.066 CG0
ATOM     18  G   UNL     1     -18.457  -4.008   8.883  1.00  0.00     0.000 G0
ENDBRANCH  13  17
ENDBRANCH  11  13
ENDBRANCH  10  11
ENDBRANCH   1  10
TORSDOF 0
ENDMDL
MODEL 6
REMARK VINA RESULT:    -3.239     13.084     14.366
REMARK INTER + INTRA:          -4.344
REMARK INTER:                  -4.577
REMARK INTRA:                   0.232
REMARK UNBOUND:                 0.220
REMARK SMILES CC1=CCC(=C(C)C)C(=O)CC(C)=CCC1
REMARK SMILES IDX 12 1 14 2 13 3 15 4 16 5 2 6 1 7 3 8 11 10 9 11 10 12 5 13
REMARK SMILES IDX 6 14 7 15 8 16 4 17
REMARK H PARENT
REMARK Flexibility Score: 60.00
ROOT
ATOM      1  C   UNL     1      -5.929  -3.770  11.261  1.00  0.00    -0.070 C 
ATOM      2  C   UNL     1      -5.854  -2.634  11.991  1.00  0.00    -0.027 C 
ATOM      3  C   UNL     1      -5.105  -4.954  11.701  1.00  0.00     0.039 C 
ENDROOT
BRANCH   2   4
ATOM      4  C   UNL     1      -6.490  -1.321  11.615  1.00  0.00     0.032 C 
BRANCH   4   5
ATOM      5  C   UNL     1      -5.618  -0.598  10.581  1.00  0.00     0.034 C 
BRANCH   5   6
ATOM      6  C   UNL     1      -6.434  -0.007   9.448  1.00  0.00    -0.077 C 
ATOM      7  C   UNL     1      -7.336   1.166   9.744  1.00  0.00     0.039 C 
ATOM      8  C   UNL     1      -6.345  -0.425   8.161  1.00  0.00    -0.023 CG0
ATOM      9  G   UNL     1      -5.559  -1.609   7.628  1.00  0.00     0.000 G0
ENDBRANCH   5   6
ENDBRANCH   4   5
ENDBRANCH   2   4
BRANCH   1  10
ATOM     10  C   UNL     1      -6.814  -3.919  10.038  1.00  0.00     0.111 C 
BRANCH  10  11
ATOM     11  C   UNL     1      -6.013  -3.900   8.758  1.00  0.00     0.163 C 
ATOM     12  O   UNL     1      -5.075  -4.737   8.656  1.00  0.00    -0.294 OA
BRANCH  11  13
ATOM     13  C   UNL     1      -6.289  -2.967   7.615  1.00  0.00    -0.002 C 
ATOM     14  C   UNL     1      -7.272  -3.253   6.707  1.00  0.00    -0.069 C 
ATOM     15  C   UNL     1      -7.737  -2.240   5.684  1.00  0.00     0.039 C 
ATOM     16  C   UNL     1      -7.915  -4.620   6.642  1.00  0.00     0.039 C 
BRANCH  13  17
ATOM     17  C   UNL     1      -5.573  -1.621   7.605  1.00  0.00     0.066 CG0
ATOM     18  G   UNL     1      -6.344  -0.441   8.168  1.00  0.00     0.000 G0
ENDBRANCH  13  17
ENDBRANCH  11  13
ENDBRANCH  10  11
ENDBRANCH   1  10
TORSDOF 0
ENDMDL
MODEL 7
REMARK VINA RESULT:    -3.203      1.749      2.549
REMARK INTER + INTRA:          -4.294
REMARK INTER:                  -4.512
REMARK INTRA:                   0.218
REMARK UNBOUND:                 0.220
REMARK SMILES CC1=CCC(=C(C)C)C(=O)CC(C)=CCC1
REMARK SMILES IDX 12 1 14 2 13 3 15 4 16 5 2 6 1 7 3 8 11 10 9 11 10 12 5 13
REMARK SMILES IDX 6 14 7 15 8 16 4 17
REMARK H PARENT
REMARK Flexibility Score: 60.00
ROOT
ATOM      1  C   UNL     1     -18.587  -2.244  10.549  1.00  0.00    -0.070 C 
ATOM      2  C   UNL     1     -18.463  -2.989   9.428  1.00  0.00    -0.027 C 
ATOM      3  C   UNL     1     -17.529  -1.208  10.834  1.00  0.00     0.039 C 
ENDROOT
BRANCH   2   4
ATOM      4  C   UNL     1     -19.341  -4.160   9.067  1.00  0.00     0.032 C 
BRANCH   4   5
ATOM      5  C   UNL     1     -20.103  -3.858   7.772  1.00  0.00     0.034 C 
BRANCH   5   6
ATOM      6  C   UNL     1     -21.567  -3.552   8.019  1.00  0.00    -0.077 C 
ATOM      7  C   UNL     1     -22.570  -4.674   7.899  1.00  0.00     0.039 C 
ATOM      8  C   UNL     1     -22.024  -2.338   8.417  1.00  0.00    -0.023 CG0
ATOM      9  G   UNL     1     -21.228  -1.053   8.552  1.00  0.00     0.000 G0
ENDBRANCH   5   6
ENDBRANCH   4   5
ENDBRANCH   2   4
BRANCH   1  10
ATOM     10  C   UNL     1     -19.743  -2.383  11.520  1.00  0.00     0.111 C 
BRANCH  10  11
ATOM     11  C   UNL     1     -20.954  -1.602  11.070  1.00  0.00     0.163 C 
ATOM     12  O   UNL     1     -22.037  -1.820  11.679  1.00  0.00    -0.294 OA
BRANCH  11  13
ATOM     13  C   UNL     1     -20.927  -0.581   9.970  1.00  0.00    -0.002 C 
ATOM     14  C   UNL     1     -20.492   0.694  10.214  1.00  0.00    -0.069 C 
ATOM     15  C   UNL     1     -20.230   1.679   9.097  1.00  0.00     0.039 C 
ATOM     16  C   UNL     1     -20.299   1.205  11.623  1.00  0.00     0.039 C 
BRANCH  13  17
ATOM     17  C   UNL     1     -21.220  -1.056   8.550  1.00  0.00     0.066 CG0
ATOM     18  G   UNL     1     -22.018  -2.340   8.418  1.00  0.00     0.000 G0
ENDBRANCH  13  17
ENDBRANCH  11  13
ENDBRANCH  10  11
ENDBRANCH   1  10
TORSDOF 0
ENDMDL
MODEL 8
REMARK VINA RESULT:    -3.142      2.158      4.230
REMARK INTER + INTRA:          -4.207
REMARK INTER:                  -4.079
REMARK INTRA:                  -0.129
REMARK UNBOUND:                 0.220
REMARK SMILES CC1=CCC(=C(C)C)C(=O)CC(C)=CCC1
REMARK SMILES IDX 12 1 14 2 13 3 15 4 16 5 2 6 1 7 3 8 11 10 9 11 10 12 5 13
REMARK SMILES IDX 6 14 7 15 8 16 4 17
REMARK H PARENT
REMARK Flexibility Score: 60.00
ROOT
ATOM      1  C   UNL     1     -21.973   0.204  11.344  1.00  0.00    -0.070 C 
ATOM      2  C   UNL     1     -23.138   0.126  10.660  1.00  0.00    -0.027 C 
ATOM      3  C   UNL     1     -22.019   0.678  12.774  1.00  0.00     0.039 C 
ENDROOT
BRANCH   2   4
ATOM      4  C   UNL     1     -23.258  -0.184   9.190  1.00  0.00     0.032 C 
BRANCH   4   5
ATOM      5  C   UNL     1     -23.397  -1.697   8.988  1.00  0.00     0.034 C 
BRANCH   5   6
ATOM      6  C   UNL     1     -22.568  -2.204   7.824  1.00  0.00    -0.077 C 
ATOM      7  C   UNL     1     -22.987  -1.831   6.423  1.00  0.00     0.039 C 
ATOM      8  C   UNL     1     -21.424  -2.917   7.971  1.00  0.00    -0.023 CG0
ATOM      9  G   UNL     1     -20.833  -3.457   9.261  1.00  0.00     0.000 G0
ENDBRANCH   5   6
ENDBRANCH   4   5
ENDBRANCH   2   4
BRANCH   1  10
ATOM     10  C   UNL     1     -20.631  -0.181  10.752  1.00  0.00     0.111 C 
BRANCH  10  11
ATOM     11  C   UNL     1     -20.292  -1.628  11.017  1.00  0.00     0.163 C 
ATOM     12  O   UNL     1     -20.459  -2.050  12.194  1.00  0.00    -0.294 OA
BRANCH  11  13
ATOM     13  C   UNL     1     -19.798  -2.576   9.964  1.00  0.00    -0.002 C 
ATOM     14  C   UNL     1     -18.455  -2.750   9.760  1.00  0.00    -0.069 C 
ATOM     15  C   UNL     1     -17.914  -3.855   8.880  1.00  0.00     0.039 C 
ATOM     16  C   UNL     1     -17.437  -1.811  10.365  1.00  0.00     0.039 C 
BRANCH  13  17
ATOM     17  C   UNL     1     -20.823  -3.463   9.265  1.00  0.00     0.066 CG0
ATOM     18  G   UNL     1     -21.404  -2.932   7.967  1.00  0.00     0.000 G0
ENDBRANCH  13  17
ENDBRANCH  11  13
ENDBRANCH  10  11
ENDBRANCH   1  10
TORSDOF 0
ENDMDL
MODEL 9
REMARK VINA RESULT:    -3.094      1.919      4.422
REMARK INTER + INTRA:          -4.140
REMARK INTER:                  -4.693
REMARK INTRA:                   0.552
REMARK UNBOUND:                 0.220
REMARK SMILES CC1=CCC(=C(C)C)C(=O)CC(C)=CCC1
REMARK SMILES IDX 12 1 14 2 13 3 15 4 16 5 2 6 1 7 3 8 11 10 9 11 10 12 5 13
REMARK SMILES IDX 6 14 7 15 8 16 4 17
REMARK H PARENT
REMARK Flexibility Score: 60.00
ROOT
ATOM      1  C   UNL     1     -18.623  -2.489  10.362  1.00  0.00    -0.070 C 
ATOM      2  C   UNL     1     -19.437  -1.771  11.170  1.00  0.00    -0.027 C 
ATOM      3  C   UNL     1     -17.443  -1.788   9.739  1.00  0.00     0.039 C 
ENDROOT
BRANCH   2   4
ATOM      4  C   UNL     1     -20.734  -2.270  11.753  1.00  0.00     0.032 C 
BRANCH   4   5
ATOM      5  C   UNL     1     -21.874  -1.316  11.378  1.00  0.00     0.034 C 
BRANCH   5   6
ATOM      6  C   UNL     1     -22.171  -1.324   9.891  1.00  0.00    -0.077 C 
ATOM      7  C   UNL     1     -22.241  -0.005   9.162  1.00  0.00     0.039 C 
ATOM      8  C   UNL     1     -22.306  -2.458   9.159  1.00  0.00    -0.023 CG0
ATOM      9  G   UNL     1     -22.332  -3.887   9.668  1.00  0.00     0.000 G0
ENDBRANCH   5   6
ENDBRANCH   4   5
ENDBRANCH   2   4
BRANCH   1  10
ATOM     10  C   UNL     1     -18.826  -3.963  10.070  1.00  0.00     0.111 C 
BRANCH  10  11
ATOM     11  C   UNL     1     -19.854  -4.186   8.987  1.00  0.00     0.163 C 
ATOM     12  O   UNL     1     -19.538  -3.840   7.816  1.00  0.00    -0.294 OA
BRANCH  11  13
ATOM     13  C   UNL     1     -21.198  -4.808   9.229  1.00  0.00    -0.002 C 
ATOM     14  C   UNL     1     -21.349  -6.169   9.208  1.00  0.00    -0.069 C 
ATOM     15  C   UNL     1     -22.621  -6.842   9.671  1.00  0.00     0.039 C 
ATOM     16  C   UNL     1     -20.264  -7.075   8.671  1.00  0.00     0.039 C 
BRANCH  13  17
ATOM     17  C   UNL     1     -22.336  -3.896   9.673  1.00  0.00     0.066 CG0
ATOM     18  G   UNL     1     -22.299  -2.468   9.159  1.00  0.00     0.000 G0
ENDBRANCH  13  17
ENDBRANCH  11  13
ENDBRANCH  10  11
ENDBRANCH   1  10
TORSDOF 0
ENDMDL
