MODEL 1
REMARK VINA RESULT:    -6.934      0.000      0.000
REMARK INTER + INTRA:          -8.422
REMARK INTER:                  -8.352
REMARK INTRA:                  -0.070
REMARK UNBOUND:                -0.070
REMARK SMILES O=c1c(O)c(-c2ccc(O)c(O)c2)oc2cc(O)cc(O)c12
REMARK SMILES IDX 5 1 3 2 2 3 1 4 22 5 20 6 19 7 17 8 16 9 15 10 14 11 6 12
REMARK SMILES IDX 7 13 8 14 9 15 13 16 11 17 10 18 12 20 4 22 21 24 18 26
REMARK H PARENT 10 19 12 21 4 23 21 25 18 27
REMARK Flexibility Score: inf
ROOT
ATOM      1  C   UNL     1     140.800 133.437 155.636  1.00  0.00     0.180 A 
ATOM      2  C   UNL     1     140.252 134.735 155.635  1.00  0.00     0.208 A 
ATOM      3  C   UNL     1     140.624 135.627 154.617  1.00  0.00     0.238 A 
ATOM      4  O   UNL     1     140.149 136.795 154.613  1.00  0.00    -0.285 OA
ATOM      5  C   UNL     1     141.516 135.204 153.611  1.00  0.00     0.111 A 
ATOM      6  C   UNL     1     141.938 136.040 152.549  1.00  0.00     0.134 A 
ATOM      7  C   UNL     1     142.822 135.542 151.580  1.00  0.00     0.093 A 
ATOM      8  C   UNL     1     143.290 134.225 151.653  1.00  0.00     0.123 A 
ATOM      9  C   UNL     1     142.877 133.397 152.698  1.00  0.00     0.094 A 
ATOM     10  C   UNL     1     141.998 133.875 153.674  1.00  0.00     0.146 A 
ATOM     11  O   UNL     1     141.627 133.068 154.662  1.00  0.00    -0.452 OA
ENDROOT
BRANCH   1  12
ATOM     12  C   UNL     1     140.471 132.445 156.684  1.00  0.00     0.025 A 
ATOM     13  C   UNL     1     139.881 131.209 156.365  1.00  0.00     0.016 A 
ATOM     14  C   UNL     1     139.557 130.299 157.374  1.00  0.00     0.051 A 
ATOM     15  C   UNL     1     139.804 130.615 158.717  1.00  0.00     0.157 A 
ATOM     16  C   UNL     1     140.697 132.765 158.034  1.00  0.00     0.062 A 
ATOM     17  C   UNL     1     140.375 131.855 159.047  1.00  0.00     0.158 A 
BRANCH  15  18
ATOM     18  O   UNL     1     139.481 129.703 159.721  1.00  0.00    -0.504 OA
ATOM     19  H   UNL     1     140.117 128.960 159.988  1.00  0.00     0.293 HD
ENDBRANCH  15  18
BRANCH  17  20
ATOM     20  O   UNL     1     140.626 132.202 160.374  1.00  0.00    -0.504 OA
ATOM     21  H   UNL     1     140.409 131.581 161.143  1.00  0.00     0.293 HD
ENDBRANCH  17  20
ENDBRANCH   1  12
BRANCH   2  22
ATOM     22  O   UNL     1     139.332 135.113 156.616  1.00  0.00    -0.502 OA
ATOM     23  H   UNL     1     139.533 135.833 157.299  1.00  0.00     0.293 HD
ENDBRANCH   2  22
BRANCH   6  24
ATOM     24  O   UNL     1     141.487 137.357 152.449  1.00  0.00    -0.507 OA
ATOM     25  H   UNL     1     140.531 137.611 152.668  1.00  0.00     0.293 HD
ENDBRANCH   6  24
BRANCH   8  26
ATOM     26  O   UNL     1     144.167 133.729 150.690  1.00  0.00    -0.508 OA
ATOM     27  H   UNL     1     144.872 133.039 150.920  1.00  0.00     0.293 HD
ENDBRANCH   8  26
TORSDOF 6
ENDMDL
MODEL 2
REMARK VINA RESULT:    -6.896      5.854      8.935
REMARK INTER + INTRA:          -8.377
REMARK INTER:                  -8.055
REMARK INTRA:                  -0.321
REMARK UNBOUND:                -0.070
REMARK SMILES O=c1c(O)c(-c2ccc(O)c(O)c2)oc2cc(O)cc(O)c12
REMARK SMILES IDX 5 1 3 2 2 3 1 4 22 5 20 6 19 7 17 8 16 9 15 10 14 11 6 12
REMARK SMILES IDX 7 13 8 14 9 15 13 16 11 17 10 18 12 20 4 22 21 24 18 26
REMARK H PARENT 10 19 12 21 4 23 21 25 18 27
REMARK Flexibility Score: inf
ROOT
ATOM      1  C   UNL     1     143.752 133.053 148.556  1.00  0.00     0.180 A 
ATOM      2  C   UNL     1     143.542 132.842 149.932  1.00  0.00     0.208 A 
ATOM      3  C   UNL     1     143.424 133.956 150.778  1.00  0.00     0.238 A 
ATOM      4  O   UNL     1     143.246 133.779 152.015  1.00  0.00    -0.285 OA
ATOM      5  C   UNL     1     143.498 135.254 150.236  1.00  0.00     0.111 A 
ATOM      6  C   UNL     1     143.384 136.429 151.020  1.00  0.00     0.134 A 
ATOM      7  C   UNL     1     143.459 137.687 150.403  1.00  0.00     0.093 A 
ATOM      8  C   UNL     1     143.644 137.791 149.020  1.00  0.00     0.123 A 
ATOM      9  C   UNL     1     143.756 136.637 148.243  1.00  0.00     0.094 A 
ATOM     10  C   UNL     1     143.686 135.375 148.839  1.00  0.00     0.146 A 
ATOM     11  O   UNL     1     143.802 134.293 148.078  1.00  0.00    -0.452 OA
ENDROOT
BRANCH   1  12
ATOM     12  C   UNL     1     143.905 131.931 147.602  1.00  0.00     0.025 A 
ATOM     13  C   UNL     1     145.138 131.278 147.431  1.00  0.00     0.016 A 
ATOM     14  C   UNL     1     145.265 130.238 146.507  1.00  0.00     0.051 A 
ATOM     15  C   UNL     1     144.165 129.843 145.732  1.00  0.00     0.157 A 
ATOM     16  C   UNL     1     142.812 131.545 146.808  1.00  0.00     0.062 A 
ATOM     17  C   UNL     1     142.935 130.503 145.882  1.00  0.00     0.158 A 
BRANCH  15  18
ATOM     18  O   UNL     1     144.295 128.802 144.813  1.00  0.00    -0.504 OA
ATOM     19  H   UNL     1     143.546 128.139 144.654  1.00  0.00     0.293 HD
ENDBRANCH  15  18
BRANCH  17  20
ATOM     20  O   UNL     1     141.824 130.139 145.121  1.00  0.00    -0.504 OA
ATOM     21  H   UNL     1     141.886 129.465 144.368  1.00  0.00     0.293 HD
ENDBRANCH  17  20
ENDBRANCH   1  12
BRANCH   2  22
ATOM     22  O   UNL     1     143.423 131.545 150.437  1.00  0.00    -0.502 OA
ATOM     23  H   UNL     1     143.200 131.359 151.408  1.00  0.00     0.293 HD
ENDBRANCH   2  22
BRANCH   6  24
ATOM     24  O   UNL     1     143.199 136.355 152.401  1.00  0.00    -0.507 OA
ATOM     25  H   UNL     1     142.280 136.231 152.809  1.00  0.00     0.293 HD
ENDBRANCH   6  24
BRANCH   8  26
ATOM     26  O   UNL     1     143.717 139.041 148.407  1.00  0.00    -0.508 OA
ATOM     27  H   UNL     1     144.459 139.270 147.755  1.00  0.00     0.293 HD
ENDBRANCH   8  26
TORSDOF 6
ENDMDL
MODEL 3
REMARK VINA RESULT:    -6.716      1.696      2.397
REMARK INTER + INTRA:          -8.160
REMARK INTER:                  -7.890
REMARK INTRA:                  -0.270
REMARK UNBOUND:                -0.070
REMARK SMILES O=c1c(O)c(-c2ccc(O)c(O)c2)oc2cc(O)cc(O)c12
REMARK SMILES IDX 5 1 3 2 2 3 1 4 22 5 20 6 19 7 17 8 16 9 15 10 14 11 6 12
REMARK SMILES IDX 7 13 8 14 9 15 13 16 11 17 10 18 12 20 4 22 21 24 18 26
REMARK H PARENT 10 19 12 21 4 23 21 25 18 27
REMARK Flexibility Score: inf
ROOT
ATOM      1  C   UNL     1     139.796 132.559 156.468  1.00  0.00     0.180 A 
ATOM      2  C   UNL     1     138.612 133.240 156.123  1.00  0.00     0.208 A 
ATOM      3  C   UNL     1     138.633 134.126 155.034  1.00  0.00     0.238 A 
ATOM      4  O   UNL     1     137.582 134.750 154.723  1.00  0.00    -0.285 OA
ATOM      5  C   UNL     1     139.824 134.302 154.301  1.00  0.00     0.111 A 
ATOM      6  C   UNL     1     139.927 135.173 153.189  1.00  0.00     0.134 A 
ATOM      7  C   UNL     1     141.147 135.286 152.504  1.00  0.00     0.093 A 
ATOM      8  C   UNL     1     142.262 134.544 152.910  1.00  0.00     0.123 A 
ATOM      9  C   UNL     1     142.165 133.684 154.005  1.00  0.00     0.094 A 
ATOM     10  C   UNL     1     140.960 133.559 154.701  1.00  0.00     0.146 A 
ATOM     11  O   UNL     1     140.897 132.738 155.743  1.00  0.00    -0.452 OA
ENDROOT
BRANCH   1  12
ATOM     12  C   UNL     1     139.859 131.622 157.613  1.00  0.00     0.025 A 
ATOM     13  C   UNL     1     139.870 132.087 158.939  1.00  0.00     0.016 A 
ATOM     14  C   UNL     1     139.955 131.185 160.003  1.00  0.00     0.051 A 
ATOM     15  C   UNL     1     140.044 129.808 159.758  1.00  0.00     0.157 A 
ATOM     16  C   UNL     1     139.969 130.242 157.372  1.00  0.00     0.062 A 
ATOM     17  C   UNL     1     140.054 129.336 158.435  1.00  0.00     0.158 A 
BRANCH  15  18
ATOM     18  O   UNL     1     140.126 128.911 160.822  1.00  0.00    -0.504 OA
ATOM     19  H   UNL     1     140.407 129.211 161.748  1.00  0.00     0.293 HD
ENDBRANCH  15  18
BRANCH  17  20
ATOM     20  O   UNL     1     140.149 127.973 158.157  1.00  0.00    -0.504 OA
ATOM     21  H   UNL     1     140.196 127.619 157.210  1.00  0.00     0.293 HD
ENDBRANCH  17  20
ENDBRANCH   1  12
BRANCH   2  22
ATOM     22  O   UNL     1     137.433 133.011 156.835  1.00  0.00    -0.502 OA
ATOM     23  H   UNL     1     137.058 133.683 157.494  1.00  0.00     0.293 HD
ENDBRANCH   2  22
BRANCH   6  24
ATOM     24  O   UNL     1     138.832 135.924 152.762  1.00  0.00    -0.507 OA
ATOM     25  H   UNL     1     137.881 135.656 152.987  1.00  0.00     0.293 HD
ENDBRANCH   6  24
BRANCH   8  26
ATOM     26  O   UNL     1     143.473 134.655 152.229  1.00  0.00    -0.508 OA
ATOM     27  H   UNL     1     143.578 134.325 151.277  1.00  0.00     0.293 HD
ENDBRANCH   8  26
TORSDOF 6
ENDMDL
MODEL 4
REMARK VINA RESULT:    -6.627      4.305      8.893
REMARK INTER + INTRA:          -8.052
REMARK INTER:                  -7.730
REMARK INTRA:                  -0.322
REMARK UNBOUND:                -0.070
REMARK SMILES O=c1c(O)c(-c2ccc(O)c(O)c2)oc2cc(O)cc(O)c12
REMARK SMILES IDX 5 1 3 2 2 3 1 4 22 5 20 6 19 7 17 8 16 9 15 10 14 11 6 12
REMARK SMILES IDX 7 13 8 14 9 15 13 16 11 17 10 18 12 20 4 22 21 24 18 26
REMARK H PARENT 10 19 12 21 4 23 21 25 18 27
REMARK Flexibility Score: inf
ROOT
ATOM      1  C   UNL     1     143.670 132.707 148.751  1.00  0.00     0.180 A 
ATOM      2  C   UNL     1     143.957 134.067 148.522  1.00  0.00     0.208 A 
ATOM      3  C   UNL     1     143.742 134.989 149.558  1.00  0.00     0.238 A 
ATOM      4  O   UNL     1     143.986 136.211 149.361  1.00  0.00    -0.285 OA
ATOM      5  C   UNL     1     143.265 134.538 150.804  1.00  0.00     0.111 A 
ATOM      6  C   UNL     1     143.025 135.402 151.901  1.00  0.00     0.134 A 
ATOM      7  C   UNL     1     142.557 134.874 153.114  1.00  0.00     0.093 A 
ATOM      8  C   UNL     1     142.327 133.501 153.250  1.00  0.00     0.123 A 
ATOM      9  C   UNL     1     142.561 132.645 152.173  1.00  0.00     0.094 A 
ATOM     10  C   UNL     1     143.025 133.152 150.956  1.00  0.00     0.146 A 
ATOM     11  O   UNL     1     143.234 132.316 149.945  1.00  0.00    -0.452 OA
ENDROOT
BRANCH   1  12
ATOM     12  C   UNL     1     143.853 131.677 147.703  1.00  0.00     0.025 A 
ATOM     13  C   UNL     1     145.095 131.050 147.502  1.00  0.00     0.016 A 
ATOM     14  C   UNL     1     145.251 130.099 146.491  1.00  0.00     0.051 A 
ATOM     15  C   UNL     1     144.172 129.769 145.658  1.00  0.00     0.157 A 
ATOM     16  C   UNL     1     142.781 131.358 146.852  1.00  0.00     0.062 A 
ATOM     17  C   UNL     1     142.933 130.405 145.839  1.00  0.00     0.158 A 
BRANCH  15  18
ATOM     18  O   UNL     1     144.331 128.817 144.651  1.00  0.00    -0.504 OA
ATOM     19  H   UNL     1     145.180 128.272 144.565  1.00  0.00     0.293 HD
ENDBRANCH  15  18
BRANCH  17  20
ATOM     20  O   UNL     1     141.843 130.104 145.022  1.00  0.00    -0.504 OA
ATOM     21  H   UNL     1     141.012 129.651 145.380  1.00  0.00     0.293 HD
ENDBRANCH  17  20
ENDBRANCH   1  12
BRANCH   2  22
ATOM     22  O   UNL     1     144.477 134.480 147.293  1.00  0.00    -0.502 OA
ATOM     23  H   UNL     1     145.452 134.355 147.046  1.00  0.00     0.293 HD
ENDBRANCH   2  22
BRANCH   6  24
ATOM     24  O   UNL     1     143.247 136.776 151.794  1.00  0.00    -0.507 OA
ATOM     25  H   UNL     1     144.180 137.159 151.692  1.00  0.00     0.293 HD
ENDBRANCH   6  24
BRANCH   8  26
ATOM     26  O   UNL     1     141.864 132.976 154.455  1.00  0.00    -0.508 OA
ATOM     27  H   UNL     1     141.183 132.226 154.481  1.00  0.00     0.293 HD
ENDBRANCH   8  26
TORSDOF 6
ENDMDL
MODEL 5
REMARK VINA RESULT:    -6.626      1.524      7.215
REMARK INTER + INTRA:          -8.051
REMARK INTER:                  -8.005
REMARK INTRA:                  -0.046
REMARK UNBOUND:                -0.070
REMARK SMILES O=c1c(O)c(-c2ccc(O)c(O)c2)oc2cc(O)cc(O)c12
REMARK SMILES IDX 5 1 3 2 2 3 1 4 22 5 20 6 19 7 17 8 16 9 15 10 14 11 6 12
REMARK SMILES IDX 7 13 8 14 9 15 13 16 11 17 10 18 12 20 4 22 21 24 18 26
REMARK H PARENT 10 19 12 21 4 23 21 25 18 27
REMARK Flexibility Score: inf
ROOT
ATOM      1  C   UNL     1     141.174 132.952 154.443  1.00  0.00     0.180 A 
ATOM      2  C   UNL     1     140.437 131.837 153.997  1.00  0.00     0.208 A 
ATOM      3  C   UNL     1     139.876 130.971 154.949  1.00  0.00     0.238 A 
ATOM      4  O   UNL     1     139.223 129.963 154.561  1.00  0.00    -0.285 OA
ATOM      5  C   UNL     1     140.043 131.241 156.322  1.00  0.00     0.111 A 
ATOM      6  C   UNL     1     139.506 130.420 157.343  1.00  0.00     0.134 A 
ATOM      7  C   UNL     1     139.708 130.762 158.689  1.00  0.00     0.093 A 
ATOM      8  C   UNL     1     140.435 131.908 159.031  1.00  0.00     0.123 A 
ATOM      9  C   UNL     1     140.965 132.720 158.028  1.00  0.00     0.094 A 
ATOM     10  C   UNL     1     140.777 132.396 156.682  1.00  0.00     0.146 A 
ATOM     11  O   UNL     1     141.298 133.183 155.747  1.00  0.00    -0.452 OA
ENDROOT
BRANCH   1  12
ATOM     12  C   UNL     1     141.812 133.901 153.503  1.00  0.00     0.025 A 
ATOM     13  C   UNL     1     141.507 135.273 153.529  1.00  0.00     0.016 A 
ATOM     14  C   UNL     1     142.103 136.146 152.615  1.00  0.00     0.051 A 
ATOM     15  C   UNL     1     143.000 135.660 151.654  1.00  0.00     0.157 A 
ATOM     16  C   UNL     1     142.695 133.416 152.524  1.00  0.00     0.062 A 
ATOM     17  C   UNL     1     143.295 134.288 151.608  1.00  0.00     0.158 A 
BRANCH  15  18
ATOM     18  O   UNL     1     143.594 136.535 150.745  1.00  0.00    -0.504 OA
ATOM     19  H   UNL     1     143.068 137.279 150.304  1.00  0.00     0.293 HD
ENDBRANCH  15  18
BRANCH  17  20
ATOM     20  O   UNL     1     144.177 133.771 150.659  1.00  0.00    -0.504 OA
ATOM     21  H   UNL     1     144.894 133.099 150.901  1.00  0.00     0.293 HD
ENDBRANCH  17  20
ENDBRANCH   1  12
BRANCH   2  22
ATOM     22  O   UNL     1     140.245 131.620 152.631  1.00  0.00    -0.502 OA
ATOM     23  H   UNL     1     140.655 130.831 152.144  1.00  0.00     0.293 HD
ENDBRANCH   2  22
BRANCH   6  24
ATOM     24  O   UNL     1     138.777 129.271 157.032  1.00  0.00    -0.507 OA
ATOM     25  H   UNL     1     137.959 128.999 157.565  1.00  0.00     0.293 HD
ENDBRANCH   6  24
BRANCH   8  26
ATOM     26  O   UNL     1     140.634 132.248 160.367  1.00  0.00    -0.508 OA
ATOM     27  H   UNL     1     140.462 131.586 161.115  1.00  0.00     0.293 HD
ENDBRANCH   8  26
TORSDOF 6
ENDMDL
MODEL 6
REMARK VINA RESULT:    -6.515      7.463     10.271
REMARK INTER + INTRA:          -7.917
REMARK INTER:                  -7.593
REMARK INTRA:                  -0.325
REMARK UNBOUND:                -0.070
REMARK SMILES O=c1c(O)c(-c2ccc(O)c(O)c2)oc2cc(O)cc(O)c12
REMARK SMILES IDX 5 1 3 2 2 3 1 4 22 5 20 6 19 7 17 8 16 9 15 10 14 11 6 12
REMARK SMILES IDX 7 13 8 14 9 15 13 16 11 17 10 18 12 20 4 22 21 24 18 26
REMARK H PARENT 10 19 12 21 4 23 21 25 18 27
REMARK Flexibility Score: inf
ROOT
ATOM      1  C   UNL     1     144.008 132.368 147.622  1.00  0.00     0.180 A 
ATOM      2  C   UNL     1     142.922 131.830 146.902  1.00  0.00     0.208 A 
ATOM      3  C   UNL     1     143.022 130.523 146.400  1.00  0.00     0.238 A 
ATOM      4  O   UNL     1     142.061 130.036 145.745  1.00  0.00    -0.285 OA
ATOM      5  C   UNL     1     144.190 129.772 146.640  1.00  0.00     0.111 A 
ATOM      6  C   UNL     1     144.368 128.447 146.171  1.00  0.00     0.134 A 
ATOM      7  C   UNL     1     145.557 127.761 146.460  1.00  0.00     0.093 A 
ATOM      8  C   UNL     1     146.569 128.374 147.207  1.00  0.00     0.123 A 
ATOM      9  C   UNL     1     146.398 129.679 147.671  1.00  0.00     0.094 A 
ATOM     10  C   UNL     1     145.222 130.380 147.393  1.00  0.00     0.146 A 
ATOM     11  O   UNL     1     145.088 131.623 147.841  1.00  0.00    -0.452 OA
ENDROOT
BRANCH   1  12
ATOM     12  C   UNL     1     143.986 133.743 148.167  1.00  0.00     0.025 A 
ATOM     13  C   UNL     1     143.464 134.017 149.444  1.00  0.00     0.016 A 
ATOM     14  C   UNL     1     143.431 135.327 149.928  1.00  0.00     0.051 A 
ATOM     15  C   UNL     1     143.907 136.385 149.139  1.00  0.00     0.157 A 
ATOM     16  C   UNL     1     144.442 134.809 147.373  1.00  0.00     0.062 A 
ATOM     17  C   UNL     1     144.412 136.123 147.855  1.00  0.00     0.158 A 
BRANCH  15  18
ATOM     18  O   UNL     1     143.875 137.690 149.627  1.00  0.00    -0.504 OA
ATOM     19  H   UNL     1     143.038 138.081 150.042  1.00  0.00     0.293 HD
ENDBRANCH  15  18
BRANCH  17  20
ATOM     20  O   UNL     1     144.886 137.153 147.044  1.00  0.00    -0.504 OA
ATOM     21  H   UNL     1     145.787 137.588 147.198  1.00  0.00     0.293 HD
ENDBRANCH  17  20
ENDBRANCH   1  12
BRANCH   2  22
ATOM     22  O   UNL     1     141.757 132.579 146.721  1.00  0.00    -0.502 OA
ATOM     23  H   UNL     1     141.047 132.323 146.044  1.00  0.00     0.293 HD
ENDBRANCH   2  22
BRANCH   6  24
ATOM     24  O   UNL     1     143.376 127.810 145.424  1.00  0.00    -0.507 OA
ATOM     25  H   UNL     1     143.602 127.121 144.716  1.00  0.00     0.293 HD
ENDBRANCH   6  24
BRANCH   8  26
ATOM     26  O   UNL     1     147.750 127.692 147.495  1.00  0.00    -0.508 OA
ATOM     27  H   UNL     1     147.821 126.687 147.389  1.00  0.00     0.293 HD
ENDBRANCH   8  26
TORSDOF 6
ENDMDL
MODEL 7
REMARK VINA RESULT:    -6.385      4.134      6.579
REMARK INTER + INTRA:          -7.762
REMARK INTER:                  -7.457
REMARK INTRA:                  -0.305
REMARK UNBOUND:                -0.070
REMARK SMILES O=c1c(O)c(-c2ccc(O)c(O)c2)oc2cc(O)cc(O)c12
REMARK SMILES IDX 5 1 3 2 2 3 1 4 22 5 20 6 19 7 17 8 16 9 15 10 14 11 6 12
REMARK SMILES IDX 7 13 8 14 9 15 13 16 11 17 10 18 12 20 4 22 21 24 18 26
REMARK H PARENT 10 19 12 21 4 23 21 25 18 27
REMARK Flexibility Score: inf
ROOT
ATOM      1  C   UNL     1     137.241 130.721 155.661  1.00  0.00     0.180 A 
ATOM      2  C   UNL     1     138.048 131.188 154.604  1.00  0.00     0.208 A 
ATOM      3  C   UNL     1     139.260 131.826 154.909  1.00  0.00     0.238 A 
ATOM      4  O   UNL     1     139.986 132.258 153.971  1.00  0.00    -0.285 OA
ATOM      5  C   UNL     1     139.654 131.970 156.254  1.00  0.00     0.111 A 
ATOM      6  C   UNL     1     140.862 132.599 156.645  1.00  0.00     0.134 A 
ATOM      7  C   UNL     1     141.187 132.695 158.006  1.00  0.00     0.093 A 
ATOM      8  C   UNL     1     140.329 132.175 158.982  1.00  0.00     0.123 A 
ATOM      9  C   UNL     1     139.138 131.555 158.602  1.00  0.00     0.094 A 
ATOM     10  C   UNL     1     138.795 131.450 157.251  1.00  0.00     0.146 A 
ATOM     11  O   UNL     1     137.652 130.861 156.917  1.00  0.00    -0.452 OA
ENDROOT
BRANCH   1  12
ATOM     12  C   UNL     1     135.941 130.054 155.422  1.00  0.00     0.025 A 
ATOM     13  C   UNL     1     134.784 130.792 155.118  1.00  0.00     0.016 A 
ATOM     14  C   UNL     1     133.563 130.142 154.921  1.00  0.00     0.051 A 
ATOM     15  C   UNL     1     133.477 128.748 155.038  1.00  0.00     0.157 A 
ATOM     16  C   UNL     1     135.845 128.659 155.558  1.00  0.00     0.062 A 
ATOM     17  C   UNL     1     134.624 128.004 155.361  1.00  0.00     0.158 A 
BRANCH  15  18
ATOM     18  O   UNL     1     132.257 128.102 154.839  1.00  0.00    -0.504 OA
ATOM     19  H   UNL     1     132.115 127.463 154.065  1.00  0.00     0.293 HD
ENDBRANCH  15  18
BRANCH  17  20
ATOM     20  O   UNL     1     134.570 126.616 155.492  1.00  0.00    -0.504 OA
ATOM     21  H   UNL     1     133.942 126.048 154.937  1.00  0.00     0.293 HD
ENDBRANCH  17  20
ENDBRANCH   1  12
BRANCH   2  22
ATOM     22  O   UNL     1     137.658 130.988 153.278  1.00  0.00    -0.502 OA
ATOM     23  H   UNL     1     137.785 130.102 152.802  1.00  0.00     0.293 HD
ENDBRANCH   2  22
BRANCH   6  24
ATOM     24  O   UNL     1     141.736 133.126 155.694  1.00  0.00    -0.507 OA
ATOM     25  H   UNL     1     141.400 133.644 154.890  1.00  0.00     0.293 HD
ENDBRANCH   6  24
BRANCH   8  26
ATOM     26  O   UNL     1     140.653 132.269 160.334  1.00  0.00    -0.508 OA
ATOM     27  H   UNL     1     140.710 133.164 160.804  1.00  0.00     0.293 HD
ENDBRANCH   8  26
TORSDOF 6
ENDMDL
MODEL 8
REMARK VINA RESULT:    -6.354      6.586      9.446
REMARK INTER + INTRA:          -7.723
REMARK INTER:                  -7.408
REMARK INTRA:                  -0.315
REMARK UNBOUND:                -0.070
REMARK SMILES O=c1c(O)c(-c2ccc(O)c(O)c2)oc2cc(O)cc(O)c12
REMARK SMILES IDX 5 1 3 2 2 3 1 4 22 5 20 6 19 7 17 8 16 9 15 10 14 11 6 12
REMARK SMILES IDX 7 13 8 14 9 15 13 16 11 17 10 18 12 20 4 22 21 24 18 26
REMARK H PARENT 10 19 12 21 4 23 21 25 18 27
REMARK Flexibility Score: inf
ROOT
ATOM      1  C   UNL     1     144.369 131.658 147.914  1.00  0.00     0.180 A 
ATOM      2  C   UNL     1     143.399 131.553 148.930  1.00  0.00     0.208 A 
ATOM      3  C   UNL     1     142.892 132.728 149.506  1.00  0.00     0.238 A 
ATOM      4  O   UNL     1     142.031 132.647 150.424  1.00  0.00    -0.285 OA
ATOM      5  C   UNL     1     143.345 133.982 149.048  1.00  0.00     0.111 A 
ATOM      6  C   UNL     1     142.882 135.212 149.574  1.00  0.00     0.134 A 
ATOM      7  C   UNL     1     143.376 136.420 149.057  1.00  0.00     0.093 A 
ATOM      8  C   UNL     1     144.322 136.419 148.026  1.00  0.00     0.123 A 
ATOM      9  C   UNL     1     144.782 135.208 147.505  1.00  0.00     0.094 A 
ATOM     10  C   UNL     1     144.303 133.995 148.007  1.00  0.00     0.146 A 
ATOM     11  O   UNL     1     144.762 132.858 147.497  1.00  0.00    -0.452 OA
ENDROOT
BRANCH   1  12
ATOM     12  C   UNL     1     144.965 130.466 147.269  1.00  0.00     0.025 A 
ATOM     13  C   UNL     1     144.440 129.939 146.076  1.00  0.00     0.016 A 
ATOM     14  C   UNL     1     145.004 128.798 145.499  1.00  0.00     0.051 A 
ATOM     15  C   UNL     1     146.090 128.159 146.112  1.00  0.00     0.157 A 
ATOM     16  C   UNL     1     146.040 129.809 147.890  1.00  0.00     0.062 A 
ATOM     17  C   UNL     1     146.608 128.667 147.315  1.00  0.00     0.158 A 
BRANCH  15  18
ATOM     18  O   UNL     1     146.651 127.022 145.532  1.00  0.00    -0.504 OA
ATOM     19  H   UNL     1     147.652 126.930 145.406  1.00  0.00     0.293 HD
ENDBRANCH  15  18
BRANCH  17  20
ATOM     20  O   UNL     1     147.684 128.049 147.953  1.00  0.00    -0.504 OA
ATOM     21  H   UNL     1     148.279 127.381 147.480  1.00  0.00     0.293 HD
ENDBRANCH  17  20
ENDBRANCH   1  12
BRANCH   2  22
ATOM     22  O   UNL     1     142.930 130.300 149.331  1.00  0.00    -0.502 OA
ATOM     23  H   UNL     1     143.506 129.468 149.292  1.00  0.00     0.293 HD
ENDBRANCH   2  22
BRANCH   6  24
ATOM     24  O   UNL     1     141.939 135.244 150.602  1.00  0.00    -0.507 OA
ATOM     25  H   UNL     1     141.346 136.052 150.756  1.00  0.00     0.293 HD
ENDBRANCH   6  24
BRANCH   8  26
ATOM     26  O   UNL     1     144.812 137.618 147.512  1.00  0.00    -0.508 OA
ATOM     27  H   UNL     1     144.198 138.301 147.084  1.00  0.00     0.293 HD
ENDBRANCH   8  26
TORSDOF 6
ENDMDL
MODEL 9
REMARK VINA RESULT:    -6.303      5.856      8.331
REMARK INTER + INTRA:          -7.662
REMARK INTER:                  -7.342
REMARK INTRA:                  -0.321
REMARK UNBOUND:                -0.070
REMARK SMILES O=c1c(O)c(-c2ccc(O)c(O)c2)oc2cc(O)cc(O)c12
REMARK SMILES IDX 5 1 3 2 2 3 1 4 22 5 20 6 19 7 17 8 16 9 15 10 14 11 6 12
REMARK SMILES IDX 7 13 8 14 9 15 13 16 11 17 10 18 12 20 4 22 21 24 18 26
REMARK H PARENT 10 19 12 21 4 23 21 25 18 27
REMARK Flexibility Score: inf
ROOT
ATOM      1  C   UNL     1     136.646 129.593 155.633  1.00  0.00     0.180 A 
ATOM      2  C   UNL     1     137.815 128.807 155.584  1.00  0.00     0.208 A 
ATOM      3  C   UNL     1     138.828 129.040 156.526  1.00  0.00     0.238 A 
ATOM      4  O   UNL     1     139.884 128.350 156.485  1.00  0.00    -0.285 OA
ATOM      5  C   UNL     1     138.652 130.035 157.509  1.00  0.00     0.111 A 
ATOM      6  C   UNL     1     139.624 130.329 158.496  1.00  0.00     0.134 A 
ATOM      7  C   UNL     1     139.370 131.330 159.447  1.00  0.00     0.093 A 
ATOM      8  C   UNL     1     138.163 132.039 159.428  1.00  0.00     0.123 A 
ATOM      9  C   UNL     1     137.202 131.752 158.457  1.00  0.00     0.094 A 
ATOM     10  C   UNL     1     137.437 130.761 157.501  1.00  0.00     0.146 A 
ATOM     11  O   UNL     1     136.509 130.513 156.584  1.00  0.00    -0.452 OA
ENDROOT
BRANCH   1  12
ATOM     12  C   UNL     1     135.541 129.421 154.665  1.00  0.00     0.025 A 
ATOM     13  C   UNL     1     135.441 130.225 153.516  1.00  0.00     0.016 A 
ATOM     14  C   UNL     1     134.375 130.060 152.628  1.00  0.00     0.051 A 
ATOM     15  C   UNL     1     133.386 129.100 152.881  1.00  0.00     0.157 A 
ATOM     16  C   UNL     1     134.535 128.474 154.924  1.00  0.00     0.062 A 
ATOM     17  C   UNL     1     133.466 128.306 154.037  1.00  0.00     0.158 A 
BRANCH  15  18
ATOM     18  O   UNL     1     132.324 128.937 151.992  1.00  0.00    -0.504 OA
ATOM     19  H   UNL     1     132.334 128.216 151.280  1.00  0.00     0.293 HD
ENDBRANCH  15  18
BRANCH  17  20
ATOM     20  O   UNL     1     132.494 127.347 154.321  1.00  0.00    -0.504 OA
ATOM     21  H   UNL     1     131.616 127.306 153.819  1.00  0.00     0.293 HD
ENDBRANCH  17  20
ENDBRANCH   1  12
BRANCH   2  22
ATOM     22  O   UNL     1     137.943 127.794 154.631  1.00  0.00    -0.502 OA
ATOM     23  H   UNL     1     137.614 127.900 153.678  1.00  0.00     0.293 HD
ENDBRANCH   2  22
BRANCH   6  24
ATOM     24  O   UNL     1     140.836 129.639 158.539  1.00  0.00    -0.507 OA
ATOM     25  H   UNL     1     141.688 130.033 158.156  1.00  0.00     0.293 HD
ENDBRANCH   6  24
BRANCH   8  26
ATOM     26  O   UNL     1     137.910 133.031 160.373  1.00  0.00    -0.508 OA
ATOM     27  H   UNL     1     137.637 133.967 160.099  1.00  0.00     0.293 HD
ENDBRANCH   8  26
TORSDOF 6
ENDMDL
