MODEL 1
REMARK VINA RESULT:    -3.048      0.000      0.000
REMARK INTER + INTRA:          -3.048
REMARK INTER:                  -3.048
REMARK INTRA:                   0.000
REMARK UNBOUND:                 0.000
REMARK SMILES CC(=O)[O-]
REMARK SMILES IDX 1 1 2 2 3 3 4 4
REMARK H PARENT
REMARK Flexibility Score: inf
ROOT
ATOM      1  C   UNL     1       9.487 -31.292 -15.784  1.00  0.00     0.063 C 
ATOM      2  C   UNL     1       8.964 -30.037 -16.396  1.00  0.00     0.038 C 
ATOM      3  O   UNL     1       9.294 -29.720 -17.568  1.00  0.00    -0.550 OA
ATOM      4  O   UNL     1       8.068 -29.241 -15.693  1.00  0.00    -0.550 OA
ENDROOT
TORSDOF 0
ENDMDL
MODEL 2
REMARK VINA RESULT:    -2.977      0.123      1.625
REMARK INTER + INTRA:          -2.977
REMARK INTER:                  -2.977
REMARK INTRA:                   0.000
REMARK UNBOUND:                 0.000
REMARK SMILES CC(=O)[O-]
REMARK SMILES IDX 1 1 2 2 3 3 4 4
REMARK H PARENT
REMARK Flexibility Score: inf
ROOT
ATOM      1  C   UNL     1       9.486 -31.164 -15.633  1.00  0.00     0.063 C 
ATOM      2  C   UNL     1       8.879 -29.994 -16.329  1.00  0.00     0.038 C 
ATOM      3  O   UNL     1       8.067 -29.249 -15.722  1.00  0.00    -0.550 OA
ATOM      4  O   UNL     1       9.249 -29.692 -17.634  1.00  0.00    -0.550 OA
ENDROOT
TORSDOF 0
ENDMDL
MODEL 3
REMARK VINA RESULT:    -2.819      1.559      2.152
REMARK INTER + INTRA:          -2.819
REMARK INTER:                  -2.819
REMARK INTRA:                   0.000
REMARK UNBOUND:                 0.000
REMARK SMILES CC(=O)[O-]
REMARK SMILES IDX 1 1 2 2 3 3 4 4
REMARK H PARENT
REMARK Flexibility Score: inf
ROOT
ATOM      1  C   UNL     1       9.469 -30.050 -17.665  1.00  0.00     0.063 C 
ATOM      2  C   UNL     1       9.200 -30.442 -16.251  1.00  0.00     0.038 C 
ATOM      3  O   UNL     1       8.564 -29.667 -15.491  1.00  0.00    -0.550 OA
ATOM      4  O   UNL     1       9.607 -31.686 -15.785  1.00  0.00    -0.550 OA
ENDROOT
TORSDOF 0
ENDMDL
MODEL 4
REMARK VINA RESULT:    -2.618      1.497      1.917
REMARK INTER + INTRA:          -2.618
REMARK INTER:                  -2.618
REMARK INTRA:                   0.000
REMARK UNBOUND:                 0.000
REMARK SMILES CC(=O)[O-]
REMARK SMILES IDX 1 1 2 2 3 3 4 4
REMARK H PARENT
REMARK Flexibility Score: inf
ROOT
ATOM      1  C   UNL     1       8.847 -30.121 -15.003  1.00  0.00     0.063 C 
ATOM      2  C   UNL     1       9.369 -30.679 -16.283  1.00  0.00     0.038 C 
ATOM      3  O   UNL     1       9.601 -31.912 -16.387  1.00  0.00    -0.550 OA
ATOM      4  O   UNL     1       9.553 -29.848 -17.381  1.00  0.00    -0.550 OA
ENDROOT
TORSDOF 0
ENDMDL
MODEL 5
REMARK VINA RESULT:    -2.016      4.330      4.831
REMARK INTER + INTRA:          -2.016
REMARK INTER:                  -2.016
REMARK INTRA:                   0.000
REMARK UNBOUND:                 0.000
REMARK SMILES CC(=O)[O-]
REMARK SMILES IDX 1 1 2 2 3 3 4 4
REMARK H PARENT
REMARK Flexibility Score: inf
ROOT
ATOM      1  C   UNL     1       6.418 -28.516 -21.551  1.00  0.00     0.063 C 
ATOM      2  C   UNL     1       7.144 -28.899 -20.306  1.00  0.00     0.038 C 
ATOM      3  O   UNL     1       8.170 -29.625 -20.370  1.00  0.00    -0.550 OA
ATOM      4  O   UNL     1       6.719 -28.412 -19.075  1.00  0.00    -0.550 OA
ENDROOT
TORSDOF 0
ENDMDL
MODEL 6
REMARK VINA RESULT:    -1.817     20.575     20.876
REMARK INTER + INTRA:          -1.817
REMARK INTER:                  -1.817
REMARK INTRA:                   0.000
REMARK UNBOUND:                 0.000
REMARK SMILES CC(=O)[O-]
REMARK SMILES IDX 1 1 2 2 3 3 4 4
REMARK H PARENT
REMARK Flexibility Score: inf
ROOT
ATOM      1  C   UNL     1      21.023 -43.125  -3.410  1.00  0.00     0.063 C 
ATOM      2  C   UNL     1      19.653 -42.574  -3.619  1.00  0.00     0.038 C 
ATOM      3  O   UNL     1      18.869 -43.124  -4.436  1.00  0.00    -0.550 OA
ATOM      4  O   UNL     1      19.221 -41.484  -2.875  1.00  0.00    -0.550 OA
ENDROOT
TORSDOF 0
ENDMDL
MODEL 7
REMARK VINA RESULT:    -1.720      2.698      2.903
REMARK INTER + INTRA:          -1.720
REMARK INTER:                  -1.720
REMARK INTRA:                   0.000
REMARK UNBOUND:                 0.000
REMARK SMILES CC(=O)[O-]
REMARK SMILES IDX 1 1 2 2 3 3 4 4
REMARK H PARENT
REMARK Flexibility Score: inf
ROOT
ATOM      1  C   UNL     1       9.478 -31.005 -15.607  1.00  0.00     0.063 C 
ATOM      2  C   UNL     1       9.258 -32.428 -15.992  1.00  0.00     0.038 C 
ATOM      3  O   UNL     1       9.502 -32.810 -17.167  1.00  0.00    -0.550 OA
ATOM      4  O   UNL     1       8.831 -33.348 -15.043  1.00  0.00    -0.550 OA
ENDROOT
TORSDOF 0
ENDMDL
MODEL 8
REMARK VINA RESULT:    -1.507     19.468     19.931
REMARK INTER + INTRA:          -1.507
REMARK INTER:                  -1.507
REMARK INTRA:                   0.000
REMARK UNBOUND:                 0.000
REMARK SMILES CC(=O)[O-]
REMARK SMILES IDX 1 1 2 2 3 3 4 4
REMARK H PARENT
REMARK Flexibility Score: inf
ROOT
ATOM      1  C   UNL     1      24.714 -42.883 -10.749  1.00  0.00     0.063 C 
ATOM      2  C   UNL     1      23.246 -42.760 -10.979  1.00  0.00     0.038 C 
ATOM      3  O   UNL     1      22.811 -42.371 -12.094  1.00  0.00    -0.550 OA
ATOM      4  O   UNL     1      22.353 -43.125  -9.979  1.00  0.00    -0.550 OA
ENDROOT
TORSDOF 0
ENDMDL
MODEL 9
REMARK VINA RESULT:    -1.441     22.813     23.139
REMARK INTER + INTRA:          -1.441
REMARK INTER:                  -1.441
REMARK INTRA:                   0.000
REMARK UNBOUND:                 0.000
REMARK SMILES CC(=O)[O-]
REMARK SMILES IDX 1 1 2 2 3 3 4 4
REMARK H PARENT
REMARK Flexibility Score: inf
ROOT
ATOM      1  C   UNL     1      24.330 -43.119  -3.825  1.00  0.00     0.063 C 
ATOM      2  C   UNL     1      23.887 -41.838  -3.204  1.00  0.00     0.038 C 
ATOM      3  O   UNL     1      24.713 -40.906  -3.019  1.00  0.00    -0.550 OA
ATOM      4  O   UNL     1      22.550 -41.649  -2.875  1.00  0.00    -0.550 OA
ENDROOT
TORSDOF 0
ENDMDL
