MODEL 1
REMARK VINA RESULT:    -3.912      0.000      0.000
REMARK INTER + INTRA:          -4.278
REMARK INTER:                  -4.255
REMARK INTRA:                  -0.023
REMARK UNBOUND:                -0.023
REMARK SMILES OCc1ccco1
REMARK SMILES IDX 2 1 3 2 5 3 6 4 4 5 7 6 1 7
REMARK H PARENT 1 8
REMARK Flexibility Score: inf
ROOT
ATOM      1  C   UNL     1      -1.837  26.755  30.482  1.00  0.00     0.231 C 
ENDROOT
BRANCH   1   2
ATOM      2  C   UNL     1      -2.473  26.825  29.133  1.00  0.00     0.129 A 
ATOM      3  C   UNL     1      -3.931  26.745  27.492  1.00  0.00     0.042 A 
ATOM      4  C   UNL     1      -2.668  27.040  27.022  1.00  0.00     0.195 A 
ATOM      5  C   UNL     1      -3.808  26.602  28.858  1.00  0.00     0.048 A 
ATOM      6  O   UNL     1      -1.820  27.077  28.024  1.00  0.00    -0.467 OA
ENDBRANCH   1   2
BRANCH   1   7
ATOM      7  O   UNL     1      -0.446  26.722  30.336  1.00  0.00    -0.388 OA
ATOM      8  H   UNL     1      -0.095  27.473  30.881  1.00  0.00     0.211 HD
ENDBRANCH   1   7
TORSDOF 2
ENDMDL
MODEL 2
REMARK VINA RESULT:    -3.912      1.222      1.222
REMARK INTER + INTRA:          -4.278
REMARK INTER:                  -4.263
REMARK INTRA:                  -0.015
REMARK UNBOUND:                -0.023
REMARK SMILES OCc1ccco1
REMARK SMILES IDX 2 1 3 2 5 3 6 4 4 5 7 6 1 7
REMARK H PARENT 1 8
REMARK Flexibility Score: inf
ROOT
ATOM      1  C   UNL     1      -2.588  26.258  30.892  1.00  0.00     0.231 C 
ENDROOT
BRANCH   1   2
ATOM      2  C   UNL     1      -2.718  26.572  29.438  1.00  0.00     0.129 A 
ATOM      3  C   UNL     1      -3.504  26.788  27.399  1.00  0.00     0.042 A 
ATOM      4  C   UNL     1      -2.179  27.168  27.465  1.00  0.00     0.195 A 
ATOM      5  C   UNL     1      -3.854  26.398  28.674  1.00  0.00     0.048 A 
ATOM      6  O   UNL     1      -1.737  27.024  28.693  1.00  0.00    -0.467 OA
ENDBRANCH   1   2
BRANCH   1   7
ATOM      7  O   UNL     1      -2.480  24.873  31.059  1.00  0.00    -0.388 OA
ATOM      8  H   UNL     1      -2.995  24.465  30.315  1.00  0.00     0.211 HD
ENDBRANCH   1   7
TORSDOF 2
ENDMDL
MODEL 3
REMARK VINA RESULT:    -3.846      1.161      2.591
REMARK INTER + INTRA:          -4.206
REMARK INTER:                  -4.184
REMARK INTRA:                  -0.022
REMARK UNBOUND:                -0.023
REMARK SMILES OCc1ccco1
REMARK SMILES IDX 2 1 3 2 5 3 6 4 4 5 7 6 1 7
REMARK H PARENT 1 8
REMARK Flexibility Score: inf
ROOT
ATOM      1  C   UNL     1      -1.747  27.569  26.566  1.00  0.00     0.231 C 
ENDROOT
BRANCH   1   2
ATOM      2  C   UNL     1      -2.359  27.217  27.881  1.00  0.00     0.129 A 
ATOM      3  C   UNL     1      -3.791  26.939  29.523  1.00  0.00     0.042 A 
ATOM      4  C   UNL     1      -2.515  26.582  29.909  1.00  0.00     0.195 A 
ATOM      5  C   UNL     1      -3.692  27.355  28.212  1.00  0.00     0.048 A 
ATOM      6  O   UNL     1      -1.683  26.762  28.910  1.00  0.00    -0.467 OA
ENDBRANCH   1   2
BRANCH   1   7
ATOM      7  O   UNL     1      -0.425  27.112  26.534  1.00  0.00    -0.388 OA
ATOM      8  H   UNL     1       0.096  27.810  26.059  1.00  0.00     0.211 HD
ENDBRANCH   1   7
TORSDOF 2
ENDMDL
MODEL 4
REMARK VINA RESULT:    -3.744      1.786      2.842
REMARK INTER + INTRA:          -4.095
REMARK INTER:                  -4.072
REMARK INTRA:                  -0.023
REMARK UNBOUND:                -0.023
REMARK SMILES OCc1ccco1
REMARK SMILES IDX 2 1 3 2 5 3 6 4 4 5 7 6 1 7
REMARK H PARENT 1 8
REMARK Flexibility Score: inf
ROOT
ATOM      1  C   UNL     1      -2.260  27.396  26.863  1.00  0.00     0.231 C 
ENDROOT
BRANCH   1   2
ATOM      2  C   UNL     1      -2.841  28.001  28.099  1.00  0.00     0.129 A 
ATOM      3  C   UNL     1      -4.118  29.131  29.482  1.00  0.00     0.042 A 
ATOM      4  C   UNL     1      -3.049  28.562  30.144  1.00  0.00     0.195 A 
ATOM      5  C   UNL     1      -3.983  28.773  28.158  1.00  0.00     0.048 A 
ATOM      6  O   UNL     1      -2.303  27.897  29.291  1.00  0.00    -0.467 OA
ENDBRANCH   1   2
BRANCH   1   7
ATOM      7  O   UNL     1      -0.951  26.978  27.125  1.00  0.00    -0.388 OA
ATOM      8  H   UNL     1      -1.009  26.357  27.896  1.00  0.00     0.211 HD
ENDBRANCH   1   7
TORSDOF 2
ENDMDL
MODEL 5
REMARK VINA RESULT:    -3.724      1.459      1.755
REMARK INTER + INTRA:          -4.073
REMARK INTER:                  -4.057
REMARK INTRA:                  -0.016
REMARK UNBOUND:                -0.023
REMARK SMILES OCc1ccco1
REMARK SMILES IDX 2 1 3 2 5 3 6 4 4 5 7 6 1 7
REMARK H PARENT 1 8
REMARK Flexibility Score: inf
ROOT
ATOM      1  C   UNL     1      -2.288  26.315  30.549  1.00  0.00     0.231 C 
ENDROOT
BRANCH   1   2
ATOM      2  C   UNL     1      -2.731  26.562  29.145  1.00  0.00     0.129 A 
ATOM      3  C   UNL     1      -2.766  27.124  27.022  1.00  0.00     0.042 A 
ATOM      4  C   UNL     1      -4.015  26.728  27.453  1.00  0.00     0.195 A 
ATOM      5  C   UNL     1      -1.933  27.021  28.117  1.00  0.00     0.048 A 
ATOM      6  O   UNL     1      -3.964  26.402  28.724  1.00  0.00    -0.467 OA
ENDBRANCH   1   2
BRANCH   1   7
ATOM      7  O   UNL     1      -2.460  24.961  30.858  1.00  0.00    -0.388 OA
ATOM      8  H   UNL     1      -1.561  24.618  31.098  1.00  0.00     0.211 HD
ENDBRANCH   1   7
TORSDOF 2
ENDMDL
MODEL 6
REMARK VINA RESULT:    -3.718      2.080      2.394
REMARK INTER + INTRA:          -4.066
REMARK INTER:                  -4.044
REMARK INTRA:                  -0.022
REMARK UNBOUND:                -0.023
REMARK SMILES OCc1ccco1
REMARK SMILES IDX 2 1 3 2 5 3 6 4 4 5 7 6 1 7
REMARK H PARENT 1 8
REMARK Flexibility Score: inf
ROOT
ATOM      1  C   UNL     1      -1.840  26.558  29.999  1.00  0.00     0.231 C 
ENDROOT
BRANCH   1   2
ATOM      2  C   UNL     1      -2.634  27.811  29.840  1.00  0.00     0.129 A 
ATOM      3  C   UNL     1      -4.118  29.286  29.171  1.00  0.00     0.042 A 
ATOM      4  C   UNL     1      -3.230  29.845  30.067  1.00  0.00     0.195 A 
ATOM      5  C   UNL     1      -3.733  27.971  29.019  1.00  0.00     0.048 A 
ATOM      6  O   UNL     1      -2.355  28.942  30.445  1.00  0.00    -0.467 OA
ENDBRANCH   1   2
BRANCH   1   7
ATOM      7  O   UNL     1      -0.562  26.876  30.470  1.00  0.00    -0.388 OA
ATOM      8  H   UNL     1      -0.597  26.769  31.456  1.00  0.00     0.211 HD
ENDBRANCH   1   7
TORSDOF 2
ENDMDL
MODEL 7
REMARK VINA RESULT:    -3.693      1.534      2.944
REMARK INTER + INTRA:          -4.039
REMARK INTER:                  -4.020
REMARK INTRA:                  -0.019
REMARK UNBOUND:                -0.023
REMARK SMILES OCc1ccco1
REMARK SMILES IDX 2 1 3 2 5 3 6 4 4 5 7 6 1 7
REMARK H PARENT 1 8
REMARK Flexibility Score: inf
ROOT
ATOM      1  C   UNL     1      -2.344  27.140  27.299  1.00  0.00     0.231 C 
ENDROOT
BRANCH   1   2
ATOM      2  C   UNL     1      -2.438  27.655  28.696  1.00  0.00     0.129 A 
ATOM      3  C   UNL     1      -2.956  28.857  30.461  1.00  0.00     0.042 A 
ATOM      4  C   UNL     1      -2.060  27.859  30.784  1.00  0.00     0.195 A 
ATOM      5  C   UNL     1      -3.200  28.730  29.109  1.00  0.00     0.048 A 
ATOM      6  O   UNL     1      -1.767  27.161  29.710  1.00  0.00    -0.467 OA
ENDBRANCH   1   2
BRANCH   1   7
ATOM      7  O   UNL     1      -0.997  27.050  26.929  1.00  0.00    -0.388 OA
ATOM      8  H   UNL     1      -0.483  27.490  27.653  1.00  0.00     0.211 HD
ENDBRANCH   1   7
TORSDOF 2
ENDMDL
MODEL 8
REMARK VINA RESULT:    -3.432      2.182      2.466
REMARK INTER + INTRA:          -3.755
REMARK INTER:                  -3.732
REMARK INTRA:                  -0.023
REMARK UNBOUND:                -0.023
REMARK SMILES OCc1ccco1
REMARK SMILES IDX 2 1 3 2 5 3 6 4 4 5 7 6 1 7
REMARK H PARENT 1 8
REMARK Flexibility Score: inf
ROOT
ATOM      1  C   UNL     1      -4.098  29.480  29.585  1.00  0.00     0.231 C 
ENDROOT
BRANCH   1   2
ATOM      2  C   UNL     1      -3.485  28.548  28.593  1.00  0.00     0.129 A 
ATOM      3  C   UNL     1      -3.128  27.319  26.808  1.00  0.00     0.042 A 
ATOM      4  C   UNL     1      -2.130  27.140  27.743  1.00  0.00     0.195 A 
ATOM      5  C   UNL     1      -4.008  28.228  27.357  1.00  0.00     0.048 A 
ATOM      6  O   UNL     1      -2.372  27.884  28.798  1.00  0.00    -0.467 OA
ENDBRANCH   1   2
BRANCH   1   7
ATOM      7  O   UNL     1      -3.288  29.542  30.724  1.00  0.00    -0.388 OA
ATOM      8  H   UNL     1      -3.867  29.281  31.487  1.00  0.00     0.211 HD
ENDBRANCH   1   7
TORSDOF 2
ENDMDL
MODEL 9
REMARK VINA RESULT:    -3.321      2.235      3.052
REMARK INTER + INTRA:          -3.635
REMARK INTER:                  -3.613
REMARK INTRA:                  -0.022
REMARK UNBOUND:                -0.023
REMARK SMILES OCc1ccco1
REMARK SMILES IDX 2 1 3 2 5 3 6 4 4 5 7 6 1 7
REMARK H PARENT 1 8
REMARK Flexibility Score: inf
ROOT
ATOM      1  C   UNL     1      -2.000  26.952  27.760  1.00  0.00     0.231 C 
ENDROOT
BRANCH   1   2
ATOM      2  C   UNL     1      -2.822  27.947  28.510  1.00  0.00     0.129 A 
ATOM      3  C   UNL     1      -3.617  29.252  30.088  1.00  0.00     0.042 A 
ATOM      4  C   UNL     1      -4.388  29.326  28.946  1.00  0.00     0.195 A 
ATOM      5  C   UNL     1      -2.605  28.357  29.810  1.00  0.00     0.048 A 
ATOM      6  O   UNL     1      -3.891  28.535  28.024  1.00  0.00    -0.467 OA
ENDBRANCH   1   2
BRANCH   1   7
ATOM      7  O   UNL     1      -2.319  27.019  26.400  1.00  0.00    -0.388 OA
ATOM      8  H   UNL     1      -3.293  26.843  26.337  1.00  0.00     0.211 HD
ENDBRANCH   1   7
TORSDOF 2
ENDMDL
