MODEL 1
REMARK VINA RESULT:    -5.492      0.000      0.000
REMARK INTER + INTRA:         -16.417
REMARK INTER:                 -12.554
REMARK INTRA:                  -3.863
REMARK UNBOUND:                -3.863
REMARK SMILES CCCCCCCCCCCCCCCCCCCCCCCC(=O)[O-]
REMARK SMILES IDX 13 1 14 2 15 3 16 4 17 5 18 6 19 7 20 8 21 9 22 10 23 11
REMARK SMILES IDX 24 12 25 13 26 14 12 15 11 16 10 17 9 18 8 19 7 20 6 21 5 22
REMARK SMILES IDX 4 23 3 24 2 25 1 26
REMARK H PARENT
REMARK Flexibility Score: inf
ROOT
ATOM      1  C   UNL     1     123.297 178.698 125.861  1.00  0.00     0.000 C 
ENDROOT
BRANCH   1   2
ATOM      2  C   UNL     1     123.552 179.398 127.210  1.00  0.00     0.000 C 
BRANCH   2   3
ATOM      3  C   UNL     1     123.772 178.450 128.403  1.00  0.00     0.000 C 
BRANCH   3   4
ATOM      4  C   UNL     1     123.469 179.059 129.788  1.00  0.00     0.000 C 
BRANCH   4   5
ATOM      5  C   UNL     1     122.243 178.468 130.507  1.00  0.00     0.000 C 
BRANCH   5   6
ATOM      6  C   UNL     1     122.119 176.948 130.327  1.00  0.00     0.000 C 
BRANCH   6   7
ATOM      7  C   UNL     1     120.929 176.397 131.125  1.00  0.00     0.000 C 
BRANCH   7   8
ATOM      8  C   UNL     1     119.762 175.965 130.221  1.00  0.00     0.000 C 
BRANCH   8   9
ATOM      9  C   UNL     1     119.224 174.569 130.581  1.00  0.00     0.000 C 
BRANCH   9  10
ATOM     10  C   UNL     1     120.038 173.439 129.931  1.00  0.00     0.006 C 
BRANCH  10  11
ATOM     11  C   UNL     1     119.689 172.060 130.502  1.00  0.00     0.053 C 
BRANCH  11  12
ATOM     12  C   UNL     1     118.691 171.371 129.625  1.00  0.00     0.041 C 
ATOM     13  O   UNL     1     118.609 171.665 128.405  1.00  0.00    -0.550 OA
ATOM     14  O   UNL     1     117.885 170.366 130.147  1.00  0.00    -0.550 OA
ENDBRANCH  11  12
ENDBRANCH  10  11
ENDBRANCH   9  10
ENDBRANCH   8   9
ENDBRANCH   7   8
ENDBRANCH   6   7
ENDBRANCH   5   6
ENDBRANCH   4   5
ENDBRANCH   3   4
ENDBRANCH   2   3
ENDBRANCH   1   2
BRANCH   1  15
ATOM     15  C   UNL     1     124.497 177.874 125.348  1.00  0.00     0.000 C 
BRANCH  15  16
ATOM     16  C   UNL     1     124.065 176.664 124.500  1.00  0.00     0.000 C 
BRANCH  16  17
ATOM     17  C   UNL     1     122.573 176.336 124.670  1.00  0.00     0.000 C 
BRANCH  17  18
ATOM     18  C   UNL     1     122.333 175.183 125.661  1.00  0.00    -0.000 C 
BRANCH  18  19
ATOM     19  C   UNL     1     121.471 175.625 126.863  1.00  0.00    -0.000 C 
BRANCH  19  20
ATOM     20  C   UNL     1     119.964 175.402 126.655  1.00  0.00    -0.000 C 
BRANCH  20  21
ATOM     21  C   UNL     1     119.144 176.695 126.803  1.00  0.00    -0.000 C 
BRANCH  21  22
ATOM     22  C   UNL     1     120.012 177.901 127.197  1.00  0.00    -0.000 C 
BRANCH  22  23
ATOM     23  C   UNL     1     119.684 179.161 126.376  1.00  0.00    -0.000 C 
BRANCH  23  24
ATOM     24  C   UNL     1     119.565 178.868 124.871  1.00  0.00    -0.000 C 
BRANCH  24  25
ATOM     25  C   UNL     1     120.502 179.743 124.025  1.00  0.00    -0.003 C 
ATOM     26  C   UNL     1     120.685 179.157 122.628  1.00  0.00     0.004 C 
ENDBRANCH  24  25
ENDBRANCH  23  24
ENDBRANCH  22  23
ENDBRANCH  21  22
ENDBRANCH  20  21
ENDBRANCH  19  20
ENDBRANCH  18  19
ENDBRANCH  17  18
ENDBRANCH  16  17
ENDBRANCH  15  16
ENDBRANCH   1  15
TORSDOF 22
ENDMDL
MODEL 2
REMARK VINA RESULT:    -5.453      1.262      3.562
REMARK INTER + INTRA:         -16.330
REMARK INTER:                 -12.195
REMARK INTRA:                  -4.135
REMARK UNBOUND:                -3.863
REMARK SMILES CCCCCCCCCCCCCCCCCCCCCCCC(=O)[O-]
REMARK SMILES IDX 13 1 14 2 15 3 16 4 17 5 18 6 19 7 20 8 21 9 22 10 23 11
REMARK SMILES IDX 24 12 25 13 26 14 12 15 11 16 10 17 9 18 8 19 7 20 6 21 5 22
REMARK SMILES IDX 4 23 3 24 2 25 1 26
REMARK H PARENT
REMARK Flexibility Score: inf
ROOT
ATOM      1  C   UNL     1     122.153 178.924 128.734  1.00  0.00     0.000 C 
ENDROOT
BRANCH   1   2
ATOM      2  C   UNL     1     123.302 179.174 127.738  1.00  0.00     0.000 C 
BRANCH   2   3
ATOM      3  C   UNL     1     123.450 178.111 126.635  1.00  0.00     0.000 C 
BRANCH   3   4
ATOM      4  C   UNL     1     122.499 176.903 126.758  1.00  0.00     0.000 C 
BRANCH   4   5
ATOM      5  C   UNL     1     122.361 176.048 125.486  1.00  0.00     0.000 C 
BRANCH   5   6
ATOM      6  C   UNL     1     123.167 174.741 125.553  1.00  0.00     0.000 C 
BRANCH   6   7
ATOM      7  C   UNL     1     122.616 173.814 126.646  1.00  0.00     0.000 C 
BRANCH   7   8
ATOM      8  C   UNL     1     121.166 173.379 126.373  1.00  0.00     0.000 C 
BRANCH   8   9
ATOM      9  C   UNL     1     120.257 173.556 127.602  1.00  0.00     0.000 C 
BRANCH   9  10
ATOM     10  C   UNL     1     120.836 172.896 128.862  1.00  0.00     0.006 C 
BRANCH  10  11
ATOM     11  C   UNL     1     119.758 172.570 129.903  1.00  0.00     0.053 C 
BRANCH  11  12
ATOM     12  C   UNL     1     119.482 171.099 129.923  1.00  0.00     0.041 C 
ATOM     13  O   UNL     1     118.691 170.613 130.774  1.00  0.00    -0.550 OA
ATOM     14  O   UNL     1     120.061 170.271 128.970  1.00  0.00    -0.550 OA
ENDBRANCH  11  12
ENDBRANCH  10  11
ENDBRANCH   9  10
ENDBRANCH   8   9
ENDBRANCH   7   8
ENDBRANCH   6   7
ENDBRANCH   5   6
ENDBRANCH   4   5
ENDBRANCH   3   4
ENDBRANCH   2   3
ENDBRANCH   1   2
BRANCH   1  15
ATOM     15  C   UNL     1     122.619 178.747 130.194  1.00  0.00     0.000 C 
BRANCH  15  16
ATOM     16  C   UNL     1     121.957 177.542 130.886  1.00  0.00     0.000 C 
BRANCH  16  17
ATOM     17  C   UNL     1     121.205 176.641 129.893  1.00  0.00     0.000 C 
BRANCH  17  18
ATOM     18  C   UNL     1     119.871 176.124 130.460  1.00  0.00    -0.000 C 
BRANCH  18  19
ATOM     19  C   UNL     1     118.704 176.331 129.472  1.00  0.00    -0.000 C 
BRANCH  19  20
ATOM     20  C   UNL     1     118.993 177.387 128.391  1.00  0.00    -0.000 C 
BRANCH  20  21
ATOM     21  C   UNL     1     118.962 176.806 126.967  1.00  0.00    -0.000 C 
BRANCH  21  22
ATOM     22  C   UNL     1     118.845 177.895 125.888  1.00  0.00    -0.000 C 
BRANCH  22  23
ATOM     23  C   UNL     1     119.521 179.214 126.301  1.00  0.00    -0.000 C 
BRANCH  23  24
ATOM     24  C   UNL     1     120.209 179.918 125.119  1.00  0.00    -0.000 C 
BRANCH  24  25
ATOM     25  C   UNL     1     120.755 178.927 124.081  1.00  0.00    -0.003 C 
ATOM     26  C   UNL     1     120.673 179.508 122.672  1.00  0.00     0.004 C 
ENDBRANCH  24  25
ENDBRANCH  23  24
ENDBRANCH  22  23
ENDBRANCH  21  22
ENDBRANCH  20  21
ENDBRANCH  19  20
ENDBRANCH  18  19
ENDBRANCH  17  18
ENDBRANCH  16  17
ENDBRANCH  15  16
ENDBRANCH   1  15
TORSDOF 22
ENDMDL
MODEL 3
REMARK VINA RESULT:    -5.422      1.314      2.969
REMARK INTER + INTRA:         -16.258
REMARK INTER:                 -12.792
REMARK INTRA:                  -3.466
REMARK UNBOUND:                -3.863
REMARK SMILES CCCCCCCCCCCCCCCCCCCCCCCC(=O)[O-]
REMARK SMILES IDX 13 1 14 2 15 3 16 4 17 5 18 6 19 7 20 8 21 9 22 10 23 11
REMARK SMILES IDX 24 12 25 13 26 14 12 15 11 16 10 17 9 18 8 19 7 20 6 21 5 22
REMARK SMILES IDX 4 23 3 24 2 25 1 26
REMARK H PARENT
REMARK Flexibility Score: inf
ROOT
ATOM      1  C   UNL     1     123.140 179.006 126.823  1.00  0.00     0.000 C 
ENDROOT
BRANCH   1   2
ATOM      2  C   UNL     1     123.541 178.846 128.303  1.00  0.00     0.000 C 
BRANCH   2   3
ATOM      3  C   UNL     1     122.387 179.005 129.310  1.00  0.00     0.000 C 
BRANCH   3   4
ATOM      4  C   UNL     1     122.278 177.883 130.363  1.00  0.00     0.000 C 
BRANCH   4   5
ATOM      5  C   UNL     1     121.466 176.652 129.923  1.00  0.00     0.000 C 
BRANCH   5   6
ATOM      6  C   UNL     1     120.448 176.198 130.981  1.00  0.00     0.000 C 
BRANCH   6   7
ATOM      7  C   UNL     1     119.064 175.986 130.353  1.00  0.00     0.000 C 
BRANCH   7   8
ATOM      8  C   UNL     1     118.916 174.598 129.707  1.00  0.00     0.000 C 
BRANCH   8   9
ATOM      9  C   UNL     1     119.576 173.487 130.542  1.00  0.00     0.000 C 
BRANCH   9  10
ATOM     10  C   UNL     1     120.220 172.398 129.670  1.00  0.00     0.006 C 
BRANCH  10  11
ATOM     11  C   UNL     1     120.681 172.932 128.308  1.00  0.00     0.053 C 
BRANCH  11  12
ATOM     12  C   UNL     1     120.198 172.040 127.209  1.00  0.00     0.041 C 
ATOM     13  O   UNL     1     119.069 171.489 127.288  1.00  0.00    -0.550 OA
ATOM     14  O   UNL     1     120.975 171.856 126.071  1.00  0.00    -0.550 OA
ENDBRANCH  11  12
ENDBRANCH  10  11
ENDBRANCH   9  10
ENDBRANCH   8   9
ENDBRANCH   7   8
ENDBRANCH   6   7
ENDBRANCH   5   6
ENDBRANCH   4   5
ENDBRANCH   3   4
ENDBRANCH   2   3
ENDBRANCH   1   2
BRANCH   1  15
ATOM     15  C   UNL     1     123.112 177.678 126.037  1.00  0.00     0.000 C 
BRANCH  15  16
ATOM     16  C   UNL     1     124.280 177.554 125.041  1.00  0.00     0.000 C 
BRANCH  16  17
ATOM     17  C   UNL     1     123.795 177.353 123.597  1.00  0.00     0.000 C 
BRANCH  17  18
ATOM     18  C   UNL     1     122.274 177.543 123.455  1.00  0.00    -0.000 C 
BRANCH  18  19
ATOM     19  C   UNL     1     121.907 178.349 122.191  1.00  0.00    -0.000 C 
BRANCH  19  20
ATOM     20  C   UNL     1     120.905 179.485 122.455  1.00  0.00    -0.000 C 
BRANCH  20  21
ATOM     21  C   UNL     1     120.301 179.431 123.869  1.00  0.00    -0.000 C 
BRANCH  21  22
ATOM     22  C   UNL     1     118.806 179.073 123.858  1.00  0.00    -0.000 C 
BRANCH  22  23
ATOM     23  C   UNL     1     118.208 178.977 125.273  1.00  0.00    -0.000 C 
BRANCH  23  24
ATOM     24  C   UNL     1     119.235 179.307 126.369  1.00  0.00    -0.000 C 
BRANCH  24  25
ATOM     25  C   UNL     1     119.402 178.165 127.382  1.00  0.00    -0.003 C 
ATOM     26  C   UNL     1     119.538 176.820 126.674  1.00  0.00     0.004 C 
ENDBRANCH  24  25
ENDBRANCH  23  24
ENDBRANCH  22  23
ENDBRANCH  21  22
ENDBRANCH  20  21
ENDBRANCH  19  20
ENDBRANCH  18  19
ENDBRANCH  17  18
ENDBRANCH  16  17
ENDBRANCH  15  16
ENDBRANCH   1  15
TORSDOF 22
ENDMDL
MODEL 4
REMARK VINA RESULT:    -5.393      1.140      3.735
REMARK INTER + INTRA:         -16.191
REMARK INTER:                 -12.439
REMARK INTRA:                  -3.753
REMARK UNBOUND:                -3.863
REMARK SMILES CCCCCCCCCCCCCCCCCCCCCCCC(=O)[O-]
REMARK SMILES IDX 13 1 14 2 15 3 16 4 17 5 18 6 19 7 20 8 21 9 22 10 23 11
REMARK SMILES IDX 24 12 25 13 26 14 12 15 11 16 10 17 9 18 8 19 7 20 6 21 5 22
REMARK SMILES IDX 4 23 3 24 2 25 1 26
REMARK H PARENT
REMARK Flexibility Score: inf
ROOT
ATOM      1  C   UNL     1     120.793 178.960 127.818  1.00  0.00     0.000 C 
ENDROOT
BRANCH   1   2
ATOM      2  C   UNL     1     122.100 179.344 127.095  1.00  0.00     0.000 C 
BRANCH   2   3
ATOM      3  C   UNL     1     123.391 178.992 127.857  1.00  0.00     0.000 C 
BRANCH   3   4
ATOM      4  C   UNL     1     123.242 178.897 129.390  1.00  0.00     0.000 C 
BRANCH   4   5
ATOM      5  C   UNL     1     123.777 177.598 130.019  1.00  0.00     0.000 C 
BRANCH   5   6
ATOM      6  C   UNL     1     122.745 176.460 130.009  1.00  0.00     0.000 C 
BRANCH   6   7
ATOM      7  C   UNL     1     121.528 176.818 130.873  1.00  0.00     0.000 C 
BRANCH   7   8
ATOM      8  C   UNL     1     120.202 176.363 130.240  1.00  0.00     0.000 C 
BRANCH   8   9
ATOM      9  C   UNL     1     119.628 175.105 130.914  1.00  0.00     0.000 C 
BRANCH   9  10
ATOM     10  C   UNL     1     119.346 173.976 129.911  1.00  0.00     0.006 C 
BRANCH  10  11
ATOM     11  C   UNL     1     119.856 172.615 130.399  1.00  0.00     0.053 C 
BRANCH  11  12
ATOM     12  C   UNL     1     119.288 171.515 129.559  1.00  0.00     0.041 C 
ATOM     13  O   UNL     1     119.916 171.097 128.551  1.00  0.00    -0.550 OA
ATOM     14  O   UNL     1     118.085 170.917 129.917  1.00  0.00    -0.550 OA
ENDBRANCH  11  12
ENDBRANCH  10  11
ENDBRANCH   9  10
ENDBRANCH   8   9
ENDBRANCH   7   8
ENDBRANCH   6   7
ENDBRANCH   5   6
ENDBRANCH   4   5
ENDBRANCH   3   4
ENDBRANCH   2   3
ENDBRANCH   1   2
BRANCH   1  15
ATOM     15  C   UNL     1     119.520 179.218 126.983  1.00  0.00     0.000 C 
BRANCH  15  16
ATOM     16  C   UNL     1     119.427 178.303 125.748  1.00  0.00     0.000 C 
BRANCH  16  17
ATOM     17  C   UNL     1     118.745 178.998 124.559  1.00  0.00     0.000 C 
BRANCH  17  18
ATOM     18  C   UNL     1     119.697 179.189 123.365  1.00  0.00    -0.000 C 
BRANCH  18  19
ATOM     19  C   UNL     1     121.155 178.833 123.724  1.00  0.00    -0.000 C 
BRANCH  19  20
ATOM     20  C   UNL     1     121.952 178.241 122.549  1.00  0.00    -0.000 C 
BRANCH  20  21
ATOM     21  C   UNL     1     122.849 177.065 122.970  1.00  0.00    -0.000 C 
BRANCH  21  22
ATOM     22  C   UNL     1     123.083 177.015 124.488  1.00  0.00    -0.000 C 
BRANCH  22  23
ATOM     23  C   UNL     1     122.766 175.636 125.093  1.00  0.00    -0.000 C 
BRANCH  23  24
ATOM     24  C   UNL     1     122.045 175.738 126.446  1.00  0.00    -0.000 C 
BRANCH  24  25
ATOM     25  C   UNL     1     121.436 174.400 126.892  1.00  0.00    -0.003 C 
ATOM     26  C   UNL     1     122.422 173.608 127.747  1.00  0.00     0.004 C 
ENDBRANCH  24  25
ENDBRANCH  23  24
ENDBRANCH  22  23
ENDBRANCH  21  22
ENDBRANCH  20  21
ENDBRANCH  19  20
ENDBRANCH  18  19
ENDBRANCH  17  18
ENDBRANCH  16  17
ENDBRANCH  15  16
ENDBRANCH   1  15
TORSDOF 22
ENDMDL
MODEL 5
REMARK VINA RESULT:    -5.355      2.139      4.144
REMARK INTER + INTRA:         -16.106
REMARK INTER:                 -12.169
REMARK INTRA:                  -3.937
REMARK UNBOUND:                -3.863
REMARK SMILES CCCCCCCCCCCCCCCCCCCCCCCC(=O)[O-]
REMARK SMILES IDX 13 1 14 2 15 3 16 4 17 5 18 6 19 7 20 8 21 9 22 10 23 11
REMARK SMILES IDX 24 12 25 13 26 14 12 15 11 16 10 17 9 18 8 19 7 20 6 21 5 22
REMARK SMILES IDX 4 23 3 24 2 25 1 26
REMARK H PARENT
REMARK Flexibility Score: inf
ROOT
ATOM      1  C   UNL     1     123.581 178.546 127.318  1.00  0.00     0.000 C 
ENDROOT
BRANCH   1   2
ATOM      2  C   UNL     1     123.799 178.905 128.801  1.00  0.00     0.000 C 
BRANCH   2   3
ATOM      3  C   UNL     1     123.775 177.708 129.770  1.00  0.00     0.000 C 
BRANCH   3   4
ATOM      4  C   UNL     1     122.662 177.751 130.837  1.00  0.00     0.000 C 
BRANCH   4   5
ATOM      5  C   UNL     1     121.542 176.712 130.654  1.00  0.00     0.000 C 
BRANCH   5   6
ATOM      6  C   UNL     1     121.635 175.962 129.316  1.00  0.00     0.000 C 
BRANCH   6   7
ATOM      7  C   UNL     1     120.241 175.547 128.824  1.00  0.00     0.000 C 
BRANCH   7   8
ATOM      8  C   UNL     1     120.208 175.274 127.310  1.00  0.00     0.000 C 
BRANCH   8   9
ATOM      9  C   UNL     1     121.480 175.763 126.596  1.00  0.00     0.000 C 
BRANCH   9  10
ATOM     10  C   UNL     1     122.113 174.678 125.712  1.00  0.00     0.006 C 
BRANCH  10  11
ATOM     11  C   UNL     1     121.647 173.267 126.089  1.00  0.00     0.053 C 
BRANCH  11  12
ATOM     12  C   UNL     1     122.692 172.575 126.906  1.00  0.00     0.041 C 
ATOM     13  O   UNL     1     123.651 171.986 126.343  1.00  0.00    -0.550 OA
ATOM     14  O   UNL     1     122.633 172.622 128.294  1.00  0.00    -0.550 OA
ENDBRANCH  11  12
ENDBRANCH  10  11
ENDBRANCH   9  10
ENDBRANCH   8   9
ENDBRANCH   7   8
ENDBRANCH   6   7
ENDBRANCH   5   6
ENDBRANCH   4   5
ENDBRANCH   3   4
ENDBRANCH   2   3
ENDBRANCH   1   2
BRANCH   1  15
ATOM     15  C   UNL     1     122.306 179.166 126.708  1.00  0.00     0.000 C 
BRANCH  15  16
ATOM     16  C   UNL     1     121.129 179.195 127.699  1.00  0.00     0.000 C 
BRANCH  16  17
ATOM     17  C   UNL     1     119.830 179.697 127.047  1.00  0.00     0.000 C 
BRANCH  17  18
ATOM     18  C   UNL     1     118.899 178.546 126.627  1.00  0.00    -0.000 C 
BRANCH  18  19
ATOM     19  C   UNL     1     118.611 178.559 125.111  1.00  0.00    -0.000 C 
BRANCH  19  20
ATOM     20  C   UNL     1     119.570 179.456 124.310  1.00  0.00    -0.000 C 
BRANCH  20  21
ATOM     21  C   UNL     1     119.821 178.937 122.884  1.00  0.00    -0.000 C 
BRANCH  21  22
ATOM     22  C   UNL     1     121.305 178.994 122.488  1.00  0.00    -0.000 C 
BRANCH  22  23
ATOM     23  C   UNL     1     122.143 177.897 123.169  1.00  0.00    -0.000 C 
BRANCH  23  24
ATOM     24  C   UNL     1     123.128 177.222 122.200  1.00  0.00    -0.000 C 
BRANCH  24  25
ATOM     25  C   UNL     1     124.578 177.277 122.704  1.00  0.00    -0.003 C 
ATOM     26  C   UNL     1     124.644 177.046 124.211  1.00  0.00     0.004 C 
ENDBRANCH  24  25
ENDBRANCH  23  24
ENDBRANCH  22  23
ENDBRANCH  21  22
ENDBRANCH  20  21
ENDBRANCH  19  20
ENDBRANCH  18  19
ENDBRANCH  17  18
ENDBRANCH  16  17
ENDBRANCH  15  16
ENDBRANCH   1  15
TORSDOF 22
ENDMDL
MODEL 6
REMARK VINA RESULT:    -5.346      1.882      4.653
REMARK INTER + INTRA:         -16.083
REMARK INTER:                 -11.645
REMARK INTRA:                  -4.438
REMARK UNBOUND:                -3.863
REMARK SMILES CCCCCCCCCCCCCCCCCCCCCCCC(=O)[O-]
REMARK SMILES IDX 13 1 14 2 15 3 16 4 17 5 18 6 19 7 20 8 21 9 22 10 23 11
REMARK SMILES IDX 24 12 25 13 26 14 12 15 11 16 10 17 9 18 8 19 7 20 6 21 5 22
REMARK SMILES IDX 4 23 3 24 2 25 1 26
REMARK H PARENT
REMARK Flexibility Score: inf
ROOT
ATOM      1  C   UNL     1     121.764 179.356 126.621  1.00  0.00     0.000 C 
ENDROOT
BRANCH   1   2
ATOM      2  C   UNL     1     121.135 179.795 125.284  1.00  0.00     0.000 C 
BRANCH   2   3
ATOM      3  C   UNL     1     120.846 178.652 124.294  1.00  0.00     0.000 C 
BRANCH   3   4
ATOM      4  C   UNL     1     121.827 178.549 123.107  1.00  0.00     0.000 C 
BRANCH   4   5
ATOM      5  C   UNL     1     122.606 177.225 123.016  1.00  0.00     0.000 C 
BRANCH   5   6
ATOM      6  C   UNL     1     123.911 177.242 123.826  1.00  0.00     0.000 C 
BRANCH   6   7
ATOM      7  C   UNL     1     123.980 176.041 124.779  1.00  0.00     0.000 C 
BRANCH   7   8
ATOM      8  C   UNL     1     122.589 175.583 125.251  1.00  0.00     0.000 C 
BRANCH   8   9
ATOM      9  C   UNL     1     122.411 175.712 126.773  1.00  0.00     0.000 C 
BRANCH   9  10
ATOM     10  C   UNL     1     121.980 174.392 127.430  1.00  0.00     0.006 C 
BRANCH  10  11
ATOM     11  C   UNL     1     122.143 173.189 126.493  1.00  0.00     0.053 C 
BRANCH  11  12
ATOM     12  C   UNL     1     120.836 172.479 126.327  1.00  0.00     0.041 C 
ATOM     13  O   UNL     1     120.575 171.459 127.016  1.00  0.00    -0.550 OA
ATOM     14  O   UNL     1     119.885 172.974 125.443  1.00  0.00    -0.550 OA
ENDBRANCH  11  12
ENDBRANCH  10  11
ENDBRANCH   9  10
ENDBRANCH   8   9
ENDBRANCH   7   8
ENDBRANCH   6   7
ENDBRANCH   5   6
ENDBRANCH   4   5
ENDBRANCH   3   4
ENDBRANCH   2   3
ENDBRANCH   1   2
BRANCH   1  15
ATOM     15  C   UNL     1     123.301 179.486 126.660  1.00  0.00     0.000 C 
BRANCH  15  16
ATOM     16  C   UNL     1     123.911 178.917 127.954  1.00  0.00     0.000 C 
BRANCH  16  17
ATOM     17  C   UNL     1     122.840 178.582 129.005  1.00  0.00     0.000 C 
BRANCH  17  18
ATOM     18  C   UNL     1     123.346 177.588 130.065  1.00  0.00    -0.000 C 
BRANCH  18  19
ATOM     19  C   UNL     1     122.209 176.701 130.615  1.00  0.00    -0.000 C 
BRANCH  19  20
ATOM     20  C   UNL     1     120.810 177.126 130.136  1.00  0.00    -0.000 C 
BRANCH  20  21
ATOM     21  C   UNL     1     119.789 175.977 130.186  1.00  0.00    -0.000 C 
BRANCH  21  22
ATOM     22  C   UNL     1     118.857 175.963 128.962  1.00  0.00    -0.000 C 
BRANCH  22  23
ATOM     23  C   UNL     1     119.074 177.174 128.038  1.00  0.00    -0.000 C 
BRANCH  23  24
ATOM     24  C   UNL     1     119.075 176.786 126.550  1.00  0.00    -0.000 C 
BRANCH  24  25
ATOM     25  C   UNL     1     117.756 177.142 125.848  1.00  0.00    -0.003 C 
ATOM     26  C   UNL     1     117.675 178.638 125.560  1.00  0.00     0.004 C 
ENDBRANCH  24  25
ENDBRANCH  23  24
ENDBRANCH  22  23
ENDBRANCH  21  22
ENDBRANCH  20  21
ENDBRANCH  19  20
ENDBRANCH  18  19
ENDBRANCH  17  18
ENDBRANCH  16  17
ENDBRANCH  15  16
ENDBRANCH   1  15
TORSDOF 22
ENDMDL
MODEL 7
REMARK VINA RESULT:    -5.340      1.199      3.176
REMARK INTER + INTRA:         -16.070
REMARK INTER:                 -12.700
REMARK INTRA:                  -3.370
REMARK UNBOUND:                -3.863
REMARK SMILES CCCCCCCCCCCCCCCCCCCCCCCC(=O)[O-]
REMARK SMILES IDX 13 1 14 2 15 3 16 4 17 5 18 6 19 7 20 8 21 9 22 10 23 11
REMARK SMILES IDX 24 12 25 13 26 14 12 15 11 16 10 17 9 18 8 19 7 20 6 21 5 22
REMARK SMILES IDX 4 23 3 24 2 25 1 26
REMARK H PARENT
REMARK Flexibility Score: inf
ROOT
ATOM      1  C   UNL     1     123.446 178.726 127.546  1.00  0.00     0.000 C 
ENDROOT
BRANCH   1   2
ATOM      2  C   UNL     1     123.732 179.341 128.931  1.00  0.00     0.000 C 
BRANCH   2   3
ATOM      3  C   UNL     1     123.732 178.339 130.099  1.00  0.00     0.000 C 
BRANCH   3   4
ATOM      4  C   UNL     1     122.503 178.415 131.028  1.00  0.00     0.000 C 
BRANCH   4   5
ATOM      5  C   UNL     1     121.622 177.153 131.052  1.00  0.00     0.000 C 
BRANCH   5   6
ATOM      6  C   UNL     1     122.046 176.110 130.007  1.00  0.00     0.000 C 
BRANCH   6   7
ATOM      7  C   UNL     1     120.942 175.905 128.960  1.00  0.00     0.000 C 
BRANCH   7   8
ATOM      8  C   UNL     1     119.531 176.021 129.560  1.00  0.00     0.000 C 
BRANCH   8   9
ATOM      9  C   UNL     1     118.810 174.664 129.635  1.00  0.00     0.000 C 
BRANCH   9  10
ATOM     10  C   UNL     1     119.585 173.630 130.466  1.00  0.00     0.006 C 
BRANCH  10  11
ATOM     11  C   UNL     1     120.135 172.482 129.610  1.00  0.00     0.053 C 
BRANCH  11  12
ATOM     12  C   UNL     1     119.014 171.646 129.079  1.00  0.00     0.041 C 
ATOM     13  O   UNL     1     118.186 171.119 129.867  1.00  0.00    -0.550 OA
ATOM     14  O   UNL     1     118.854 171.488 127.707  1.00  0.00    -0.550 OA
ENDBRANCH  11  12
ENDBRANCH  10  11
ENDBRANCH   9  10
ENDBRANCH   8   9
ENDBRANCH   7   8
ENDBRANCH   6   7
ENDBRANCH   5   6
ENDBRANCH   4   5
ENDBRANCH   3   4
ENDBRANCH   2   3
ENDBRANCH   1   2
BRANCH   1  15
ATOM     15  C   UNL     1     122.187 179.294 126.859  1.00  0.00     0.000 C 
BRANCH  15  16
ATOM     16  C   UNL     1     120.923 179.153 127.727  1.00  0.00     0.000 C 
BRANCH  16  17
ATOM     17  C   UNL     1     119.635 179.406 126.927  1.00  0.00     0.000 C 
BRANCH  17  18
ATOM     18  C   UNL     1     118.926 178.100 126.524  1.00  0.00    -0.000 C 
BRANCH  18  19
ATOM     19  C   UNL     1     118.189 178.236 125.175  1.00  0.00    -0.000 C 
BRANCH  19  20
ATOM     20  C   UNL     1     118.713 179.387 124.300  1.00  0.00    -0.000 C 
BRANCH  20  21
ATOM     21  C   UNL     1     119.091 178.931 122.880  1.00  0.00    -0.000 C 
BRANCH  21  22
ATOM     22  C   UNL     1     120.576 179.167 122.561  1.00  0.00    -0.000 C 
BRANCH  22  23
ATOM     23  C   UNL     1     121.515 178.540 123.607  1.00  0.00    -0.000 C 
BRANCH  23  24
ATOM     24  C   UNL     1     122.548 177.590 122.977  1.00  0.00    -0.000 C 
BRANCH  24  25
ATOM     25  C   UNL     1     123.393 176.858 124.030  1.00  0.00    -0.003 C 
ATOM     26  C   UNL     1     122.506 176.100 125.014  1.00  0.00     0.004 C 
ENDBRANCH  24  25
ENDBRANCH  23  24
ENDBRANCH  22  23
ENDBRANCH  21  22
ENDBRANCH  20  21
ENDBRANCH  19  20
ENDBRANCH  18  19
ENDBRANCH  17  18
ENDBRANCH  16  17
ENDBRANCH  15  16
ENDBRANCH   1  15
TORSDOF 22
ENDMDL
MODEL 8
REMARK VINA RESULT:    -5.302      3.183      6.548
REMARK INTER + INTRA:         -15.983
REMARK INTER:                 -12.095
REMARK INTRA:                  -3.888
REMARK UNBOUND:                -3.863
REMARK SMILES CCCCCCCCCCCCCCCCCCCCCCCC(=O)[O-]
REMARK SMILES IDX 13 1 14 2 15 3 16 4 17 5 18 6 19 7 20 8 21 9 22 10 23 11
REMARK SMILES IDX 24 12 25 13 26 14 12 15 11 16 10 17 9 18 8 19 7 20 6 21 5 22
REMARK SMILES IDX 4 23 3 24 2 25 1 26
REMARK H PARENT
REMARK Flexibility Score: inf
ROOT
ATOM      1  C   UNL     1     122.943 179.312 126.642  1.00  0.00     0.000 C 
ENDROOT
BRANCH   1   2
ATOM      2  C   UNL     1     123.835 178.281 125.923  1.00  0.00     0.000 C 
BRANCH   2   3
ATOM      3  C   UNL     1     123.117 177.427 124.861  1.00  0.00     0.000 C 
BRANCH   3   4
ATOM      4  C   UNL     1     122.865 175.959 125.263  1.00  0.00     0.000 C 
BRANCH   4   5
ATOM      5  C   UNL     1     122.049 175.766 126.553  1.00  0.00     0.000 C 
BRANCH   5   6
ATOM      6  C   UNL     1     120.601 175.327 126.284  1.00  0.00     0.000 C 
BRANCH   6   7
ATOM      7  C   UNL     1     119.606 176.315 126.908  1.00  0.00     0.000 C 
BRANCH   7   8
ATOM      8  C   UNL     1     119.732 177.731 126.319  1.00  0.00     0.000 C 
BRANCH   8   9
ATOM      9  C   UNL     1     118.385 178.285 125.823  1.00  0.00     0.000 C 
BRANCH   9  10
ATOM     10  C   UNL     1     118.524 179.094 124.525  1.00  0.00     0.006 C 
BRANCH  10  11
ATOM     11  C   UNL     1     119.987 179.332 124.134  1.00  0.00     0.053 C 
BRANCH  11  12
ATOM     12  C   UNL     1     120.183 179.082 122.671  1.00  0.00     0.041 C 
ATOM     13  O   UNL     1     119.188 178.978 121.907  1.00  0.00    -0.550 OA
ATOM     14  O   UNL     1     121.466 179.013 122.143  1.00  0.00    -0.550 OA
ENDBRANCH  11  12
ENDBRANCH  10  11
ENDBRANCH   9  10
ENDBRANCH   8   9
ENDBRANCH   7   8
ENDBRANCH   6   7
ENDBRANCH   5   6
ENDBRANCH   4   5
ENDBRANCH   3   4
ENDBRANCH   2   3
ENDBRANCH   1   2
BRANCH   1  15
ATOM     15  C   UNL     1     122.856 179.105 128.169  1.00  0.00     0.000 C 
BRANCH  15  16
ATOM     16  C   UNL     1     124.032 178.280 128.722  1.00  0.00     0.000 C 
BRANCH  16  17
ATOM     17  C   UNL     1     123.708 177.646 130.085  1.00  0.00     0.000 C 
BRANCH  17  18
ATOM     18  C   UNL     1     122.649 176.534 129.980  1.00  0.00    -0.000 C 
BRANCH  18  19
ATOM     19  C   UNL     1     121.443 176.796 130.907  1.00  0.00    -0.000 C 
BRANCH  19  20
ATOM     20  C   UNL     1     120.137 176.151 130.412  1.00  0.00    -0.000 C 
BRANCH  20  21
ATOM     21  C   UNL     1     120.229 174.619 130.312  1.00  0.00    -0.000 C 
BRANCH  21  22
ATOM     22  C   UNL     1     118.979 173.994 129.670  1.00  0.00    -0.000 C 
BRANCH  22  23
ATOM     23  C   UNL     1     119.149 172.492 129.383  1.00  0.00    -0.000 C 
BRANCH  23  24
ATOM     24  C   UNL     1     119.944 172.225 128.094  1.00  0.00    -0.000 C 
BRANCH  24  25
ATOM     25  C   UNL     1     121.284 171.525 128.363  1.00  0.00    -0.003 C 
ATOM     26  C   UNL     1     122.453 172.491 128.188  1.00  0.00     0.004 C 
ENDBRANCH  24  25
ENDBRANCH  23  24
ENDBRANCH  22  23
ENDBRANCH  21  22
ENDBRANCH  20  21
ENDBRANCH  19  20
ENDBRANCH  18  19
ENDBRANCH  17  18
ENDBRANCH  16  17
ENDBRANCH  15  16
ENDBRANCH   1  15
TORSDOF 22
ENDMDL
MODEL 9
REMARK VINA RESULT:    -5.271      2.911      6.412
REMARK INTER + INTRA:         -15.912
REMARK INTER:                 -11.655
REMARK INTRA:                  -4.257
REMARK UNBOUND:                -3.863
REMARK SMILES CCCCCCCCCCCCCCCCCCCCCCCC(=O)[O-]
REMARK SMILES IDX 13 1 14 2 15 3 16 4 17 5 18 6 19 7 20 8 21 9 22 10 23 11
REMARK SMILES IDX 24 12 25 13 26 14 12 15 11 16 10 17 9 18 8 19 7 20 6 21 5 22
REMARK SMILES IDX 4 23 3 24 2 25 1 26
REMARK H PARENT
REMARK Flexibility Score: inf
ROOT
ATOM      1  C   UNL     1     120.007 173.078 129.437  1.00  0.00     0.000 C 
ENDROOT
BRANCH   1   2
ATOM      2  C   UNL     1     118.987 172.120 128.792  1.00  0.00     0.000 C 
BRANCH   2   3
ATOM      3  C   UNL     1     119.266 171.768 127.319  1.00  0.00     0.000 C 
BRANCH   3   4
ATOM      4  C   UNL     1     120.568 172.359 126.739  1.00  0.00     0.000 C 
BRANCH   4   5
ATOM      5  C   UNL     1     120.391 173.654 125.925  1.00  0.00     0.000 C 
BRANCH   5   6
ATOM      6  C   UNL     1     121.407 174.741 126.304  1.00  0.00     0.000 C 
BRANCH   6   7
ATOM      7  C   UNL     1     120.792 176.140 126.158  1.00  0.00     0.000 C 
BRANCH   7   8
ATOM      8  C   UNL     1     119.413 176.251 126.832  1.00  0.00     0.000 C 
BRANCH   8   9
ATOM      9  C   UNL     1     119.270 177.532 127.672  1.00  0.00     0.000 C 
BRANCH   9  10
ATOM     10  C   UNL     1     119.481 178.807 126.842  1.00  0.00     0.006 C 
BRANCH  10  11
ATOM     11  C   UNL     1     118.267 179.147 125.969  1.00  0.00     0.053 C 
BRANCH  11  12
ATOM     12  C   UNL     1     118.617 179.026 124.520  1.00  0.00     0.041 C 
ATOM     13  O   UNL     1     119.822 179.034 124.156  1.00  0.00    -0.550 OA
ATOM     14  O   UNL     1     117.614 178.854 123.574  1.00  0.00    -0.550 OA
ENDBRANCH  11  12
ENDBRANCH  10  11
ENDBRANCH   9  10
ENDBRANCH   8   9
ENDBRANCH   7   8
ENDBRANCH   6   7
ENDBRANCH   5   6
ENDBRANCH   4   5
ENDBRANCH   3   4
ENDBRANCH   2   3
ENDBRANCH   1   2
BRANCH   1  15
ATOM     15  C   UNL     1     119.373 174.343 130.052  1.00  0.00     0.000 C 
BRANCH  15  16
ATOM     16  C   UNL     1     120.410 175.441 130.352  1.00  0.00     0.000 C 
BRANCH  16  17
ATOM     17  C   UNL     1     121.749 175.186 129.641  1.00  0.00     0.000 C 
BRANCH  17  18
ATOM     18  C   UNL     1     122.659 176.427 129.638  1.00  0.00    -0.000 C 
BRANCH  18  19
ATOM     19  C   UNL     1     121.912 177.694 130.108  1.00  0.00    -0.000 C 
BRANCH  19  20
ATOM     20  C   UNL     1     122.357 178.975 129.384  1.00  0.00    -0.000 C 
BRANCH  20  21
ATOM     21  C   UNL     1     123.497 178.728 128.381  1.00  0.00    -0.000 C 
BRANCH  21  22
ATOM     22  C   UNL     1     123.302 179.498 127.065  1.00  0.00    -0.000 C 
BRANCH  22  23
ATOM     23  C   UNL     1     123.087 178.567 125.858  1.00  0.00    -0.000 C 
BRANCH  23  24
ATOM     24  C   UNL     1     124.343 177.750 125.514  1.00  0.00    -0.000 C 
BRANCH  24  25
ATOM     25  C   UNL     1     124.246 177.071 124.140  1.00  0.00    -0.003 C 
ATOM     26  C   UNL     1     122.935 177.427 123.445  1.00  0.00     0.004 C 
ENDBRANCH  24  25
ENDBRANCH  23  24
ENDBRANCH  22  23
ENDBRANCH  21  22
ENDBRANCH  20  21
ENDBRANCH  19  20
ENDBRANCH  18  19
ENDBRANCH  17  18
ENDBRANCH  16  17
ENDBRANCH  15  16
ENDBRANCH   1  15
TORSDOF 22
ENDMDL
