MODEL 1
REMARK VINA RESULT:    -4.980      0.000      0.000
REMARK INTER + INTRA:          -6.176
REMARK INTER:                  -5.854
REMARK INTRA:                  -0.323
REMARK UNBOUND:                -0.323
REMARK SMILES Oc1ccc(-c2[o+]c3cc(O)cc(O)c3cc2O)cc1
REMARK SMILES IDX 6 1 7 2 8 3 9 4 10 5 12 6 13 7 15 8 16 9 17 10 5 11 4 12
REMARK SMILES IDX 3 13 2 14 19 15 20 16 1 17 18 19 11 21 14 23
REMARK H PARENT 1 18 18 20 11 22 14 24
REMARK Flexibility Score: inf
ROOT
ATOM      1  C   UNL     1      44.727  30.393  25.255  1.00  0.00     0.401 A 
ATOM      2  O   UNL     1      45.904  30.082  25.795  1.00  0.00    -0.202 OA
ATOM      3  C   UNL     1      46.028  29.513  26.991  1.00  0.00     0.368 A 
ATOM      4  C   UNL     1      47.301  29.222  27.491  1.00  0.00     0.162 A 
ATOM      5  C   UNL     1      47.443  28.626  28.751  1.00  0.00     0.128 A 
ATOM      6  C   UNL     1      46.310  28.321  29.511  1.00  0.00     0.093 A 
ATOM      7  C   UNL     1      45.026  28.607  29.022  1.00  0.00     0.136 A 
ATOM      8  C   UNL     1      44.882  29.206  27.757  1.00  0.00     0.125 A 
ATOM      9  C   UNL     1      43.627  29.505  27.215  1.00  0.00     0.078 A 
ATOM     10  C   UNL     1      43.539  30.094  25.951  1.00  0.00     0.223 A 
ENDROOT
BRANCH   1  11
ATOM     11  C   UNL     1      44.719  31.033  23.919  1.00  0.00     0.084 A 
ATOM     12  C   UNL     1      44.759  30.229  22.767  1.00  0.00     0.022 A 
ATOM     13  C   UNL     1      44.772  30.812  21.496  1.00  0.00     0.047 A 
ATOM     14  C   UNL     1      44.763  32.206  21.362  1.00  0.00     0.115 A 
ATOM     15  C   UNL     1      44.730  32.432  23.776  1.00  0.00     0.022 A 
ATOM     16  C   UNL     1      44.745  33.012  22.504  1.00  0.00     0.047 A 
BRANCH  14  17
ATOM     17  O   UNL     1      44.776  32.798  20.102  1.00  0.00    -0.508 OA
ATOM     18  H   UNL     1      45.644  32.965  19.604  1.00  0.00     0.293 HD
ENDBRANCH  14  17
ENDBRANCH   1  11
BRANCH  10  19
ATOM     19  O   UNL     1      42.289  30.349  25.384  1.00  0.00    -0.500 OA
ATOM     20  H   UNL     1      41.475  30.539  25.956  1.00  0.00     0.294 HD
ENDBRANCH  10  19
BRANCH   5  21
ATOM     21  O   UNL     1      48.708  28.332  29.256  1.00  0.00    -0.507 OA
ATOM     22  H   UNL     1      49.066  27.385  29.272  1.00  0.00     0.293 HD
ENDBRANCH   5  21
BRANCH   7  23
ATOM     23  O   UNL     1      43.903  28.296  29.791  1.00  0.00    -0.507 OA
ATOM     24  H   UNL     1      43.021  28.043  29.363  1.00  0.00     0.293 HD
ENDBRANCH   7  23
TORSDOF 5
ENDMDL
MODEL 2
REMARK VINA RESULT:    -4.791     12.547     14.394
REMARK INTER + INTRA:          -5.954
REMARK INTER:                  -5.684
REMARK INTRA:                  -0.271
REMARK UNBOUND:                -0.323
REMARK SMILES Oc1ccc(-c2[o+]c3cc(O)cc(O)c3cc2O)cc1
REMARK SMILES IDX 6 1 7 2 8 3 9 4 10 5 12 6 13 7 15 8 16 9 17 10 5 11 4 12
REMARK SMILES IDX 3 13 2 14 19 15 20 16 1 17 18 19 11 21 14 23
REMARK H PARENT 1 18 18 20 11 22 14 24
REMARK Flexibility Score: inf
ROOT
ATOM      1  C   UNL     1      31.487  28.855  27.101  1.00  0.00     0.401 A 
ATOM      2  O   UNL     1      30.710  27.885  27.580  1.00  0.00    -0.202 OA
ATOM      3  C   UNL     1      31.160  26.917  28.374  1.00  0.00     0.368 A 
ATOM      4  C   UNL     1      30.280  25.931  28.831  1.00  0.00     0.162 A 
ATOM      5  C   UNL     1      30.744  24.905  29.665  1.00  0.00     0.128 A 
ATOM      6  C   UNL     1      32.091  24.865  30.040  1.00  0.00     0.093 A 
ATOM      7  C   UNL     1      32.985  25.848  29.590  1.00  0.00     0.136 A 
ATOM      8  C   UNL     1      32.520  26.880  28.752  1.00  0.00     0.125 A 
ATOM      9  C   UNL     1      33.364  27.891  28.279  1.00  0.00     0.078 A 
ATOM     10  C   UNL     1      32.850  28.896  27.456  1.00  0.00     0.223 A 
ENDROOT
BRANCH   1  11
ATOM     11  C   UNL     1      30.871  29.872  26.218  1.00  0.00     0.084 A 
ATOM     12  C   UNL     1      29.978  30.811  26.764  1.00  0.00     0.022 A 
ATOM     13  C   UNL     1      29.369  31.767  25.946  1.00  0.00     0.047 A 
ATOM     14  C   UNL     1      29.632  31.786  24.569  1.00  0.00     0.115 A 
ATOM     15  C   UNL     1      31.114  29.886  24.833  1.00  0.00     0.022 A 
ATOM     16  C   UNL     1      30.503  30.842  24.017  1.00  0.00     0.047 A 
BRANCH  14  17
ATOM     17  O   UNL     1      29.031  32.734  23.745  1.00  0.00    -0.508 OA
ATOM     18  H   UNL     1      29.568  33.260  23.063  1.00  0.00     0.293 HD
ENDBRANCH  14  17
ENDBRANCH   1  11
BRANCH  10  19
ATOM     19  O   UNL     1      33.675  29.935  27.022  1.00  0.00    -0.500 OA
ATOM     20  H   UNL     1      33.381  30.578  26.296  1.00  0.00     0.294 HD
ENDBRANCH  10  19
BRANCH   5  21
ATOM     21  O   UNL     1      29.874  23.919  30.125  1.00  0.00    -0.507 OA
ATOM     22  H   UNL     1      30.205  23.129  30.665  1.00  0.00     0.293 HD
ENDBRANCH   5  21
BRANCH   7  23
ATOM     23  O   UNL     1      34.326  25.799  29.973  1.00  0.00    -0.507 OA
ATOM     24  H   UNL     1      34.818  26.624  30.292  1.00  0.00     0.293 HD
ENDBRANCH   7  23
TORSDOF 5
ENDMDL
MODEL 3
REMARK VINA RESULT:    -4.673      4.865      6.928
REMARK INTER + INTRA:          -5.815
REMARK INTER:                  -5.613
REMARK INTRA:                  -0.202
REMARK UNBOUND:                -0.323
REMARK SMILES Oc1ccc(-c2[o+]c3cc(O)cc(O)c3cc2O)cc1
REMARK SMILES IDX 6 1 7 2 8 3 9 4 10 5 12 6 13 7 15 8 16 9 17 10 5 11 4 12
REMARK SMILES IDX 3 13 2 14 19 15 20 16 1 17 18 19 11 21 14 23
REMARK H PARENT 1 18 18 20 11 22 14 24
REMARK Flexibility Score: inf
ROOT
ATOM      1  C   UNL     1      42.349  26.672  29.131  1.00  0.00     0.401 A 
ATOM      2  O   UNL     1      43.034  27.812  29.040  1.00  0.00    -0.202 OA
ATOM      3  C   UNL     1      44.358  27.874  29.138  1.00  0.00     0.368 A 
ATOM      4  C   UNL     1      45.003  29.111  29.037  1.00  0.00     0.162 A 
ATOM      5  C   UNL     1      46.398  29.189  29.142  1.00  0.00     0.128 A 
ATOM      6  C   UNL     1      47.148  28.028  29.350  1.00  0.00     0.093 A 
ATOM      7  C   UNL     1      46.516  26.780  29.453  1.00  0.00     0.136 A 
ATOM      8  C   UNL     1      45.114  26.700  29.347  1.00  0.00     0.125 A 
ATOM      9  C   UNL     1      44.431  25.482  29.434  1.00  0.00     0.078 A 
ATOM     10  C   UNL     1      43.039  25.457  29.316  1.00  0.00     0.223 A 
ENDROOT
BRANCH   1  11
ATOM     11  C   UNL     1      40.874  26.732  29.015  1.00  0.00     0.084 A 
ATOM     12  C   UNL     1      40.293  27.199  27.824  1.00  0.00     0.022 A 
ATOM     13  C   UNL     1      38.903  27.284  27.699  1.00  0.00     0.047 A 
ATOM     14  C   UNL     1      38.077  26.917  28.770  1.00  0.00     0.115 A 
ATOM     15  C   UNL     1      40.038  26.385  30.092  1.00  0.00     0.022 A 
ATOM     16  C   UNL     1      38.649  26.471  29.966  1.00  0.00     0.047 A 
BRANCH  14  17
ATOM     17  O   UNL     1      36.691  26.997  28.658  1.00  0.00    -0.508 OA
ATOM     18  H   UNL     1      36.208  27.888  28.677  1.00  0.00     0.293 HD
ENDBRANCH  14  17
ENDBRANCH   1  11
BRANCH  10  19
ATOM     19  O   UNL     1      42.355  24.241  29.351  1.00  0.00    -0.500 OA
ATOM     20  H   UNL     1      41.901  23.911  30.195  1.00  0.00     0.294 HD
ENDBRANCH  10  19
BRANCH   5  21
ATOM     21  O   UNL     1      47.047  30.418  29.042  1.00  0.00    -0.507 OA
ATOM     22  H   UNL     1      46.914  31.024  28.242  1.00  0.00     0.293 HD
ENDBRANCH   5  21
BRANCH   7  23
ATOM     23  O   UNL     1      47.277  25.628  29.658  1.00  0.00    -0.507 OA
ATOM     24  H   UNL     1      46.871  24.703  29.584  1.00  0.00     0.293 HD
ENDBRANCH   7  23
TORSDOF 5
ENDMDL
MODEL 4
REMARK VINA RESULT:    -4.668     12.513     15.540
REMARK INTER + INTRA:          -5.810
REMARK INTER:                  -5.507
REMARK INTRA:                  -0.303
REMARK UNBOUND:                -0.323
REMARK SMILES Oc1ccc(-c2[o+]c3cc(O)cc(O)c3cc2O)cc1
REMARK SMILES IDX 6 1 7 2 8 3 9 4 10 5 12 6 13 7 15 8 16 9 17 10 5 11 4 12
REMARK SMILES IDX 3 13 2 14 19 15 20 16 1 17 18 19 11 21 14 23
REMARK H PARENT 1 18 18 20 11 22 14 24
REMARK Flexibility Score: inf
ROOT
ATOM      1  C   UNL     1      31.536  28.440  27.379  1.00  0.00     0.401 A 
ATOM      2  O   UNL     1      30.575  29.087  26.720  1.00  0.00    -0.202 OA
ATOM      3  C   UNL     1      30.785  30.220  26.056  1.00  0.00     0.368 A 
ATOM      4  C   UNL     1      29.722  30.842  25.394  1.00  0.00     0.162 A 
ATOM      5  C   UNL     1      29.930  32.037  24.694  1.00  0.00     0.128 A 
ATOM      6  C   UNL     1      31.204  32.612  24.657  1.00  0.00     0.093 A 
ATOM      7  C   UNL     1      32.281  32.000  25.316  1.00  0.00     0.136 A 
ATOM      8  C   UNL     1      32.072  30.798  26.020  1.00  0.00     0.125 A 
ATOM      9  C   UNL     1      33.110  30.139  26.689  1.00  0.00     0.078 A 
ATOM     10  C   UNL     1      32.852  28.945  27.367  1.00  0.00     0.223 A 
ENDROOT
BRANCH   1  11
ATOM     11  C   UNL     1      31.177  27.191  28.089  1.00  0.00     0.084 A 
ATOM     12  C   UNL     1      30.989  26.008  27.355  1.00  0.00     0.022 A 
ATOM     13  C   UNL     1      30.629  24.822  28.002  1.00  0.00     0.047 A 
ATOM     14  C   UNL     1      30.438  24.808  29.390  1.00  0.00     0.115 A 
ATOM     15  C   UNL     1      30.964  27.173  29.479  1.00  0.00     0.022 A 
ATOM     16  C   UNL     1      30.604  25.987  30.124  1.00  0.00     0.047 A 
BRANCH  14  17
ATOM     17  O   UNL     1      30.081  23.633  30.046  1.00  0.00    -0.508 OA
ATOM     18  H   UNL     1      29.185  23.537  30.512  1.00  0.00     0.293 HD
ENDBRANCH  14  17
ENDBRANCH   1  11
BRANCH  10  19
ATOM     19  O   UNL     1      33.892  28.257  27.993  1.00  0.00    -0.500 OA
ATOM     20  H   UNL     1      34.295  28.582  28.864  1.00  0.00     0.294 HD
ENDBRANCH  10  19
BRANCH   5  21
ATOM     21  O   UNL     1      28.875  32.662  24.031  1.00  0.00    -0.507 OA
ATOM     22  H   UNL     1      28.422  33.483  24.412  1.00  0.00     0.293 HD
ENDBRANCH   5  21
BRANCH   7  23
ATOM     23  O   UNL     1      33.548  32.583  25.271  1.00  0.00    -0.507 OA
ATOM     24  H   UNL     1      34.344  32.093  24.880  1.00  0.00     0.293 HD
ENDBRANCH   7  23
TORSDOF 5
ENDMDL
MODEL 5
REMARK VINA RESULT:    -4.610     10.309     12.542
REMARK INTER + INTRA:          -5.741
REMARK INTER:                  -5.494
REMARK INTRA:                  -0.247
REMARK UNBOUND:                -0.323
REMARK SMILES Oc1ccc(-c2[o+]c3cc(O)cc(O)c3cc2O)cc1
REMARK SMILES IDX 6 1 7 2 8 3 9 4 10 5 12 6 13 7 15 8 16 9 17 10 5 11 4 12
REMARK SMILES IDX 3 13 2 14 19 15 20 16 1 17 18 19 11 21 14 23
REMARK H PARENT 1 18 18 20 11 22 14 24
REMARK Flexibility Score: inf
ROOT
ATOM      1  C   UNL     1      34.238  31.892  24.269  1.00  0.00     0.401 A 
ATOM      2  O   UNL     1      33.694  31.264  25.312  1.00  0.00    -0.202 OA
ATOM      3  C   UNL     1      32.383  31.209  25.524  1.00  0.00     0.368 A 
ATOM      4  C   UNL     1      31.891  30.534  26.646  1.00  0.00     0.162 A 
ATOM      5  C   UNL     1      30.512  30.473  26.883  1.00  0.00     0.128 A 
ATOM      6  C   UNL     1      29.623  31.088  25.996  1.00  0.00     0.093 A 
ATOM      7  C   UNL     1      30.102  31.769  24.866  1.00  0.00     0.136 A 
ATOM      8  C   UNL     1      31.488  31.831  24.627  1.00  0.00     0.125 A 
ATOM      9  C   UNL     1      32.021  32.488  23.513  1.00  0.00     0.078 A 
ATOM     10  C   UNL     1      33.404  32.515  23.319  1.00  0.00     0.223 A 
ENDROOT
BRANCH   1  11
ATOM     11  C   UNL     1      35.713  31.892  24.145  1.00  0.00     0.084 A 
ATOM     12  C   UNL     1      36.428  33.077  24.389  1.00  0.00     0.022 A 
ATOM     13  C   UNL     1      37.820  33.105  24.257  1.00  0.00     0.047 A 
ATOM     14  C   UNL     1      38.513  31.952  23.863  1.00  0.00     0.115 A 
ATOM     15  C   UNL     1      36.414  30.745  23.731  1.00  0.00     0.022 A 
ATOM     16  C   UNL     1      37.805  30.775  23.599  1.00  0.00     0.047 A 
BRANCH  14  17
ATOM     17  O   UNL     1      39.898  31.968  23.729  1.00  0.00    -0.508 OA
ATOM     18  H   UNL     1      40.439  32.806  23.914  1.00  0.00     0.293 HD
ENDBRANCH  14  17
ENDBRANCH   1  11
BRANCH  10  19
ATOM     19  O   UNL     1      33.940  33.125  22.183  1.00  0.00    -0.500 OA
ATOM     20  H   UNL     1      34.062  34.130  22.128  1.00  0.00     0.294 HD
ENDBRANCH  10  19
BRANCH   5  21
ATOM     21  O   UNL     1      30.015  29.802  27.998  1.00  0.00    -0.507 OA
ATOM     22  H   UNL     1      30.357  29.998  28.931  1.00  0.00     0.293 HD
ENDBRANCH   5  21
BRANCH   7  23
ATOM     23  O   UNL     1      29.204  32.377  23.988  1.00  0.00    -0.507 OA
ATOM     24  H   UNL     1      29.505  33.082  23.325  1.00  0.00     0.293 HD
ENDBRANCH   7  23
TORSDOF 5
ENDMDL
MODEL 6
REMARK VINA RESULT:    -4.562      1.357      2.692
REMARK INTER + INTRA:          -5.685
REMARK INTER:                  -5.686
REMARK INTRA:                   0.001
REMARK UNBOUND:                -0.323
REMARK SMILES Oc1ccc(-c2[o+]c3cc(O)cc(O)c3cc2O)cc1
REMARK SMILES IDX 6 1 7 2 8 3 9 4 10 5 12 6 13 7 15 8 16 9 17 10 5 11 4 12
REMARK SMILES IDX 3 13 2 14 19 15 20 16 1 17 18 19 11 21 14 23
REMARK H PARENT 1 18 18 20 11 22 14 24
REMARK Flexibility Score: inf
ROOT
ATOM      1  C   UNL     1      45.010  30.391  25.524  1.00  0.00     0.401 A 
ATOM      2  O   UNL     1      44.219  29.706  26.349  1.00  0.00    -0.202 OA
ATOM      3  C   UNL     1      44.676  29.018  27.391  1.00  0.00     0.368 A 
ATOM      4  C   UNL     1      43.780  28.319  28.207  1.00  0.00     0.162 A 
ATOM      5  C   UNL     1      44.250  27.588  29.306  1.00  0.00     0.128 A 
ATOM      6  C   UNL     1      45.619  27.556  29.588  1.00  0.00     0.093 A 
ATOM      7  C   UNL     1      46.530  28.252  28.779  1.00  0.00     0.136 A 
ATOM      8  C   UNL     1      46.059  28.987  27.675  1.00  0.00     0.125 A 
ATOM      9  C   UNL     1      46.920  29.707  26.839  1.00  0.00     0.078 A 
ATOM     10  C   UNL     1      46.399  30.425  25.759  1.00  0.00     0.223 A 
ENDROOT
BRANCH   1  11
ATOM     11  C   UNL     1      44.384  31.111  24.392  1.00  0.00     0.084 A 
ATOM     12  C   UNL     1      43.537  30.414  23.513  1.00  0.00     0.022 A 
ATOM     13  C   UNL     1      42.951  31.069  22.426  1.00  0.00     0.047 A 
ATOM     14  C   UNL     1      43.218  32.425  22.194  1.00  0.00     0.115 A 
ATOM     15  C   UNL     1      44.661  32.467  24.142  1.00  0.00     0.022 A 
ATOM     16  C   UNL     1      44.075  33.119  23.053  1.00  0.00     0.047 A 
BRANCH  14  17
ATOM     17  O   UNL     1      42.640  33.088  21.115  1.00  0.00    -0.508 OA
ATOM     18  H   UNL     1      42.495  32.625  20.225  1.00  0.00     0.293 HD
ENDBRANCH  14  17
ENDBRANCH   1  11
BRANCH  10  19
ATOM     19  O   UNL     1      47.246  31.186  24.952  1.00  0.00    -0.500 OA
ATOM     20  H   UNL     1      47.153  32.193  24.884  1.00  0.00     0.294 HD
ENDBRANCH  10  19
BRANCH   5  21
ATOM     21  O   UNL     1      43.364  26.890  30.123  1.00  0.00    -0.507 OA
ATOM     22  H   UNL     1      43.653  26.068  30.638  1.00  0.00     0.293 HD
ENDBRANCH   5  21
BRANCH   7  23
ATOM     23  O   UNL     1      47.894  28.213  29.073  1.00  0.00    -0.507 OA
ATOM     24  H   UNL     1      48.286  27.504  29.681  1.00  0.00     0.293 HD
ENDBRANCH   7  23
TORSDOF 5
ENDMDL
MODEL 7
REMARK VINA RESULT:    -4.484      1.902      6.903
REMARK INTER + INTRA:          -5.592
REMARK INTER:                  -5.359
REMARK INTRA:                  -0.233
REMARK UNBOUND:                -0.323
REMARK SMILES Oc1ccc(-c2[o+]c3cc(O)cc(O)c3cc2O)cc1
REMARK SMILES IDX 6 1 7 2 8 3 9 4 10 5 12 6 13 7 15 8 16 9 17 10 5 11 4 12
REMARK SMILES IDX 3 13 2 14 19 15 20 16 1 17 18 19 11 21 14 23
REMARK H PARENT 1 18 18 20 11 22 14 24
REMARK Flexibility Score: inf
ROOT
ATOM      1  C   UNL     1      45.170  30.142  25.597  1.00  0.00     0.401 A 
ATOM      2  O   UNL     1      43.878  29.928  25.350  1.00  0.00    -0.202 OA
ATOM      3  C   UNL     1      43.205  30.562  24.395  1.00  0.00     0.368 A 
ATOM      4  C   UNL     1      41.848  30.284  24.203  1.00  0.00     0.162 A 
ATOM      5  C   UNL     1      41.128  30.948  23.202  1.00  0.00     0.128 A 
ATOM      6  C   UNL     1      41.766  31.893  22.392  1.00  0.00     0.093 A 
ATOM      7  C   UNL     1      43.127  32.182  22.572  1.00  0.00     0.136 A 
ATOM      8  C   UNL     1      43.852  31.514  23.578  1.00  0.00     0.125 A 
ATOM      9  C   UNL     1      45.213  31.756  23.798  1.00  0.00     0.078 A 
ATOM     10  C   UNL     1      45.888  31.062  24.805  1.00  0.00     0.223 A 
ENDROOT
BRANCH   1  11
ATOM     11  C   UNL     1      45.808  29.380  26.694  1.00  0.00     0.084 A 
ATOM     12  C   UNL     1      46.683  28.325  26.386  1.00  0.00     0.022 A 
ATOM     13  C   UNL     1      47.281  27.579  27.407  1.00  0.00     0.047 A 
ATOM     14  C   UNL     1      46.998  27.869  28.748  1.00  0.00     0.115 A 
ATOM     15  C   UNL     1      45.515  29.652  28.043  1.00  0.00     0.022 A 
ATOM     16  C   UNL     1      46.112  28.904  29.061  1.00  0.00     0.047 A 
BRANCH  14  17
ATOM     17  O   UNL     1      47.587  27.133  29.773  1.00  0.00    -0.508 OA
ATOM     18  H   UNL     1      48.323  27.524  30.350  1.00  0.00     0.293 HD
ENDBRANCH  14  17
ENDBRANCH   1  11
BRANCH  10  19
ATOM     19  O   UNL     1      47.256  31.261  24.996  1.00  0.00    -0.500 OA
ATOM     20  H   UNL     1      47.624  32.152  25.311  1.00  0.00     0.294 HD
ENDBRANCH  10  19
BRANCH   5  21
ATOM     21  O   UNL     1      39.775  30.676  23.004  1.00  0.00    -0.507 OA
ATOM     22  H   UNL     1      39.294  29.966  23.541  1.00  0.00     0.293 HD
ENDBRANCH   5  21
BRANCH   7  23
ATOM     23  O   UNL     1      43.753  33.125  21.756  1.00  0.00    -0.507 OA
ATOM     24  H   UNL     1      44.667  33.500  21.982  1.00  0.00     0.293 HD
ENDBRANCH   7  23
TORSDOF 5
ENDMDL
MODEL 8
REMARK VINA RESULT:    -4.384      1.960      6.616
REMARK INTER + INTRA:          -5.476
REMARK INTER:                  -5.163
REMARK INTRA:                  -0.312
REMARK UNBOUND:                -0.323
REMARK SMILES Oc1ccc(-c2[o+]c3cc(O)cc(O)c3cc2O)cc1
REMARK SMILES IDX 6 1 7 2 8 3 9 4 10 5 12 6 13 7 15 8 16 9 17 10 5 11 4 12
REMARK SMILES IDX 3 13 2 14 19 15 20 16 1 17 18 19 11 21 14 23
REMARK H PARENT 1 18 18 20 11 22 14 24
REMARK Flexibility Score: inf
ROOT
ATOM      1  C   UNL     1      43.946  30.257  25.117  1.00  0.00     0.401 A 
ATOM      2  O   UNL     1      45.078  30.672  24.550  1.00  0.00    -0.202 OA
ATOM      3  C   UNL     1      45.118  31.288  23.372  1.00  0.00     0.368 A 
ATOM      4  C   UNL     1      46.349  31.687  22.841  1.00  0.00     0.162 A 
ATOM      5  C   UNL     1      46.404  32.333  21.599  1.00  0.00     0.128 A 
ATOM      6  C   UNL     1      45.226  32.580  20.888  1.00  0.00     0.093 A 
ATOM      7  C   UNL     1      43.984  32.186  21.408  1.00  0.00     0.136 A 
ATOM      8  C   UNL     1      43.927  31.536  22.655  1.00  0.00     0.125 A 
ATOM      9  C   UNL     1      42.717  31.128  23.227  1.00  0.00     0.078 A 
ATOM     10  C   UNL     1      42.715  30.492  24.471  1.00  0.00     0.223 A 
ENDROOT
BRANCH   1  11
ATOM     11  C   UNL     1      44.030  29.575  26.429  1.00  0.00     0.084 A 
ATOM     12  C   UNL     1      44.214  28.182  26.473  1.00  0.00     0.022 A 
ATOM     13  C   UNL     1      44.276  27.515  27.700  1.00  0.00     0.047 A 
ATOM     14  C   UNL     1      44.138  28.229  28.897  1.00  0.00     0.115 A 
ATOM     15  C   UNL     1      43.874  30.282  27.635  1.00  0.00     0.022 A 
ATOM     16  C   UNL     1      43.935  29.612  28.860  1.00  0.00     0.047 A 
BRANCH  14  17
ATOM     17  O   UNL     1      44.199  27.575  30.125  1.00  0.00    -0.508 OA
ATOM     18  H   UNL     1      44.127  28.082  31.000  1.00  0.00     0.293 HD
ENDBRANCH  14  17
ENDBRANCH   1  11
BRANCH  10  19
ATOM     19  O   UNL     1      41.508  30.128  25.069  1.00  0.00    -0.500 OA
ATOM     20  H   UNL     1      40.668  29.979  24.522  1.00  0.00     0.294 HD
ENDBRANCH  10  19
BRANCH   5  21
ATOM     21  O   UNL     1      47.626  32.735  21.064  1.00  0.00    -0.507 OA
ATOM     22  H   UNL     1      48.339  33.169  21.637  1.00  0.00     0.293 HD
ENDBRANCH   5  21
BRANCH   7  23
ATOM     23  O   UNL     1      42.815  32.439  20.688  1.00  0.00    -0.507 OA
ATOM     24  H   UNL     1      42.841  32.819  19.749  1.00  0.00     0.293 HD
ENDBRANCH   7  23
TORSDOF 5
ENDMDL
MODEL 9
REMARK VINA RESULT:    -4.360      1.568      6.670
REMARK INTER + INTRA:          -5.447
REMARK INTER:                  -5.203
REMARK INTRA:                  -0.244
REMARK UNBOUND:                -0.323
REMARK SMILES Oc1ccc(-c2[o+]c3cc(O)cc(O)c3cc2O)cc1
REMARK SMILES IDX 6 1 7 2 8 3 9 4 10 5 12 6 13 7 15 8 16 9 17 10 5 11 4 12
REMARK SMILES IDX 3 13 2 14 19 15 20 16 1 17 18 19 11 21 14 23
REMARK H PARENT 1 18 18 20 11 22 14 24
REMARK Flexibility Score: inf
ROOT
ATOM      1  C   UNL     1      45.258  29.941  25.518  1.00  0.00     0.401 A 
ATOM      2  O   UNL     1      46.065  30.257  24.506  1.00  0.00    -0.202 OA
ATOM      3  C   UNL     1      45.664  30.950  23.444  1.00  0.00     0.368 A 
ATOM      4  C   UNL     1      46.572  31.237  22.420  1.00  0.00     0.162 A 
ATOM      5  C   UNL     1      46.160  31.963  21.295  1.00  0.00     0.128 A 
ATOM      6  C   UNL     1      44.836  32.402  21.195  1.00  0.00     0.093 A 
ATOM      7  C   UNL     1      43.913  32.122  22.214  1.00  0.00     0.136 A 
ATOM      8  C   UNL     1      44.327  31.393  23.345  1.00  0.00     0.125 A 
ATOM      9  C   UNL     1      43.453  31.092  24.396  1.00  0.00     0.078 A 
ATOM     10  C   UNL     1      43.916  30.371  25.499  1.00  0.00     0.223 A 
ENDROOT
BRANCH   1  11
ATOM     11  C   UNL     1      45.820  29.158  26.642  1.00  0.00     0.084 A 
ATOM     12  C   UNL     1      46.794  29.740  27.472  1.00  0.00     0.022 A 
ATOM     13  C   UNL     1      47.353  29.011  28.526  1.00  0.00     0.047 A 
ATOM     14  C   UNL     1      46.958  27.686  28.753  1.00  0.00     0.115 A 
ATOM     15  C   UNL     1      45.443  27.821  26.865  1.00  0.00     0.022 A 
ATOM     16  C   UNL     1      46.004  27.095  27.919  1.00  0.00     0.047 A 
BRANCH  14  17
ATOM     17  O   UNL     1      47.507  26.951  29.800  1.00  0.00    -0.508 OA
ATOM     18  H   UNL     1      48.396  27.205  30.217  1.00  0.00     0.293 HD
ENDBRANCH  14  17
ENDBRANCH   1  11
BRANCH  10  19
ATOM     19  O   UNL     1      43.063  30.112  26.573  1.00  0.00    -0.500 OA
ATOM     20  H   UNL     1      42.124  30.492  26.610  1.00  0.00     0.294 HD
ENDBRANCH  10  19
BRANCH   5  21
ATOM     21  O   UNL     1      47.059  32.252  20.271  1.00  0.00    -0.507 OA
ATOM     22  H   UNL     1      47.296  31.567  19.564  1.00  0.00     0.293 HD
ENDBRANCH   5  21
BRANCH   7  23
ATOM     23  O   UNL     1      42.595  32.568  22.103  1.00  0.00    -0.507 OA
ATOM     24  H   UNL     1      41.815  31.922  22.096  1.00  0.00     0.293 HD
ENDBRANCH   7  23
TORSDOF 5
ENDMDL
