MODEL 1
REMARK VINA RESULT:    -3.852      0.000      0.000
REMARK INTER + INTRA:          -6.869
REMARK INTER:                  -5.879
REMARK INTRA:                  -0.990
REMARK UNBOUND:                -0.990
REMARK SMILES CCCCCCCCCCC(=O)[O-]
REMARK SMILES IDX 7 1 8 2 9 3 10 4 11 5 12 6 13 7 6 8 5 9 4 10 3 11 2 12 1 13
REMARK H PARENT
REMARK Flexibility Score: inf
ROOT
ATOM      1  C   UNL     1       7.053  34.951  -0.390  1.00  0.00     0.000 C 
ENDROOT
BRANCH   1   2
ATOM      2  C   UNL     1       7.966  34.398  -1.496  1.00  0.00     0.000 C 
BRANCH   2   3
ATOM      3  C   UNL     1       8.741  33.167  -1.003  1.00  0.00     0.006 C 
BRANCH   3   4
ATOM      4  C   UNL     1       9.804  32.708  -2.010  1.00  0.00     0.053 C 
BRANCH   4   5
ATOM      5  C   UNL     1      10.539  31.495  -1.529  1.00  0.00     0.041 C 
ATOM      6  O   UNL     1      11.388  30.933  -2.269  1.00  0.00    -0.550 OA
ATOM      7  O   UNL     1      10.310  31.005  -0.249  1.00  0.00    -0.550 OA
ENDBRANCH   4   5
ENDBRANCH   3   4
ENDBRANCH   2   3
ENDBRANCH   1   2
BRANCH   1   8
ATOM      8  C   UNL     1       7.725  34.949   0.992  1.00  0.00     0.000 C 
BRANCH   8   9
ATOM      9  C   UNL     1       8.635  36.169   1.208  1.00  0.00    -0.000 C 
BRANCH   9  10
ATOM     10  C   UNL     1      10.128  35.797   1.283  1.00  0.00    -0.000 C 
BRANCH  10  11
ATOM     11  C   UNL     1      11.002  36.356   0.142  1.00  0.00    -0.000 C 
BRANCH  11  12
ATOM     12  C   UNL     1      10.256  37.228  -0.883  1.00  0.00    -0.003 C 
ATOM     13  C   UNL     1      10.730  38.680  -0.885  1.00  0.00     0.004 C 
ENDBRANCH  11  12
ENDBRANCH  10  11
ENDBRANCH   9  10
ENDBRANCH   8   9
ENDBRANCH   1   8
TORSDOF 9
ENDMDL
MODEL 2
REMARK VINA RESULT:    -3.851      1.328      1.940
REMARK INTER + INTRA:          -6.866
REMARK INTER:                  -5.596
REMARK INTRA:                  -1.270
REMARK UNBOUND:                -0.990
REMARK SMILES CCCCCCCCCCC(=O)[O-]
REMARK SMILES IDX 7 1 8 2 9 3 10 4 11 5 12 6 13 7 6 8 5 9 4 10 3 11 2 12 1 13
REMARK H PARENT
REMARK Flexibility Score: inf
ROOT
ATOM      1  C   UNL     1       7.142  35.026   0.043  1.00  0.00     0.000 C 
ENDROOT
BRANCH   1   2
ATOM      2  C   UNL     1       6.946  34.426  -1.358  1.00  0.00     0.000 C 
BRANCH   2   3
ATOM      3  C   UNL     1       8.072  33.435  -1.692  1.00  0.00     0.006 C 
BRANCH   3   4
ATOM      4  C   UNL     1       9.006  33.194  -0.498  1.00  0.00     0.053 C 
BRANCH   4   5
ATOM      5  C   UNL     1      10.306  32.585  -0.924  1.00  0.00     0.041 C 
ATOM      6  O   UNL     1      11.193  33.297  -1.465  1.00  0.00    -0.550 OA
ATOM      7  O   UNL     1      10.552  31.237  -0.694  1.00  0.00    -0.550 OA
ENDBRANCH   4   5
ENDBRANCH   3   4
ENDBRANCH   2   3
ENDBRANCH   1   2
BRANCH   1   8
ATOM      8  C   UNL     1       6.919  36.547   0.075  1.00  0.00     0.000 C 
BRANCH   8   9
ATOM      9  C   UNL     1       7.641  37.273  -1.073  1.00  0.00    -0.000 C 
BRANCH   9  10
ATOM     10  C   UNL     1       9.023  37.814  -0.663  1.00  0.00    -0.000 C 
BRANCH  10  11
ATOM     11  C   UNL     1      10.205  36.857  -0.920  1.00  0.00    -0.000 C 
BRANCH  11  12
ATOM     12  C   UNL     1      10.857  36.273   0.346  1.00  0.00    -0.003 C 
ATOM     13  C   UNL     1      10.257  36.831   1.635  1.00  0.00     0.004 C 
ENDBRANCH  11  12
ENDBRANCH  10  11
ENDBRANCH   9  10
ENDBRANCH   8   9
ENDBRANCH   1   8
TORSDOF 9
ENDMDL
MODEL 3
REMARK VINA RESULT:    -3.755      1.557      3.569
REMARK INTER + INTRA:          -6.720
REMARK INTER:                  -5.561
REMARK INTRA:                  -1.159
REMARK UNBOUND:                -0.990
REMARK SMILES CCCCCCCCCCC(=O)[O-]
REMARK SMILES IDX 7 1 8 2 9 3 10 4 11 5 12 6 13 7 6 8 5 9 4 10 3 11 2 12 1 13
REMARK H PARENT
REMARK Flexibility Score: inf
ROOT
ATOM      1  C   UNL     1       9.985  35.811  -0.710  1.00  0.00     0.000 C 
ENDROOT
BRANCH   1   2
ATOM      2  C   UNL     1       9.352  35.032   0.455  1.00  0.00     0.000 C 
BRANCH   2   3
ATOM      3  C   UNL     1       9.218  33.541   0.109  1.00  0.00     0.006 C 
BRANCH   3   4
ATOM      4  C   UNL     1      10.121  33.134  -1.063  1.00  0.00     0.053 C 
BRANCH   4   5
ATOM      5  C   UNL     1      10.408  31.664  -1.059  1.00  0.00     0.041 C 
ATOM      6  O   UNL     1       9.984  30.938  -0.121  1.00  0.00    -0.550 OA
ATOM      7  O   UNL     1      11.114  31.090  -2.109  1.00  0.00    -0.550 OA
ENDBRANCH   4   5
ENDBRANCH   3   4
ENDBRANCH   2   3
ENDBRANCH   1   2
BRANCH   1   8
ATOM      8  C   UNL     1       9.187  37.070  -1.086  1.00  0.00     0.000 C 
BRANCH   8   9
ATOM      9  C   UNL     1       7.711  36.981  -0.666  1.00  0.00    -0.000 C 
BRANCH   9  10
ATOM     10  C   UNL     1       6.746  36.988  -1.866  1.00  0.00    -0.000 C 
BRANCH  10  11
ATOM     11  C   UNL     1       6.878  35.785  -2.822  1.00  0.00    -0.000 C 
BRANCH  11  12
ATOM     12  C   UNL     1       6.512  34.423  -2.208  1.00  0.00    -0.003 C 
ATOM     13  C   UNL     1       7.041  33.242  -3.019  1.00  0.00     0.004 C 
ENDBRANCH  11  12
ENDBRANCH  10  11
ENDBRANCH   9  10
ENDBRANCH   8   9
ENDBRANCH   1   8
TORSDOF 9
ENDMDL
MODEL 4
REMARK VINA RESULT:    -3.746      1.833      3.501
REMARK INTER + INTRA:          -6.706
REMARK INTER:                  -5.553
REMARK INTRA:                  -1.153
REMARK UNBOUND:                -0.990
REMARK SMILES CCCCCCCCCCC(=O)[O-]
REMARK SMILES IDX 7 1 8 2 9 3 10 4 11 5 12 6 13 7 6 8 5 9 4 10 3 11 2 12 1 13
REMARK H PARENT
REMARK Flexibility Score: inf
ROOT
ATOM      1  C   UNL     1      11.251  36.214  -0.474  1.00  0.00     0.000 C 
ENDROOT
BRANCH   1   2
ATOM      2  C   UNL     1       9.982  36.243  -1.341  1.00  0.00     0.000 C 
BRANCH   2   3
ATOM      3  C   UNL     1       8.793  35.621  -0.593  1.00  0.00     0.006 C 
BRANCH   3   4
ATOM      4  C   UNL     1       9.196  34.373   0.202  1.00  0.00     0.053 C 
BRANCH   4   5
ATOM      5  C   UNL     1       8.997  33.119  -0.593  1.00  0.00     0.041 C 
ATOM      6  O   UNL     1       9.503  32.033  -0.203  1.00  0.00    -0.550 OA
ATOM      7  O   UNL     1       8.226  33.143  -1.748  1.00  0.00    -0.550 OA
ENDBRANCH   4   5
ENDBRANCH   3   4
ENDBRANCH   2   3
ENDBRANCH   1   2
BRANCH   1   8
ATOM      8  C   UNL     1      11.828  37.615  -0.218  1.00  0.00     0.000 C 
BRANCH   8   9
ATOM      9  C   UNL     1      10.931  38.734  -0.773  1.00  0.00    -0.000 C 
BRANCH   9  10
ATOM     10  C   UNL     1      10.153  39.478   0.328  1.00  0.00    -0.000 C 
BRANCH  10  11
ATOM     11  C   UNL     1      10.393  38.966   1.763  1.00  0.00    -0.000 C 
BRANCH  11  12
ATOM     12  C   UNL     1       9.313  38.013   2.304  1.00  0.00    -0.003 C 
ATOM     13  C   UNL     1       7.915  38.342   1.783  1.00  0.00     0.004 C 
ENDBRANCH  11  12
ENDBRANCH  10  11
ENDBRANCH   9  10
ENDBRANCH   8   9
ENDBRANCH   1   8
TORSDOF 9
ENDMDL
MODEL 5
REMARK VINA RESULT:    -3.681      3.420      4.492
REMARK INTER + INTRA:          -6.608
REMARK INTER:                  -5.511
REMARK INTRA:                  -1.097
REMARK UNBOUND:                -0.990
REMARK SMILES CCCCCCCCCCC(=O)[O-]
REMARK SMILES IDX 7 1 8 2 9 3 10 4 11 5 12 6 13 7 6 8 5 9 4 10 3 11 2 12 1 13
REMARK H PARENT
REMARK Flexibility Score: inf
ROOT
ATOM      1  C   UNL     1       8.882  33.722  -0.292  1.00  0.00     0.000 C 
ENDROOT
BRANCH   1   2
ATOM      2  C   UNL     1       7.812  33.710  -1.395  1.00  0.00     0.000 C 
BRANCH   2   3
ATOM      3  C   UNL     1       6.653  34.655  -1.044  1.00  0.00     0.006 C 
BRANCH   3   4
ATOM      4  C   UNL     1       6.007  35.270  -2.293  1.00  0.00     0.053 C 
BRANCH   4   5
ATOM      5  C   UNL     1       4.530  35.021  -2.335  1.00  0.00     0.041 C 
ATOM      6  O   UNL     1       3.736  35.961  -2.602  1.00  0.00    -0.550 OA
ATOM      7  O   UNL     1       4.033  33.743  -2.110  1.00  0.00    -0.550 OA
ENDBRANCH   4   5
ENDBRANCH   3   4
ENDBRANCH   2   3
ENDBRANCH   1   2
BRANCH   1   8
ATOM      8  C   UNL     1      10.304  33.526  -0.841  1.00  0.00     0.000 C 
BRANCH   8   9
ATOM      9  C   UNL     1      10.909  34.828  -1.393  1.00  0.00    -0.000 C 
BRANCH   9  10
ATOM     10  C   UNL     1      10.795  36.005  -0.406  1.00  0.00    -0.000 C 
BRANCH  10  11
ATOM     11  C   UNL     1      10.033  37.237  -0.938  1.00  0.00    -0.000 C 
BRANCH  11  12
ATOM     12  C   UNL     1       8.717  37.553  -0.206  1.00  0.00    -0.003 C 
ATOM     13  C   UNL     1       8.739  37.139   1.264  1.00  0.00     0.004 C 
ENDBRANCH  11  12
ENDBRANCH  10  11
ENDBRANCH   9  10
ENDBRANCH   8   9
ENDBRANCH   1   8
TORSDOF 9
ENDMDL
MODEL 6
REMARK VINA RESULT:    -3.676      3.420      4.967
REMARK INTER + INTRA:          -6.600
REMARK INTER:                  -5.608
REMARK INTRA:                  -0.992
REMARK UNBOUND:                -0.990
REMARK SMILES CCCCCCCCCCC(=O)[O-]
REMARK SMILES IDX 7 1 8 2 9 3 10 4 11 5 12 6 13 7 6 8 5 9 4 10 3 11 2 12 1 13
REMARK H PARENT
REMARK Flexibility Score: inf
ROOT
ATOM      1  C   UNL     1       8.070  37.232  -0.592  1.00  0.00     0.000 C 
ENDROOT
BRANCH   1   2
ATOM      2  C   UNL     1       7.237  36.500  -1.656  1.00  0.00     0.000 C 
BRANCH   2   3
ATOM      3  C   UNL     1       6.142  35.644  -1.002  1.00  0.00     0.006 C 
BRANCH   3   4
ATOM      4  C   UNL     1       5.856  34.362  -1.794  1.00  0.00     0.053 C 
BRANCH   4   5
ATOM      5  C   UNL     1       4.429  34.292  -2.244  1.00  0.00     0.041 C 
ATOM      6  O   UNL     1       3.893  33.178  -2.480  1.00  0.00    -0.550 OA
ATOM      7  O   UNL     1       3.683  35.457  -2.372  1.00  0.00    -0.550 OA
ENDBRANCH   4   5
ENDBRANCH   3   4
ENDBRANCH   2   3
ENDBRANCH   1   2
BRANCH   1   8
ATOM      8  C   UNL     1       9.581  37.156  -0.864  1.00  0.00     0.000 C 
BRANCH   8   9
ATOM      9  C   UNL     1      10.029  35.760  -1.327  1.00  0.00    -0.000 C 
BRANCH   9  10
ATOM     10  C   UNL     1      10.224  34.776  -0.158  1.00  0.00    -0.000 C 
BRANCH  10  11
ATOM     11  C   UNL     1       9.158  33.667  -0.048  1.00  0.00    -0.000 C 
BRANCH  11  12
ATOM     12  C   UNL     1       9.162  32.644  -1.197  1.00  0.00    -0.003 C 
ATOM     13  C   UNL     1      10.473  31.868  -1.299  1.00  0.00     0.004 C 
ENDBRANCH  11  12
ENDBRANCH  10  11
ENDBRANCH   9  10
ENDBRANCH   8   9
ENDBRANCH   1   8
TORSDOF 9
ENDMDL
MODEL 7
REMARK VINA RESULT:    -3.664      1.425      2.040
REMARK INTER + INTRA:          -6.581
REMARK INTER:                  -5.710
REMARK INTRA:                  -0.871
REMARK UNBOUND:                -0.990
REMARK SMILES CCCCCCCCCCC(=O)[O-]
REMARK SMILES IDX 7 1 8 2 9 3 10 4 11 5 12 6 13 7 6 8 5 9 4 10 3 11 2 12 1 13
REMARK H PARENT
REMARK Flexibility Score: inf
ROOT
ATOM      1  C   UNL     1       8.219  35.250   1.116  1.00  0.00     0.000 C 
ENDROOT
BRANCH   1   2
ATOM      2  C   UNL     1       7.380  34.879  -0.118  1.00  0.00     0.000 C 
BRANCH   2   3
ATOM      3  C   UNL     1       8.148  33.913  -1.033  1.00  0.00     0.006 C 
BRANCH   3   4
ATOM      4  C   UNL     1       9.273  33.180  -0.289  1.00  0.00     0.053 C 
BRANCH   4   5
ATOM      5  C   UNL     1      10.565  33.232  -1.046  1.00  0.00     0.041 C 
ATOM      6  O   UNL     1      11.131  32.167  -1.407  1.00  0.00    -0.550 OA
ATOM      7  O   UNL     1      11.127  34.458  -1.380  1.00  0.00    -0.550 OA
ENDBRANCH   4   5
ENDBRANCH   3   4
ENDBRANCH   2   3
ENDBRANCH   1   2
BRANCH   1   8
ATOM      8  C   UNL     1       8.891  36.626   0.986  1.00  0.00     0.000 C 
BRANCH   8   9
ATOM      9  C   UNL     1      10.346  36.623   1.486  1.00  0.00    -0.000 C 
BRANCH   9  10
ATOM     10  C   UNL     1      11.307  37.359   0.534  1.00  0.00    -0.000 C 
BRANCH  10  11
ATOM     11  C   UNL     1      10.659  37.924  -0.747  1.00  0.00    -0.000 C 
BRANCH  11  12
ATOM     12  C   UNL     1      10.989  39.396  -1.048  1.00  0.00    -0.003 C 
ATOM     13  C   UNL     1      10.185  40.374  -0.193  1.00  0.00     0.004 C 
ENDBRANCH  11  12
ENDBRANCH  10  11
ENDBRANCH   9  10
ENDBRANCH   8   9
ENDBRANCH   1   8
TORSDOF 9
ENDMDL
MODEL 8
REMARK VINA RESULT:    -3.651      3.563      5.726
REMARK INTER + INTRA:          -6.561
REMARK INTER:                  -5.882
REMARK INTRA:                  -0.679
REMARK UNBOUND:                -0.990
REMARK SMILES CCCCCCCCCCC(=O)[O-]
REMARK SMILES IDX 7 1 8 2 9 3 10 4 11 5 12 6 13 7 6 8 5 9 4 10 3 11 2 12 1 13
REMARK H PARENT
REMARK Flexibility Score: inf
ROOT
ATOM      1  C   UNL     1       8.566  33.977  -0.557  1.00  0.00     0.000 C 
ENDROOT
BRANCH   1   2
ATOM      2  C   UNL     1       9.986  34.527  -0.349  1.00  0.00     0.000 C 
BRANCH   2   3
ATOM      3  C   UNL     1      10.305  35.623  -1.378  1.00  0.00     0.006 C 
BRANCH   3   4
ATOM      4  C   UNL     1       9.731  36.986  -0.971  1.00  0.00     0.053 C 
BRANCH   4   5
ATOM      5  C   UNL     1      10.784  37.885  -0.398  1.00  0.00     0.041 C 
ATOM      6  O   UNL     1      11.967  37.473  -0.271  1.00  0.00    -0.550 OA
ATOM      7  O   UNL     1      10.465  39.187  -0.035  1.00  0.00    -0.550 OA
ENDBRANCH   4   5
ENDBRANCH   3   4
ENDBRANCH   2   3
ENDBRANCH   1   2
BRANCH   1   8
ATOM      8  C   UNL     1       8.409  33.224  -1.888  1.00  0.00     0.000 C 
BRANCH   8   9
ATOM      9  C   UNL     1       7.099  33.575  -2.614  1.00  0.00    -0.000 C 
BRANCH   9  10
ATOM     10  C   UNL     1       6.519  34.933  -2.179  1.00  0.00    -0.000 C 
BRANCH  10  11
ATOM     11  C   UNL     1       5.183  34.862  -1.412  1.00  0.00    -0.000 C 
BRANCH  11  12
ATOM     12  C   UNL     1       3.928  34.771  -2.298  1.00  0.00    -0.003 C 
ATOM     13  C   UNL     1       3.275  33.391  -2.266  1.00  0.00     0.004 C 
ENDBRANCH  11  12
ENDBRANCH  10  11
ENDBRANCH   9  10
ENDBRANCH   8   9
ENDBRANCH   1   8
TORSDOF 9
ENDMDL
MODEL 9
REMARK VINA RESULT:    -3.647      2.511      3.497
REMARK INTER + INTRA:          -6.555
REMARK INTER:                  -5.719
REMARK INTRA:                  -0.836
REMARK UNBOUND:                -0.990
REMARK SMILES CCCCCCCCCCC(=O)[O-]
REMARK SMILES IDX 7 1 8 2 9 3 10 4 11 5 12 6 13 7 6 8 5 9 4 10 3 11 2 12 1 13
REMARK H PARENT
REMARK Flexibility Score: inf
ROOT
ATOM      1  C   UNL     1       9.629  36.056  -1.364  1.00  0.00     0.000 C 
ENDROOT
BRANCH   1   2
ATOM      2  C   UNL     1       8.191  35.952  -0.832  1.00  0.00     0.000 C 
BRANCH   2   3
ATOM      3  C   UNL     1       7.837  34.496  -0.492  1.00  0.00     0.006 C 
BRANCH   3   4
ATOM      4  C   UNL     1       8.178  33.533  -1.637  1.00  0.00     0.053 C 
BRANCH   4   5
ATOM      5  C   UNL     1       7.078  33.465  -2.652  1.00  0.00     0.041 C 
ATOM      6  O   UNL     1       7.317  33.062  -3.820  1.00  0.00    -0.550 OA
ATOM      7  O   UNL     1       5.781  33.815  -2.296  1.00  0.00    -0.550 OA
ENDBRANCH   4   5
ENDBRANCH   3   4
ENDBRANCH   2   3
ENDBRANCH   1   2
BRANCH   1   8
ATOM      8  C   UNL     1      10.684  35.973  -0.249  1.00  0.00     0.000 C 
BRANCH   8   9
ATOM      9  C   UNL     1      11.584  37.218  -0.192  1.00  0.00    -0.000 C 
BRANCH   9  10
ATOM     10  C   UNL     1      10.902  38.476  -0.762  1.00  0.00    -0.000 C 
BRANCH  10  11
ATOM     11  C   UNL     1      10.083  39.297   0.255  1.00  0.00    -0.000 C 
BRANCH  11  12
ATOM     12  C   UNL     1      10.324  38.931   1.731  1.00  0.00    -0.003 C 
ATOM     13  C   UNL     1       9.126  38.235   2.374  1.00  0.00     0.004 C 
ENDBRANCH  11  12
ENDBRANCH  10  11
ENDBRANCH   9  10
ENDBRANCH   8   9
ENDBRANCH   1   8
TORSDOF 9
ENDMDL
