MODEL 1
REMARK VINA RESULT:    -3.486      0.000      0.000
REMARK INTER + INTRA:          -5.372
REMARK INTER:                  -5.116
REMARK INTRA:                  -0.255
REMARK UNBOUND:                -0.255
REMARK SMILES O=C([O-])CCCCCCCC(=O)[O-]
REMARK SMILES IDX 7 1 6 2 5 3 4 4 2 5 1 6 3 7 8 8 9 9 10 10 11 11 12 12 13 13
REMARK H PARENT
REMARK Flexibility Score: inf
ROOT
ATOM      1  C   UNL     1      42.510  21.042  78.958  1.00  0.00     0.000 C 
ENDROOT
BRANCH   1   2
ATOM      2  C   UNL     1      41.174  21.001  78.198  1.00  0.00     0.000 C 
BRANCH   2   3
ATOM      3  C   UNL     1      39.965  20.837  79.132  1.00  0.00     0.006 C 
BRANCH   3   4
ATOM      4  C   UNL     1      40.135  19.611  80.036  1.00  0.00     0.053 C 
BRANCH   4   5
ATOM      5  C   UNL     1      38.802  19.037  80.396  1.00  0.00     0.041 C 
ATOM      6  O   UNL     1      38.359  18.029  79.783  1.00  0.00    -0.550 OA
ATOM      7  O   UNL     1      38.026  19.643  81.376  1.00  0.00    -0.550 OA
ENDBRANCH   4   5
ENDBRANCH   3   4
ENDBRANCH   2   3
ENDBRANCH   1   2
BRANCH   1   8
ATOM      8  C   UNL     1      43.723  20.842  78.033  1.00  0.00     0.000 C 
BRANCH   8   9
ATOM      9  C   UNL     1      44.515  19.568  78.366  1.00  0.00     0.006 C 
BRANCH   9  10
ATOM     10  C   UNL     1      45.844  19.479  77.605  1.00  0.00     0.053 C 
BRANCH  10  11
ATOM     11  C   UNL     1      45.815  18.339  76.637  1.00  0.00     0.041 C 
ATOM     12  O   UNL     1      45.979  18.550  75.406  1.00  0.00    -0.550 OA
ATOM     13  O   UNL     1      45.655  17.038  77.098  1.00  0.00    -0.550 OA
ENDBRANCH  10  11
ENDBRANCH   9  10
ENDBRANCH   8   9
ENDBRANCH   1   8
TORSDOF 8
ENDMDL
MODEL 2
REMARK VINA RESULT:    -3.482      0.849      6.942
REMARK INTER + INTRA:          -5.366
REMARK INTER:                  -5.193
REMARK INTRA:                  -0.173
REMARK UNBOUND:                -0.255
REMARK SMILES O=C([O-])CCCCCCCC(=O)[O-]
REMARK SMILES IDX 7 1 6 2 5 3 4 4 2 5 1 6 3 7 8 8 9 9 10 10 11 11 12 12 13 13
REMARK H PARENT
REMARK Flexibility Score: inf
ROOT
ATOM      1  C   UNL     1      42.706  20.691  78.518  1.00  0.00     0.000 C 
ENDROOT
BRANCH   1   2
ATOM      2  C   UNL     1      44.222  20.546  78.731  1.00  0.00     0.000 C 
BRANCH   2   3
ATOM      3  C   UNL     1      44.773  19.216  78.194  1.00  0.00     0.006 C 
BRANCH   3   4
ATOM      4  C   UNL     1      45.993  19.452  77.299  1.00  0.00     0.053 C 
BRANCH   4   5
ATOM      5  C   UNL     1      45.970  18.523  76.126  1.00  0.00     0.041 C 
ATOM      6  O   UNL     1      45.990  18.983  74.953  1.00  0.00    -0.550 OA
ATOM      7  O   UNL     1      45.877  17.152  76.327  1.00  0.00    -0.550 OA
ENDBRANCH   4   5
ENDBRANCH   3   4
ENDBRANCH   2   3
ENDBRANCH   1   2
BRANCH   1   8
ATOM      8  C   UNL     1      41.896  20.354  79.782  1.00  0.00     0.000 C 
BRANCH   8   9
ATOM      9  C   UNL     1      40.452  19.935  79.462  1.00  0.00     0.006 C 
BRANCH   9  10
ATOM     10  C   UNL     1      39.773  19.208  80.630  1.00  0.00     0.053 C 
BRANCH  10  11
ATOM     11  C   UNL     1      38.370  18.836  80.266  1.00  0.00     0.041 C 
ATOM     12  O   UNL     1      37.471  19.716  80.227  1.00  0.00    -0.550 OA
ATOM     13  O   UNL     1      38.065  17.524  79.924  1.00  0.00    -0.550 OA
ENDBRANCH  10  11
ENDBRANCH   9  10
ENDBRANCH   8   9
ENDBRANCH   1   8
TORSDOF 8
ENDMDL
MODEL 3
REMARK VINA RESULT:    -3.471     17.311     18.187
REMARK INTER + INTRA:          -5.349
REMARK INTER:                  -5.184
REMARK INTRA:                  -0.165
REMARK UNBOUND:                -0.255
REMARK SMILES O=C([O-])CCCCCCCC(=O)[O-]
REMARK SMILES IDX 7 1 6 2 5 3 4 4 2 5 1 6 3 7 8 8 9 9 10 10 11 11 12 12 13 13
REMARK H PARENT
REMARK Flexibility Score: inf
ROOT
ATOM      1  C   UNL     1      46.918  31.480  89.091  1.00  0.00     0.000 C 
ENDROOT
BRANCH   1   2
ATOM      2  C   UNL     1      46.817  31.228  90.605  1.00  0.00     0.000 C 
BRANCH   2   3
ATOM      3  C   UNL     1      45.382  31.378  91.136  1.00  0.00     0.006 C 
BRANCH   3   4
ATOM      4  C   UNL     1      44.949  30.123  91.900  1.00  0.00     0.053 C 
BRANCH   4   5
ATOM      5  C   UNL     1      43.818  30.439  92.827  1.00  0.00     0.041 C 
ATOM      6  O   UNL     1      42.812  29.683  92.880  1.00  0.00    -0.550 OA
ATOM      7  O   UNL     1      43.852  31.594  93.597  1.00  0.00    -0.550 OA
ENDBRANCH   4   5
ENDBRANCH   3   4
ENDBRANCH   2   3
ENDBRANCH   1   2
BRANCH   1   8
ATOM      8  C   UNL     1      48.277  32.075  88.681  1.00  0.00     0.000 C 
BRANCH   8   9
ATOM      9  C   UNL     1      48.131  33.349  87.833  1.00  0.00     0.006 C 
BRANCH   9  10
ATOM     10  C   UNL     1      49.470  33.843  87.270  1.00  0.00     0.053 C 
BRANCH  10  11
ATOM     11  C   UNL     1      49.775  35.215  87.783  1.00  0.00     0.041 C 
ATOM     12  O   UNL     1      48.840  36.013  88.054  1.00  0.00    -0.550 OA
ATOM     13  O   UNL     1      51.092  35.596  88.007  1.00  0.00    -0.550 OA
ENDBRANCH  10  11
ENDBRANCH   9  10
ENDBRANCH   8   9
ENDBRANCH   1   8
TORSDOF 8
ENDMDL
MODEL 4
REMARK VINA RESULT:    -3.437     17.614     19.454
REMARK INTER + INTRA:          -5.300
REMARK INTER:                  -4.941
REMARK INTRA:                  -0.359
REMARK UNBOUND:                -0.255
REMARK SMILES O=C([O-])CCCCCCCC(=O)[O-]
REMARK SMILES IDX 7 1 6 2 5 3 4 4 2 5 1 6 3 7 8 8 9 9 10 10 11 11 12 12 13 13
REMARK H PARENT
REMARK Flexibility Score: inf
ROOT
ATOM      1  C   UNL     1      47.175  29.544  91.179  1.00  0.00     0.000 C 
ENDROOT
BRANCH   1   2
ATOM      2  C   UNL     1      48.685  29.254  91.181  1.00  0.00     0.000 C 
BRANCH   2   3
ATOM      3  C   UNL     1      49.534  30.534  91.143  1.00  0.00     0.006 C 
BRANCH   3   4
ATOM      4  C   UNL     1      50.745  30.414  92.074  1.00  0.00     0.053 C 
BRANCH   4   5
ATOM      5  C   UNL     1      51.178  31.765  92.548  1.00  0.00     0.041 C 
ATOM      6  O   UNL     1      50.570  32.330  93.495  1.00  0.00    -0.550 OA
ATOM      7  O   UNL     1      52.224  32.422  91.911  1.00  0.00    -0.550 OA
ENDBRANCH   4   5
ENDBRANCH   3   4
ENDBRANCH   2   3
ENDBRANCH   1   2
BRANCH   1   8
ATOM      8  C   UNL     1      46.859  31.032  90.949  1.00  0.00     0.000 C 
BRANCH   8   9
ATOM      9  C   UNL     1      45.364  31.350  91.119  1.00  0.00     0.006 C 
BRANCH   9  10
ATOM     10  C   UNL     1      44.522  30.102  91.412  1.00  0.00     0.053 C 
BRANCH  10  11
ATOM     11  C   UNL     1      43.566  30.370  92.531  1.00  0.00     0.041 C 
ATOM     12  O   UNL     1      42.477  29.741  92.598  1.00  0.00    -0.550 OA
ATOM     13  O   UNL     1      43.898  31.279  93.527  1.00  0.00    -0.550 OA
ENDBRANCH  10  11
ENDBRANCH   9  10
ENDBRANCH   8   9
ENDBRANCH   1   8
TORSDOF 8
ENDMDL
MODEL 5
REMARK VINA RESULT:    -3.326     17.003     18.910
REMARK INTER + INTRA:          -5.138
REMARK INTER:                  -4.915
REMARK INTRA:                  -0.222
REMARK UNBOUND:                -0.255
REMARK SMILES O=C([O-])CCCCCCCC(=O)[O-]
REMARK SMILES IDX 7 1 6 2 5 3 4 4 2 5 1 6 3 7 8 8 9 9 10 10 11 11 12 12 13 13
REMARK H PARENT
REMARK Flexibility Score: inf
ROOT
ATOM      1  C   UNL     1      47.092  32.014  89.206  1.00  0.00     0.000 C 
ENDROOT
BRANCH   1   2
ATOM      2  C   UNL     1      47.838  31.439  87.991  1.00  0.00     0.000 C 
BRANCH   2   3
ATOM      3  C   UNL     1      48.587  32.515  87.191  1.00  0.00     0.006 C 
BRANCH   3   4
ATOM      4  C   UNL     1      48.278  33.914  87.733  1.00  0.00     0.053 C 
BRANCH   4   5
ATOM      5  C   UNL     1      49.400  34.855  87.425  1.00  0.00     0.041 C 
ATOM      6  O   UNL     1      49.464  35.974  87.999  1.00  0.00    -0.550 OA
ATOM      7  O   UNL     1      50.348  34.516  86.468  1.00  0.00    -0.550 OA
ENDBRANCH   4   5
ENDBRANCH   3   4
ENDBRANCH   2   3
ENDBRANCH   1   2
BRANCH   1   8
ATOM      8  C   UNL     1      46.833  30.959  90.296  1.00  0.00     0.000 C 
BRANCH   8   9
ATOM      9  C   UNL     1      45.682  31.353  91.236  1.00  0.00     0.006 C 
BRANCH   9  10
ATOM     10  C   UNL     1      45.010  30.139  91.892  1.00  0.00     0.053 C 
BRANCH  10  11
ATOM     11  C   UNL     1      43.833  30.572  92.707  1.00  0.00     0.041 C 
ATOM     12  O   UNL     1      42.749  29.934  92.643  1.00  0.00    -0.550 OA
ATOM     13  O   UNL     1      43.947  31.651  93.574  1.00  0.00    -0.550 OA
ENDBRANCH  10  11
ENDBRANCH   9  10
ENDBRANCH   8   9
ENDBRANCH   1   8
TORSDOF 8
ENDMDL
MODEL 6
REMARK VINA RESULT:    -3.305     17.609     18.512
REMARK INTER + INTRA:          -5.106
REMARK INTER:                  -4.752
REMARK INTRA:                  -0.354
REMARK UNBOUND:                -0.255
REMARK SMILES O=C([O-])CCCCCCCC(=O)[O-]
REMARK SMILES IDX 7 1 6 2 5 3 4 4 2 5 1 6 3 7 8 8 9 9 10 10 11 11 12 12 13 13
REMARK H PARENT
REMARK Flexibility Score: inf
ROOT
ATOM      1  C   UNL     1      47.554  31.084  90.914  1.00  0.00     0.000 C 
ENDROOT
BRANCH   1   2
ATOM      2  C   UNL     1      46.354  31.476  90.037  1.00  0.00     0.000 C 
BRANCH   2   3
ATOM      3  C   UNL     1      45.141  30.555  90.244  1.00  0.00     0.006 C 
BRANCH   3   4
ATOM      4  C   UNL     1      44.118  31.201  91.184  1.00  0.00     0.053 C 
BRANCH   4   5
ATOM      5  C   UNL     1      44.241  30.633  92.562  1.00  0.00     0.041 C 
ATOM      6  O   UNL     1      43.778  31.262  93.550  1.00  0.00    -0.550 OA
ATOM      7  O   UNL     1      44.909  29.431  92.761  1.00  0.00    -0.550 OA
ENDBRANCH   4   5
ENDBRANCH   3   4
ENDBRANCH   2   3
ENDBRANCH   1   2
BRANCH   1   8
ATOM      8  C   UNL     1      48.634  30.318  90.131  1.00  0.00     0.000 C 
BRANCH   8   9
ATOM      9  C   UNL     1      50.055  30.812  90.451  1.00  0.00     0.006 C 
BRANCH   9  10
ATOM     10  C   UNL     1      50.449  30.577  91.914  1.00  0.00     0.053 C 
BRANCH  10  11
ATOM     11  C   UNL     1      51.038  31.820  92.502  1.00  0.00     0.041 C 
ATOM     12  O   UNL     1      50.522  32.344  93.523  1.00  0.00    -0.550 OA
ATOM     13  O   UNL     1      52.186  32.374  91.949  1.00  0.00    -0.550 OA
ENDBRANCH  10  11
ENDBRANCH   9  10
ENDBRANCH   8   9
ENDBRANCH   1   8
TORSDOF 8
ENDMDL
MODEL 7
REMARK VINA RESULT:    -3.205     18.953     20.286
REMARK INTER + INTRA:          -4.959
REMARK INTER:                  -4.209
REMARK INTRA:                  -0.750
REMARK UNBOUND:                -0.255
REMARK SMILES O=C([O-])CCCCCCCC(=O)[O-]
REMARK SMILES IDX 7 1 6 2 5 3 4 4 2 5 1 6 3 7 8 8 9 9 10 10 11 11 12 12 13 13
REMARK H PARENT
REMARK Flexibility Score: inf
ROOT
ATOM      1  C   UNL     1      51.697  33.333  84.437  1.00  0.00     0.000 C 
ENDROOT
BRANCH   1   2
ATOM      2  C   UNL     1      53.027  34.043  84.737  1.00  0.00     0.000 C 
BRANCH   2   3
ATOM      3  C   UNL     1      53.013  34.787  86.081  1.00  0.00     0.006 C 
BRANCH   3   4
ATOM      4  C   UNL     1      53.478  33.872  87.217  1.00  0.00     0.053 C 
BRANCH   4   5
ATOM      5  C   UNL     1      53.640  34.651  88.485  1.00  0.00     0.041 C 
ATOM      6  O   UNL     1      53.680  35.909  88.455  1.00  0.00    -0.550 OA
ATOM      7  O   UNL     1      53.793  33.985  89.694  1.00  0.00    -0.550 OA
ENDBRANCH   4   5
ENDBRANCH   3   4
ENDBRANCH   2   3
ENDBRANCH   1   2
BRANCH   1   8
ATOM      8  C   UNL     1      50.473  34.179  84.830  1.00  0.00     0.000 C 
BRANCH   8   9
ATOM      9  C   UNL     1      49.504  33.420  85.751  1.00  0.00     0.006 C 
BRANCH   9  10
ATOM     10  C   UNL     1      49.756  33.702  87.238  1.00  0.00     0.053 C 
BRANCH  10  11
ATOM     11  C   UNL     1      49.469  35.137  87.552  1.00  0.00     0.041 C 
ATOM     12  O   UNL     1      50.355  35.859  88.079  1.00  0.00    -0.550 OA
ATOM     13  O   UNL     1      48.238  35.689  87.219  1.00  0.00    -0.550 OA
ENDBRANCH  10  11
ENDBRANCH   9  10
ENDBRANCH   8   9
ENDBRANCH   1   8
TORSDOF 8
ENDMDL
MODEL 8
REMARK VINA RESULT:    -3.196     10.514     13.259
REMARK INTER + INTRA:          -4.946
REMARK INTER:                  -4.493
REMARK INTRA:                  -0.453
REMARK UNBOUND:                -0.255
REMARK SMILES O=C([O-])CCCCCCCC(=O)[O-]
REMARK SMILES IDX 7 1 6 2 5 3 4 4 2 5 1 6 3 7 8 8 9 9 10 10 11 11 12 12 13 13
REMARK H PARENT
REMARK Flexibility Score: inf
ROOT
ATOM      1  C   UNL     1      52.156  19.844  85.528  1.00  0.00     0.000 C 
ENDROOT
BRANCH   1   2
ATOM      2  C   UNL     1      53.254  19.792  84.454  1.00  0.00     0.000 C 
BRANCH   2   3
ATOM      3  C   UNL     1      54.650  19.536  85.044  1.00  0.00     0.006 C 
BRANCH   3   4
ATOM      4  C   UNL     1      55.101  18.097  84.777  1.00  0.00     0.053 C 
BRANCH   4   5
ATOM      5  C   UNL     1      55.181  17.326  86.056  1.00  0.00     0.041 C 
ATOM      6  O   UNL     1      55.848  16.260  86.114  1.00  0.00    -0.550 OA
ATOM      7  O   UNL     1      54.479  17.761  87.174  1.00  0.00    -0.550 OA
ENDBRANCH   4   5
ENDBRANCH   3   4
ENDBRANCH   2   3
ENDBRANCH   1   2
BRANCH   1   8
ATOM      8  C   UNL     1      51.285  18.576  85.547  1.00  0.00     0.000 C 
BRANCH   8   9
ATOM      9  C   UNL     1      49.879  18.834  86.112  1.00  0.00     0.006 C 
BRANCH   9  10
ATOM     10  C   UNL     1      49.157  19.988  85.404  1.00  0.00     0.053 C 
BRANCH  10  11
ATOM     11  C   UNL     1      47.936  19.486  84.700  1.00  0.00     0.041 C 
ATOM     12  O   UNL     1      47.973  18.398  84.067  1.00  0.00    -0.550 OA
ATOM     13  O   UNL     1      46.744  20.194  84.784  1.00  0.00    -0.550 OA
ENDBRANCH  10  11
ENDBRANCH   9  10
ENDBRANCH   8   9
ENDBRANCH   1   8
TORSDOF 8
ENDMDL
MODEL 9
REMARK VINA RESULT:    -3.180      4.304      5.802
REMARK INTER + INTRA:          -4.923
REMARK INTER:                  -4.172
REMARK INTRA:                  -0.751
REMARK UNBOUND:                -0.255
REMARK SMILES O=C([O-])CCCCCCCC(=O)[O-]
REMARK SMILES IDX 7 1 6 2 5 3 4 4 2 5 1 6 3 7 8 8 9 9 10 10 11 11 12 12 13 13
REMARK H PARENT
REMARK Flexibility Score: inf
ROOT
ATOM      1  C   UNL     1      41.748  21.092  78.533  1.00  0.00     0.000 C 
ENDROOT
BRANCH   1   2
ATOM      2  C   UNL     1      40.599  21.434  77.570  1.00  0.00     0.000 C 
BRANCH   2   3
ATOM      3  C   UNL     1      40.113  22.884  77.719  1.00  0.00     0.006 C 
BRANCH   3   4
ATOM      4  C   UNL     1      40.186  23.338  79.180  1.00  0.00     0.053 C 
BRANCH   4   5
ATOM      5  C   UNL     1      38.925  22.983  79.903  1.00  0.00     0.041 C 
ATOM      6  O   UNL     1      38.956  22.696  81.128  1.00  0.00    -0.550 OA
ATOM      7  O   UNL     1      37.721  22.924  79.211  1.00  0.00    -0.550 OA
ENDBRANCH   4   5
ENDBRANCH   3   4
ENDBRANCH   2   3
ENDBRANCH   1   2
BRANCH   1   8
ATOM      8  C   UNL     1      41.379  19.971  79.520  1.00  0.00     0.000 C 
BRANCH   8   9
ATOM      9  C   UNL     1      39.916  19.519  79.378  1.00  0.00     0.006 C 
BRANCH   9  10
ATOM     10  C   UNL     1      39.251  19.229  80.730  1.00  0.00     0.053 C 
BRANCH  10  11
ATOM     11  C   UNL     1      37.793  18.951  80.544  1.00  0.00     0.041 C 
ATOM     12  O   UNL     1      37.416  17.867  80.026  1.00  0.00    -0.550 OA
ATOM     13  O   UNL     1      36.848  19.868  80.986  1.00  0.00    -0.550 OA
ENDBRANCH  10  11
ENDBRANCH   9  10
ENDBRANCH   8   9
ENDBRANCH   1   8
TORSDOF 8
ENDMDL
