MODEL 1
REMARK VINA RESULT:    -3.203      0.000      0.000
REMARK INTER + INTRA:          -4.309
REMARK INTER:                  -4.139
REMARK INTRA:                  -0.170
REMARK UNBOUND:                -0.170
REMARK SMILES C=CC(=O)CCCCC
REMARK SMILES IDX 6 1 7 2 8 3 9 4 5 5 3 6 4 7 2 8 1 9
REMARK H PARENT
REMARK Flexibility Score: inf
ROOT
ATOM      1  C   UNL     1      19.304  25.797  24.597  1.00  0.00     0.008 C 
ENDROOT
BRANCH   1   2
ATOM      2  C   UNL     1      18.651  24.601  23.890  1.00  0.00     0.000 C 
BRANCH   2   3
ATOM      3  C   UNL     1      19.460  24.183  22.657  1.00  0.00    -0.003 C 
ATOM      4  C   UNL     1      20.059  25.397  21.953  1.00  0.00     0.004 C 
ENDBRANCH   2   3
ENDBRANCH   1   2
BRANCH   1   5
ATOM      5  C   UNL     1      19.101  25.755  26.118  1.00  0.00     0.080 C 
BRANCH   5   6
ATOM      6  C   UNL     1      20.404  25.609  26.862  1.00  0.00     0.155 C 
ATOM      7  O   UNL     1      21.191  24.686  26.523  1.00  0.00    -0.295 OA
BRANCH   6   8
ATOM      8  C   UNL     1      20.817  26.515  27.956  1.00  0.00     0.039 C 
ATOM      9  C   UNL     1      22.026  27.069  28.051  1.00  0.00     0.012 C 
ENDBRANCH   6   8
ENDBRANCH   5   6
ENDBRANCH   1   5
TORSDOF 5
ENDMDL
MODEL 2
REMARK VINA RESULT:    -3.024     17.178     18.257
REMARK INTER + INTRA:          -4.078
REMARK INTER:                  -3.469
REMARK INTRA:                  -0.608
REMARK UNBOUND:                -0.170
REMARK SMILES C=CC(=O)CCCCC
REMARK SMILES IDX 6 1 7 2 8 3 9 4 5 5 3 6 4 7 2 8 1 9
REMARK H PARENT
REMARK Flexibility Score: inf
ROOT
ATOM      1  C   UNL     1      28.800  41.559  20.119  1.00  0.00     0.008 C 
ENDROOT
BRANCH   1   2
ATOM      2  C   UNL     1      27.809  42.109  21.155  1.00  0.00     0.000 C 
BRANCH   2   3
ATOM      3  C   UNL     1      26.592  42.739  20.470  1.00  0.00    -0.003 C 
ATOM      4  C   UNL     1      26.904  43.114  19.025  1.00  0.00     0.004 C 
ENDBRANCH   2   3
ENDBRANCH   1   2
BRANCH   1   5
ATOM      5  C   UNL     1      28.869  40.025  20.138  1.00  0.00     0.080 C 
BRANCH   5   6
ATOM      6  C   UNL     1      28.071  39.406  19.017  1.00  0.00     0.155 C 
ATOM      7  O   UNL     1      28.690  38.942  18.024  1.00  0.00    -0.295 OA
BRANCH   6   8
ATOM      8  C   UNL     1      26.597  39.294  19.040  1.00  0.00     0.039 C 
ATOM      9  C   UNL     1      25.884  39.035  20.135  1.00  0.00     0.012 C 
ENDBRANCH   6   8
ENDBRANCH   5   6
ENDBRANCH   1   5
TORSDOF 5
ENDMDL
MODEL 3
REMARK VINA RESULT:    -3.019     17.553     18.389
REMARK INTER + INTRA:          -4.071
REMARK INTER:                  -3.707
REMARK INTRA:                  -0.364
REMARK UNBOUND:                -0.170
REMARK SMILES C=CC(=O)CCCCC
REMARK SMILES IDX 6 1 7 2 8 3 9 4 5 5 3 6 4 7 2 8 1 9
REMARK H PARENT
REMARK Flexibility Score: inf
ROOT
ATOM      1  C   UNL     1      26.129  40.362  20.087  1.00  0.00     0.008 C 
ENDROOT
BRANCH   1   2
ATOM      2  C   UNL     1      26.879  39.082  20.482  1.00  0.00     0.000 C 
BRANCH   2   3
ATOM      3  C   UNL     1      28.229  38.992  19.761  1.00  0.00    -0.003 C 
ATOM      4  C   UNL     1      28.074  39.250  18.266  1.00  0.00     0.004 C 
ENDBRANCH   2   3
ENDBRANCH   1   2
BRANCH   1   5
ATOM      5  C   UNL     1      26.238  41.455  21.159  1.00  0.00     0.080 C 
BRANCH   5   6
ATOM      6  C   UNL     1      26.891  42.707  20.631  1.00  0.00     0.155 C 
ATOM      7  O   UNL     1      27.394  43.517  21.454  1.00  0.00    -0.295 OA
BRANCH   6   8
ATOM      8  C   UNL     1      26.993  43.020  19.189  1.00  0.00     0.039 C 
ATOM      9  C   UNL     1      26.502  44.125  18.629  1.00  0.00     0.012 C 
ENDBRANCH   6   8
ENDBRANCH   5   6
ENDBRANCH   1   5
TORSDOF 5
ENDMDL
MODEL 4
REMARK VINA RESULT:    -2.984     17.170     18.208
REMARK INTER + INTRA:          -4.026
REMARK INTER:                  -3.622
REMARK INTRA:                  -0.405
REMARK UNBOUND:                -0.170
REMARK SMILES C=CC(=O)CCCCC
REMARK SMILES IDX 6 1 7 2 8 3 9 4 5 5 3 6 4 7 2 8 1 9
REMARK H PARENT
REMARK Flexibility Score: inf
ROOT
ATOM      1  C   UNL     1      27.232  41.385  21.292  1.00  0.00     0.008 C 
ENDROOT
BRANCH   1   2
ATOM      2  C   UNL     1      27.370  42.892  21.026  1.00  0.00     0.000 C 
BRANCH   2   3
ATOM      3  C   UNL     1      27.570  43.170  19.532  1.00  0.00    -0.003 C 
ATOM      4  C   UNL     1      26.504  44.125  19.002  1.00  0.00     0.004 C 
ENDBRANCH   2   3
ENDBRANCH   1   2
BRANCH   1   5
ATOM      5  C   UNL     1      26.082  40.757  20.490  1.00  0.00     0.080 C 
BRANCH   5   6
ATOM      6  C   UNL     1      26.499  39.482  19.802  1.00  0.00     0.155 C 
ATOM      7  O   UNL     1      26.018  38.393  20.211  1.00  0.00    -0.295 OA
BRANCH   6   8
ATOM      8  C   UNL     1      27.427  39.450  18.650  1.00  0.00     0.039 C 
ATOM      9  C   UNL     1      28.725  39.164  18.745  1.00  0.00     0.012 C 
ENDBRANCH   6   8
ENDBRANCH   5   6
ENDBRANCH   1   5
TORSDOF 5
ENDMDL
MODEL 5
REMARK VINA RESULT:    -2.951      7.543      9.034
REMARK INTER + INTRA:          -3.983
REMARK INTER:                  -3.591
REMARK INTRA:                  -0.392
REMARK UNBOUND:                -0.170
REMARK SMILES C=CC(=O)CCCCC
REMARK SMILES IDX 6 1 7 2 8 3 9 4 5 5 3 6 4 7 2 8 1 9
REMARK H PARENT
REMARK Flexibility Score: inf
ROOT
ATOM      1  C   UNL     1      28.728  29.517  27.932  1.00  0.00     0.008 C 
ENDROOT
BRANCH   1   2
ATOM      2  C   UNL     1      28.960  30.197  26.575  1.00  0.00     0.000 C 
BRANCH   2   3
ATOM      3  C   UNL     1      28.713  29.218  25.421  1.00  0.00    -0.003 C 
ATOM      4  C   UNL     1      27.495  29.629  24.600  1.00  0.00     0.004 C 
ENDBRANCH   2   3
ENDBRANCH   1   2
BRANCH   1   5
ATOM      5  C   UNL     1      29.117  28.031  27.912  1.00  0.00     0.080 C 
BRANCH   5   6
ATOM      6  C   UNL     1      27.980  27.140  28.343  1.00  0.00     0.155 C 
ATOM      7  O   UNL     1      28.248  26.094  28.992  1.00  0.00    -0.295 OA
BRANCH   6   8
ATOM      8  C   UNL     1      26.560  27.447  28.064  1.00  0.00     0.039 C 
ATOM      9  C   UNL     1      25.676  27.801  28.996  1.00  0.00     0.012 C 
ENDBRANCH   6   8
ENDBRANCH   5   6
ENDBRANCH   1   5
TORSDOF 5
ENDMDL
MODEL 6
REMARK VINA RESULT:    -2.895      6.648      8.434
REMARK INTER + INTRA:          -3.910
REMARK INTER:                  -3.689
REMARK INTRA:                  -0.221
REMARK UNBOUND:                -0.170
REMARK SMILES C=CC(=O)CCCCC
REMARK SMILES IDX 6 1 7 2 8 3 9 4 5 5 3 6 4 7 2 8 1 9
REMARK H PARENT
REMARK Flexibility Score: inf
ROOT
ATOM      1  C   UNL     1      28.378  28.969  28.278  1.00  0.00     0.008 C 
ENDROOT
BRANCH   1   2
ATOM      2  C   UNL     1      28.726  29.511  26.884  1.00  0.00     0.000 C 
BRANCH   2   3
ATOM      3  C   UNL     1      27.999  28.720  25.790  1.00  0.00    -0.003 C 
ATOM      4  C   UNL     1      27.592  29.626  24.632  1.00  0.00     0.004 C 
ENDBRANCH   2   3
ENDBRANCH   1   2
BRANCH   1   5
ATOM      5  C   UNL     1      27.801  27.547  28.222  1.00  0.00     0.080 C 
BRANCH   5   6
ATOM      6  C   UNL     1      26.501  27.430  28.976  1.00  0.00     0.155 C 
ATOM      7  O   UNL     1      26.000  28.472  29.476  1.00  0.00    -0.295 OA
BRANCH   6   8
ATOM      8  C   UNL     1      25.769  26.155  29.135  1.00  0.00     0.039 C 
ATOM      9  C   UNL     1      25.374  25.389  28.119  1.00  0.00     0.012 C 
ENDBRANCH   6   8
ENDBRANCH   5   6
ENDBRANCH   1   5
TORSDOF 5
ENDMDL
MODEL 7
REMARK VINA RESULT:    -2.810     16.797     18.007
REMARK INTER + INTRA:          -3.801
REMARK INTER:                  -3.306
REMARK INTRA:                  -0.495
REMARK UNBOUND:                -0.170
REMARK SMILES C=CC(=O)CCCCC
REMARK SMILES IDX 6 1 7 2 8 3 9 4 5 5 3 6 4 7 2 8 1 9
REMARK H PARENT
REMARK Flexibility Score: inf
ROOT
ATOM      1  C   UNL     1      26.869  41.993  19.843  1.00  0.00     0.008 C 
ENDROOT
BRANCH   1   2
ATOM      2  C   UNL     1      27.696  42.776  20.874  1.00  0.00     0.000 C 
BRANCH   2   3
ATOM      3  C   UNL     1      29.061  42.115  21.098  1.00  0.00    -0.003 C 
ATOM      4  C   UNL     1      29.125  41.430  22.460  1.00  0.00     0.004 C 
ENDBRANCH   2   3
ENDBRANCH   1   2
BRANCH   1   5
ATOM      5  C   UNL     1      26.111  40.818  20.479  1.00  0.00     0.080 C 
BRANCH   5   6
ATOM      6  C   UNL     1      26.409  39.510  19.790  1.00  0.00     0.155 C 
ATOM      7  O   UNL     1      25.708  38.505  20.079  1.00  0.00    -0.295 OA
BRANCH   6   8
ATOM      8  C   UNL     1      27.470  39.355  18.771  1.00  0.00     0.039 C 
ATOM      9  C   UNL     1      28.692  38.891  19.031  1.00  0.00     0.012 C 
ENDBRANCH   6   8
ENDBRANCH   5   6
ENDBRANCH   1   5
TORSDOF 5
ENDMDL
MODEL 8
REMARK VINA RESULT:    -2.797      6.950      7.715
REMARK INTER + INTRA:          -3.784
REMARK INTER:                  -3.229
REMARK INTRA:                  -0.555
REMARK UNBOUND:                -0.170
REMARK SMILES C=CC(=O)CCCCC
REMARK SMILES IDX 6 1 7 2 8 3 9 4 5 5 3 6 4 7 2 8 1 9
REMARK H PARENT
REMARK Flexibility Score: inf
ROOT
ATOM      1  C   UNL     1      27.523  28.144  28.344  1.00  0.00     0.008 C 
ENDROOT
BRANCH   1   2
ATOM      2  C   UNL     1      27.454  27.978  26.819  1.00  0.00     0.000 C 
BRANCH   2   3
ATOM      3  C   UNL     1      28.284  26.775  26.358  1.00  0.00    -0.003 C 
ATOM      4  C   UNL     1      27.393  25.673  25.795  1.00  0.00     0.004 C 
ENDBRANCH   2   3
ENDBRANCH   1   2
BRANCH   1   5
ATOM      5  C   UNL     1      26.161  27.919  29.016  1.00  0.00     0.080 C 
BRANCH   5   6
ATOM      6  C   UNL     1      25.781  26.460  29.057  1.00  0.00     0.155 C 
ATOM      7  O   UNL     1      24.739  26.092  28.453  1.00  0.00    -0.295 OA
BRANCH   6   8
ATOM      8  C   UNL     1      26.587  25.433  29.751  1.00  0.00     0.039 C 
ATOM      9  C   UNL     1      26.514  24.127  29.495  1.00  0.00     0.012 C 
ENDBRANCH   6   8
ENDBRANCH   5   6
ENDBRANCH   1   5
TORSDOF 5
ENDMDL
MODEL 9
REMARK VINA RESULT:    -2.771      6.688      8.602
REMARK INTER + INTRA:          -3.751
REMARK INTER:                  -3.350
REMARK INTRA:                  -0.401
REMARK UNBOUND:                -0.170
REMARK SMILES C=CC(=O)CCCCC
REMARK SMILES IDX 6 1 7 2 8 3 9 4 5 5 3 6 4 7 2 8 1 9
REMARK H PARENT
REMARK Flexibility Score: inf
ROOT
ATOM      1  C   UNL     1      27.628  28.468  28.735  1.00  0.00     0.008 C 
ENDROOT
BRANCH   1   2
ATOM      2  C   UNL     1      26.172  27.987  28.829  1.00  0.00     0.000 C 
BRANCH   2   3
ATOM      3  C   UNL     1      26.103  26.537  29.321  1.00  0.00    -0.003 C 
ATOM      4  C   UNL     1      25.303  25.665  28.359  1.00  0.00     0.004 C 
ENDBRANCH   2   3
ENDBRANCH   1   2
BRANCH   1   5
ATOM      5  C   UNL     1      28.461  27.613  27.768  1.00  0.00     0.080 C 
BRANCH   5   6
ATOM      6  C   UNL     1      28.059  27.825  26.331  1.00  0.00     0.155 C 
ATOM      7  O   UNL     1      27.570  26.856  25.693  1.00  0.00    -0.295 OA
BRANCH   6   8
ATOM      8  C   UNL     1      28.187  29.126  25.638  1.00  0.00     0.039 C 
ATOM      9  C   UNL     1      27.437  29.496  24.601  1.00  0.00     0.012 C 
ENDBRANCH   6   8
ENDBRANCH   5   6
ENDBRANCH   1   5
TORSDOF 5
ENDMDL
