MODEL 1
REMARK VINA RESULT:    -4.537      0.000      0.000
REMARK INTER + INTRA:          -4.820
REMARK INTER:                  -4.803
REMARK INTRA:                  -0.018
REMARK UNBOUND:                -0.018
REMARK SMILES O=C([O-])c1cccnc1
REMARK SMILES IDX 4 1 5 2 9 3 6 4 8 5 7 6 2 7 1 8 3 9
REMARK H PARENT
REMARK Flexibility Score: inf
ROOT
ATOM      1  C   UNL     1      12.592 -18.666 -20.647  1.00  0.00     0.016 A 
ATOM      2  C   UNL     1      13.167 -18.705 -21.928  1.00  0.00     0.013 A 
ATOM      3  C   UNL     1      11.345 -18.034 -20.493  1.00  0.00     0.120 A 
ATOM      4  C   UNL     1      12.504 -18.126 -23.012  1.00  0.00     0.021 A 
ATOM      5  N   UNL     1      10.720 -17.478 -21.567  1.00  0.00    -0.264 NA
ATOM      6  C   UNL     1      11.268 -17.511 -22.809  1.00  0.00     0.111 A 
ENDROOT
BRANCH   1   7
ATOM      7  C   UNL     1      13.283 -19.276 -19.490  1.00  0.00     0.073 C 
ATOM      8  O   UNL     1      14.400 -18.838 -19.108  1.00  0.00    -0.545 OA
ATOM      9  O   UNL     1      12.706 -20.342 -18.808  1.00  0.00    -0.545 OA
ENDBRANCH   1   7
TORSDOF 1
ENDMDL
MODEL 2
REMARK VINA RESULT:    -4.527      2.962      3.667
REMARK INTER + INTRA:          -4.810
REMARK INTER:                  -4.791
REMARK INTRA:                  -0.019
REMARK UNBOUND:                -0.018
REMARK SMILES O=C([O-])c1cccnc1
REMARK SMILES IDX 4 1 5 2 9 3 6 4 8 5 7 6 2 7 1 8 3 9
REMARK H PARENT
REMARK Flexibility Score: inf
ROOT
ATOM      1  C   UNL     1      14.360 -19.936 -17.936  1.00  0.00     0.016 A 
ATOM      2  C   UNL     1      14.550 -18.887 -18.851  1.00  0.00     0.013 A 
ATOM      3  C   UNL     1      13.153 -20.656 -17.987  1.00  0.00     0.120 A 
ATOM      4  C   UNL     1      13.556 -18.580 -19.782  1.00  0.00     0.021 A 
ATOM      5  N   UNL     1      12.201 -20.336 -18.905  1.00  0.00    -0.264 NA
ATOM      6  C   UNL     1      12.375 -19.324 -19.793  1.00  0.00     0.111 A 
ENDROOT
BRANCH   1   7
ATOM      7  C   UNL     1      15.405 -20.272 -16.945  1.00  0.00     0.073 C 
ATOM      8  O   UNL     1      15.904 -19.378 -16.213  1.00  0.00    -0.545 OA
ATOM      9  O   UNL     1      15.850 -21.582 -16.809  1.00  0.00    -0.545 OA
ENDBRANCH   1   7
TORSDOF 1
ENDMDL
MODEL 3
REMARK VINA RESULT:    -4.447      2.854      3.636
REMARK INTER + INTRA:          -4.725
REMARK INTER:                  -4.702
REMARK INTRA:                  -0.023
REMARK UNBOUND:                -0.018
REMARK SMILES O=C([O-])c1cccnc1
REMARK SMILES IDX 4 1 5 2 9 3 6 4 8 5 7 6 2 7 1 8 3 9
REMARK H PARENT
REMARK Flexibility Score: inf
ROOT
ATOM      1  C   UNL     1      12.636 -18.416 -22.985  1.00  0.00     0.016 A 
ATOM      2  C   UNL     1      13.127 -18.857 -21.745  1.00  0.00     0.013 A 
ATOM      3  C   UNL     1      11.506 -17.578 -22.997  1.00  0.00     0.120 A 
ATOM      4  C   UNL     1      12.500 -18.463 -20.562  1.00  0.00     0.021 A 
ATOM      5  N   UNL     1      10.914 -17.209 -21.828  1.00  0.00    -0.264 NA
ATOM      6  C   UNL     1      11.382 -17.629 -20.625  1.00  0.00     0.111 A 
ENDROOT
BRANCH   1   7
ATOM      7  C   UNL     1      13.291 -18.826 -24.246  1.00  0.00     0.073 C 
ATOM      8  O   UNL     1      14.495 -19.194 -24.251  1.00  0.00    -0.545 OA
ATOM      9  O   UNL     1      12.585 -18.810 -25.444  1.00  0.00    -0.545 OA
ENDBRANCH   1   7
TORSDOF 1
ENDMDL
MODEL 4
REMARK VINA RESULT:    -4.419      3.305      4.925
REMARK INTER + INTRA:          -4.695
REMARK INTER:                  -4.676
REMARK INTRA:                  -0.019
REMARK UNBOUND:                -0.018
REMARK SMILES O=C([O-])c1cccnc1
REMARK SMILES IDX 4 1 5 2 9 3 6 4 8 5 7 6 2 7 1 8 3 9
REMARK H PARENT
REMARK Flexibility Score: inf
ROOT
ATOM      1  C   UNL     1      14.040 -19.517 -18.404  1.00  0.00     0.016 A 
ATOM      2  C   UNL     1      15.376 -19.557 -17.973  1.00  0.00     0.013 A 
ATOM      3  C   UNL     1      13.098 -20.319 -17.736  1.00  0.00     0.120 A 
ATOM      4  C   UNL     1      15.744 -20.378 -16.906  1.00  0.00     0.021 A 
ATOM      5  N   UNL     1      13.483 -21.110 -16.698  1.00  0.00    -0.264 NA
ATOM      6  C   UNL     1      14.773 -21.156 -16.274  1.00  0.00     0.111 A 
ENDROOT
BRANCH   1   7
ATOM      7  C   UNL     1      13.637 -18.652 -19.533  1.00  0.00     0.073 C 
ATOM      8  O   UNL     1      13.900 -17.421 -19.523  1.00  0.00    -0.545 OA
ATOM      9  O   UNL     1      12.960 -19.188 -20.624  1.00  0.00    -0.545 OA
ENDBRANCH   1   7
TORSDOF 1
ENDMDL
MODEL 5
REMARK VINA RESULT:    -4.414      1.315      1.756
REMARK INTER + INTRA:          -4.689
REMARK INTER:                  -4.670
REMARK INTRA:                  -0.019
REMARK UNBOUND:                -0.018
REMARK SMILES O=C([O-])c1cccnc1
REMARK SMILES IDX 4 1 5 2 9 3 6 4 8 5 7 6 2 7 1 8 3 9
REMARK H PARENT
REMARK Flexibility Score: inf
ROOT
ATOM      1  C   UNL     1      13.285 -18.342 -20.523  1.00  0.00     0.016 A 
ATOM      2  C   UNL     1      12.907 -18.878 -21.766  1.00  0.00     0.013 A 
ATOM      3  C   UNL     1      13.437 -16.948 -20.416  1.00  0.00     0.120 A 
ATOM      4  C   UNL     1      12.691 -18.035 -22.857  1.00  0.00     0.021 A 
ATOM      5  N   UNL     1      13.220 -16.149 -21.495  1.00  0.00    -0.264 NA
ATOM      6  C   UNL     1      12.854 -16.658 -22.700  1.00  0.00     0.111 A 
ENDROOT
BRANCH   1   7
ATOM      7  C   UNL     1      13.517 -19.225 -19.360  1.00  0.00     0.073 C 
ATOM      8  O   UNL     1      12.665 -20.092 -19.033  1.00  0.00    -0.545 OA
ATOM      9  O   UNL     1      14.682 -19.107 -18.609  1.00  0.00    -0.545 OA
ENDBRANCH   1   7
TORSDOF 1
ENDMDL
MODEL 6
REMARK VINA RESULT:    -4.379      2.664      4.105
REMARK INTER + INTRA:          -4.652
REMARK INTER:                  -4.635
REMARK INTRA:                  -0.017
REMARK UNBOUND:                -0.018
REMARK SMILES O=C([O-])c1cccnc1
REMARK SMILES IDX 4 1 5 2 9 3 6 4 8 5 7 6 2 7 1 8 3 9
REMARK H PARENT
REMARK Flexibility Score: inf
ROOT
ATOM      1  C   UNL     1      13.191 -19.056 -19.731  1.00  0.00     0.016 A 
ATOM      2  C   UNL     1      14.395 -18.787 -19.060  1.00  0.00     0.013 A 
ATOM      3  C   UNL     1      12.301 -19.984 -19.161  1.00  0.00     0.120 A 
ATOM      4  C   UNL     1      14.687 -19.433 -17.857  1.00  0.00     0.021 A 
ATOM      5  N   UNL     1      12.610 -20.599 -17.987  1.00  0.00    -0.264 NA
ATOM      6  C   UNL     1      13.772 -20.346 -17.330  1.00  0.00     0.111 A 
ENDROOT
BRANCH   1   7
ATOM      7  C   UNL     1      12.870 -18.379 -21.006  1.00  0.00     0.073 C 
ATOM      8  O   UNL     1      12.849 -19.024 -22.087  1.00  0.00    -0.545 OA
ATOM      9  O   UNL     1      12.586 -17.017 -21.027  1.00  0.00    -0.545 OA
ENDBRANCH   1   7
TORSDOF 1
ENDMDL
MODEL 7
REMARK VINA RESULT:    -4.314      3.490      5.159
REMARK INTER + INTRA:          -4.584
REMARK INTER:                  -4.565
REMARK INTRA:                  -0.019
REMARK UNBOUND:                -0.018
REMARK SMILES O=C([O-])c1cccnc1
REMARK SMILES IDX 4 1 5 2 9 3 6 4 8 5 7 6 2 7 1 8 3 9
REMARK H PARENT
REMARK Flexibility Score: inf
ROOT
ATOM      1  C   UNL     1      14.097 -19.515 -18.352  1.00  0.00     0.016 A 
ATOM      2  C   UNL     1      13.226 -20.312 -17.590  1.00  0.00     0.013 A 
ATOM      3  C   UNL     1      15.467 -19.532 -18.034  1.00  0.00     0.120 A 
ATOM      4  C   UNL     1      13.724 -21.095 -16.547  1.00  0.00     0.021 A 
ATOM      5  N   UNL     1      15.926 -20.304 -17.012  1.00  0.00    -0.264 NA
ATOM      6  C   UNL     1      15.091 -21.078 -16.270  1.00  0.00     0.111 A 
ENDROOT
BRANCH   1   7
ATOM      7  C   UNL     1      13.584 -18.681 -19.459  1.00  0.00     0.073 C 
ATOM      8  O   UNL     1      13.912 -17.470 -19.555  1.00  0.00    -0.545 OA
ATOM      9  O   UNL     1      12.729 -19.226 -20.412  1.00  0.00    -0.545 OA
ENDBRANCH   1   7
TORSDOF 1
ENDMDL
MODEL 8
REMARK VINA RESULT:    -4.247      4.352      5.131
REMARK INTER + INTRA:          -4.513
REMARK INTER:                  -4.491
REMARK INTRA:                  -0.022
REMARK UNBOUND:                -0.018
REMARK SMILES O=C([O-])c1cccnc1
REMARK SMILES IDX 4 1 5 2 9 3 6 4 8 5 7 6 2 7 1 8 3 9
REMARK H PARENT
REMARK Flexibility Score: inf
ROOT
ATOM      1  C   UNL     1      14.047 -20.583 -17.198  1.00  0.00     0.016 A 
ATOM      2  C   UNL     1      13.198 -20.430 -18.307  1.00  0.00     0.013 A 
ATOM      3  C   UNL     1      13.629 -21.417 -16.146  1.00  0.00     0.120 A 
ATOM      4  C   UNL     1      11.973 -21.098 -18.349  1.00  0.00     0.021 A 
ATOM      5  N   UNL     1      12.430 -22.057 -16.213  1.00  0.00    -0.264 NA
ATOM      6  C   UNL     1      11.602 -21.916 -17.281  1.00  0.00     0.111 A 
ENDROOT
BRANCH   1   7
ATOM      7  C   UNL     1      15.348 -19.881 -17.141  1.00  0.00     0.073 C 
ATOM      8  O   UNL     1      15.851 -19.554 -16.035  1.00  0.00    -0.545 OA
ATOM      9  O   UNL     1      16.033 -19.574 -18.312  1.00  0.00    -0.545 OA
ENDBRANCH   1   7
TORSDOF 1
ENDMDL
MODEL 9
REMARK VINA RESULT:    -4.193      4.874      5.653
REMARK INTER + INTRA:          -4.456
REMARK INTER:                  -4.440
REMARK INTRA:                  -0.016
REMARK UNBOUND:                -0.018
REMARK SMILES O=C([O-])c1cccnc1
REMARK SMILES IDX 4 1 5 2 9 3 6 4 8 5 7 6 2 7 1 8 3 9
REMARK H PARENT
REMARK Flexibility Score: inf
ROOT
ATOM      1  C   UNL     1      13.475 -20.866 -16.614  1.00  0.00     0.016 A 
ATOM      2  C   UNL     1      13.441 -19.909 -17.641  1.00  0.00     0.013 A 
ATOM      3  C   UNL     1      14.728 -21.271 -16.120  1.00  0.00     0.120 A 
ATOM      4  C   UNL     1      14.630 -19.381 -18.149  1.00  0.00     0.021 A 
ATOM      5  N   UNL     1      15.872 -20.741 -16.632  1.00  0.00    -0.264 NA
ATOM      6  C   UNL     1      15.849 -19.815 -17.626  1.00  0.00     0.111 A 
ENDROOT
BRANCH   1   7
ATOM      7  C   UNL     1      12.223 -21.433 -16.068  1.00  0.00     0.073 C 
ATOM      8  O   UNL     1      11.792 -22.544 -16.474  1.00  0.00    -0.545 OA
ATOM      9  O   UNL     1      11.504 -20.744 -15.097  1.00  0.00    -0.545 OA
ENDBRANCH   1   7
TORSDOF 1
ENDMDL
