MODEL 1
REMARK VINA RESULT:    -3.713      0.000      0.000
REMARK INTER + INTRA:          -5.033
REMARK INTER:                  -4.799
REMARK INTRA:                  -0.235
REMARK UNBOUND:                -0.235
REMARK SMILES CCCCCCC(=O)[O-]
REMARK SMILES IDX 5 1 6 2 7 3 8 4 9 5 4 6 3 7 2 8 1 9
REMARK H PARENT
REMARK Flexibility Score: inf
ROOT
ATOM      1  C   UNL     1      25.094   2.631  39.533  1.00  0.00     0.006 C 
ENDROOT
BRANCH   1   2
ATOM      2  C   UNL     1      25.351   3.925  40.316  1.00  0.00     0.053 C 
BRANCH   2   3
ATOM      3  C   UNL     1      25.683   3.616  41.741  1.00  0.00     0.041 C 
ATOM      4  O   UNL     1      24.782   3.238  42.534  1.00  0.00    -0.550 OA
ATOM      5  O   UNL     1      26.980   3.793  42.208  1.00  0.00    -0.550 OA
ENDBRANCH   2   3
ENDBRANCH   1   2
BRANCH   1   6
ATOM      6  C   UNL     1      23.678   2.572  38.938  1.00  0.00     0.000 C 
BRANCH   6   7
ATOM      7  C   UNL     1      23.074   1.158  38.988  1.00  0.00    -0.000 C 
BRANCH   7   8
ATOM      8  C   UNL     1      23.732   0.275  40.060  1.00  0.00    -0.003 C 
ATOM      9  C   UNL     1      23.867  -1.183  39.621  1.00  0.00     0.004 C 
ENDBRANCH   7   8
ENDBRANCH   6   7
ENDBRANCH   1   6
TORSDOF 5
ENDMDL
MODEL 2
REMARK VINA RESULT:    -3.685     10.687     11.910
REMARK INTER + INTRA:          -4.996
REMARK INTER:                  -4.852
REMARK INTRA:                  -0.144
REMARK UNBOUND:                -0.235
REMARK SMILES CCCCCCC(=O)[O-]
REMARK SMILES IDX 5 1 6 2 7 3 8 4 9 5 4 6 3 7 2 8 1 9
REMARK H PARENT
REMARK Flexibility Score: inf
ROOT
ATOM      1  C   UNL     1      31.455   5.207  47.911  1.00  0.00     0.006 C 
ENDROOT
BRANCH   1   2
ATOM      2  C   UNL     1      31.515   5.241  49.444  1.00  0.00     0.053 C 
BRANCH   2   3
ATOM      3  C   UNL     1      32.172   4.003  49.968  1.00  0.00     0.041 C 
ATOM      4  O   UNL     1      32.581   3.958  51.158  1.00  0.00    -0.550 OA
ATOM      5  O   UNL     1      32.380   2.917  49.128  1.00  0.00    -0.550 OA
ENDBRANCH   2   3
ENDBRANCH   1   2
BRANCH   1   6
ATOM      6  C   UNL     1      31.838   6.553  47.276  1.00  0.00     0.000 C 
BRANCH   6   7
ATOM      7  C   UNL     1      32.166   6.427  45.778  1.00  0.00    -0.000 C 
BRANCH   7   8
ATOM      8  C   UNL     1      33.364   7.296  45.363  1.00  0.00    -0.003 C 
ATOM      9  C   UNL     1      33.725   8.343  46.416  1.00  0.00     0.004 C 
ENDBRANCH   7   8
ENDBRANCH   6   7
ENDBRANCH   1   6
TORSDOF 5
ENDMDL
MODEL 3
REMARK VINA RESULT:    -3.653     10.671     11.434
REMARK INTER + INTRA:          -4.955
REMARK INTER:                  -4.811
REMARK INTRA:                  -0.144
REMARK UNBOUND:                -0.235
REMARK SMILES CCCCCCC(=O)[O-]
REMARK SMILES IDX 5 1 6 2 7 3 8 4 9 5 4 6 3 7 2 8 1 9
REMARK H PARENT
REMARK Flexibility Score: inf
ROOT
ATOM      1  C   UNL     1      31.442   5.955  47.193  1.00  0.00     0.006 C 
ENDROOT
BRANCH   1   2
ATOM      2  C   UNL     1      31.654   7.389  46.691  1.00  0.00     0.053 C 
BRANCH   2   3
ATOM      3  C   UNL     1      32.997   7.523  46.045  1.00  0.00     0.041 C 
ATOM      4  O   UNL     1      33.323   6.762  45.097  1.00  0.00    -0.550 OA
ATOM      5  O   UNL     1      33.908   8.456  46.523  1.00  0.00    -0.550 OA
ENDBRANCH   2   3
ENDBRANCH   1   2
BRANCH   1   6
ATOM      6  C   UNL     1      31.849   5.779  48.665  1.00  0.00     0.000 C 
BRANCH   6   7
ATOM      7  C   UNL     1      30.791   5.021  49.485  1.00  0.00    -0.000 C 
BRANCH   7   8
ATOM      8  C   UNL     1      31.327   3.700  50.058  1.00  0.00    -0.003 C 
ATOM      9  C   UNL     1      32.364   3.041  49.150  1.00  0.00     0.004 C 
ENDBRANCH   7   8
ENDBRANCH   6   7
ENDBRANCH   1   6
TORSDOF 5
ENDMDL
MODEL 4
REMARK VINA RESULT:    -3.473      8.775     10.580
REMARK INTER + INTRA:          -4.723
REMARK INTER:                  -4.510
REMARK INTRA:                  -0.214
REMARK UNBOUND:                -0.235
REMARK SMILES CCCCCCC(=O)[O-]
REMARK SMILES IDX 5 1 6 2 7 3 8 4 9 5 4 6 3 7 2 8 1 9
REMARK H PARENT
REMARK Flexibility Score: inf
ROOT
ATOM      1  C   UNL     1      30.455   6.667  47.094  1.00  0.00     0.006 C 
ENDROOT
BRANCH   1   2
ATOM      2  C   UNL     1      30.104   5.797  45.880  1.00  0.00     0.053 C 
BRANCH   2   3
ATOM      3  C   UNL     1      31.350   5.341  45.188  1.00  0.00     0.041 C 
ATOM      4  O   UNL     1      32.461   5.856  45.478  1.00  0.00    -0.550 OA
ATOM      5  O   UNL     1      31.277   4.381  44.186  1.00  0.00    -0.550 OA
ENDBRANCH   2   3
ENDBRANCH   1   2
BRANCH   1   6
ATOM      6  C   UNL     1      30.427   5.878  48.413  1.00  0.00     0.000 C 
BRANCH   6   7
ATOM      7  C   UNL     1      31.834   5.626  48.981  1.00  0.00    -0.000 C 
BRANCH   7   8
ATOM      8  C   UNL     1      31.881   4.408  49.917  1.00  0.00    -0.003 C 
ATOM      9  C   UNL     1      32.259   3.119  49.188  1.00  0.00     0.004 C 
ENDBRANCH   7   8
ENDBRANCH   6   7
ENDBRANCH   1   6
TORSDOF 5
ENDMDL
MODEL 5
REMARK VINA RESULT:    -3.393      1.581      2.224
REMARK INTER + INTRA:          -4.620
REMARK INTER:                  -4.213
REMARK INTRA:                  -0.406
REMARK UNBOUND:                -0.235
REMARK SMILES CCCCCCC(=O)[O-]
REMARK SMILES IDX 5 1 6 2 7 3 8 4 9 5 4 6 3 7 2 8 1 9
REMARK H PARENT
REMARK Flexibility Score: inf
ROOT
ATOM      1  C   UNL     1      24.216   3.141  42.063  1.00  0.00     0.006 C 
ENDROOT
BRANCH   1   2
ATOM      2  C   UNL     1      24.865   4.260  41.238  1.00  0.00     0.053 C 
BRANCH   2   3
ATOM      3  C   UNL     1      26.120   3.769  40.588  1.00  0.00     0.041 C 
ATOM      4  O   UNL     1      26.072   3.188  39.472  1.00  0.00    -0.550 OA
ATOM      5  O   UNL     1      27.340   3.908  41.239  1.00  0.00    -0.550 OA
ENDBRANCH   2   3
ENDBRANCH   1   2
BRANCH   1   6
ATOM      6  C   UNL     1      23.104   2.410  41.295  1.00  0.00     0.000 C 
BRANCH   6   7
ATOM      7  C   UNL     1      23.505   0.981  40.890  1.00  0.00    -0.000 C 
BRANCH   7   8
ATOM      8  C   UNL     1      23.495   0.777  39.367  1.00  0.00    -0.003 C 
ATOM      9  C   UNL     1      22.757   1.892  38.627  1.00  0.00     0.004 C 
ENDBRANCH   7   8
ENDBRANCH   6   7
ENDBRANCH   1   6
TORSDOF 5
ENDMDL
MODEL 6
REMARK VINA RESULT:    -3.368     10.108     11.194
REMARK INTER + INTRA:          -4.587
REMARK INTER:                  -4.329
REMARK INTRA:                  -0.258
REMARK UNBOUND:                -0.235
REMARK SMILES CCCCCCC(=O)[O-]
REMARK SMILES IDX 5 1 6 2 7 3 8 4 9 5 4 6 3 7 2 8 1 9
REMARK H PARENT
REMARK Flexibility Score: inf
ROOT
ATOM      1  C   UNL     1      31.507   5.135  47.801  1.00  0.00     0.006 C 
ENDROOT
BRANCH   1   2
ATOM      2  C   UNL     1      31.433   5.103  49.333  1.00  0.00     0.053 C 
BRANCH   2   3
ATOM      3  C   UNL     1      32.185   3.926  49.868  1.00  0.00     0.041 C 
ATOM      4  O   UNL     1      32.373   2.912  49.145  1.00  0.00    -0.550 OA
ATOM      5  O   UNL     1      32.636   3.926  51.182  1.00  0.00    -0.550 OA
ENDBRANCH   2   3
ENDBRANCH   1   2
BRANCH   1   6
ATOM      6  C   UNL     1      31.338   6.553  47.231  1.00  0.00     0.000 C 
BRANCH   6   7
ATOM      7  C   UNL     1      29.939   6.789  46.638  1.00  0.00    -0.000 C 
BRANCH   7   8
ATOM      8  C   UNL     1      28.994   7.495  47.623  1.00  0.00    -0.003 C 
ATOM      9  C   UNL     1      28.029   6.529  48.309  1.00  0.00     0.004 C 
ENDBRANCH   7   8
ENDBRANCH   6   7
ENDBRANCH   1   6
TORSDOF 5
ENDMDL
MODEL 7
REMARK VINA RESULT:    -3.345     15.706     16.664
REMARK INTER + INTRA:          -4.558
REMARK INTER:                  -4.158
REMARK INTRA:                  -0.400
REMARK UNBOUND:                -0.235
REMARK SMILES CCCCCCC(=O)[O-]
REMARK SMILES IDX 5 1 6 2 7 3 8 4 9 5 4 6 3 7 2 8 1 9
REMARK H PARENT
REMARK Flexibility Score: inf
ROOT
ATOM      1  C   UNL     1      21.861  -1.943  54.580  1.00  0.00     0.006 C 
ENDROOT
BRANCH   1   2
ATOM      2  C   UNL     1      21.540  -0.636  55.317  1.00  0.00     0.053 C 
BRANCH   2   3
ATOM      3  C   UNL     1      21.241  -0.909  56.757  1.00  0.00     0.041 C 
ATOM      4  O   UNL     1      20.299  -1.683  57.073  1.00  0.00    -0.550 OA
ATOM      5  O   UNL     1      21.969  -0.270  57.752  1.00  0.00    -0.550 OA
ENDBRANCH   2   3
ENDBRANCH   1   2
BRANCH   1   6
ATOM      6  C   UNL     1      23.372  -2.205  54.475  1.00  0.00     0.000 C 
BRANCH   6   7
ATOM      7  C   UNL     1      23.827  -3.395  55.337  1.00  0.00    -0.000 C 
BRANCH   7   8
ATOM      8  C   UNL     1      24.557  -2.951  56.614  1.00  0.00    -0.003 C 
ATOM      9  C   UNL     1      23.803  -3.332  57.888  1.00  0.00     0.004 C 
ENDBRANCH   7   8
ENDBRANCH   6   7
ENDBRANCH   1   6
TORSDOF 5
ENDMDL
MODEL 8
REMARK VINA RESULT:    -3.335      1.529      2.071
REMARK INTER + INTRA:          -4.545
REMARK INTER:                  -4.397
REMARK INTRA:                  -0.147
REMARK UNBOUND:                -0.235
REMARK SMILES CCCCCCC(=O)[O-]
REMARK SMILES IDX 5 1 6 2 7 3 8 4 9 5 4 6 3 7 2 8 1 9
REMARK H PARENT
REMARK Flexibility Score: inf
ROOT
ATOM      1  C   UNL     1      25.414   3.760  39.981  1.00  0.00     0.006 C 
ENDROOT
BRANCH   1   2
ATOM      2  C   UNL     1      26.201   3.958  41.283  1.00  0.00     0.053 C 
BRANCH   2   3
ATOM      3  C   UNL     1      27.662   4.101  40.993  1.00  0.00     0.041 C 
ATOM      4  O   UNL     1      28.448   4.514  41.885  1.00  0.00    -0.550 OA
ATOM      5  O   UNL     1      28.149   3.827  39.721  1.00  0.00    -0.550 OA
ENDBRANCH   2   3
ENDBRANCH   1   2
BRANCH   1   6
ATOM      6  C   UNL     1      24.762   2.371  39.890  1.00  0.00     0.000 C 
BRANCH   6   7
ATOM      7  C   UNL     1      23.484   2.372  39.034  1.00  0.00    -0.000 C 
BRANCH   7   8
ATOM      8  C   UNL     1      22.925   0.959  38.810  1.00  0.00    -0.003 C 
ATOM      9  C   UNL     1      23.687  -0.109  39.595  1.00  0.00     0.004 C 
ENDBRANCH   7   8
ENDBRANCH   6   7
ENDBRANCH   1   6
TORSDOF 5
ENDMDL
MODEL 9
REMARK VINA RESULT:    -3.287     15.843     16.935
REMARK INTER + INTRA:          -4.483
REMARK INTER:                  -4.169
REMARK INTRA:                  -0.314
REMARK UNBOUND:                -0.235
REMARK SMILES CCCCCCC(=O)[O-]
REMARK SMILES IDX 5 1 6 2 7 3 8 4 9 5 4 6 3 7 2 8 1 9
REMARK H PARENT
REMARK Flexibility Score: inf
ROOT
ATOM      1  C   UNL     1      24.396  -2.803  56.473  1.00  0.00     0.006 C 
ENDROOT
BRANCH   1   2
ATOM      2  C   UNL     1      23.521  -3.299  55.314  1.00  0.00     0.053 C 
BRANCH   2   3
ATOM      3  C   UNL     1      23.201  -2.174  54.382  1.00  0.00     0.041 C 
ATOM      4  O   UNL     1      22.519  -1.194  54.782  1.00  0.00    -0.550 OA
ATOM      5  O   UNL     1      23.613  -2.230  53.057  1.00  0.00    -0.550 OA
ENDBRANCH   2   3
ENDBRANCH   1   2
BRANCH   1   6
ATOM      6  C   UNL     1      23.835  -3.198  57.848  1.00  0.00     0.000 C 
BRANCH   6   7
ATOM      7  C   UNL     1      22.312  -3.002  57.943  1.00  0.00    -0.000 C 
BRANCH   7   8
ATOM      8  C   UNL     1      21.918  -1.528  58.120  1.00  0.00    -0.003 C 
ATOM      9  C   UNL     1      20.439  -1.273  57.832  1.00  0.00     0.004 C 
ENDBRANCH   7   8
ENDBRANCH   6   7
ENDBRANCH   1   6
TORSDOF 5
ENDMDL
