MODEL 1
REMARK VINA RESULT:    -4.438      0.000      0.000
REMARK INTER + INTRA:          -7.733
REMARK INTER:                  -5.995
REMARK INTRA:                  -1.738
REMARK UNBOUND:                -1.738
REMARK SMILES CC(=O)CCC=C(C)CCC=C(C)C
REMARK SMILES IDX 7 1 6 2 8 3 9 4 10 5 11 6 13 7 12 8 14 9 5 10 4 11 2 12 3 13
REMARK SMILES IDX 1 14
REMARK H PARENT
REMARK Flexibility Score: inf
ROOT
ATOM      1  C   UNL     1     -11.641  -5.395 -14.665  1.00  0.00    -0.077 C 
ATOM      2  C   UNL     1     -11.190  -6.426 -13.914  1.00  0.00    -0.028 C 
ATOM      3  C   UNL     1     -12.638  -4.449 -14.046  1.00  0.00     0.039 C 
ENDROOT
BRANCH   1   4
ATOM      4  C   UNL     1     -11.181  -5.142 -16.090  1.00  0.00     0.034 C 
BRANCH   4   5
ATOM      5  C   UNL     1     -10.361  -3.848 -16.206  1.00  0.00     0.032 C 
BRANCH   5   6
ATOM      6  C   UNL     1      -8.879  -4.115 -16.081  1.00  0.00    -0.028 C 
ATOM      7  C   UNL     1      -8.724  -3.127 -13.785  1.00  0.00     0.039 C 
ATOM      8  C   UNL     1      -8.138  -3.825 -14.989  1.00  0.00    -0.080 C 
ATOM      9  C   UNL     1      -6.678  -4.200 -14.994  1.00  0.00     0.039 C 
ENDBRANCH   5   6
ENDBRANCH   4   5
ENDBRANCH   1   4
BRANCH   2  10
ATOM     10  C   UNL     1     -10.251  -7.513 -14.389  1.00  0.00     0.035 C 
BRANCH  10  11
ATOM     11  C   UNL     1      -8.826  -7.270 -13.878  1.00  0.00     0.079 C 
BRANCH  11  12
ATOM     12  C   UNL     1      -7.795  -7.692 -14.892  1.00  0.00     0.130 C 
ATOM     13  O   UNL     1      -6.673  -7.999 -14.517  1.00  0.00    -0.300 OA
ATOM     14  C   UNL     1      -8.116  -7.738 -16.356  1.00  0.00     0.087 C 
ENDBRANCH  11  12
ENDBRANCH  10  11
ENDBRANCH   2  10
TORSDOF 6
ENDMDL
MODEL 2
REMARK VINA RESULT:    -4.395      7.535     10.090
REMARK INTER + INTRA:          -7.674
REMARK INTER:                  -6.254
REMARK INTRA:                  -1.420
REMARK UNBOUND:                -1.738
REMARK SMILES CC(=O)CCC=C(C)CCC=C(C)C
REMARK SMILES IDX 7 1 6 2 8 3 9 4 10 5 11 6 13 7 12 8 14 9 5 10 4 11 2 12 3 13
REMARK SMILES IDX 1 14
REMARK H PARENT
REMARK Flexibility Score: inf
ROOT
ATOM      1  C   UNL     1      -6.403   2.641 -10.249  1.00  0.00    -0.077 C 
ATOM      2  C   UNL     1      -5.518   2.340 -11.226  1.00  0.00    -0.028 C 
ATOM      3  C   UNL     1      -7.454   3.682 -10.538  1.00  0.00     0.039 C 
ENDROOT
BRANCH   1   4
ATOM      4  C   UNL     1      -6.395   1.971  -8.886  1.00  0.00     0.034 C 
BRANCH   4   5
ATOM      5  C   UNL     1      -7.277   0.714  -8.860  1.00  0.00     0.032 C 
BRANCH   5   6
ATOM      6  C   UNL     1      -6.451  -0.548  -8.936  1.00  0.00    -0.028 C 
ATOM      7  C   UNL     1      -7.216  -1.110 -11.254  1.00  0.00     0.039 C 
ATOM      8  C   UNL     1      -6.390  -1.360 -10.014  1.00  0.00    -0.080 C 
ATOM      9  C   UNL     1      -5.477  -2.558  -9.959  1.00  0.00     0.039 C 
ENDBRANCH   5   6
ENDBRANCH   4   5
ENDBRANCH   1   4
BRANCH   2  10
ATOM     10  C   UNL     1      -4.355   1.383 -11.093  1.00  0.00     0.035 C 
BRANCH  10  11
ATOM     11  C   UNL     1      -3.078   2.123 -10.679  1.00  0.00     0.079 C 
BRANCH  11  12
ATOM     12  C   UNL     1      -2.787   1.946  -9.212  1.00  0.00     0.130 C 
ATOM     13  O   UNL     1      -2.462   2.915  -8.542  1.00  0.00    -0.300 OA
ATOM     14  C   UNL     1      -2.883   0.602  -8.555  1.00  0.00     0.087 C 
ENDBRANCH  11  12
ENDBRANCH  10  11
ENDBRANCH   2  10
TORSDOF 6
ENDMDL
MODEL 3
REMARK VINA RESULT:    -4.386      1.210      1.360
REMARK INTER + INTRA:          -7.662
REMARK INTER:                  -6.252
REMARK INTRA:                  -1.410
REMARK UNBOUND:                -1.738
REMARK SMILES CC(=O)CCC=C(C)CCC=C(C)C
REMARK SMILES IDX 7 1 6 2 8 3 9 4 10 5 11 6 13 7 12 8 14 9 5 10 4 11 2 12 3 13
REMARK SMILES IDX 1 14
REMARK H PARENT
REMARK Flexibility Score: inf
ROOT
ATOM      1  C   UNL     1     -11.983  -5.050 -14.931  1.00  0.00    -0.077 C 
ATOM      2  C   UNL     1     -11.530  -5.828 -13.922  1.00  0.00    -0.028 C 
ATOM      3  C   UNL     1     -13.267  -4.289 -14.720  1.00  0.00     0.039 C 
ENDROOT
BRANCH   1   4
ATOM      4  C   UNL     1     -11.254  -4.898 -16.254  1.00  0.00     0.034 C 
BRANCH   4   5
ATOM      5  C   UNL     1     -10.282  -3.708 -16.240  1.00  0.00     0.032 C 
BRANCH   5   6
ATOM      6  C   UNL     1      -8.847  -4.162 -16.118  1.00  0.00    -0.028 C 
ATOM      7  C   UNL     1      -8.562  -3.205 -13.821  1.00  0.00     0.039 C 
ATOM      8  C   UNL     1      -8.073  -3.971 -15.028  1.00  0.00    -0.080 C 
ATOM      9  C   UNL     1      -6.672  -4.529 -15.035  1.00  0.00     0.039 C 
ENDBRANCH   5   6
ENDBRANCH   4   5
ENDBRANCH   1   4
BRANCH   2  10
ATOM     10  C   UNL     1     -10.308  -6.718 -13.980  1.00  0.00     0.035 C 
BRANCH  10  11
ATOM     11  C   UNL     1     -10.675  -8.123 -14.471  1.00  0.00     0.079 C 
BRANCH  11  12
ATOM     12  C   UNL     1      -9.594  -8.703 -15.345  1.00  0.00     0.130 C 
ATOM     13  O   UNL     1      -9.656  -9.877 -15.680  1.00  0.00    -0.300 OA
ATOM     14  C   UNL     1      -8.437  -7.870 -15.811  1.00  0.00     0.087 C 
ENDBRANCH  11  12
ENDBRANCH  10  11
ENDBRANCH   2  10
TORSDOF 6
ENDMDL
MODEL 4
REMARK VINA RESULT:    -4.227      4.605      7.197
REMARK INTER + INTRA:          -7.448
REMARK INTER:                  -6.769
REMARK INTRA:                  -0.679
REMARK UNBOUND:                -1.738
REMARK SMILES CC(=O)CCC=C(C)CCC=C(C)C
REMARK SMILES IDX 7 1 6 2 8 3 9 4 10 5 11 6 13 7 12 8 14 9 5 10 4 11 2 12 3 13
REMARK SMILES IDX 1 14
REMARK H PARENT
REMARK Flexibility Score: inf
ROOT
ATOM      1  C   UNL     1      -4.605  -2.991 -15.494  1.00  0.00    -0.077 C 
ATOM      2  C   UNL     1      -3.871  -2.292 -16.389  1.00  0.00    -0.028 C 
ATOM      3  C   UNL     1      -5.043  -2.292 -14.233  1.00  0.00     0.039 C 
ENDROOT
BRANCH   1   4
ATOM      4  C   UNL     1      -5.018  -4.437 -15.709  1.00  0.00     0.034 C 
BRANCH   4   5
ATOM      5  C   UNL     1      -6.240  -4.816 -14.858  1.00  0.00     0.032 C 
BRANCH   5   6
ATOM      6  C   UNL     1      -7.523  -4.715 -15.649  1.00  0.00    -0.028 C 
ATOM      7  C   UNL     1      -8.626  -3.199 -13.988  1.00  0.00     0.039 C 
ATOM      8  C   UNL     1      -8.590  -3.969 -15.288  1.00  0.00    -0.080 C 
ATOM      9  C   UNL     1      -9.782  -3.927 -16.210  1.00  0.00     0.039 C 
ENDBRANCH   5   6
ENDBRANCH   4   5
ENDBRANCH   1   4
BRANCH   2  10
ATOM     10  C   UNL     1      -3.283  -2.847 -17.667  1.00  0.00     0.035 C 
BRANCH  10  11
ATOM     11  C   UNL     1      -2.983  -1.723 -18.667  1.00  0.00     0.079 C 
BRANCH  11  12
ATOM     12  C   UNL     1      -1.501  -1.540 -18.866  1.00  0.00     0.130 C 
ATOM     13  O   UNL     1      -0.881  -0.800 -18.117  1.00  0.00    -0.300 OA
ATOM     14  C   UNL     1      -0.770  -2.243 -19.971  1.00  0.00     0.087 C 
ENDBRANCH  11  12
ENDBRANCH  10  11
ENDBRANCH   2  10
TORSDOF 6
ENDMDL
MODEL 5
REMARK VINA RESULT:    -4.172      4.283      6.507
REMARK INTER + INTRA:          -7.373
REMARK INTER:                  -6.920
REMARK INTRA:                  -0.452
REMARK UNBOUND:                -1.738
REMARK SMILES CC(=O)CCC=C(C)CCC=C(C)C
REMARK SMILES IDX 7 1 6 2 8 3 9 4 10 5 11 6 13 7 12 8 14 9 5 10 4 11 2 12 3 13
REMARK SMILES IDX 1 14
REMARK H PARENT
REMARK Flexibility Score: inf
ROOT
ATOM      1  C   UNL     1      -4.886  -2.774 -14.593  1.00  0.00    -0.077 C 
ATOM      2  C   UNL     1      -6.101  -3.246 -14.232  1.00  0.00    -0.028 C 
ATOM      3  C   UNL     1      -4.108  -1.971 -13.582  1.00  0.00     0.039 C 
ENDROOT
BRANCH   1   4
ATOM      4  C   UNL     1      -4.268  -3.027 -15.957  1.00  0.00     0.034 C 
BRANCH   4   5
ATOM      5  C   UNL     1      -3.933  -1.717 -16.686  1.00  0.00     0.032 C 
BRANCH   5   6
ATOM      6  C   UNL     1      -3.224  -1.974 -17.995  1.00  0.00    -0.028 C 
ATOM      7  C   UNL     1      -1.222  -0.603 -17.374  1.00  0.00     0.039 C 
ATOM      8  C   UNL     1      -1.995  -1.506 -18.305  1.00  0.00    -0.080 C 
ATOM      9  C   UNL     1      -1.395  -1.892 -19.634  1.00  0.00     0.039 C 
ENDBRANCH   5   6
ENDBRANCH   4   5
ENDBRANCH   1   4
BRANCH   2  10
ATOM     10  C   UNL     1      -7.052  -4.002 -15.133  1.00  0.00     0.035 C 
BRANCH  10  11
ATOM     11  C   UNL     1      -8.498  -3.536 -14.922  1.00  0.00     0.079 C 
BRANCH  11  12
ATOM     12  C   UNL     1      -9.399  -4.005 -16.034  1.00  0.00     0.130 C 
ATOM     13  O   UNL     1     -10.115  -3.198 -16.608  1.00  0.00    -0.300 OA
ATOM     14  C   UNL     1      -9.439  -5.445 -16.449  1.00  0.00     0.087 C 
ENDBRANCH  11  12
ENDBRANCH  10  11
ENDBRANCH   2  10
TORSDOF 6
ENDMDL
MODEL 6
REMARK VINA RESULT:    -4.140      4.006      6.536
REMARK INTER + INTRA:          -7.330
REMARK INTER:                  -6.585
REMARK INTRA:                  -0.744
REMARK UNBOUND:                -1.738
REMARK SMILES CC(=O)CCC=C(C)CCC=C(C)C
REMARK SMILES IDX 7 1 6 2 8 3 9 4 10 5 11 6 13 7 12 8 14 9 5 10 4 11 2 12 3 13
REMARK SMILES IDX 1 14
REMARK H PARENT
REMARK Flexibility Score: inf
ROOT
ATOM      1  C   UNL     1      -7.483  -3.694 -12.777  1.00  0.00    -0.077 C 
ATOM      2  C   UNL     1      -7.408  -2.927 -11.665  1.00  0.00    -0.028 C 
ATOM      3  C   UNL     1      -7.251  -5.176 -12.634  1.00  0.00     0.039 C 
ENDROOT
BRANCH   1   4
ATOM      4  C   UNL     1      -7.802  -3.134 -14.152  1.00  0.00     0.034 C 
BRANCH   4   5
ATOM      5  C   UNL     1      -8.556  -4.149 -15.024  1.00  0.00     0.032 C 
BRANCH   5   6
ATOM      6  C   UNL     1     -10.053  -3.991 -14.896  1.00  0.00    -0.028 C 
ATOM      7  C   UNL     1     -10.417  -6.376 -14.222  1.00  0.00     0.039 C 
ATOM      8  C   UNL     1     -10.897  -4.972 -14.508  1.00  0.00    -0.080 C 
ATOM      9  C   UNL     1     -12.363  -4.646 -14.375  1.00  0.00     0.039 C 
ENDBRANCH   5   6
ENDBRANCH   4   5
ENDBRANCH   1   4
BRANCH   2  10
ATOM     10  C   UNL     1      -7.536  -1.420 -11.628  1.00  0.00     0.035 C 
BRANCH  10  11
ATOM     11  C   UNL     1      -6.340  -0.784 -10.911  1.00  0.00     0.079 C 
BRANCH  11  12
ATOM     12  C   UNL     1      -6.748   0.434 -10.125  1.00  0.00     0.130 C 
ATOM     13  O   UNL     1      -6.616   1.543 -10.621  1.00  0.00    -0.300 OA
ATOM     14  C   UNL     1      -7.311   0.315  -8.740  1.00  0.00     0.087 C 
ENDBRANCH  11  12
ENDBRANCH  10  11
ENDBRANCH   2  10
TORSDOF 6
ENDMDL
MODEL 7
REMARK VINA RESULT:    -4.127      2.804      5.135
REMARK INTER + INTRA:          -7.313
REMARK INTER:                  -6.795
REMARK INTRA:                  -0.518
REMARK UNBOUND:                -1.738
REMARK SMILES CC(=O)CCC=C(C)CCC=C(C)C
REMARK SMILES IDX 7 1 6 2 8 3 9 4 10 5 11 6 13 7 12 8 14 9 5 10 4 11 2 12 3 13
REMARK SMILES IDX 1 14
REMARK H PARENT
REMARK Flexibility Score: inf
ROOT
ATOM      1  C   UNL     1      -7.533  -3.212 -13.937  1.00  0.00    -0.077 C 
ATOM      2  C   UNL     1      -8.778  -3.441 -14.411  1.00  0.00    -0.028 C 
ATOM      3  C   UNL     1      -7.393  -2.431 -12.656  1.00  0.00     0.039 C 
ENDROOT
BRANCH   1   4
ATOM      4  C   UNL     1      -6.276  -3.715 -14.625  1.00  0.00     0.034 C 
BRANCH   4   5
ATOM      5  C   UNL     1      -5.093  -2.756 -14.431  1.00  0.00     0.032 C 
BRANCH   5   6
ATOM      6  C   UNL     1      -4.722  -2.059 -15.719  1.00  0.00    -0.028 C 
ATOM      7  C   UNL     1      -2.420  -3.041 -15.787  1.00  0.00     0.039 C 
ATOM      8  C   UNL     1      -3.540  -2.201 -16.355  1.00  0.00    -0.080 C 
ATOM      9  C   UNL     1      -3.337  -1.479 -17.663  1.00  0.00     0.039 C 
ENDBRANCH   5   6
ENDBRANCH   4   5
ENDBRANCH   1   4
BRANCH   2  10
ATOM     10  C   UNL     1      -9.108  -4.137 -15.713  1.00  0.00     0.035 C 
BRANCH  10  11
ATOM     11  C   UNL     1     -10.525  -3.783 -16.182  1.00  0.00     0.079 C 
BRANCH  11  12
ATOM     12  C   UNL     1     -11.551  -4.718 -15.598  1.00  0.00     0.130 C 
ATOM     13  O   UNL     1     -11.280  -5.903 -15.466  1.00  0.00    -0.300 OA
ATOM     14  C   UNL     1     -12.904  -4.227 -15.178  1.00  0.00     0.087 C 
ENDBRANCH  11  12
ENDBRANCH  10  11
ENDBRANCH   2  10
TORSDOF 6
ENDMDL
MODEL 8
REMARK VINA RESULT:    -4.117      7.064      9.474
REMARK INTER + INTRA:          -7.300
REMARK INTER:                  -5.977
REMARK INTRA:                  -1.322
REMARK UNBOUND:                -1.738
REMARK SMILES CC(=O)CCC=C(C)CCC=C(C)C
REMARK SMILES IDX 7 1 6 2 8 3 9 4 10 5 11 6 13 7 12 8 14 9 5 10 4 11 2 12 3 13
REMARK SMILES IDX 1 14
REMARK H PARENT
REMARK Flexibility Score: inf
ROOT
ATOM      1  C   UNL     1      -6.658  -1.126 -10.395  1.00  0.00    -0.077 C 
ATOM      2  C   UNL     1      -7.212  -0.060  -9.774  1.00  0.00    -0.028 C 
ATOM      3  C   UNL     1      -7.400  -1.736 -11.557  1.00  0.00     0.039 C 
ENDROOT
BRANCH   1   4
ATOM      4  C   UNL     1      -5.323  -1.723  -9.987  1.00  0.00     0.034 C 
BRANCH   4   5
ATOM      5  C   UNL     1      -4.252  -1.529 -11.072  1.00  0.00     0.032 C 
BRANCH   5   6
ATOM      6  C   UNL     1      -4.067  -0.070 -11.418  1.00  0.00    -0.028 C 
ATOM      7  C   UNL     1      -2.405   0.326  -9.586  1.00  0.00     0.039 C 
ATOM      8  C   UNL     1      -3.219   0.766 -10.780  1.00  0.00    -0.080 C 
ATOM      9  C   UNL     1      -3.104   2.185 -11.276  1.00  0.00     0.039 C 
ENDBRANCH   5   6
ENDBRANCH   4   5
ENDBRANCH   1   4
BRANCH   2  10
ATOM     10  C   UNL     1      -6.653   0.632  -8.551  1.00  0.00     0.035 C 
BRANCH  10  11
ATOM     11  C   UNL     1      -6.072   2.004  -8.913  1.00  0.00     0.079 C 
BRANCH  11  12
ATOM     12  C   UNL     1      -7.015   2.792  -9.784  1.00  0.00     0.130 C 
ATOM     13  O   UNL     1      -8.019   3.286  -9.291  1.00  0.00    -0.300 OA
ATOM     14  C   UNL     1      -6.751   2.979 -11.248  1.00  0.00     0.087 C 
ENDBRANCH  11  12
ENDBRANCH  10  11
ENDBRANCH   2  10
TORSDOF 6
ENDMDL
MODEL 9
REMARK VINA RESULT:    -4.059      5.235      7.734
REMARK INTER + INTRA:          -7.221
REMARK INTER:                  -6.602
REMARK INTRA:                  -0.619
REMARK UNBOUND:                -1.738
REMARK SMILES CC(=O)CCC=C(C)CCC=C(C)C
REMARK SMILES IDX 7 1 6 2 8 3 9 4 10 5 11 6 13 7 12 8 14 9 5 10 4 11 2 12 3 13
REMARK SMILES IDX 1 14
REMARK H PARENT
REMARK Flexibility Score: inf
ROOT
ATOM      1  C   UNL     1      -7.114  -2.394 -11.290  1.00  0.00    -0.077 C 
ATOM      2  C   UNL     1      -6.653  -1.475 -10.412  1.00  0.00    -0.028 C 
ATOM      3  C   UNL     1      -6.672  -3.825 -11.121  1.00  0.00     0.039 C 
ENDROOT
BRANCH   1   4
ATOM      4  C   UNL     1      -8.064  -2.054 -12.426  1.00  0.00     0.034 C 
BRANCH   4   5
ATOM      5  C   UNL     1      -7.735  -2.840 -13.703  1.00  0.00     0.032 C 
BRANCH   5   6
ATOM      6  C   UNL     1      -8.980  -3.398 -14.351  1.00  0.00    -0.028 C 
ATOM      7  C   UNL     1      -8.495  -5.753 -13.650  1.00  0.00     0.039 C 
ATOM      8  C   UNL     1      -9.350  -4.697 -14.309  1.00  0.00    -0.080 C 
ATOM      9  C   UNL     1     -10.651  -5.094 -14.959  1.00  0.00     0.039 C 
ENDBRANCH   5   6
ENDBRANCH   4   5
ENDBRANCH   1   4
BRANCH   2  10
ATOM     10  C   UNL     1      -6.927   0.011 -10.470  1.00  0.00     0.035 C 
BRANCH  10  11
ATOM     11  C   UNL     1      -7.259   0.564  -9.079  1.00  0.00     0.079 C 
BRANCH  11  12
ATOM     12  C   UNL     1      -6.574   1.882  -8.829  1.00  0.00     0.130 C 
ATOM     13  O   UNL     1      -6.980   2.887  -9.395  1.00  0.00    -0.300 OA
ATOM     14  C   UNL     1      -5.400   1.987  -7.903  1.00  0.00     0.087 C 
ENDBRANCH  11  12
ENDBRANCH  10  11
ENDBRANCH   2  10
TORSDOF 6
ENDMDL
