MODEL 1
REMARK VINA RESULT:    -0.518      0.000      0.000
REMARK INTER + INTRA:          -0.055
REMARK INTER:                  -0.609
REMARK INTRA:                   0.554
REMARK UNBOUND:                 0.554
REMARK SMILES O=c1c(O)c(-c2ccc(O)cc2)oc2cc(O)cc(O)c12
REMARK SMILES IDX 5 1 3 2 2 3 1 4 21 5 19 6 18 7 16 8 15 9 14 10 13 11 6 12
REMARK SMILES IDX 7 13 8 14 9 15 12 16 11 17 10 18 4 20 20 22 17 24
REMARK H PARENT 10 19 4 21 20 23 17 25
REMARK Flexibility Score: inf
ROOT
ATOM      1  C   UNL     1       0.044  26.576  30.497  1.00  0.00     0.180 A 
ATOM      2  C   UNL     1      -0.003  27.229  29.250  1.00  0.00     0.208 A 
ATOM      3  C   UNL     1      -0.043  26.453  28.080  1.00  0.00     0.238 A 
ATOM      4  O   UNL     1      -0.073  27.027  26.957  1.00  0.00    -0.285 OA
ATOM      5  C   UNL     1      -0.056  25.046  28.176  1.00  0.00     0.111 A 
ATOM      6  C   UNL     1      -0.099  24.194  27.046  1.00  0.00     0.134 A 
ATOM      7  C   UNL     1      -0.119  22.803  27.225  1.00  0.00     0.093 A 
ATOM      8  C   UNL     1      -0.098  22.249  28.507  1.00  0.00     0.123 A 
ATOM      9  C   UNL     1      -0.053  23.086  29.627  1.00  0.00     0.094 A 
ATOM     10  C   UNL     1      -0.031  24.474  29.469  1.00  0.00     0.146 A 
ATOM     11  O   UNL     1       0.015  25.248  30.549  1.00  0.00    -0.452 OA
ENDROOT
BRANCH   1  12
ATOM     12  C   UNL     1       0.106  27.322  31.774  1.00  0.00     0.021 A 
ATOM     13  C   UNL     1      -0.088  28.714  31.771  1.00  0.00     0.016 A 
ATOM     14  C   UNL     1      -0.055  29.436  32.968  1.00  0.00     0.047 A 
ATOM     15  C   UNL     1       0.156  28.774  34.184  1.00  0.00     0.115 A 
ATOM     16  C   UNL     1       0.298  26.662  33.001  1.00  0.00     0.016 A 
ATOM     17  C   UNL     1       0.329  27.387  34.197  1.00  0.00     0.047 A 
BRANCH  15  18
ATOM     18  O   UNL     1       0.190  29.483  35.382  1.00  0.00    -0.508 OA
ATOM     19  H   UNL     1       0.184  29.010  36.278  1.00  0.00     0.293 HD
ENDBRANCH  15  18
ENDBRANCH   1  12
BRANCH   2  20
ATOM     20  O   UNL     1      -0.039  28.623  29.184  1.00  0.00    -0.502 OA
ATOM     21  H   UNL     1       0.420  29.211  29.870  1.00  0.00     0.293 HD
ENDBRANCH   2  20
BRANCH   6  22
ATOM     22  O   UNL     1      -0.123  24.716  25.752  1.00  0.00    -0.507 OA
ATOM     23  H   UNL     1       0.596  25.347  25.419  1.00  0.00     0.293 HD
ENDBRANCH   6  22
BRANCH   8  24
ATOM     24  O   UNL     1      -0.119  20.864  28.658  1.00  0.00    -0.508 OA
ATOM     25  H   UNL     1      -0.048  20.429  29.570  1.00  0.00     0.293 HD
ENDBRANCH   8  24
TORSDOF 5
ENDMDL
MODEL 2
REMARK VINA RESULT:    -0.307      1.070      6.435
REMARK INTER + INTRA:           0.193
REMARK INTER:                  -0.379
REMARK INTRA:                   0.573
REMARK UNBOUND:                 0.554
REMARK SMILES O=c1c(O)c(-c2ccc(O)cc2)oc2cc(O)cc(O)c12
REMARK SMILES IDX 5 1 3 2 2 3 1 4 21 5 19 6 18 7 16 8 15 9 14 10 13 11 6 12
REMARK SMILES IDX 7 13 8 14 9 15 12 16 11 17 10 18 4 20 20 22 17 24
REMARK H PARENT 10 19 4 21 20 23 17 25
REMARK Flexibility Score: inf
ROOT
ATOM      1  C   UNL     1      -0.095  25.558  29.409  1.00  0.00     0.180 A 
ATOM      2  C   UNL     1      -0.079  26.803  28.750  1.00  0.00     0.208 A 
ATOM      3  C   UNL     1      -0.071  27.977  29.519  1.00  0.00     0.238 A 
ATOM      4  O   UNL     1      -0.068  29.098  28.940  1.00  0.00    -0.285 OA
ATOM      5  C   UNL     1      -0.059  27.889  30.927  1.00  0.00     0.111 A 
ATOM      6  C   UNL     1      -0.047  29.023  31.774  1.00  0.00     0.134 A 
ATOM      7  C   UNL     1      -0.026  28.852  33.166  1.00  0.00     0.093 A 
ATOM      8  C   UNL     1      -0.015  27.572  33.726  1.00  0.00     0.123 A 
ATOM      9  C   UNL     1      -0.028  26.447  32.894  1.00  0.00     0.094 A 
ATOM     10  C   UNL     1      -0.051  26.598  31.505  1.00  0.00     0.146 A 
ATOM     11  O   UNL     1      -0.068  25.514  30.737  1.00  0.00    -0.452 OA
ENDROOT
BRANCH   1  12
ATOM     12  C   UNL     1      -0.123  24.277  28.668  1.00  0.00     0.021 A 
ATOM     13  C   UNL     1      -0.116  24.290  27.264  1.00  0.00     0.016 A 
ATOM     14  C   UNL     1      -0.119  23.091  26.543  1.00  0.00     0.047 A 
ATOM     15  C   UNL     1      -0.114  21.865  27.220  1.00  0.00     0.115 A 
ATOM     16  C   UNL     1      -0.098  23.041  29.340  1.00  0.00     0.016 A 
ATOM     17  C   UNL     1      -0.100  21.843  28.617  1.00  0.00     0.047 A 
BRANCH  15  18
ATOM     18  O   UNL     1      -0.116  20.664  26.513  1.00  0.00    -0.508 OA
ATOM     19  H   UNL     1       0.746  20.207  26.241  1.00  0.00     0.293 HD
ENDBRANCH  15  18
ENDBRANCH   1  12
BRANCH   2  20
ATOM     20  O   UNL     1      -0.041  26.863  27.355  1.00  0.00    -0.502 OA
ATOM     21  H   UNL     1       0.527  27.537  26.856  1.00  0.00     0.293 HD
ENDBRANCH   2  20
BRANCH   6  22
ATOM     22  O   UNL     1      -0.054  30.315  31.245  1.00  0.00    -0.507 OA
ATOM     23  H   UNL     1       0.745  30.692  30.750  1.00  0.00     0.293 HD
ENDBRANCH   6  22
BRANCH   8  24
ATOM     24  O   UNL     1       0.006  27.429  35.112  1.00  0.00    -0.508 OA
ATOM     25  H   UNL     1       0.838  27.633  35.653  1.00  0.00     0.293 HD
ENDBRANCH   8  24
TORSDOF 5
ENDMDL
MODEL 3
REMARK VINA RESULT:     2.410      2.056      3.873
REMARK INTER + INTRA:           3.387
REMARK INTER:                   2.893
REMARK INTRA:                   0.493
REMARK UNBOUND:                 0.554
REMARK SMILES O=c1c(O)c(-c2ccc(O)cc2)oc2cc(O)cc(O)c12
REMARK SMILES IDX 5 1 3 2 2 3 1 4 21 5 19 6 18 7 16 8 15 9 14 10 13 11 6 12
REMARK SMILES IDX 7 13 8 14 9 15 12 16 11 17 10 18 4 20 20 22 17 24
REMARK H PARENT 10 19 4 21 20 23 17 25
REMARK Flexibility Score: inf
ROOT
ATOM      1  C   UNL     1      -0.053  27.954  32.373  1.00  0.00     0.180 A 
ATOM      2  C   UNL     1      -0.040  26.545  32.368  1.00  0.00     0.208 A 
ATOM      3  C   UNL     1      -0.062  25.873  31.136  1.00  0.00     0.238 A 
ATOM      4  O   UNL     1      -0.063  24.611  31.119  1.00  0.00    -0.285 OA
ATOM      5  C   UNL     1      -0.077  26.614  29.936  1.00  0.00     0.111 A 
ATOM      6  C   UNL     1      -0.096  26.012  28.654  1.00  0.00     0.134 A 
ATOM      7  C   UNL     1      -0.100  26.819  27.507  1.00  0.00     0.093 A 
ATOM      8  C   UNL     1      -0.084  28.212  27.616  1.00  0.00     0.123 A 
ATOM      9  C   UNL     1      -0.066  28.812  28.879  1.00  0.00     0.094 A 
ATOM     10  C   UNL     1      -0.063  28.025  30.034  1.00  0.00     0.146 A 
ATOM     11  O   UNL     1      -0.051  28.619  31.222  1.00  0.00    -0.452 OA
ENDROOT
BRANCH   1  12
ATOM     12  C   UNL     1      -0.049  28.735  33.630  1.00  0.00     0.021 A 
ATOM     13  C   UNL     1      -0.059  30.139  33.572  1.00  0.00     0.016 A 
ATOM     14  C   UNL     1      -0.078  30.897  34.748  1.00  0.00     0.047 A 
ATOM     15  C   UNL     1      -0.104  30.260  35.995  1.00  0.00     0.115 A 
ATOM     16  C   UNL     1      -0.095  28.103  34.887  1.00  0.00     0.016 A 
ATOM     17  C   UNL     1      -0.116  28.864  36.060  1.00  0.00     0.047 A 
BRANCH  15  18
ATOM     18  O   UNL     1      -0.125  31.005  37.172  1.00  0.00    -0.508 OA
ATOM     19  H   UNL     1       0.310  30.665  38.022  1.00  0.00     0.293 HD
ENDBRANCH  15  18
ENDBRANCH   1  12
BRANCH   2  20
ATOM     20  O   UNL     1       0.024  25.835  33.568  1.00  0.00    -0.502 OA
ATOM     21  H   UNL     1       0.653  25.053  33.703  1.00  0.00     0.293 HD
ENDBRANCH   2  20
BRANCH   6  22
ATOM     22  O   UNL     1      -0.110  24.624  28.513  1.00  0.00    -0.507 OA
ATOM     23  H   UNL     1       0.348  24.163  27.736  1.00  0.00     0.293 HD
ENDBRANCH   6  22
BRANCH   8  24
ATOM     24  O   UNL     1      -0.088  28.991  26.461  1.00  0.00    -0.508 OA
ATOM     25  H   UNL     1       0.761  29.163  25.935  1.00  0.00     0.293 HD
ENDBRANCH   8  24
TORSDOF 5
ENDMDL
