MODEL 1
REMARK VINA RESULT:    -3.129      0.000      0.000
REMARK INTER + INTRA:          -4.053
REMARK INTER:                  -3.770
REMARK INTRA:                  -0.284
REMARK UNBOUND:                -0.284
REMARK SMILES NC(=O)C[C@@H]([NH3+])C(=O)[O-]
REMARK SMILES IDX 4 1 5 2 6 3 7 7 8 8 9 9 2 10 3 11 1 12
REMARK H PARENT 6 4 6 5 6 6 1 13 1 14
REMARK Flexibility Score: inf
ROOT
ATOM      1  C   UNL     1       3.181  11.099  -7.705  1.00  0.00     0.171 C 
ENDROOT
BRANCH   1   2
ATOM      2  C   UNL     1       1.746  11.663  -7.730  1.00  0.00     0.237 C 
BRANCH   2   3
ATOM      3  N   UNL     1       0.791  10.617  -8.116  1.00  0.00    -0.350 N 
ATOM      4  H   UNL     1      -0.137  10.803  -7.670  1.00  0.00     0.345 HD
ATOM      5  H   UNL     1       1.133   9.675  -7.818  1.00  0.00     0.345 HD
ATOM      6  H   UNL     1       0.661  10.622  -9.154  1.00  0.00     0.345 HD
ENDBRANCH   2   3
BRANCH   2   7
ATOM      7  C   UNL     1       1.370  12.236  -6.387  1.00  0.00     0.100 C 
ATOM      8  O   UNL     1       0.957  13.422  -6.299  1.00  0.00    -0.544 OA
ATOM      9  O   UNL     1       1.488  11.464  -5.238  1.00  0.00    -0.544 OA
ENDBRANCH   2   7
ENDBRANCH   1   2
BRANCH   1  10
ATOM     10  C   UNL     1       3.415  10.134  -8.833  1.00  0.00     0.223 C 
ATOM     11  O   UNL     1       3.260  10.516 -10.024  1.00  0.00    -0.275 OA
ATOM     12  N   UNL     1       3.849   8.801  -8.568  1.00  0.00    -0.369 N 
ATOM     13  H   UNL     1       4.025   8.138  -9.355  1.00  0.00     0.159 HD
ATOM     14  H   UNL     1       4.001   8.473  -7.588  1.00  0.00     0.159 HD
ENDBRANCH   1  10
TORSDOF 4
ENDMDL
MODEL 2
REMARK VINA RESULT:    -2.987     10.601     11.625
REMARK INTER + INTRA:          -3.881
REMARK INTER:                  -3.408
REMARK INTRA:                  -0.473
REMARK UNBOUND:                -0.284
REMARK SMILES NC(=O)C[C@@H]([NH3+])C(=O)[O-]
REMARK SMILES IDX 4 1 5 2 6 3 7 7 8 8 9 9 2 10 3 11 1 12
REMARK H PARENT 6 4 6 5 6 6 1 13 1 14
REMARK Flexibility Score: inf
ROOT
ATOM      1  C   UNL     1       2.437   6.476   3.879  1.00  0.00     0.171 C 
ENDROOT
BRANCH   1   2
ATOM      2  C   UNL     1       3.065   7.693   3.170  1.00  0.00     0.237 C 
BRANCH   2   3
ATOM      3  N   UNL     1       4.438   7.387   2.750  1.00  0.00    -0.350 N 
ATOM      4  H   UNL     1       4.905   6.791   3.471  1.00  0.00     0.345 HD
ATOM      5  H   UNL     1       4.990   8.266   2.619  1.00  0.00     0.345 HD
ATOM      6  H   UNL     1       4.423   6.856   1.848  1.00  0.00     0.345 HD
ENDBRANCH   2   3
BRANCH   2   7
ATOM      7  C   UNL     1       2.240   8.106   1.978  1.00  0.00     0.100 C 
ATOM      8  O   UNL     1       1.461   7.281   1.433  1.00  0.00    -0.544 OA
ATOM      9  O   UNL     1       2.342   9.394   1.467  1.00  0.00    -0.544 OA
ENDBRANCH   2   7
ENDBRANCH   1   2
BRANCH   1  10
ATOM     10  C   UNL     1       3.066   5.188   3.431  1.00  0.00     0.223 C 
ATOM     11  O   UNL     1       4.062   4.729   4.051  1.00  0.00    -0.275 OA
ATOM     12  N   UNL     1       2.521   4.460   2.331  1.00  0.00    -0.369 N 
ATOM     13  H   UNL     1       2.952   3.557   2.031  1.00  0.00     0.159 HD
ATOM     14  H   UNL     1       1.684   4.815   1.817  1.00  0.00     0.159 HD
ENDBRANCH   1  10
TORSDOF 4
ENDMDL
MODEL 3
REMARK VINA RESULT:    -2.941      2.052      2.488
REMARK INTER + INTRA:          -3.826
REMARK INTER:                  -3.470
REMARK INTRA:                  -0.356
REMARK UNBOUND:                -0.284
REMARK SMILES NC(=O)C[C@@H]([NH3+])C(=O)[O-]
REMARK SMILES IDX 4 1 5 2 6 3 7 7 8 8 9 9 2 10 3 11 1 12
REMARK H PARENT 6 4 6 5 6 6 1 13 1 14
REMARK Flexibility Score: inf
ROOT
ATOM      1  C   UNL     1       4.472  10.955  -9.660  1.00  0.00     0.171 C 
ENDROOT
BRANCH   1   2
ATOM      2  C   UNL     1       3.138  11.051  -8.892  1.00  0.00     0.237 C 
BRANCH   2   3
ATOM      3  N   UNL     1       2.627   9.709  -8.585  1.00  0.00    -0.350 N 
ATOM      4  H   UNL     1       3.058   9.359  -7.699  1.00  0.00     0.345 HD
ATOM      5  H   UNL     1       2.846   9.043  -9.362  1.00  0.00     0.345 HD
ATOM      6  H   UNL     1       1.590   9.748  -8.451  1.00  0.00     0.345 HD
ENDBRANCH   2   3
BRANCH   2   7
ATOM      7  C   UNL     1       3.305  11.842  -7.621  1.00  0.00     0.100 C 
ATOM      8  O   UNL     1       2.551  11.624  -6.637  1.00  0.00    -0.544 OA
ATOM      9  O   UNL     1       4.283  12.825  -7.530  1.00  0.00    -0.544 OA
ENDBRANCH   2   7
ENDBRANCH   1   2
BRANCH   1  10
ATOM     10  C   UNL     1       5.170   9.651  -9.396  1.00  0.00     0.223 C 
ATOM     11  O   UNL     1       4.876   8.635 -10.079  1.00  0.00    -0.275 OA
ATOM     12  N   UNL     1       6.192   9.566  -8.403  1.00  0.00    -0.369 N 
ATOM     13  H   UNL     1       6.686   8.661  -8.233  1.00  0.00     0.159 HD
ATOM     14  H   UNL     1       6.463  10.403  -7.841  1.00  0.00     0.159 HD
ENDBRANCH   1  10
TORSDOF 4
ENDMDL
MODEL 4
REMARK VINA RESULT:    -2.940     10.845     11.380
REMARK INTER + INTRA:          -3.824
REMARK INTER:                  -3.694
REMARK INTRA:                  -0.131
REMARK UNBOUND:                -0.284
REMARK SMILES NC(=O)C[C@@H]([NH3+])C(=O)[O-]
REMARK SMILES IDX 4 1 5 2 6 3 7 7 8 8 9 9 2 10 3 11 1 12
REMARK H PARENT 6 4 6 5 6 6 1 13 1 14
REMARK Flexibility Score: inf
ROOT
ATOM      1  C   UNL     1       0.269   6.592   3.189  1.00  0.00     0.171 C 
ENDROOT
BRANCH   1   2
ATOM      2  C   UNL     1      -1.114   6.437   2.525  1.00  0.00     0.237 C 
BRANCH   2   3
ATOM      3  N   UNL     1      -1.960   5.530   3.311  1.00  0.00    -0.350 N 
ATOM      4  H   UNL     1      -2.800   6.045   3.663  1.00  0.00     0.345 HD
ATOM      5  H   UNL     1      -1.430   5.139   4.123  1.00  0.00     0.345 HD
ATOM      6  H   UNL     1      -2.290   4.742   2.707  1.00  0.00     0.345 HD
ENDBRANCH   2   3
BRANCH   2   7
ATOM      7  C   UNL     1      -1.792   7.774   2.374  1.00  0.00     0.100 C 
ATOM      8  O   UNL     1      -2.738   8.093   3.141  1.00  0.00    -0.544 OA
ATOM      9  O   UNL     1      -1.386   8.658   1.381  1.00  0.00    -0.544 OA
ENDBRANCH   2   7
ENDBRANCH   1   2
BRANCH   1  10
ATOM     10  C   UNL     1       1.383   6.374   2.204  1.00  0.00     0.223 C 
ATOM     11  O   UNL     1       1.665   7.276   1.371  1.00  0.00    -0.275 OA
ATOM     12  N   UNL     1       2.148   5.170   2.232  1.00  0.00    -0.369 N 
ATOM     13  H   UNL     1       2.932   5.029   1.555  1.00  0.00     0.159 HD
ATOM     14  H   UNL     1       1.941   4.420   2.929  1.00  0.00     0.159 HD
ENDBRANCH   1  10
TORSDOF 4
ENDMDL
MODEL 5
REMARK VINA RESULT:    -2.915     10.873     11.249
REMARK INTER + INTRA:          -3.795
REMARK INTER:                  -3.474
REMARK INTRA:                  -0.321
REMARK UNBOUND:                -0.284
REMARK SMILES NC(=O)C[C@@H]([NH3+])C(=O)[O-]
REMARK SMILES IDX 4 1 5 2 6 3 7 7 8 8 9 9 2 10 3 11 1 12
REMARK H PARENT 6 4 6 5 6 6 1 13 1 14
REMARK Flexibility Score: inf
ROOT
ATOM      1  C   UNL     1       0.047   6.198   2.629  1.00  0.00     0.171 C 
ENDROOT
BRANCH   1   2
ATOM      2  C   UNL     1      -0.589   7.429   3.307  1.00  0.00     0.237 C 
BRANCH   2   3
ATOM      3  N   UNL     1       0.437   8.435   3.607  1.00  0.00    -0.350 N 
ATOM      4  H   UNL     1       0.011   9.226   4.144  1.00  0.00     0.345 HD
ATOM      5  H   UNL     1       0.861   8.807   2.725  1.00  0.00     0.345 HD
ATOM      6  H   UNL     1       1.190   8.009   4.195  1.00  0.00     0.345 HD
ENDBRANCH   2   3
BRANCH   2   7
ATOM      7  C   UNL     1      -1.662   8.028   2.436  1.00  0.00     0.100 C 
ATOM      8  O   UNL     1      -1.359   8.560   1.336  1.00  0.00    -0.544 OA
ATOM      9  O   UNL     1      -2.989   8.010   2.846  1.00  0.00    -0.544 OA
ENDBRANCH   2   7
ENDBRANCH   1   2
BRANCH   1  10
ATOM     10  C   UNL     1       1.465   6.469   2.211  1.00  0.00     0.223 C 
ATOM     11  O   UNL     1       1.703   7.357   1.349  1.00  0.00    -0.275 OA
ATOM     12  N   UNL     1       2.546   5.755   2.810  1.00  0.00    -0.369 N 
ATOM     13  H   UNL     1       3.531   5.956   2.527  1.00  0.00     0.159 HD
ATOM     14  H   UNL     1       2.368   5.029   3.539  1.00  0.00     0.159 HD
ENDBRANCH   1  10
TORSDOF 4
ENDMDL
MODEL 6
REMARK VINA RESULT:    -2.888     11.358     12.388
REMARK INTER + INTRA:          -3.763
REMARK INTER:                  -3.257
REMARK INTRA:                  -0.506
REMARK UNBOUND:                -0.284
REMARK SMILES NC(=O)C[C@@H]([NH3+])C(=O)[O-]
REMARK SMILES IDX 4 1 5 2 6 3 7 7 8 8 9 9 2 10 3 11 1 12
REMARK H PARENT 6 4 6 5 6 6 1 13 1 14
REMARK Flexibility Score: inf
ROOT
ATOM      1  C   UNL     1       2.245   6.772   3.712  1.00  0.00     0.171 C 
ENDROOT
BRANCH   1   2
ATOM      2  C   UNL     1       2.565   5.265   3.630  1.00  0.00     0.237 C 
BRANCH   2   3
ATOM      3  N   UNL     1       2.423   4.786   2.250  1.00  0.00    -0.350 N 
ATOM      4  H   UNL     1       3.250   5.088   1.683  1.00  0.00     0.345 HD
ATOM      5  H   UNL     1       1.551   5.164   1.814  1.00  0.00     0.345 HD
ATOM      6  H   UNL     1       2.385   3.740   2.240  1.00  0.00     0.345 HD
ENDBRANCH   2   3
BRANCH   2   7
ATOM      7  C   UNL     1       3.956   4.982   4.135  1.00  0.00     0.100 C 
ATOM      8  O   UNL     1       4.128   4.548   5.304  1.00  0.00    -0.544 OA
ATOM      9  O   UNL     1       5.058   5.210   3.319  1.00  0.00    -0.544 OA
ENDBRANCH   2   7
ENDBRANCH   1   2
BRANCH   1  10
ATOM     10  C   UNL     1       2.644   7.491   2.454  1.00  0.00     0.223 C 
ATOM     11  O   UNL     1       1.806   7.637   1.525  1.00  0.00    -0.275 OA
ATOM     12  N   UNL     1       3.953   8.043   2.320  1.00  0.00    -0.369 N 
ATOM     13  H   UNL     1       4.222   8.555   1.450  1.00  0.00     0.159 HD
ATOM     14  H   UNL     1       4.655   7.948   3.088  1.00  0.00     0.159 HD
ENDBRANCH   1  10
TORSDOF 4
ENDMDL
MODEL 7
REMARK VINA RESULT:    -2.865     11.187     12.410
REMARK INTER + INTRA:          -3.734
REMARK INTER:                  -3.416
REMARK INTRA:                  -0.318
REMARK UNBOUND:                -0.284
REMARK SMILES NC(=O)C[C@@H]([NH3+])C(=O)[O-]
REMARK SMILES IDX 4 1 5 2 6 3 7 7 8 8 9 9 2 10 3 11 1 12
REMARK H PARENT 6 4 6 5 6 6 1 13 1 14
REMARK Flexibility Score: inf
ROOT
ATOM      1  C   UNL     1      -0.932   6.634   4.010  1.00  0.00     0.171 C 
ENDROOT
BRANCH   1   2
ATOM      2  C   UNL     1       0.472   6.467   3.395  1.00  0.00     0.237 C 
BRANCH   2   3
ATOM      3  N   UNL     1       0.726   5.057   3.075  1.00  0.00    -0.350 N 
ATOM      4  H   UNL     1       1.222   4.596   3.873  1.00  0.00     0.345 HD
ATOM      5  H   UNL     1       1.311   4.972   2.211  1.00  0.00     0.345 HD
ATOM      6  H   UNL     1      -0.181   4.559   2.923  1.00  0.00     0.345 HD
ENDBRANCH   2   3
BRANCH   2   7
ATOM      7  C   UNL     1       0.622   7.313   2.156  1.00  0.00     0.100 C 
ATOM      8  O   UNL     1       1.632   7.177   1.417  1.00  0.00    -0.544 OA
ATOM      9  O   UNL     1      -0.346   8.254   1.829  1.00  0.00    -0.544 OA
ENDBRANCH   2   7
ENDBRANCH   1   2
BRANCH   1  10
ATOM     10  C   UNL     1      -1.849   5.515   3.606  1.00  0.00     0.223 C 
ATOM     11  O   UNL     1      -2.098   5.320   2.387  1.00  0.00    -0.275 OA
ATOM     12  N   UNL     1      -2.409   4.647   4.591  1.00  0.00    -0.369 N 
ATOM     13  H   UNL     1      -3.035   3.860   4.305  1.00  0.00     0.159 HD
ATOM     14  H   UNL     1      -2.198   4.781   5.605  1.00  0.00     0.159 HD
ENDBRANCH   1  10
TORSDOF 4
ENDMDL
MODEL 8
REMARK VINA RESULT:    -2.859     10.297     11.306
REMARK INTER + INTRA:          -3.728
REMARK INTER:                  -3.400
REMARK INTRA:                  -0.328
REMARK UNBOUND:                -0.284
REMARK SMILES NC(=O)C[C@@H]([NH3+])C(=O)[O-]
REMARK SMILES IDX 4 1 5 2 6 3 7 7 8 8 9 9 2 10 3 11 1 12
REMARK H PARENT 6 4 6 5 6 6 1 13 1 14
REMARK Flexibility Score: inf
ROOT
ATOM      1  C   UNL     1       1.110   7.701   3.634  1.00  0.00     0.171 C 
ENDROOT
BRANCH   1   2
ATOM      2  C   UNL     1       2.322   7.128   2.873  1.00  0.00     0.237 C 
BRANCH   2   3
ATOM      3  N   UNL     1       1.876   6.224   1.807  1.00  0.00    -0.350 N 
ATOM      4  H   UNL     1       1.680   5.276   2.204  1.00  0.00     0.345 HD
ATOM      5  H   UNL     1       2.606   6.141   1.062  1.00  0.00     0.345 HD
ATOM      6  H   UNL     1       0.993   6.588   1.380  1.00  0.00     0.345 HD
ENDBRANCH   2   3
BRANCH   2   7
ATOM      7  C   UNL     1       3.166   8.234   2.294  1.00  0.00     0.100 C 
ATOM      8  O   UNL     1       2.641   9.108   1.555  1.00  0.00    -0.544 OA
ATOM      9  O   UNL     1       4.528   8.290   2.561  1.00  0.00    -0.544 OA
ENDBRANCH   2   7
ENDBRANCH   1   2
BRANCH   1  10
ATOM     10  C   UNL     1      -0.182   7.378   2.939  1.00  0.00     0.223 C 
ATOM     11  O   UNL     1      -0.449   7.917   1.833  1.00  0.00    -0.275 OA
ATOM     12  N   UNL     1      -1.092   6.435   3.505  1.00  0.00    -0.369 N 
ATOM     13  H   UNL     1      -1.983   6.201   3.011  1.00  0.00     0.159 HD
ATOM     14  H   UNL     1      -0.879   5.963   4.412  1.00  0.00     0.159 HD
ENDBRANCH   1  10
TORSDOF 4
ENDMDL
MODEL 9
REMARK VINA RESULT:    -2.797     10.591     11.311
REMARK INTER + INTRA:          -3.653
REMARK INTER:                  -3.350
REMARK INTRA:                  -0.303
REMARK UNBOUND:                -0.284
REMARK SMILES NC(=O)C[C@@H]([NH3+])C(=O)[O-]
REMARK SMILES IDX 4 1 5 2 6 3 7 7 8 8 9 9 2 10 3 11 1 12
REMARK H PARENT 6 4 6 5 6 6 1 13 1 14
REMARK Flexibility Score: inf
ROOT
ATOM      1  C   UNL     1      -0.451   8.834   2.689  1.00  0.00     0.171 C 
ENDROOT
BRANCH   1   2
ATOM      2  C   UNL     1      -0.487   7.304   2.881  1.00  0.00     0.237 C 
BRANCH   2   3
ATOM      3  N   UNL     1      -1.697   6.739   2.271  1.00  0.00    -0.350 N 
ATOM      4  H   UNL     1      -2.418   6.567   3.009  1.00  0.00     0.345 HD
ATOM      5  H   UNL     1      -1.481   5.839   1.784  1.00  0.00     0.345 HD
ATOM      6  H   UNL     1      -2.093   7.416   1.578  1.00  0.00     0.345 HD
ENDBRANCH   2   3
BRANCH   2   7
ATOM      7  C   UNL     1       0.740   6.659   2.289  1.00  0.00     0.100 C 
ATOM      8  O   UNL     1       1.425   7.274   1.431  1.00  0.00    -0.544 OA
ATOM      9  O   UNL     1       1.114   5.378   2.677  1.00  0.00    -0.544 OA
ENDBRANCH   2   7
ENDBRANCH   1   2
BRANCH   1  10
ATOM     10  C   UNL     1      -1.661   9.326   1.947  1.00  0.00     0.223 C 
ATOM     11  O   UNL     1      -1.755   9.132   0.706  1.00  0.00    -0.275 OA
ATOM     12  N   UNL     1      -2.723   9.976   2.644  1.00  0.00    -0.369 N 
ATOM     13  H   UNL     1      -3.570  10.304   2.127  1.00  0.00     0.159 HD
ATOM     14  H   UNL     1      -2.671  10.128   3.676  1.00  0.00     0.159 HD
ENDBRANCH   1  10
TORSDOF 4
ENDMDL
