MODEL 1
REMARK VINA RESULT:    15.258      0.000      0.000
REMARK INTER + INTRA:          25.437
REMARK INTER:                  23.285
REMARK INTRA:                   2.152
REMARK UNBOUND:                 2.152
REMARK SMILES CC1=CCC[C@H](C)C(=O)C[C@@H](C(C)C)C(=O)C1
REMARK SMILES IDX 8 1 9 2 6 3 7 4 5 5 4 6 3 7 2 8 1 9 10 11 11 12 15 13 16 14
REMARK SMILES IDX 17 15 12 17 13 18 14 19
REMARK H PARENT
REMARK Flexibility Score: 70.00
ROOT
ATOM      1  C   UNL     1     -28.927  34.930 -12.212  1.00  0.00     0.136 C 
ATOM      2  O   UNL     1     -29.118  35.952 -12.859  1.00  0.00    -0.299 OA
ENDROOT
BRANCH   1   3
ATOM      3  C   UNL     1     -29.142  33.583 -12.862  1.00  0.00     0.053 C 
ATOM      4  C   UNL     1     -29.871  33.749 -14.200  1.00  0.00     0.016 C 
BRANCH   3   5
ATOM      5  C   UNL     1     -27.807  32.836 -13.055  1.00  0.00     0.015 C 
BRANCH   5   6
ATOM      6  C   UNL     1     -27.073  33.245 -14.350  1.00  0.00     0.028 C 
BRANCH   6   7
ATOM      7  C   UNL     1     -25.978  34.249 -14.073  1.00  0.00    -0.028 C 
ATOM      8  C   UNL     1     -25.380  34.505 -12.885  1.00  0.00    -0.070 CG0
ATOM      9  C   UNL     1     -24.269  35.528 -12.874  1.00  0.00     0.039 C 
ATOM     10  G   UNL     1     -25.760  33.853 -11.566  1.00  0.00     0.000 G0
ENDBRANCH   6   7
ENDBRANCH   5   6
ENDBRANCH   3   5
ENDBRANCH   1   3
BRANCH   1  11
ATOM     11  C   UNL     1     -28.547  35.011 -10.751  1.00  0.00     0.087 C 
BRANCH  11  12
ATOM     12  C   UNL     1     -27.230  35.783 -10.495  1.00  0.00     0.066 C 
BRANCH  12  13
ATOM     13  C   UNL     1     -25.991  34.898 -10.520  1.00  0.00     0.140 C 
ATOM     14  O   UNL     1     -25.187  35.007  -9.604  1.00  0.00    -0.299 OA
BRANCH  13  15
ATOM     15  C   UNL     1     -25.742  33.845 -11.577  1.00  0.00     0.106 CG0
ATOM     16  G   UNL     1     -25.369  34.482 -12.907  1.00  0.00     0.000 G0
ENDBRANCH  13  15
ENDBRANCH  12  13
BRANCH  12  17
ATOM     17  C   UNL     1     -27.312  36.682  -9.224  1.00  0.00    -0.006 C 
ATOM     18  C   UNL     1     -28.738  37.126  -8.858  1.00  0.00     0.008 C 
ATOM     19  C   UNL     1     -26.654  36.000  -8.013  1.00  0.00     0.008 C 
ENDBRANCH  12  17
ENDBRANCH  11  12
ENDBRANCH   1  11
TORSDOF 1
ENDMDL
MODEL 2
REMARK VINA RESULT:    16.671      1.913      5.343
REMARK INTER + INTRA:          27.595
REMARK INTER:                  24.154
REMARK INTRA:                   3.441
REMARK UNBOUND:                 2.152
REMARK SMILES CC1=CCC[C@H](C)C(=O)C[C@@H](C(C)C)C(=O)C1
REMARK SMILES IDX 8 1 9 2 6 3 7 4 5 5 4 6 3 7 2 8 1 9 10 11 11 12 15 13 16 14
REMARK SMILES IDX 17 15 12 17 13 18 14 19
REMARK H PARENT
REMARK Flexibility Score: 70.00
ROOT
ATOM      1  C   UNL     1     -25.634  35.207  -9.309  1.00  0.00     0.136 C 
ATOM      2  O   UNL     1     -24.960  36.163  -9.670  1.00  0.00    -0.299 OA
ENDROOT
BRANCH   1   3
ATOM      3  C   UNL     1     -25.706  34.855  -7.841  1.00  0.00     0.053 C 
ATOM      4  C   UNL     1     -25.203  36.026  -6.989  1.00  0.00     0.016 C 
BRANCH   3   5
ATOM      5  C   UNL     1     -27.138  34.456  -7.432  1.00  0.00     0.015 C 
BRANCH   5   6
ATOM      6  C   UNL     1     -28.072  35.672  -7.258  1.00  0.00     0.028 C 
BRANCH   6   7
ATOM      7  C   UNL     1     -27.741  36.772  -8.240  1.00  0.00    -0.028 C 
ATOM      8  C   UNL     1     -28.204  36.909  -9.506  1.00  0.00    -0.070 CG0
ATOM      9  C   UNL     1     -27.762  38.128 -10.278  1.00  0.00     0.039 C 
ATOM     10  G   UNL     1     -29.115  35.915 -10.207  1.00  0.00     0.000 G0
ENDBRANCH   6   7
ENDBRANCH   5   6
ENDBRANCH   3   5
ENDBRANCH   1   3
BRANCH   1  11
ATOM     11  C   UNL     1     -26.335  34.338 -10.328  1.00  0.00     0.087 C 
BRANCH  11  12
ATOM     12  C   UNL     1     -26.922  35.132 -11.520  1.00  0.00     0.066 C 
BRANCH  12  13
ATOM     13  C   UNL     1     -28.427  35.344 -11.428  1.00  0.00     0.140 C 
ATOM     14  O   UNL     1     -29.122  34.952 -12.355  1.00  0.00    -0.299 OA
BRANCH  13  15
ATOM     15  C   UNL     1     -29.109  35.947 -10.220  1.00  0.00     0.106 CG0
ATOM     16  G   UNL     1     -28.192  36.929  -9.506  1.00  0.00     0.000 G0
ENDBRANCH  13  15
ENDBRANCH  12  13
BRANCH  12  17
ATOM     17  C   UNL     1     -26.472  34.549 -12.895  1.00  0.00    -0.006 C 
ATOM     18  C   UNL     1     -24.995  34.123 -12.945  1.00  0.00     0.008 C 
ATOM     19  C   UNL     1     -27.366  33.374 -13.324  1.00  0.00     0.008 C 
ENDBRANCH  12  17
ENDBRANCH  11  12
ENDBRANCH   1  11
TORSDOF 1
ENDMDL
MODEL 3
REMARK VINA RESULT:    17.435      1.782      4.744
REMARK INTER + INTRA:          28.760
REMARK INTER:                  26.955
REMARK INTRA:                   1.805
REMARK UNBOUND:                 2.152
REMARK SMILES CC1=CCC[C@H](C)C(=O)C[C@@H](C(C)C)C(=O)C1
REMARK SMILES IDX 8 1 9 2 6 3 7 4 5 5 4 6 3 7 2 8 1 9 10 11 11 12 15 13 16 14
REMARK SMILES IDX 17 15 12 17 13 18 14 19
REMARK H PARENT
REMARK Flexibility Score: 70.00
ROOT
ATOM      1  C   UNL     1     -26.025  33.805 -13.242  1.00  0.00     0.136 C 
ATOM      2  O   UNL     1     -25.558  33.722 -14.370  1.00  0.00    -0.299 OA
ENDROOT
BRANCH   1   3
ATOM      3  C   UNL     1     -25.183  34.376 -12.124  1.00  0.00     0.053 C 
ATOM      4  C   UNL     1     -24.950  35.875 -12.347  1.00  0.00     0.016 C 
BRANCH   3   5
ATOM      5  C   UNL     1     -25.834  34.123 -10.749  1.00  0.00     0.015 C 
BRANCH   5   6
ATOM      6  C   UNL     1     -25.407  35.156  -9.684  1.00  0.00     0.028 C 
BRANCH   6   7
ATOM      7  C   UNL     1     -26.591  35.932  -9.157  1.00  0.00    -0.028 C 
ATOM      8  C   UNL     1     -27.644  36.405  -9.865  1.00  0.00    -0.070 CG0
ATOM      9  C   UNL     1     -28.734  37.113  -9.099  1.00  0.00     0.039 C 
ATOM     10  G   UNL     1     -27.794  36.291 -11.374  1.00  0.00     0.000 G0
ENDBRANCH   6   7
ENDBRANCH   5   6
ENDBRANCH   3   5
ENDBRANCH   1   3
BRANCH   1  11
ATOM     11  C   UNL     1     -27.410  33.275 -12.947  1.00  0.00     0.087 C 
BRANCH  11  12
ATOM     12  C   UNL     1     -28.521  34.346 -13.068  1.00  0.00     0.066 C 
BRANCH  12  13
ATOM     13  C   UNL     1     -28.724  35.159 -11.795  1.00  0.00     0.140 C 
ATOM     14  O   UNL     1     -29.620  34.822 -11.034  1.00  0.00    -0.299 OA
BRANCH  13  15
ATOM     15  C   UNL     1     -27.831  36.311 -11.393  1.00  0.00     0.106 CG0
ATOM     16  G   UNL     1     -27.640  36.356  -9.886  1.00  0.00     0.000 G0
ENDBRANCH  13  15
ENDBRANCH  12  13
BRANCH  12  17
ATOM     17  C   UNL     1     -29.850  33.756 -13.633  1.00  0.00    -0.006 C 
ATOM     18  C   UNL     1     -29.934  33.755 -15.168  1.00  0.00     0.008 C 
ATOM     19  C   UNL     1     -30.104  32.338 -13.097  1.00  0.00     0.008 C 
ENDBRANCH  12  17
ENDBRANCH  11  12
ENDBRANCH   1  11
TORSDOF 1
ENDMDL
