MODEL 1
REMARK VINA RESULT:    -4.535      0.000      0.000
REMARK INTER + INTRA:          -6.884
REMARK INTER:                  -6.125
REMARK INTRA:                  -0.758
REMARK UNBOUND:                -0.758
REMARK SMILES C[C@H](O)[C@H](O)[C@@H](O)[C@H](O)C=O
REMARK SMILES IDX 4 1 2 2 1 3 3 4 6 6 8 7 10 8 11 9 9 10 7 12 5 14
REMARK H PARENT 3 5 9 11 7 13 5 15
REMARK Flexibility Score: inf
ROOT
ATOM      1  C   UNL     1      13.771  60.253  74.627  1.00  0.00     0.174 C 
ENDROOT
BRANCH   1   2
ATOM      2  C   UNL     1      12.561  59.381  75.064  1.00  0.00     0.142 C 
ATOM      3  C   UNL     1      12.207  59.506  76.555  1.00  0.00     0.041 C 
BRANCH   2   4
ATOM      4  O   UNL     1      12.790  58.034  74.731  1.00  0.00    -0.391 OA
ATOM      5  H   UNL     1      12.337  57.854  73.866  1.00  0.00     0.211 HD
ENDBRANCH   2   4
ENDBRANCH   1   2
BRANCH   1   6
ATOM      6  C   UNL     1      13.838  60.462  73.091  1.00  0.00     0.181 C 
BRANCH   6   7
ATOM      7  C   UNL     1      13.600  61.945  72.702  1.00  0.00     0.209 C 
BRANCH   7   8
ATOM      8  C   UNL     1      13.935  62.219  71.257  1.00  0.00     0.258 C 
ATOM      9  O   UNL     1      14.300  61.318  70.519  1.00  0.00    -0.300 OA
ENDBRANCH   7   8
BRANCH   7  10
ATOM     10  O   UNL     1      12.273  62.330  72.963  1.00  0.00    -0.383 OA
ATOM     11  H   UNL     1      11.856  61.619  73.516  1.00  0.00     0.211 HD
ENDBRANCH   7  10
ENDBRANCH   6   7
BRANCH   6  12
ATOM     12  O   UNL     1      12.860  59.664  72.470  1.00  0.00    -0.387 OA
ATOM     13  H   UNL     1      12.121  60.268  72.194  1.00  0.00     0.211 HD
ENDBRANCH   6  12
ENDBRANCH   1   6
BRANCH   1  14
ATOM     14  O   UNL     1      13.745  61.502  75.274  1.00  0.00    -0.388 OA
ATOM     15  H   UNL     1      13.583  62.192  74.579  1.00  0.00     0.211 HD
ENDBRANCH   1  14
TORSDOF 8
ENDMDL
MODEL 2
REMARK VINA RESULT:    -4.517      2.500      4.895
REMARK INTER + INTRA:          -6.859
REMARK INTER:                  -6.230
REMARK INTRA:                  -0.630
REMARK UNBOUND:                -0.758
REMARK SMILES C[C@H](O)[C@H](O)[C@@H](O)[C@H](O)C=O
REMARK SMILES IDX 4 1 2 2 1 3 3 4 6 6 8 7 10 8 11 9 9 10 7 12 5 14
REMARK H PARENT 3 5 9 11 7 13 5 15
REMARK Flexibility Score: inf
ROOT
ATOM      1  C   UNL     1      12.812  58.758  74.437  1.00  0.00     0.174 C 
ENDROOT
BRANCH   1   2
ATOM      2  C   UNL     1      13.572  59.879  73.677  1.00  0.00     0.142 C 
ATOM      3  C   UNL     1      13.287  61.296  74.204  1.00  0.00     0.041 C 
BRANCH   2   4
ATOM      4  O   UNL     1      13.291  59.808  72.301  1.00  0.00    -0.391 OA
ATOM      5  H   UNL     1      12.421  59.342  72.192  1.00  0.00     0.211 HD
ENDBRANCH   2   4
ENDBRANCH   1   2
BRANCH   1   6
ATOM      6  C   UNL     1      12.879  57.388  73.712  1.00  0.00     0.181 C 
BRANCH   6   7
ATOM      7  C   UNL     1      12.503  56.217  74.659  1.00  0.00     0.209 C 
BRANCH   7   8
ATOM      8  C   UNL     1      12.160  54.958  73.903  1.00  0.00     0.258 C 
ATOM      9  O   UNL     1      13.040  54.242  73.451  1.00  0.00    -0.300 OA
ENDBRANCH   7   8
BRANCH   7  10
ATOM     10  O   UNL     1      13.536  55.956  75.575  1.00  0.00    -0.383 OA
ATOM     11  H   UNL     1      14.216  56.673  75.476  1.00  0.00     0.211 HD
ENDBRANCH   7  10
ENDBRANCH   6   7
BRANCH   6  12
ATOM     12  O   UNL     1      14.183  57.182  73.227  1.00  0.00    -0.387 OA
ATOM     13  H   UNL     1      14.115  57.059  72.244  1.00  0.00     0.211 HD
ENDBRANCH   6  12
ENDBRANCH   1   6
BRANCH   1  14
ATOM     14  O   UNL     1      13.303  58.623  75.749  1.00  0.00    -0.388 OA
ATOM     15  H   UNL     1      12.758  57.926  76.198  1.00  0.00     0.211 HD
ENDBRANCH   1  14
TORSDOF 8
ENDMDL
MODEL 3
REMARK VINA RESULT:    -4.500      2.028      3.380
REMARK INTER + INTRA:          -6.837
REMARK INTER:                  -6.114
REMARK INTRA:                  -0.723
REMARK UNBOUND:                -0.758
REMARK SMILES C[C@H](O)[C@H](O)[C@@H](O)[C@H](O)C=O
REMARK SMILES IDX 4 1 2 2 1 3 3 4 6 6 8 7 10 8 11 9 9 10 7 12 5 14
REMARK H PARENT 3 5 9 11 7 13 5 15
REMARK Flexibility Score: inf
ROOT
ATOM      1  C   UNL     1      13.311  58.602  73.388  1.00  0.00     0.174 C 
ENDROOT
BRANCH   1   2
ATOM      2  C   UNL     1      13.116  57.079  73.621  1.00  0.00     0.142 C 
ATOM      3  C   UNL     1      12.836  56.280  72.337  1.00  0.00     0.041 C 
BRANCH   2   4
ATOM      4  O   UNL     1      12.093  56.859  74.561  1.00  0.00    -0.391 OA
ATOM      5  H   UNL     1      12.520  56.688  75.441  1.00  0.00     0.211 HD
ENDBRANCH   2   4
ENDBRANCH   1   2
BRANCH   1   6
ATOM      6  C   UNL     1      12.757  59.465  74.553  1.00  0.00     0.181 C 
BRANCH   6   7
ATOM      7  C   UNL     1      12.862  60.982  74.244  1.00  0.00     0.209 C 
BRANCH   7   8
ATOM      8  C   UNL     1      13.856  61.680  75.138  1.00  0.00     0.258 C 
ATOM      9  O   UNL     1      13.555  62.001  76.277  1.00  0.00    -0.300 OA
ENDBRANCH   7   8
BRANCH   7  10
ATOM     10  O   UNL     1      13.197  61.202  72.897  1.00  0.00    -0.383 OA
ATOM     11  H   UNL     1      12.444  60.873  72.340  1.00  0.00     0.211 HD
ENDBRANCH   7  10
ENDBRANCH   6   7
BRANCH   6  12
ATOM     12  O   UNL     1      13.485  59.186  75.724  1.00  0.00    -0.387 OA
ATOM     13  H   UNL     1      13.204  58.286  76.037  1.00  0.00     0.211 HD
ENDBRANCH   6  12
ENDBRANCH   1   6
BRANCH   1  14
ATOM     14  O   UNL     1      14.669  58.905  73.179  1.00  0.00    -0.388 OA
ATOM     15  H   UNL     1      15.034  58.217  72.563  1.00  0.00     0.211 HD
ENDBRANCH   1  14
TORSDOF 8
ENDMDL
MODEL 4
REMARK VINA RESULT:    -4.459      2.776      5.086
REMARK INTER + INTRA:          -6.782
REMARK INTER:                  -6.124
REMARK INTRA:                  -0.658
REMARK UNBOUND:                -0.758
REMARK SMILES C[C@H](O)[C@H](O)[C@@H](O)[C@H](O)C=O
REMARK SMILES IDX 4 1 2 2 1 3 3 4 6 6 8 7 10 8 11 9 9 10 7 12 5 14
REMARK H PARENT 3 5 9 11 7 13 5 15
REMARK Flexibility Score: inf
ROOT
ATOM      1  C   UNL     1      13.350  58.408  73.667  1.00  0.00     0.174 C 
ENDROOT
BRANCH   1   2
ATOM      2  C   UNL     1      12.873  59.600  74.542  1.00  0.00     0.142 C 
ATOM      3  C   UNL     1      13.192  60.981  73.944  1.00  0.00     0.041 C 
BRANCH   2   4
ATOM      4  O   UNL     1      13.410  59.497  75.837  1.00  0.00    -0.391 OA
ATOM      5  H   UNL     1      13.286  60.373  76.288  1.00  0.00     0.211 HD
ENDBRANCH   2   4
ENDBRANCH   1   2
BRANCH   1   6
ATOM      6  C   UNL     1      13.105  57.032  74.341  1.00  0.00     0.181 C 
BRANCH   6   7
ATOM      7  C   UNL     1      13.183  55.869  73.317  1.00  0.00     0.209 C 
BRANCH   7   8
ATOM      8  C   UNL     1      13.361  54.529  73.985  1.00  0.00     0.258 C 
ATOM      9  O   UNL     1      12.733  54.245  74.993  1.00  0.00    -0.300 OA
ENDBRANCH   7   8
BRANCH   7  10
ATOM     10  O   UNL     1      12.043  55.843  72.494  1.00  0.00    -0.383 OA
ATOM     11  H   UNL     1      11.599  54.964  72.621  1.00  0.00     0.211 HD
ENDBRANCH   7  10
ENDBRANCH   6   7
BRANCH   6  12
ATOM     12  O   UNL     1      11.832  57.028  74.940  1.00  0.00    -0.387 OA
ATOM     13  H   UNL     1      11.612  56.085  75.157  1.00  0.00     0.211 HD
ENDBRANCH   6  12
ENDBRANCH   1   6
BRANCH   1  14
ATOM     14  O   UNL     1      12.729  58.435  72.405  1.00  0.00    -0.388 OA
ATOM     15  H   UNL     1      12.831  57.532  72.007  1.00  0.00     0.211 HD
ENDBRANCH   1  14
TORSDOF 8
ENDMDL
MODEL 5
REMARK VINA RESULT:    -4.405      1.113      4.186
REMARK INTER + INTRA:          -6.708
REMARK INTER:                  -6.043
REMARK INTRA:                  -0.665
REMARK UNBOUND:                -0.758
REMARK SMILES C[C@H](O)[C@H](O)[C@@H](O)[C@H](O)C=O
REMARK SMILES IDX 4 1 2 2 1 3 3 4 6 6 8 7 10 8 11 9 9 10 7 12 5 14
REMARK H PARENT 3 5 9 11 7 13 5 15
REMARK Flexibility Score: inf
ROOT
ATOM      1  C   UNL     1      13.080  61.764  73.027  1.00  0.00     0.174 C 
ENDROOT
BRANCH   1   2
ATOM      2  C   UNL     1      13.987  61.666  71.770  1.00  0.00     0.142 C 
ATOM      3  C   UNL     1      13.861  62.864  70.813  1.00  0.00     0.041 C 
BRANCH   2   4
ATOM      4  O   UNL     1      13.732  60.467  71.081  1.00  0.00    -0.391 OA
ATOM      5  H   UNL     1      13.846  59.718  71.722  1.00  0.00     0.211 HD
ENDBRANCH   2   4
ENDBRANCH   1   2
BRANCH   1   6
ATOM      6  C   UNL     1      13.074  60.460  73.868  1.00  0.00     0.181 C 
BRANCH   6   7
ATOM      7  C   UNL     1      12.916  60.754  75.383  1.00  0.00     0.209 C 
BRANCH   7   8
ATOM      8  C   UNL     1      12.478  59.537  76.160  1.00  0.00     0.258 C 
ATOM      9  O   UNL     1      12.369  58.452  75.611  1.00  0.00    -0.300 OA
ENDBRANCH   7   8
BRANCH   7  10
ATOM     10  O   UNL     1      14.109  61.261  75.927  1.00  0.00    -0.383 OA
ATOM     11  H   UNL     1      14.726  61.455  75.174  1.00  0.00     0.211 HD
ENDBRANCH   7  10
ENDBRANCH   6   7
BRANCH   6  12
ATOM     12  O   UNL     1      14.282  59.768  73.661  1.00  0.00    -0.387 OA
ATOM     13  H   UNL     1      15.018  60.427  73.759  1.00  0.00     0.211 HD
ENDBRANCH   6  12
ENDBRANCH   1   6
BRANCH   1  14
ATOM     14  O   UNL     1      13.465  62.848  73.837  1.00  0.00    -0.388 OA
ATOM     15  H   UNL     1      12.843  62.876  74.610  1.00  0.00     0.211 HD
ENDBRANCH   1  14
TORSDOF 8
ENDMDL
MODEL 6
REMARK VINA RESULT:    -4.297      1.381      2.422
REMARK INTER + INTRA:          -6.562
REMARK INTER:                  -6.156
REMARK INTRA:                  -0.406
REMARK UNBOUND:                -0.758
REMARK SMILES C[C@H](O)[C@H](O)[C@@H](O)[C@H](O)C=O
REMARK SMILES IDX 4 1 2 2 1 3 3 4 6 6 8 7 10 8 11 9 9 10 7 12 5 14
REMARK H PARENT 3 5 9 11 7 13 5 15
REMARK Flexibility Score: inf
ROOT
ATOM      1  C   UNL     1      13.604  61.040  75.273  1.00  0.00     0.174 C 
ENDROOT
BRANCH   1   2
ATOM      2  C   UNL     1      12.702  60.211  76.228  1.00  0.00     0.142 C 
ATOM      3  C   UNL     1      12.528  60.835  77.622  1.00  0.00     0.041 C 
BRANCH   2   4
ATOM      4  O   UNL     1      13.195  58.899  76.342  1.00  0.00    -0.391 OA
ATOM      5  H   UNL     1      13.073  58.451  75.464  1.00  0.00     0.211 HD
ENDBRANCH   2   4
ENDBRANCH   1   2
BRANCH   1   6
ATOM      6  C   UNL     1      13.010  61.168  73.845  1.00  0.00     0.181 C 
BRANCH   6   7
ATOM      7  C   UNL     1      13.783  60.295  72.820  1.00  0.00     0.209 C 
BRANCH   7   8
ATOM      8  C   UNL     1      13.179  58.921  72.669  1.00  0.00     0.258 C 
ATOM      9  O   UNL     1      13.353  58.065  73.522  1.00  0.00    -0.300 OA
ENDBRANCH   7   8
BRANCH   7  10
ATOM     10  O   UNL     1      13.849  60.926  71.567  1.00  0.00    -0.383 OA
ATOM     11  H   UNL     1      14.341  61.781  71.683  1.00  0.00     0.211 HD
ENDBRANCH   7  10
ENDBRANCH   6   7
BRANCH   6  12
ATOM     12  O   UNL     1      13.071  62.513  73.436  1.00  0.00    -0.387 OA
ATOM     13  H   UNL     1      12.139  62.857  73.421  1.00  0.00     0.211 HD
ENDBRANCH   6  12
ENDBRANCH   1   6
BRANCH   1  14
ATOM     14  O   UNL     1      13.846  62.321  75.801  1.00  0.00    -0.388 OA
ATOM     15  H   UNL     1      13.198  62.463  76.540  1.00  0.00     0.211 HD
ENDBRANCH   1  14
TORSDOF 8
ENDMDL
MODEL 7
REMARK VINA RESULT:    -4.178     13.251     15.022
REMARK INTER + INTRA:          -6.402
REMARK INTER:                  -5.866
REMARK INTRA:                  -0.536
REMARK UNBOUND:                -0.758
REMARK SMILES C[C@H](O)[C@H](O)[C@@H](O)[C@H](O)C=O
REMARK SMILES IDX 4 1 2 2 1 3 3 4 6 6 8 7 10 8 11 9 9 10 7 12 5 14
REMARK H PARENT 3 5 9 11 7 13 5 15
REMARK Flexibility Score: inf
ROOT
ATOM      1  C   UNL     1      22.115  72.717  71.868  1.00  0.00     0.174 C 
ENDROOT
BRANCH   1   2
ATOM      2  C   UNL     1      22.490  72.230  70.441  1.00  0.00     0.142 C 
ATOM      3  C   UNL     1      23.368  73.217  69.654  1.00  0.00     0.041 C 
BRANCH   2   4
ATOM      4  O   UNL     1      21.327  71.927  69.711  1.00  0.00    -0.391 OA
ATOM      5  H   UNL     1      21.158  70.952  69.798  1.00  0.00     0.211 HD
ENDBRANCH   2   4
ENDBRANCH   1   2
BRANCH   1   6
ATOM      6  C   UNL     1      21.642  71.564  72.792  1.00  0.00     0.181 C 
BRANCH   6   7
ATOM      7  C   UNL     1      22.612  71.347  73.983  1.00  0.00     0.209 C 
BRANCH   7   8
ATOM      8  C   UNL     1      22.058  70.387  75.006  1.00  0.00     0.258 C 
ATOM      9  O   UNL     1      22.784  69.885  75.850  1.00  0.00    -0.300 OA
ENDBRANCH   7   8
BRANCH   7  10
ATOM     10  O   UNL     1      23.867  70.896  73.538  1.00  0.00    -0.383 OA
ATOM     11  H   UNL     1      24.556  71.509  73.903  1.00  0.00     0.211 HD
ENDBRANCH   7  10
ENDBRANCH   6   7
BRANCH   6  12
ATOM     12  O   UNL     1      21.562  70.374  72.046  1.00  0.00    -0.387 OA
ATOM     13  H   UNL     1      20.599  70.150  71.953  1.00  0.00     0.211 HD
ENDBRANCH   6  12
ENDBRANCH   1   6
BRANCH   1  14
ATOM     14  O   UNL     1      23.196  73.389  72.465  1.00  0.00    -0.388 OA
ATOM     15  H   UNL     1      23.818  73.654  71.738  1.00  0.00     0.211 HD
ENDBRANCH   1  14
TORSDOF 8
ENDMDL
MODEL 8
REMARK VINA RESULT:    -4.166      2.690      4.098
REMARK INTER + INTRA:          -6.386
REMARK INTER:                  -6.026
REMARK INTRA:                  -0.360
REMARK UNBOUND:                -0.758
REMARK SMILES C[C@H](O)[C@H](O)[C@@H](O)[C@H](O)C=O
REMARK SMILES IDX 4 1 2 2 1 3 3 4 6 6 8 7 10 8 11 9 9 10 7 12 5 14
REMARK H PARENT 3 5 9 11 7 13 5 15
REMARK Flexibility Score: inf
ROOT
ATOM      1  C   UNL     1      13.190  56.614  74.654  1.00  0.00     0.174 C 
ENDROOT
BRANCH   1   2
ATOM      2  C   UNL     1      12.279  55.724  73.765  1.00  0.00     0.142 C 
ATOM      3  C   UNL     1      12.543  54.216  73.911  1.00  0.00     0.041 C 
BRANCH   2   4
ATOM      4  O   UNL     1      12.393  56.108  72.417  1.00  0.00    -0.391 OA
ATOM      5  H   UNL     1      13.171  55.628  72.029  1.00  0.00     0.211 HD
ENDBRANCH   2   4
ENDBRANCH   1   2
BRANCH   1   6
ATOM      6  C   UNL     1      12.682  58.077  74.762  1.00  0.00     0.181 C 
BRANCH   6   7
ATOM      7  C   UNL     1      13.284  58.978  73.651  1.00  0.00     0.209 C 
BRANCH   7   8
ATOM      8  C   UNL     1      13.631  60.355  74.158  1.00  0.00     0.258 C 
ATOM      9  O   UNL     1      12.783  61.231  74.216  1.00  0.00    -0.300 OA
ENDBRANCH   7   8
BRANCH   7  10
ATOM     10  O   UNL     1      14.420  58.382  73.078  1.00  0.00    -0.383 OA
ATOM     11  H   UNL     1      14.179  58.091  72.160  1.00  0.00     0.211 HD
ENDBRANCH   7  10
ENDBRANCH   6   7
BRANCH   6  12
ATOM     12  O   UNL     1      13.039  58.600  76.018  1.00  0.00    -0.387 OA
ATOM     13  H   UNL     1      12.365  58.278  76.673  1.00  0.00     0.211 HD
ENDBRANCH   6  12
ENDBRANCH   1   6
BRANCH   1  14
ATOM     14  O   UNL     1      13.323  56.063  75.941  1.00  0.00    -0.388 OA
ATOM     15  H   UNL     1      12.628  56.481  76.515  1.00  0.00     0.211 HD
ENDBRANCH   1  14
TORSDOF 8
ENDMDL
MODEL 9
REMARK VINA RESULT:    -4.115     13.151     14.324
REMARK INTER + INTRA:          -6.317
REMARK INTER:                  -5.401
REMARK INTRA:                  -0.916
REMARK UNBOUND:                -0.758
REMARK SMILES C[C@H](O)[C@H](O)[C@@H](O)[C@H](O)C=O
REMARK SMILES IDX 4 1 2 2 1 3 3 4 6 6 8 7 10 8 11 9 9 10 7 12 5 14
REMARK H PARENT 3 5 9 11 7 13 5 15
REMARK Flexibility Score: inf
ROOT
ATOM      1  C   UNL     1      22.336  70.605  73.655  1.00  0.00     0.174 C 
ENDROOT
BRANCH   1   2
ATOM      2  C   UNL     1      22.063  70.051  75.079  1.00  0.00     0.142 C 
ATOM      3  C   UNL     1      20.674  70.411  75.635  1.00  0.00     0.041 C 
BRANCH   2   4
ATOM      4  O   UNL     1      23.066  70.479  75.967  1.00  0.00    -0.391 OA
ATOM      5  H   UNL     1      23.548  69.674  76.292  1.00  0.00     0.211 HD
ENDBRANCH   2   4
ENDBRANCH   1   2
BRANCH   1   6
ATOM      6  C   UNL     1      21.690  71.996  73.415  1.00  0.00     0.181 C 
BRANCH   6   7
ATOM      7  C   UNL     1      21.529  72.302  71.903  1.00  0.00     0.209 C 
BRANCH   7   8
ATOM      8  C   UNL     1      22.548  73.298  71.409  1.00  0.00     0.258 C 
ATOM      9  O   UNL     1      23.742  73.048  71.460  1.00  0.00    -0.300 OA
ENDBRANCH   7   8
BRANCH   7  10
ATOM     10  O   UNL     1      21.605  71.125  71.138  1.00  0.00    -0.383 OA
ATOM     11  H   UNL     1      21.154  70.403  71.648  1.00  0.00     0.211 HD
ENDBRANCH   7  10
ENDBRANCH   6   7
BRANCH   6  12
ATOM     12  O   UNL     1      22.497  72.989  73.999  1.00  0.00    -0.387 OA
ATOM     13  H   UNL     1      23.365  72.983  73.517  1.00  0.00     0.211 HD
ENDBRANCH   6  12
ENDBRANCH   1   6
BRANCH   1  14
ATOM     14  O   UNL     1      23.719  70.676  73.404  1.00  0.00    -0.388 OA
ATOM     15  H   UNL     1      23.878  70.276  72.509  1.00  0.00     0.211 HD
ENDBRANCH   1  14
TORSDOF 8
ENDMDL
