MODEL 1
REMARK VINA RESULT:    -4.701      0.000      0.000
REMARK INTER + INTRA:          -7.596
REMARK INTER:                  -7.175
REMARK INTRA:                  -0.420
REMARK UNBOUND:                -0.420
REMARK SMILES CCCCCCCCCCC(=O)[O-]
REMARK SMILES IDX 7 1 8 2 9 3 10 4 11 5 12 6 13 7 6 8 5 9 4 10 3 11 2 12 1 13
REMARK H PARENT
REMARK Flexibility Score: inf
ROOT
ATOM      1  C   UNL     1       4.232 -36.717  19.525  1.00  0.00     0.000 C 
ENDROOT
BRANCH   1   2
ATOM      2  C   UNL     1       4.329 -35.689  20.663  1.00  0.00     0.000 C 
BRANCH   2   3
ATOM      3  C   UNL     1       5.719 -35.662  21.325  1.00  0.00     0.006 C 
BRANCH   3   4
ATOM      4  C   UNL     1       5.825 -36.496  22.612  1.00  0.00     0.053 C 
BRANCH   4   5
ATOM      5  C   UNL     1       5.858 -35.639  23.839  1.00  0.00     0.041 C 
ATOM      6  O   UNL     1       5.757 -36.161  24.980  1.00  0.00    -0.550 OA
ATOM      7  O   UNL     1       5.965 -34.258  23.720  1.00  0.00    -0.550 OA
ENDBRANCH   4   5
ENDBRANCH   3   4
ENDBRANCH   2   3
ENDBRANCH   1   2
BRANCH   1   8
ATOM      8  C   UNL     1       2.909 -37.495  19.602  1.00  0.00     0.000 C 
BRANCH   8   9
ATOM      9  C   UNL     1       2.193 -37.587  18.244  1.00  0.00    -0.000 C 
BRANCH   9  10
ATOM     10  C   UNL     1       3.074 -37.105  17.078  1.00  0.00    -0.000 C 
BRANCH  10  11
ATOM     11  C   UNL     1       2.260 -36.405  15.977  1.00  0.00    -0.000 C 
BRANCH  11  12
ATOM     12  C   UNL     1       2.762 -36.743  14.565  1.00  0.00    -0.003 C 
ATOM     13  C   UNL     1       3.798 -37.864  14.604  1.00  0.00     0.004 C 
ENDBRANCH  11  12
ENDBRANCH  10  11
ENDBRANCH   9  10
ENDBRANCH   8   9
ENDBRANCH   1   8
TORSDOF 9
ENDMDL
MODEL 2
REMARK VINA RESULT:    -4.425      0.664      1.253
REMARK INTER + INTRA:          -7.173
REMARK INTER:                  -6.725
REMARK INTRA:                  -0.448
REMARK UNBOUND:                -0.420
REMARK SMILES CCCCCCCCCCC(=O)[O-]
REMARK SMILES IDX 7 1 8 2 9 3 10 4 11 5 12 6 13 7 6 8 5 9 4 10 3 11 2 12 1 13
REMARK H PARENT
REMARK Flexibility Score: inf
ROOT
ATOM      1  C   UNL     1       4.193 -36.824  19.586  1.00  0.00     0.000 C 
ENDROOT
BRANCH   1   2
ATOM      2  C   UNL     1       5.192 -37.735  20.316  1.00  0.00     0.000 C 
BRANCH   2   3
ATOM      3  C   UNL     1       5.608 -37.183  21.692  1.00  0.00     0.006 C 
BRANCH   3   4
ATOM      4  C   UNL     1       5.333 -35.682  21.882  1.00  0.00     0.053 C 
BRANCH   4   5
ATOM      5  C   UNL     1       5.527 -35.249  23.302  1.00  0.00     0.041 C 
ATOM      6  O   UNL     1       5.673 -34.029  23.578  1.00  0.00    -0.550 OA
ATOM      7  O   UNL     1       5.581 -36.196  24.318  1.00  0.00    -0.550 OA
ENDBRANCH   4   5
ENDBRANCH   3   4
ENDBRANCH   2   3
ENDBRANCH   1   2
BRANCH   1   8
ATOM      8  C   UNL     1       2.785 -37.438  19.596  1.00  0.00     0.000 C 
BRANCH   8   9
ATOM      9  C   UNL     1       2.139 -37.466  18.201  1.00  0.00    -0.000 C 
BRANCH   9  10
ATOM     10  C   UNL     1       3.132 -37.106  17.082  1.00  0.00    -0.000 C 
BRANCH  10  11
ATOM     11  C   UNL     1       2.480 -36.283  15.959  1.00  0.00    -0.000 C 
BRANCH  11  12
ATOM     12  C   UNL     1       2.832 -36.808  14.559  1.00  0.00    -0.003 C 
ATOM     13  C   UNL     1       3.800 -37.986  14.643  1.00  0.00     0.004 C 
ENDBRANCH  11  12
ENDBRANCH  10  11
ENDBRANCH   9  10
ENDBRANCH   8   9
ENDBRANCH   1   8
TORSDOF 9
ENDMDL
MODEL 3
REMARK VINA RESULT:    -4.380      3.849      7.339
REMARK INTER + INTRA:          -7.105
REMARK INTER:                  -6.658
REMARK INTRA:                  -0.448
REMARK UNBOUND:                -0.420
REMARK SMILES CCCCCCCCCCC(=O)[O-]
REMARK SMILES IDX 7 1 8 2 9 3 10 4 11 5 12 6 13 7 6 8 5 9 4 10 3 11 2 12 1 13
REMARK H PARENT
REMARK Flexibility Score: inf
ROOT
ATOM      1  C   UNL     1       3.906 -36.284  19.793  1.00  0.00     0.000 C 
ENDROOT
BRANCH   1   2
ATOM      2  C   UNL     1       2.922 -37.458  19.683  1.00  0.00     0.000 C 
BRANCH   2   3
ATOM      3  C   UNL     1       2.361 -37.635  18.259  1.00  0.00     0.006 C 
BRANCH   3   4
ATOM      4  C   UNL     1       3.276 -37.099  17.146  1.00  0.00     0.053 C 
BRANCH   4   5
ATOM      5  C   UNL     1       2.500 -36.644  15.949  1.00  0.00     0.041 C 
ATOM      6  O   UNL     1       1.371 -36.105  16.093  1.00  0.00    -0.550 OA
ATOM      7  O   UNL     1       3.008 -36.848  14.672  1.00  0.00    -0.550 OA
ENDBRANCH   4   5
ENDBRANCH   3   4
ENDBRANCH   2   3
ENDBRANCH   1   2
BRANCH   1   8
ATOM      8  C   UNL     1       5.307 -36.778  20.185  1.00  0.00     0.000 C 
BRANCH   8   9
ATOM      9  C   UNL     1       5.988 -35.871  21.224  1.00  0.00    -0.000 C 
BRANCH   9  10
ATOM     10  C   UNL     1       4.988 -35.258  22.220  1.00  0.00    -0.000 C 
BRANCH  10  11
ATOM     11  C   UNL     1       5.578 -35.112  23.632  1.00  0.00    -0.000 C 
BRANCH  11  12
ATOM     12  C   UNL     1       6.118 -36.439  24.188  1.00  0.00    -0.003 C 
ATOM     13  C   UNL     1       5.348 -36.864  25.437  1.00  0.00     0.004 C 
ENDBRANCH  11  12
ENDBRANCH  10  11
ENDBRANCH   9  10
ENDBRANCH   8   9
ENDBRANCH   1   8
TORSDOF 9
ENDMDL
MODEL 4
REMARK VINA RESULT:    -4.376      4.116      7.456
REMARK INTER + INTRA:          -7.099
REMARK INTER:                  -6.728
REMARK INTRA:                  -0.371
REMARK UNBOUND:                -0.420
REMARK SMILES CCCCCCCCCCC(=O)[O-]
REMARK SMILES IDX 7 1 8 2 9 3 10 4 11 5 12 6 13 7 6 8 5 9 4 10 3 11 2 12 1 13
REMARK H PARENT
REMARK Flexibility Score: inf
ROOT
ATOM      1  C   UNL     1       2.871 -37.710  19.942  1.00  0.00     0.000 C 
ENDROOT
BRANCH   1   2
ATOM      2  C   UNL     1       2.222 -37.528  18.562  1.00  0.00     0.000 C 
BRANCH   2   3
ATOM      3  C   UNL     1       3.256 -37.453  17.422  1.00  0.00     0.006 C 
BRANCH   3   4
ATOM      4  C   UNL     1       2.941 -36.396  16.350  1.00  0.00     0.053 C 
BRANCH   4   5
ATOM      5  C   UNL     1       2.942 -36.977  14.970  1.00  0.00     0.041 C 
ATOM      6  O   UNL     1       2.003 -36.716  14.173  1.00  0.00    -0.550 OA
ATOM      7  O   UNL     1       3.962 -37.834  14.575  1.00  0.00    -0.550 OA
ENDBRANCH   4   5
ENDBRANCH   3   4
ENDBRANCH   2   3
ENDBRANCH   1   2
BRANCH   1   8
ATOM      8  C   UNL     1       4.363 -37.344  19.899  1.00  0.00     0.000 C 
BRANCH   8   9
ATOM      9  C   UNL     1       4.644 -35.933  20.442  1.00  0.00    -0.000 C 
BRANCH   9  10
ATOM     10  C   UNL     1       5.622 -35.941  21.630  1.00  0.00    -0.000 C 
BRANCH  10  11
ATOM     11  C   UNL     1       5.067 -35.195  22.854  1.00  0.00    -0.000 C 
BRANCH  11  12
ATOM     12  C   UNL     1       6.021 -35.240  24.058  1.00  0.00    -0.003 C 
ATOM     13  C   UNL     1       5.851 -36.538  24.844  1.00  0.00     0.004 C 
ENDBRANCH  11  12
ENDBRANCH  10  11
ENDBRANCH   9  10
ENDBRANCH   8   9
ENDBRANCH   1   8
TORSDOF 9
ENDMDL
MODEL 5
REMARK VINA RESULT:    -3.532      3.121      6.750
REMARK INTER + INTRA:          -5.811
REMARK INTER:                  -5.195
REMARK INTRA:                  -0.616
REMARK UNBOUND:                -0.420
REMARK SMILES CCCCCCCCCCC(=O)[O-]
REMARK SMILES IDX 7 1 8 2 9 3 10 4 11 5 12 6 13 7 6 8 5 9 4 10 3 11 2 12 1 13
REMARK H PARENT
REMARK Flexibility Score: inf
ROOT
ATOM      1  C   UNL     1       4.997 -35.407  19.730  1.00  0.00     0.000 C 
ENDROOT
BRANCH   1   2
ATOM      2  C   UNL     1       4.372 -35.634  18.344  1.00  0.00     0.000 C 
BRANCH   2   3
ATOM      3  C   UNL     1       3.921 -37.089  18.124  1.00  0.00     0.006 C 
BRANCH   3   4
ATOM      4  C   UNL     1       2.445 -37.241  17.720  1.00  0.00     0.053 C 
BRANCH   4   5
ATOM      5  C   UNL     1       1.579 -37.623  18.881  1.00  0.00     0.041 C 
ATOM      6  O   UNL     1       0.384 -37.971  18.693  1.00  0.00    -0.550 OA
ATOM      7  O   UNL     1       2.082 -37.560  20.175  1.00  0.00    -0.550 OA
ENDBRANCH   4   5
ENDBRANCH   3   4
ENDBRANCH   2   3
ENDBRANCH   1   2
BRANCH   1   8
ATOM      8  C   UNL     1       5.444 -36.739  20.353  1.00  0.00     0.000 C 
BRANCH   8   9
ATOM      9  C   UNL     1       5.586 -36.662  21.882  1.00  0.00    -0.000 C 
BRANCH   9  10
ATOM     10  C   UNL     1       5.019 -35.355  22.463  1.00  0.00    -0.000 C 
BRANCH  10  11
ATOM     11  C   UNL     1       5.638 -34.999  23.825  1.00  0.00    -0.000 C 
BRANCH  11  12
ATOM     12  C   UNL     1       6.125 -36.235  24.596  1.00  0.00    -0.003 C 
ATOM     13  C   UNL     1       5.002 -36.832  25.442  1.00  0.00     0.004 C 
ENDBRANCH  11  12
ENDBRANCH  10  11
ENDBRANCH   9  10
ENDBRANCH   8   9
ENDBRANCH   1   8
TORSDOF 9
ENDMDL
MODEL 6
REMARK VINA RESULT:    -3.480      1.311      2.002
REMARK INTER + INTRA:          -5.731
REMARK INTER:                  -5.414
REMARK INTRA:                  -0.317
REMARK UNBOUND:                -0.420
REMARK SMILES CCCCCCCCCCC(=O)[O-]
REMARK SMILES IDX 7 1 8 2 9 3 10 4 11 5 12 6 13 7 6 8 5 9 4 10 3 11 2 12 1 13
REMARK H PARENT
REMARK Flexibility Score: inf
ROOT
ATOM      1  C   UNL     1       5.795 -35.321  20.057  1.00  0.00     0.000 C 
ENDROOT
BRANCH   1   2
ATOM      2  C   UNL     1       5.702 -36.148  21.349  1.00  0.00     0.000 C 
BRANCH   2   3
ATOM      3  C   UNL     1       5.288 -35.305  22.569  1.00  0.00     0.006 C 
BRANCH   3   4
ATOM      4  C   UNL     1       6.120 -35.571  23.835  1.00  0.00     0.053 C 
BRANCH   4   5
ATOM      5  C   UNL     1       5.654 -36.789  24.570  1.00  0.00     0.041 C 
ATOM      6  O   UNL     1       5.155 -36.682  25.721  1.00  0.00    -0.550 OA
ATOM      7  O   UNL     1       5.802 -38.047  23.998  1.00  0.00    -0.550 OA
ENDBRANCH   4   5
ENDBRANCH   3   4
ENDBRANCH   2   3
ENDBRANCH   1   2
BRANCH   1   8
ATOM      8  C   UNL     1       4.825 -35.857  18.993  1.00  0.00     0.000 C 
BRANCH   8   9
ATOM      9  C   UNL     1       3.835 -36.890  19.556  1.00  0.00    -0.000 C 
BRANCH   9  10
ATOM     10  C   UNL     1       2.832 -37.384  18.499  1.00  0.00    -0.000 C 
BRANCH  10  11
ATOM     11  C   UNL     1       3.195 -36.917  17.080  1.00  0.00    -0.000 C 
BRANCH  11  12
ATOM     12  C   UNL     1       1.961 -36.723  16.186  1.00  0.00    -0.003 C 
ATOM     13  C   UNL     1       2.361 -36.614  14.716  1.00  0.00     0.004 C 
ENDBRANCH  11  12
ENDBRANCH  10  11
ENDBRANCH   9  10
ENDBRANCH   8   9
ENDBRANCH   1   8
TORSDOF 9
ENDMDL
MODEL 7
REMARK VINA RESULT:    -3.259      1.232      2.184
REMARK INTER + INTRA:          -5.395
REMARK INTER:                  -4.685
REMARK INTRA:                  -0.709
REMARK UNBOUND:                -0.420
REMARK SMILES CCCCCCCCCCC(=O)[O-]
REMARK SMILES IDX 7 1 8 2 9 3 10 4 11 5 12 6 13 7 6 8 5 9 4 10 3 11 2 12 1 13
REMARK H PARENT
REMARK Flexibility Score: inf
ROOT
ATOM      1  C   UNL     1       4.592 -36.478  19.283  1.00  0.00     0.000 C 
ENDROOT
BRANCH   1   2
ATOM      2  C   UNL     1       4.449 -35.950  20.719  1.00  0.00     0.000 C 
BRANCH   2   3
ATOM      3  C   UNL     1       5.806 -35.740  21.415  1.00  0.00     0.006 C 
BRANCH   3   4
ATOM      4  C   UNL     1       5.949 -36.472  22.760  1.00  0.00     0.053 C 
BRANCH   4   5
ATOM      5  C   UNL     1       5.912 -35.529  23.922  1.00  0.00     0.041 C 
ATOM      6  O   UNL     1       5.967 -35.971  25.099  1.00  0.00    -0.550 OA
ATOM      7  O   UNL     1       5.782 -34.162  23.705  1.00  0.00    -0.550 OA
ENDBRANCH   4   5
ENDBRANCH   3   4
ENDBRANCH   2   3
ENDBRANCH   1   2
BRANCH   1   8
ATOM      8  C   UNL     1       4.491 -35.332  18.265  1.00  0.00     0.000 C 
BRANCH   8   9
ATOM      9  C   UNL     1       3.609 -35.685  17.056  1.00  0.00    -0.000 C 
BRANCH   9  10
ATOM     10  C   UNL     1       3.295 -37.189  16.974  1.00  0.00    -0.000 C 
BRANCH  10  11
ATOM     11  C   UNL     1       1.789 -37.469  16.839  1.00  0.00    -0.000 C 
BRANCH  11  12
ATOM     12  C   UNL     1       1.012 -37.161  18.128  1.00  0.00    -0.003 C 
ATOM     13  C   UNL     1       1.396 -38.129  19.245  1.00  0.00     0.004 C 
ENDBRANCH  11  12
ENDBRANCH  10  11
ENDBRANCH   9  10
ENDBRANCH   8   9
ENDBRANCH   1   8
TORSDOF 9
ENDMDL
MODEL 8
REMARK VINA RESULT:    -2.913      2.938      6.157
REMARK INTER + INTRA:          -4.866
REMARK INTER:                  -4.335
REMARK INTRA:                  -0.531
REMARK UNBOUND:                -0.420
REMARK SMILES CCCCCCCCCCC(=O)[O-]
REMARK SMILES IDX 7 1 8 2 9 3 10 4 11 5 12 6 13 7 6 8 5 9 4 10 3 11 2 12 1 13
REMARK H PARENT
REMARK Flexibility Score: inf
ROOT
ATOM      1  C   UNL     1       3.864 -35.059  17.550  1.00  0.00     0.000 C 
ENDROOT
BRANCH   1   2
ATOM      2  C   UNL     1       3.514 -36.209  16.593  1.00  0.00     0.000 C 
BRANCH   2   3
ATOM      3  C   UNL     1       3.061 -37.482  17.331  1.00  0.00     0.006 C 
BRANCH   3   4
ATOM      4  C   UNL     1       1.610 -37.438  17.838  1.00  0.00     0.053 C 
BRANCH   4   5
ATOM      5  C   UNL     1       1.527 -37.604  19.324  1.00  0.00     0.041 C 
ATOM      6  O   UNL     1       2.523 -38.020  19.971  1.00  0.00    -0.550 OA
ATOM      7  O   UNL     1       0.338 -37.333  19.989  1.00  0.00    -0.550 OA
ENDBRANCH   4   5
ENDBRANCH   3   4
ENDBRANCH   2   3
ENDBRANCH   1   2
BRANCH   1   8
ATOM      8  C   UNL     1       5.073 -35.422  18.424  1.00  0.00     0.000 C 
BRANCH   8   9
ATOM      9  C   UNL     1       4.711 -35.561  19.913  1.00  0.00    -0.000 C 
BRANCH   9  10
ATOM     10  C   UNL     1       5.434 -36.739  20.589  1.00  0.00    -0.000 C 
BRANCH  10  11
ATOM     11  C   UNL     1       5.829 -36.431  22.042  1.00  0.00    -0.000 C 
BRANCH  11  12
ATOM     12  C   UNL     1       5.119 -35.187  22.598  1.00  0.00    -0.003 C 
ATOM     13  C   UNL     1       5.798 -34.692  23.873  1.00  0.00     0.004 C 
ENDBRANCH  11  12
ENDBRANCH  10  11
ENDBRANCH   9  10
ENDBRANCH   8   9
ENDBRANCH   1   8
TORSDOF 9
ENDMDL
MODEL 9
REMARK VINA RESULT:    -2.779      3.302      4.264
REMARK INTER + INTRA:          -4.662
REMARK INTER:                  -4.053
REMARK INTRA:                  -0.609
REMARK UNBOUND:                -0.420
REMARK SMILES CCCCCCCCCCC(=O)[O-]
REMARK SMILES IDX 7 1 8 2 9 3 10 4 11 5 12 6 13 7 6 8 5 9 4 10 3 11 2 12 1 13
REMARK H PARENT
REMARK Flexibility Score: inf
ROOT
ATOM      1  C   UNL     1       4.786 -35.351  19.555  1.00  0.00     0.000 C 
ENDROOT
BRANCH   1   2
ATOM      2  C   UNL     1       4.639 -36.876  19.663  1.00  0.00     0.000 C 
BRANCH   2   3
ATOM      3  C   UNL     1       3.284 -37.305  20.256  1.00  0.00     0.006 C 
BRANCH   3   4
ATOM      4  C   UNL     1       2.397 -38.112  19.293  1.00  0.00     0.053 C 
BRANCH   4   5
ATOM      5  C   UNL     1       0.961 -37.697  19.369  1.00  0.00     0.041 C 
ATOM      6  O   UNL     1       0.491 -37.236  20.442  1.00  0.00    -0.550 OA
ATOM      7  O   UNL     1       0.132 -37.854  18.265  1.00  0.00    -0.550 OA
ENDBRANCH   4   5
ENDBRANCH   3   4
ENDBRANCH   2   3
ENDBRANCH   1   2
BRANCH   1   8
ATOM      8  C   UNL     1       4.538 -34.878  18.114  1.00  0.00     0.000 C 
BRANCH   8   9
ATOM      9  C   UNL     1       4.135 -36.024  17.173  1.00  0.00    -0.000 C 
BRANCH   9  10
ATOM     10  C   UNL     1       2.746 -35.813  16.544  1.00  0.00    -0.000 C 
BRANCH  10  11
ATOM     11  C   UNL     1       2.323 -36.984  15.643  1.00  0.00    -0.000 C 
BRANCH  11  12
ATOM     12  C   UNL     1       3.002 -36.947  14.265  1.00  0.00    -0.003 C 
ATOM     13  C   UNL     1       4.036 -38.062  14.133  1.00  0.00     0.004 C 
ENDBRANCH  11  12
ENDBRANCH  10  11
ENDBRANCH   9  10
ENDBRANCH   8   9
ENDBRANCH   1   8
TORSDOF 9
ENDMDL
