MODEL 1
REMARK VINA RESULT:    -3.679      0.000      0.000
REMARK INTER + INTRA:          -4.337
REMARK INTER:                  -4.110
REMARK INTRA:                  -0.228
REMARK UNBOUND:                -0.228
REMARK SMILES CC=C(C)C=CC=C(C)C
REMARK SMILES IDX 5 1 6 2 3 3 1 4 2 5 4 6 7 7 8 8 9 9 10 10
REMARK H PARENT
REMARK Flexibility Score: inf
ROOT
ATOM      1  C   UNL     1     135.097 134.077 134.695  1.00  0.00     0.003 C 
ATOM      2  C   UNL     1     133.895 134.102 134.105  1.00  0.00     0.000 C 
ENDROOT
BRANCH   1   3
ATOM      3  C   UNL     1     135.850 132.824 134.963  1.00  0.00    -0.055 C 
ATOM      4  C   UNL     1     137.748 131.710 136.179  1.00  0.00     0.036 C 
ATOM      5  C   UNL     1     136.863 132.874 135.851  1.00  0.00    -0.027 C 
ATOM      6  C   UNL     1     135.523 131.556 134.206  1.00  0.00     0.044 C 
ENDBRANCH   1   3
BRANCH   2   7
ATOM      7  C   UNL     1     133.202 135.386 133.861  1.00  0.00    -0.001 C 
ATOM      8  C   UNL     1     132.287 135.915 134.694  1.00  0.00    -0.076 C 
ATOM      9  C   UNL     1     131.883 135.230 135.976  1.00  0.00     0.039 C 
ATOM     10  C   UNL     1     131.656 137.231 134.328  1.00  0.00     0.039 C 
ENDBRANCH   2   7
TORSDOF 2
ENDMDL
MODEL 2
REMARK VINA RESULT:    -3.676      4.768      6.986
REMARK INTER + INTRA:          -4.333
REMARK INTER:                  -4.099
REMARK INTRA:                  -0.235
REMARK UNBOUND:                -0.228
REMARK SMILES CC=C(C)C=CC=C(C)C
REMARK SMILES IDX 5 1 6 2 3 3 1 4 2 5 4 6 7 7 8 8 9 9 10 10
REMARK H PARENT
REMARK Flexibility Score: inf
ROOT
ATOM      1  C   UNL     1     138.935 136.208 136.686  1.00  0.00     0.003 C 
ATOM      2  C   UNL     1     139.489 135.084 136.213  1.00  0.00     0.000 C 
ENDROOT
BRANCH   1   3
ATOM      3  C   UNL     1     139.428 137.569 136.346  1.00  0.00    -0.055 C 
ATOM      4  C   UNL     1     138.862 139.910 135.628  1.00  0.00     0.036 C 
ATOM      5  C   UNL     1     138.514 138.514 136.046  1.00  0.00    -0.027 C 
ATOM      6  C   UNL     1     140.912 137.850 136.278  1.00  0.00     0.044 C 
ENDBRANCH   1   3
BRANCH   2   7
ATOM      7  C   UNL     1     138.943 133.760 136.587  1.00  0.00    -0.001 C 
ATOM      8  C   UNL     1     138.424 132.887 135.704  1.00  0.00    -0.076 C 
ATOM      9  C   UNL     1     138.353 133.190 134.228  1.00  0.00     0.039 C 
ATOM     10  C   UNL     1     137.903 131.572 136.216  1.00  0.00     0.039 C 
ENDBRANCH   2   7
TORSDOF 2
ENDMDL
MODEL 3
REMARK VINA RESULT:    -3.674      5.719      6.062
REMARK INTER + INTRA:          -4.331
REMARK INTER:                  -4.132
REMARK INTRA:                  -0.199
REMARK UNBOUND:                -0.228
REMARK SMILES CC=C(C)C=CC=C(C)C
REMARK SMILES IDX 5 1 6 2 3 3 1 4 2 5 4 6 7 7 8 8 9 9 10 10
REMARK H PARENT
REMARK Flexibility Score: inf
ROOT
ATOM      1  C   UNL     1     138.780 138.669 135.046  1.00  0.00     0.003 C 
ATOM      2  C   UNL     1     137.765 138.726 135.918  1.00  0.00     0.000 C 
ENDROOT
BRANCH   1   3
ATOM      3  C   UNL     1     139.897 137.694 135.154  1.00  0.00    -0.055 C 
ATOM      4  C   UNL     1     140.947 135.571 134.311  1.00  0.00     0.036 C 
ATOM      5  C   UNL     1     139.920 136.662 134.287  1.00  0.00    -0.027 C 
ATOM      6  C   UNL     1     140.931 137.831 136.249  1.00  0.00     0.044 C 
ENDBRANCH   1   3
BRANCH   2   7
ATOM      7  C   UNL     1     136.681 139.718 135.748  1.00  0.00    -0.001 C 
ATOM      8  C   UNL     1     135.693 139.909 136.641  1.00  0.00    -0.076 C 
ATOM      9  C   UNL     1     135.606 139.114 137.920  1.00  0.00     0.039 C 
ATOM     10  C   UNL     1     134.650 140.953 136.347  1.00  0.00     0.039 C 
ENDBRANCH   2   7
TORSDOF 2
ENDMDL
MODEL 4
REMARK VINA RESULT:    -3.667      5.570      7.967
REMARK INTER + INTRA:          -4.324
REMARK INTER:                  -4.105
REMARK INTRA:                  -0.218
REMARK UNBOUND:                -0.228
REMARK SMILES CC=C(C)C=CC=C(C)C
REMARK SMILES IDX 5 1 6 2 3 3 1 4 2 5 4 6 7 7 8 8 9 9 10 10
REMARK H PARENT
REMARK Flexibility Score: inf
ROOT
ATOM      1  C   UNL     1     137.517 138.574 134.821  1.00  0.00     0.003 C 
ATOM      2  C   UNL     1     138.672 138.544 134.143  1.00  0.00     0.000 C 
ENDROOT
BRANCH   1   3
ATOM      3  C   UNL     1     136.757 139.823 135.088  1.00  0.00    -0.055 C 
ATOM      4  C   UNL     1     134.845 140.925 136.292  1.00  0.00     0.036 C 
ATOM      5  C   UNL     1     135.736 139.765 135.966  1.00  0.00    -0.027 C 
ATOM      6  C   UNL     1     137.087 141.095 134.339  1.00  0.00     0.044 C 
ENDBRANCH   1   3
BRANCH   2   7
ATOM      7  C   UNL     1     139.374 137.264 133.905  1.00  0.00    -0.001 C 
ATOM      8  C   UNL     1     140.326 136.769 134.718  1.00  0.00    -0.076 C 
ATOM      9  C   UNL     1     140.765 137.492 135.967  1.00  0.00     0.039 C 
ATOM     10  C   UNL     1     140.961 135.453 134.362  1.00  0.00     0.039 C 
ENDBRANCH   2   7
TORSDOF 2
ENDMDL
MODEL 5
REMARK VINA RESULT:    -3.646      3.610      5.604
REMARK INTER + INTRA:          -4.301
REMARK INTER:                  -4.072
REMARK INTRA:                  -0.229
REMARK UNBOUND:                -0.228
REMARK SMILES CC=C(C)C=CC=C(C)C
REMARK SMILES IDX 5 1 6 2 3 3 1 4 2 5 4 6 7 7 8 8 9 9 10 10
REMARK H PARENT
REMARK Flexibility Score: inf
ROOT
ATOM      1  C   UNL     1     138.487 135.176 134.886  1.00  0.00     0.003 C 
ATOM      2  C   UNL     1     138.406 134.026 134.206  1.00  0.00     0.000 C 
ENDROOT
BRANCH   1   3
ATOM      3  C   UNL     1     139.760 135.917 135.091  1.00  0.00    -0.055 C 
ATOM      4  C   UNL     1     140.947 137.816 136.233  1.00  0.00     0.036 C 
ATOM      5  C   UNL     1     139.759 136.943 135.966  1.00  0.00    -0.027 C 
ATOM      6  C   UNL     1     140.990 135.563 134.286  1.00  0.00     0.044 C 
ENDBRANCH   1   3
BRANCH   2   7
ATOM      7  C   UNL     1     137.105 133.343 134.033  1.00  0.00    -0.001 C 
ATOM      8  C   UNL     1     136.666 132.353 134.831  1.00  0.00    -0.076 C 
ATOM      9  C   UNL     1     137.478 131.846 135.997  1.00  0.00     0.039 C 
ATOM     10  C   UNL     1     135.320 131.743 134.546  1.00  0.00     0.039 C 
ENDBRANCH   2   7
TORSDOF 2
ENDMDL
MODEL 6
REMARK VINA RESULT:    -3.630      5.379      7.789
REMARK INTER + INTRA:          -4.282
REMARK INTER:                  -4.056
REMARK INTRA:                  -0.227
REMARK UNBOUND:                -0.228
REMARK SMILES CC=C(C)C=CC=C(C)C
REMARK SMILES IDX 5 1 6 2 3 3 1 4 2 5 4 6 7 7 8 8 9 9 10 10
REMARK H PARENT
REMARK Flexibility Score: inf
ROOT
ATOM      1  C   UNL     1     136.491 138.959 135.599  1.00  0.00     0.003 C 
ATOM      2  C   UNL     1     137.602 139.658 135.866  1.00  0.00     0.000 C 
ENDROOT
BRANCH   1   3
ATOM      3  C   UNL     1     135.119 139.494 135.802  1.00  0.00    -0.055 C 
ATOM      4  C   UNL     1     132.643 139.122 135.577  1.00  0.00     0.036 C 
ATOM      5  C   UNL     1     134.078 138.700 135.481  1.00  0.00    -0.027 C 
ATOM      6  C   UNL     1     134.914 140.911 136.289  1.00  0.00     0.044 C 
ENDBRANCH   1   3
BRANCH   2   7
ATOM      7  C   UNL     1     138.938 139.067 135.634  1.00  0.00    -0.001 C 
ATOM      8  C   UNL     1     139.655 138.438 136.583  1.00  0.00    -0.076 C 
ATOM      9  C   UNL     1     139.146 138.278 137.994  1.00  0.00     0.039 C 
ATOM     10  C   UNL     1     141.003 137.880 136.214  1.00  0.00     0.039 C 
ENDBRANCH   2   7
TORSDOF 2
ENDMDL
MODEL 7
REMARK VINA RESULT:    -3.618      3.711      5.619
REMARK INTER + INTRA:          -4.268
REMARK INTER:                  -4.002
REMARK INTRA:                  -0.267
REMARK UNBOUND:                -0.228
REMARK SMILES CC=C(C)C=CC=C(C)C
REMARK SMILES IDX 5 1 6 2 3 3 1 4 2 5 4 6 7 7 8 8 9 9 10 10
REMARK H PARENT
REMARK Flexibility Score: inf
ROOT
ATOM      1  C   UNL     1     138.822 133.833 135.299  1.00  0.00     0.003 C 
ATOM      2  C   UNL     1     138.501 135.133 135.302  1.00  0.00     0.000 C 
ENDROOT
BRANCH   1   3
ATOM      3  C   UNL     1     137.812 132.741 135.292  1.00  0.00    -0.055 C 
ATOM      4  C   UNL     1     135.691 131.822 134.305  1.00  0.00     0.036 C 
ATOM      5  C   UNL     1     136.810 132.814 134.392  1.00  0.00    -0.027 C 
ATOM      6  C   UNL     1     137.882 131.627 136.312  1.00  0.00     0.044 C 
ENDBRANCH   1   3
BRANCH   2   7
ATOM      7  C   UNL     1     139.557 136.169 135.302  1.00  0.00    -0.001 C 
ATOM      8  C   UNL     1     139.877 136.914 136.376  1.00  0.00    -0.076 C 
ATOM      9  C   UNL     1     139.172 136.752 137.699  1.00  0.00     0.039 C 
ATOM     10  C   UNL     1     140.974 137.935 136.242  1.00  0.00     0.039 C 
ENDBRANCH   2   7
TORSDOF 2
ENDMDL
MODEL 8
REMARK VINA RESULT:    -3.584      6.160      6.889
REMARK INTER + INTRA:          -4.230
REMARK INTER:                  -3.951
REMARK INTRA:                  -0.280
REMARK UNBOUND:                -0.228
REMARK SMILES CC=C(C)C=CC=C(C)C
REMARK SMILES IDX 5 1 6 2 3 3 1 4 2 5 4 6 7 7 8 8 9 9 10 10
REMARK H PARENT
REMARK Flexibility Score: inf
ROOT
ATOM      1  C   UNL     1     136.665 138.483 138.425  1.00  0.00     0.003 C 
ATOM      2  C   UNL     1     135.559 139.216 138.607  1.00  0.00     0.000 C 
ENDROOT
BRANCH   1   3
ATOM      3  C   UNL     1     137.908 138.667 139.220  1.00  0.00    -0.055 C 
ATOM      4  C   UNL     1     139.032 139.786 141.170  1.00  0.00     0.036 C 
ATOM      5  C   UNL     1     137.850 139.460 140.308  1.00  0.00    -0.027 C 
ATOM      6  C   UNL     1     139.205 138.033 138.769  1.00  0.00     0.044 C 
ENDBRANCH   1   3
BRANCH   2   7
ATOM      7  C   UNL     1     134.352 138.975 137.786  1.00  0.00    -0.001 C 
ATOM      8  C   UNL     1     133.999 139.732 136.731  1.00  0.00    -0.076 C 
ATOM      9  C   UNL     1     134.822 140.914 136.286  1.00  0.00     0.039 C 
ATOM     10  C   UNL     1     132.745 139.378 135.979  1.00  0.00     0.039 C 
ENDBRANCH   2   7
TORSDOF 2
ENDMDL
MODEL 9
REMARK VINA RESULT:    -3.555      6.431      7.328
REMARK INTER + INTRA:          -4.198
REMARK INTER:                  -3.939
REMARK INTRA:                  -0.260
REMARK UNBOUND:                -0.228
REMARK SMILES CC=C(C)C=CC=C(C)C
REMARK SMILES IDX 5 1 6 2 3 3 1 4 2 5 4 6 7 7 8 8 9 9 10 10
REMARK H PARENT
REMARK Flexibility Score: inf
ROOT
ATOM      1  C   UNL     1     138.722 136.240 138.704  1.00  0.00     0.003 C 
ATOM      2  C   UNL     1     139.329 137.431 138.785  1.00  0.00     0.000 C 
ENDROOT
BRANCH   1   3
ATOM      3  C   UNL     1     138.980 135.123 139.651  1.00  0.00    -0.055 C 
ATOM      4  C   UNL     1     140.089 134.356 141.772  1.00  0.00     0.036 C 
ATOM      5  C   UNL     1     139.700 135.389 140.759  1.00  0.00    -0.027 C 
ATOM      6  C   UNL     1     138.500 133.724 139.334  1.00  0.00     0.044 C 
ENDBRANCH   1   3
BRANCH   2   7
ATOM      7  C   UNL     1     139.020 138.502 137.813  1.00  0.00    -0.001 C 
ATOM      8  C   UNL     1     139.716 138.711 136.680  1.00  0.00    -0.076 C 
ATOM      9  C   UNL     1     140.893 137.850 136.296  1.00  0.00     0.039 C 
ATOM     10  C   UNL     1     139.296 139.837 135.775  1.00  0.00     0.039 C 
ENDBRANCH   2   7
TORSDOF 2
ENDMDL
