MODEL 1
REMARK VINA RESULT:    -4.421      0.000      0.000
REMARK INTER + INTRA:         -11.335
REMARK INTER:                  -8.556
REMARK INTRA:                  -2.778
REMARK UNBOUND:                -2.778
REMARK SMILES CCCCCCCCCCCCCCCCCC(=O)[O-]
REMARK SMILES IDX 10 1 11 2 12 3 13 4 14 5 15 6 16 7 17 8 18 9 19 10 20 11
REMARK SMILES IDX 9 12 8 13 7 14 6 15 5 16 4 17 3 18 2 19 1 20
REMARK H PARENT
REMARK Flexibility Score: inf
ROOT
ATOM      1  C   UNL     1       4.418   5.084  30.704  1.00  0.00     0.000 C 
ENDROOT
BRANCH   1   2
ATOM      2  C   UNL     1       2.976   5.552  30.997  1.00  0.00     0.000 C 
BRANCH   2   3
ATOM      3  C   UNL     1       1.961   4.398  30.937  1.00  0.00     0.000 C 
BRANCH   3   4
ATOM      4  C   UNL     1       0.937   4.570  29.803  1.00  0.00     0.000 C 
BRANCH   4   5
ATOM      5  C   UNL     1       0.213   5.927  29.866  1.00  0.00     0.000 C 
BRANCH   5   6
ATOM      6  C   UNL     1      -1.158   5.894  29.173  1.00  0.00     0.000 C 
BRANCH   6   7
ATOM      7  C   UNL     1      -1.321   4.677  28.246  1.00  0.00     0.006 C 
BRANCH   7   8
ATOM      8  C   UNL     1      -1.398   5.082  26.767  1.00  0.00     0.053 C 
BRANCH   8   9
ATOM      9  C   UNL     1      -2.801   5.025  26.247  1.00  0.00     0.041 C 
ATOM     10  O   UNL     1      -3.732   4.600  26.980  1.00  0.00    -0.550 OA
ATOM     11  O   UNL     1      -3.077   5.409  24.940  1.00  0.00    -0.550 OA
ENDBRANCH   8   9
ENDBRANCH   7   8
ENDBRANCH   6   7
ENDBRANCH   5   6
ENDBRANCH   4   5
ENDBRANCH   3   4
ENDBRANCH   2   3
ENDBRANCH   1   2
BRANCH   1  12
ATOM     12  C   UNL     1       5.343   6.206  30.194  1.00  0.00     0.000 C 
BRANCH  12  13
ATOM     13  C   UNL     1       4.760   7.629  30.298  1.00  0.00    -0.000 C 
BRANCH  13  14
ATOM     14  C   UNL     1       4.829   8.453  29.000  1.00  0.00    -0.000 C 
BRANCH  14  15
ATOM     15  C   UNL     1       4.440   7.643  27.756  1.00  0.00    -0.000 C 
BRANCH  15  16
ATOM     16  C   UNL     1       2.914   7.523  27.635  1.00  0.00    -0.000 C 
BRANCH  16  17
ATOM     17  C   UNL     1       2.470   6.242  26.907  1.00  0.00    -0.000 C 
BRANCH  17  18
ATOM     18  C   UNL     1       3.570   5.174  26.738  1.00  0.00    -0.000 C 
BRANCH  18  19
ATOM     19  C   UNL     1       3.234   3.796  27.334  1.00  0.00    -0.003 C 
ATOM     20  C   UNL     1       4.474   3.008  27.751  1.00  0.00     0.004 C 
ENDBRANCH  18  19
ENDBRANCH  17  18
ENDBRANCH  16  17
ENDBRANCH  15  16
ENDBRANCH  14  15
ENDBRANCH  13  14
ENDBRANCH  12  13
ENDBRANCH   1  12
TORSDOF 16
ENDMDL
MODEL 2
REMARK VINA RESULT:    -4.386      1.473      3.142
REMARK INTER + INTRA:         -11.266
REMARK INTER:                  -8.888
REMARK INTRA:                  -2.378
REMARK UNBOUND:                -2.778
REMARK SMILES CCCCCCCCCCCCCCCCCC(=O)[O-]
REMARK SMILES IDX 10 1 11 2 12 3 13 4 14 5 15 6 16 7 17 8 18 9 19 10 20 11
REMARK SMILES IDX 9 12 8 13 7 14 6 15 5 16 4 17 3 18 2 19 1 20
REMARK H PARENT
REMARK Flexibility Score: inf
ROOT
ATOM      1  C   UNL     1       2.184   4.313  31.071  1.00  0.00     0.000 C 
ENDROOT
BRANCH   1   2
ATOM      2  C   UNL     1       1.332   5.314  31.882  1.00  0.00     0.000 C 
BRANCH   2   3
ATOM      3  C   UNL     1       1.450   6.753  31.349  1.00  0.00     0.000 C 
BRANCH   3   4
ATOM      4  C   UNL     1       0.119   7.290  30.799  1.00  0.00     0.000 C 
BRANCH   4   5
ATOM      5  C   UNL     1       0.133   7.440  29.268  1.00  0.00     0.000 C 
BRANCH   5   6
ATOM      6  C   UNL     1      -1.182   6.980  28.620  1.00  0.00     0.000 C 
BRANCH   6   7
ATOM      7  C   UNL     1      -1.614   5.580  29.093  1.00  0.00     0.006 C 
BRANCH   7   8
ATOM      8  C   UNL     1      -1.559   4.544  27.962  1.00  0.00     0.053 C 
BRANCH   8   9
ATOM      9  C   UNL     1      -2.439   4.929  26.813  1.00  0.00     0.041 C 
ATOM     10  O   UNL     1      -3.692   4.879  26.929  1.00  0.00    -0.550 OA
ATOM     11  O   UNL     1      -1.876   5.311  25.600  1.00  0.00    -0.550 OA
ENDBRANCH   8   9
ENDBRANCH   7   8
ENDBRANCH   6   7
ENDBRANCH   5   6
ENDBRANCH   4   5
ENDBRANCH   3   4
ENDBRANCH   2   3
ENDBRANCH   1   2
BRANCH   1  12
ATOM     12  C   UNL     1       1.722   4.147  29.611  1.00  0.00     0.000 C 
BRANCH  12  13
ATOM     13  C   UNL     1       2.837   3.777  28.613  1.00  0.00    -0.000 C 
BRANCH  13  14
ATOM     14  C   UNL     1       4.026   4.754  28.579  1.00  0.00    -0.000 C 
BRANCH  14  15
ATOM     15  C   UNL     1       3.599   6.207  28.328  1.00  0.00    -0.000 C 
BRANCH  15  16
ATOM     16  C   UNL     1       4.534   7.186  29.051  1.00  0.00    -0.000 C 
BRANCH  16  17
ATOM     17  C   UNL     1       4.878   6.740  30.483  1.00  0.00    -0.000 C 
BRANCH  17  18
ATOM     18  C   UNL     1       6.383   6.556  30.766  1.00  0.00    -0.000 C 
BRANCH  18  19
ATOM     19  C   UNL     1       6.835   5.097  30.950  1.00  0.00    -0.003 C 
ATOM     20  C   UNL     1       8.355   4.942  30.972  1.00  0.00     0.004 C 
ENDBRANCH  18  19
ENDBRANCH  17  18
ENDBRANCH  16  17
ENDBRANCH  15  16
ENDBRANCH  14  15
ENDBRANCH  13  14
ENDBRANCH  12  13
ENDBRANCH   1  12
TORSDOF 16
ENDMDL
MODEL 3
REMARK VINA RESULT:    -4.382      2.197      3.505
REMARK INTER + INTRA:         -11.260
REMARK INTER:                  -8.609
REMARK INTRA:                  -2.651
REMARK UNBOUND:                -2.778
REMARK SMILES CCCCCCCCCCCCCCCCCC(=O)[O-]
REMARK SMILES IDX 10 1 11 2 12 3 13 4 14 5 15 6 16 7 17 8 18 9 19 10 20 11
REMARK SMILES IDX 9 12 8 13 7 14 6 15 5 16 4 17 3 18 2 19 1 20
REMARK H PARENT
REMARK Flexibility Score: inf
ROOT
ATOM      1  C   UNL     1       0.164   7.451  31.006  1.00  0.00     0.000 C 
ENDROOT
BRANCH   1   2
ATOM      2  C   UNL     1       0.526   7.675  29.522  1.00  0.00     0.000 C 
BRANCH   2   3
ATOM      3  C   UNL     1      -0.162   6.661  28.591  1.00  0.00     0.000 C 
BRANCH   3   4
ATOM      4  C   UNL     1      -1.150   5.751  29.338  1.00  0.00     0.000 C 
BRANCH   4   5
ATOM      5  C   UNL     1      -1.916   4.811  28.390  1.00  0.00     0.000 C 
BRANCH   5   6
ATOM      6  C   UNL     1      -2.381   5.520  27.108  1.00  0.00     0.000 C 
BRANCH   6   7
ATOM      7  C   UNL     1      -3.324   4.646  26.262  1.00  0.00     0.006 C 
BRANCH   7   8
ATOM      8  C   UNL     1      -2.558   3.769  25.261  1.00  0.00     0.053 C 
BRANCH   8   9
ATOM      9  C   UNL     1      -3.462   3.203  24.211  1.00  0.00     0.041 C 
ATOM     10  O   UNL     1      -4.305   2.317  24.511  1.00  0.00    -0.550 OA
ATOM     11  O   UNL     1      -3.351   3.628  22.892  1.00  0.00    -0.550 OA
ENDBRANCH   8   9
ENDBRANCH   7   8
ENDBRANCH   6   7
ENDBRANCH   5   6
ENDBRANCH   4   5
ENDBRANCH   3   4
ENDBRANCH   2   3
ENDBRANCH   1   2
BRANCH   1  12
ATOM     12  C   UNL     1       1.325   6.891  31.850  1.00  0.00     0.000 C 
BRANCH  12  13
ATOM     13  C   UNL     1       1.223   5.389  32.182  1.00  0.00    -0.000 C 
BRANCH  13  14
ATOM     14  C   UNL     1       2.082   4.471  31.295  1.00  0.00    -0.000 C 
BRANCH  14  15
ATOM     15  C   UNL     1       3.182   5.228  30.538  1.00  0.00    -0.000 C 
BRANCH  15  16
ATOM     16  C   UNL     1       3.105   4.944  29.031  1.00  0.00    -0.000 C 
BRANCH  16  17
ATOM     17  C   UNL     1       2.201   3.745  28.693  1.00  0.00    -0.000 C 
BRANCH  17  18
ATOM     18  C   UNL     1       2.220   3.312  27.212  1.00  0.00    -0.000 C 
BRANCH  18  19
ATOM     19  C   UNL     1       0.918   3.586  26.439  1.00  0.00    -0.003 C 
ATOM     20  C   UNL     1       1.092   4.620  25.329  1.00  0.00     0.004 C 
ENDBRANCH  18  19
ENDBRANCH  17  18
ENDBRANCH  16  17
ENDBRANCH  15  16
ENDBRANCH  14  15
ENDBRANCH  13  14
ENDBRANCH  12  13
ENDBRANCH   1  12
TORSDOF 16
ENDMDL
MODEL 4
REMARK VINA RESULT:    -4.367      1.636      3.094
REMARK INTER + INTRA:         -11.230
REMARK INTER:                  -8.401
REMARK INTRA:                  -2.829
REMARK UNBOUND:                -2.778
REMARK SMILES CCCCCCCCCCCCCCCCCC(=O)[O-]
REMARK SMILES IDX 10 1 11 2 12 3 13 4 14 5 15 6 16 7 17 8 18 9 19 10 20 11
REMARK SMILES IDX 9 12 8 13 7 14 6 15 5 16 4 17 3 18 2 19 1 20
REMARK H PARENT
REMARK Flexibility Score: inf
ROOT
ATOM      1  C   UNL     1       1.392   5.796  31.985  1.00  0.00     0.000 C 
ENDROOT
BRANCH   1   2
ATOM      2  C   UNL     1       1.406   7.062  31.102  1.00  0.00     0.000 C 
BRANCH   2   3
ATOM      3  C   UNL     1      -0.003   7.464  30.631  1.00  0.00     0.000 C 
BRANCH   3   4
ATOM      4  C   UNL     1      -0.353   6.880  29.252  1.00  0.00     0.000 C 
BRANCH   4   5
ATOM      5  C   UNL     1      -1.395   5.751  29.339  1.00  0.00     0.000 C 
BRANCH   5   6
ATOM      6  C   UNL     1      -1.142   4.637  28.310  1.00  0.00     0.000 C 
BRANCH   6   7
ATOM      7  C   UNL     1      -0.515   5.169  27.009  1.00  0.00     0.006 C 
BRANCH   7   8
ATOM      8  C   UNL     1      -0.612   4.152  25.863  1.00  0.00     0.053 C 
BRANCH   8   9
ATOM      9  C   UNL     1      -1.946   4.204  25.184  1.00  0.00     0.041 C 
ATOM     10  O   UNL     1      -2.603   5.277  25.159  1.00  0.00    -0.550 OA
ATOM     11  O   UNL     1      -2.480   3.057  24.609  1.00  0.00    -0.550 OA
ENDBRANCH   8   9
ENDBRANCH   7   8
ENDBRANCH   6   7
ENDBRANCH   5   6
ENDBRANCH   4   5
ENDBRANCH   3   4
ENDBRANCH   2   3
ENDBRANCH   1   2
BRANCH   1  12
ATOM     12  C   UNL     1       1.834   4.519  31.246  1.00  0.00     0.000 C 
BRANCH  12  13
ATOM     13  C   UNL     1       2.683   4.758  29.982  1.00  0.00    -0.000 C 
BRANCH  13  14
ATOM     14  C   UNL     1       2.410   3.780  28.825  1.00  0.00    -0.000 C 
BRANCH  14  15
ATOM     15  C   UNL     1       3.552   3.733  27.800  1.00  0.00    -0.000 C 
BRANCH  15  16
ATOM     16  C   UNL     1       3.008   3.825  26.367  1.00  0.00    -0.000 C 
BRANCH  16  17
ATOM     17  C   UNL     1       3.905   4.664  25.440  1.00  0.00    -0.000 C 
BRANCH  17  18
ATOM     18  C   UNL     1       4.032   6.152  25.827  1.00  0.00    -0.000 C 
BRANCH  18  19
ATOM     19  C   UNL     1       2.713   6.831  26.235  1.00  0.00    -0.003 C 
ATOM     20  C   UNL     1       2.817   7.589  27.557  1.00  0.00     0.004 C 
ENDBRANCH  18  19
ENDBRANCH  17  18
ENDBRANCH  16  17
ENDBRANCH  15  16
ENDBRANCH  14  15
ENDBRANCH  13  14
ENDBRANCH  12  13
ENDBRANCH   1  12
TORSDOF 16
ENDMDL
MODEL 5
REMARK VINA RESULT:    -4.345      1.884      3.801
REMARK INTER + INTRA:         -11.187
REMARK INTER:                  -8.353
REMARK INTRA:                  -2.835
REMARK UNBOUND:                -2.778
REMARK SMILES CCCCCCCCCCCCCCCCCC(=O)[O-]
REMARK SMILES IDX 10 1 11 2 12 3 13 4 14 5 15 6 16 7 17 8 18 9 19 10 20 11
REMARK SMILES IDX 9 12 8 13 7 14 6 15 5 16 4 17 3 18 2 19 1 20
REMARK H PARENT
REMARK Flexibility Score: inf
ROOT
ATOM      1  C   UNL     1       0.863   7.517  29.981  1.00  0.00     0.000 C 
ENDROOT
BRANCH   1   2
ATOM      2  C   UNL     1      -0.047   7.011  28.841  1.00  0.00     0.000 C 
BRANCH   2   3
ATOM      3  C   UNL     1      -1.176   6.099  29.353  1.00  0.00     0.000 C 
BRANCH   3   4
ATOM      4  C   UNL     1      -1.284   4.790  28.554  1.00  0.00     0.000 C 
BRANCH   4   5
ATOM      5  C   UNL     1      -2.643   4.642  27.848  1.00  0.00     0.000 C 
BRANCH   5   6
ATOM      6  C   UNL     1      -2.768   5.551  26.616  1.00  0.00     0.000 C 
BRANCH   6   7
ATOM      7  C   UNL     1      -2.198   4.900  25.343  1.00  0.00     0.006 C 
BRANCH   7   8
ATOM      8  C   UNL     1      -0.910   5.588  24.869  1.00  0.00     0.053 C 
BRANCH   8   9
ATOM      9  C   UNL     1       0.217   4.614  24.714  1.00  0.00     0.041 C 
ATOM     10  O   UNL     1       0.574   3.899  25.687  1.00  0.00    -0.550 OA
ATOM     11  O   UNL     1       0.896   4.519  23.505  1.00  0.00    -0.550 OA
ENDBRANCH   8   9
ENDBRANCH   7   8
ENDBRANCH   6   7
ENDBRANCH   5   6
ENDBRANCH   4   5
ENDBRANCH   3   4
ENDBRANCH   2   3
ENDBRANCH   1   2
BRANCH   1  12
ATOM     12  C   UNL     1       0.418   7.054  31.382  1.00  0.00     0.000 C 
BRANCH  12  13
ATOM     13  C   UNL     1       1.360   6.043  32.064  1.00  0.00    -0.000 C 
BRANCH  13  14
ATOM     14  C   UNL     1       2.406   5.403  31.133  1.00  0.00    -0.000 C 
BRANCH  14  15
ATOM     15  C   UNL     1       1.953   4.051  30.565  1.00  0.00    -0.000 C 
BRANCH  15  16
ATOM     16  C   UNL     1       2.274   3.950  29.066  1.00  0.00    -0.000 C 
BRANCH  16  17
ATOM     17  C   UNL     1       3.428   4.874  28.638  1.00  0.00    -0.000 C 
BRANCH  17  18
ATOM     18  C   UNL     1       3.158   5.710  27.370  1.00  0.00    -0.000 C 
BRANCH  18  19
ATOM     19  C   UNL     1       3.542   7.196  27.479  1.00  0.00    -0.003 C 
ATOM     20  C   UNL     1       4.445   7.492  28.676  1.00  0.00     0.004 C 
ENDBRANCH  18  19
ENDBRANCH  17  18
ENDBRANCH  16  17
ENDBRANCH  15  16
ENDBRANCH  14  15
ENDBRANCH  13  14
ENDBRANCH  12  13
ENDBRANCH   1  12
TORSDOF 16
ENDMDL
MODEL 6
REMARK VINA RESULT:    -4.330      1.967      4.046
REMARK INTER + INTRA:         -11.158
REMARK INTER:                  -8.153
REMARK INTRA:                  -3.005
REMARK UNBOUND:                -2.778
REMARK SMILES CCCCCCCCCCCCCCCCCC(=O)[O-]
REMARK SMILES IDX 10 1 11 2 12 3 13 4 14 5 15 6 16 7 17 8 18 9 19 10 20 11
REMARK SMILES IDX 9 12 8 13 7 14 6 15 5 16 4 17 3 18 2 19 1 20
REMARK H PARENT
REMARK Flexibility Score: inf
ROOT
ATOM      1  C   UNL     1       1.256   4.909  31.132  1.00  0.00     0.000 C 
ENDROOT
BRANCH   1   2
ATOM      2  C   UNL     1       2.371   4.207  30.327  1.00  0.00     0.000 C 
BRANCH   2   3
ATOM      3  C   UNL     1       3.712   4.957  30.404  1.00  0.00     0.000 C 
BRANCH   3   4
ATOM      4  C   UNL     1       4.692   4.529  29.300  1.00  0.00     0.000 C 
BRANCH   4   5
ATOM      5  C   UNL     1       3.974   3.963  28.062  1.00  0.00     0.000 C 
BRANCH   5   6
ATOM      6  C   UNL     1       4.018   4.926  26.865  1.00  0.00     0.000 C 
BRANCH   6   7
ATOM      7  C   UNL     1       2.745   4.852  26.003  1.00  0.00     0.006 C 
BRANCH   7   8
ATOM      8  C   UNL     1       1.467   4.965  26.846  1.00  0.00     0.053 C 
BRANCH   8   9
ATOM      9  C   UNL     1       0.540   3.814  26.609  1.00  0.00     0.041 C 
ATOM     10  O   UNL     1      -0.681   4.020  26.379  1.00  0.00    -0.550 OA
ATOM     11  O   UNL     1       1.016   2.509  26.676  1.00  0.00    -0.550 OA
ENDBRANCH   8   9
ENDBRANCH   7   8
ENDBRANCH   6   7
ENDBRANCH   5   6
ENDBRANCH   4   5
ENDBRANCH   3   4
ENDBRANCH   2   3
ENDBRANCH   1   2
BRANCH   1  12
ATOM     12  C   UNL     1       1.771   6.024  32.062  1.00  0.00     0.000 C 
BRANCH  12  13
ATOM     13  C   UNL     1       1.372   7.454  31.647  1.00  0.00    -0.000 C 
BRANCH  13  14
ATOM     14  C   UNL     1       0.283   7.533  30.563  1.00  0.00    -0.000 C 
BRANCH  14  15
ATOM     15  C   UNL     1       0.820   8.022  29.210  1.00  0.00    -0.000 C 
BRANCH  15  16
ATOM     16  C   UNL     1       2.257   8.545  29.348  1.00  0.00    -0.000 C 
BRANCH  16  17
ATOM     17  C   UNL     1       3.195   8.015  28.249  1.00  0.00    -0.000 C 
BRANCH  17  18
ATOM     18  C   UNL     1       4.699   8.232  28.515  1.00  0.00    -0.000 C 
BRANCH  18  19
ATOM     19  C   UNL     1       5.038   8.783  29.911  1.00  0.00    -0.003 C 
ATOM     20  C   UNL     1       5.897   7.828  30.737  1.00  0.00     0.004 C 
ENDBRANCH  18  19
ENDBRANCH  17  18
ENDBRANCH  16  17
ENDBRANCH  15  16
ENDBRANCH  14  15
ENDBRANCH  13  14
ENDBRANCH  12  13
ENDBRANCH   1  12
TORSDOF 16
ENDMDL
MODEL 7
REMARK VINA RESULT:    -4.307      3.923      5.772
REMARK INTER + INTRA:         -11.115
REMARK INTER:                  -8.108
REMARK INTRA:                  -3.007
REMARK UNBOUND:                -2.778
REMARK SMILES CCCCCCCCCCCCCCCCCC(=O)[O-]
REMARK SMILES IDX 10 1 11 2 12 3 13 4 14 5 15 6 16 7 17 8 18 9 19 10 20 11
REMARK SMILES IDX 9 12 8 13 7 14 6 15 5 16 4 17 3 18 2 19 1 20
REMARK H PARENT
REMARK Flexibility Score: inf
ROOT
ATOM      1  C   UNL     1       2.006   4.126  30.545  1.00  0.00     0.000 C 
ENDROOT
BRANCH   1   2
ATOM      2  C   UNL     1       1.431   5.528  30.843  1.00  0.00     0.000 C 
BRANCH   2   3
ATOM      3  C   UNL     1       0.462   6.009  29.748  1.00  0.00     0.000 C 
BRANCH   3   4
ATOM      4  C   UNL     1       0.859   7.377  29.169  1.00  0.00     0.000 C 
BRANCH   4   5
ATOM      5  C   UNL     1       2.248   7.837  29.646  1.00  0.00     0.000 C 
BRANCH   5   6
ATOM      6  C   UNL     1       3.113   8.381  28.499  1.00  0.00     0.000 C 
BRANCH   6   7
ATOM      7  C   UNL     1       4.614   8.376  28.840  1.00  0.00     0.006 C 
BRANCH   7   8
ATOM      8  C   UNL     1       5.007   7.170  29.703  1.00  0.00     0.053 C 
BRANCH   8   9
ATOM      9  C   UNL     1       6.051   7.526  30.715  1.00  0.00     0.041 C 
ATOM     10  O   UNL     1       6.154   8.711  31.129  1.00  0.00    -0.550 OA
ATOM     11  O   UNL     1       6.934   6.557  31.178  1.00  0.00    -0.550 OA
ENDBRANCH   8   9
ENDBRANCH   7   8
ENDBRANCH   6   7
ENDBRANCH   5   6
ENDBRANCH   4   5
ENDBRANCH   3   4
ENDBRANCH   2   3
ENDBRANCH   1   2
BRANCH   1  12
ATOM     12  C   UNL     1       2.179   3.833  29.042  1.00  0.00     0.000 C 
BRANCH  12  13
ATOM     13  C   UNL     1       3.561   4.192  28.463  1.00  0.00    -0.000 C 
BRANCH  13  14
ATOM     14  C   UNL     1       3.979   3.372  27.229  1.00  0.00    -0.000 C 
BRANCH  14  15
ATOM     15  C   UNL     1       3.875   4.167  25.920  1.00  0.00    -0.000 C 
BRANCH  15  16
ATOM     16  C   UNL     1       3.842   5.677  26.196  1.00  0.00    -0.000 C 
BRANCH  16  17
ATOM     17  C   UNL     1       2.590   6.363  25.621  1.00  0.00    -0.000 C 
BRANCH  17  18
ATOM     18  C   UNL     1       1.503   5.403  25.096  1.00  0.00    -0.000 C 
BRANCH  18  19
ATOM     19  C   UNL     1       0.317   5.182  26.051  1.00  0.00    -0.003 C 
ATOM     20  C   UNL     1      -0.066   3.710  26.195  1.00  0.00     0.004 C 
ENDBRANCH  18  19
ENDBRANCH  17  18
ENDBRANCH  16  17
ENDBRANCH  15  16
ENDBRANCH  14  15
ENDBRANCH  13  14
ENDBRANCH  12  13
ENDBRANCH   1  12
TORSDOF 16
ENDMDL
MODEL 8
REMARK VINA RESULT:    -4.307      6.950      9.589
REMARK INTER + INTRA:         -11.115
REMARK INTER:                  -7.968
REMARK INTRA:                  -3.147
REMARK UNBOUND:                -2.778
REMARK SMILES CCCCCCCCCCCCCCCCCC(=O)[O-]
REMARK SMILES IDX 10 1 11 2 12 3 13 4 14 5 15 6 16 7 17 8 18 9 19 10 20 11
REMARK SMILES IDX 9 12 8 13 7 14 6 15 5 16 4 17 3 18 2 19 1 20
REMARK H PARENT
REMARK Flexibility Score: inf
ROOT
ATOM      1  C   UNL     1      -2.784   6.767  19.559  1.00  0.00     0.000 C 
ENDROOT
BRANCH   1   2
ATOM      2  C   UNL     1      -4.065   6.032  19.106  1.00  0.00     0.000 C 
BRANCH   2   3
ATOM      3  C   UNL     1      -3.982   4.513  19.335  1.00  0.00     0.000 C 
BRANCH   3   4
ATOM      4  C   UNL     1      -4.756   4.062  20.585  1.00  0.00     0.000 C 
BRANCH   4   5
ATOM      5  C   UNL     1      -6.280   4.160  20.400  1.00  0.00     0.000 C 
BRANCH   5   6
ATOM      6  C   UNL     1      -6.925   5.180  21.352  1.00  0.00     0.000 C 
BRANCH   6   7
ATOM      7  C   UNL     1      -5.904   5.811  22.316  1.00  0.00     0.006 C 
BRANCH   7   8
ATOM      8  C   UNL     1      -6.518   6.115  23.690  1.00  0.00     0.053 C 
BRANCH   8   9
ATOM      9  C   UNL     1      -5.468   6.418  24.713  1.00  0.00     0.041 C 
ATOM     10  O   UNL     1      -5.425   5.766  25.790  1.00  0.00    -0.550 OA
ATOM     11  O   UNL     1      -4.555   7.444  24.495  1.00  0.00    -0.550 OA
ENDBRANCH   8   9
ENDBRANCH   7   8
ENDBRANCH   6   7
ENDBRANCH   5   6
ENDBRANCH   4   5
ENDBRANCH   3   4
ENDBRANCH   2   3
ENDBRANCH   1   2
BRANCH   1  12
ATOM     12  C   UNL     1      -2.942   7.522  20.892  1.00  0.00     0.000 C 
BRANCH  12  13
ATOM     13  C   UNL     1      -2.340   6.810  22.119  1.00  0.00    -0.000 C 
BRANCH  13  14
ATOM     14  C   UNL     1      -1.351   5.677  21.789  1.00  0.00    -0.000 C 
BRANCH  14  15
ATOM     15  C   UNL     1      -1.660   4.376  22.543  1.00  0.00    -0.000 C 
BRANCH  15  16
ATOM     16  C   UNL     1      -2.184   4.671  23.956  1.00  0.00    -0.000 C 
BRANCH  16  17
ATOM     17  C   UNL     1      -2.926   3.477  24.581  1.00  0.00    -0.000 C 
BRANCH  17  18
ATOM     18  C   UNL     1      -4.084   2.913  23.733  1.00  0.00    -0.000 C 
BRANCH  18  19
ATOM     19  C   UNL     1      -5.389   2.654  24.507  1.00  0.00    -0.003 C 
ATOM     20  C   UNL     1      -6.559   2.287  23.597  1.00  0.00     0.004 C 
ENDBRANCH  18  19
ENDBRANCH  17  18
ENDBRANCH  16  17
ENDBRANCH  15  16
ENDBRANCH  14  15
ENDBRANCH  13  14
ENDBRANCH  12  13
ENDBRANCH   1  12
TORSDOF 16
ENDMDL
MODEL 9
REMARK VINA RESULT:    -4.290      3.246      3.934
REMARK INTER + INTRA:         -11.081
REMARK INTER:                  -8.155
REMARK INTRA:                  -2.926
REMARK UNBOUND:                -2.778
REMARK SMILES CCCCCCCCCCCCCCCCCC(=O)[O-]
REMARK SMILES IDX 10 1 11 2 12 3 13 4 14 5 15 6 16 7 17 8 18 9 19 10 20 11
REMARK SMILES IDX 9 12 8 13 7 14 6 15 5 16 4 17 3 18 2 19 1 20
REMARK H PARENT
REMARK Flexibility Score: inf
ROOT
ATOM      1  C   UNL     1       4.003   4.385  29.277  1.00  0.00     0.000 C 
ENDROOT
BRANCH   1   2
ATOM      2  C   UNL     1       2.497   4.101  29.468  1.00  0.00     0.000 C 
BRANCH   2   3
ATOM      3  C   UNL     1       2.042   4.302  30.924  1.00  0.00     0.000 C 
BRANCH   3   4
ATOM      4  C   UNL     1       1.218   5.585  31.113  1.00  0.00     0.000 C 
BRANCH   4   5
ATOM      5  C   UNL     1       0.676   6.138  29.783  1.00  0.00     0.000 C 
BRANCH   5   6
ATOM      6  C   UNL     1      -0.448   7.166  29.987  1.00  0.00     0.000 C 
BRANCH   6   7
ATOM      7  C   UNL     1      -0.190   8.478  29.226  1.00  0.00     0.006 C 
BRANCH   7   8
ATOM      8  C   UNL     1       1.019   9.242  29.783  1.00  0.00     0.053 C 
BRANCH   8   9
ATOM      9  C   UNL     1       0.911   9.453  31.262  1.00  0.00     0.041 C 
ATOM     10  O   UNL     1       1.796   8.997  32.033  1.00  0.00    -0.550 OA
ATOM     11  O   UNL     1      -0.185  10.124  31.793  1.00  0.00    -0.550 OA
ENDBRANCH   8   9
ENDBRANCH   7   8
ENDBRANCH   6   7
ENDBRANCH   5   6
ENDBRANCH   4   5
ENDBRANCH   3   4
ENDBRANCH   2   3
ENDBRANCH   1   2
BRANCH   1  12
ATOM     12  C   UNL     1       4.720   4.823  30.568  1.00  0.00     0.000 C 
BRANCH  12  13
ATOM     13  C   UNL     1       5.372   6.218  30.510  1.00  0.00    -0.000 C 
BRANCH  13  14
ATOM     14  C   UNL     1       4.386   7.385  30.322  1.00  0.00    -0.000 C 
BRANCH  14  15
ATOM     15  C   UNL     1       4.862   8.408  29.280  1.00  0.00    -0.000 C 
BRANCH  15  16
ATOM     16  C   UNL     1       4.611   7.896  27.855  1.00  0.00    -0.000 C 
BRANCH  16  17
ATOM     17  C   UNL     1       3.116   7.742  27.527  1.00  0.00    -0.000 C 
BRANCH  17  18
ATOM     18  C   UNL     1       2.766   6.541  26.625  1.00  0.00    -0.000 C 
BRANCH  18  19
ATOM     19  C   UNL     1       3.913   6.051  25.724  1.00  0.00    -0.003 C 
ATOM     20  C   UNL     1       3.867   4.546  25.466  1.00  0.00     0.004 C 
ENDBRANCH  18  19
ENDBRANCH  17  18
ENDBRANCH  16  17
ENDBRANCH  15  16
ENDBRANCH  14  15
ENDBRANCH  13  14
ENDBRANCH  12  13
ENDBRANCH   1  12
TORSDOF 16
ENDMDL
