MODEL 1
REMARK VINA RESULT:    -4.983      0.000      0.000
REMARK INTER + INTRA:         -17.130
REMARK INTER:                 -12.557
REMARK INTRA:                  -4.573
REMARK UNBOUND:                -4.573
REMARK SMILES CCCCCCCCCCCCCCCCCCCCCCCCCCCC(=O)[O-]
REMARK SMILES IDX 15 1 16 2 17 3 18 4 19 5 20 6 21 7 22 8 23 9 24 10 25 11
REMARK SMILES IDX 26 12 27 13 28 14 29 15 30 16 14 17 13 18 12 19 11 20 10 21
REMARK SMILES IDX 9 22 8 23 7 24 6 25 5 26 4 27 3 28 2 29 1 30
REMARK H PARENT
REMARK Flexibility Score: inf
ROOT
ATOM      1  C   UNL     1      48.685  44.963  38.503  1.00  0.00     0.000 C 
ENDROOT
BRANCH   1   2
ATOM      2  C   UNL     1      48.636  46.500  38.548  1.00  0.00     0.000 C 
BRANCH   2   3
ATOM      3  C   UNL     1      47.581  47.095  39.503  1.00  0.00     0.000 C 
BRANCH   3   4
ATOM      4  C   UNL     1      46.536  46.097  40.033  1.00  0.00     0.000 C 
BRANCH   4   5
ATOM      5  C   UNL     1      45.228  46.112  39.222  1.00  0.00     0.000 C 
BRANCH   5   6
ATOM      6  C   UNL     1      44.094  46.853  39.948  1.00  0.00     0.000 C 
BRANCH   6   7
ATOM      7  C   UNL     1      43.750  48.201  39.291  1.00  0.00     0.000 C 
BRANCH   7   8
ATOM      8  C   UNL     1      44.324  48.324  37.869  1.00  0.00     0.000 C 
BRANCH   8   9
ATOM      9  C   UNL     1      45.359  49.457  37.744  1.00  0.00     0.000 C 
BRANCH   9  10
ATOM     10  C   UNL     1      46.446  49.152  36.699  1.00  0.00     0.000 C 
BRANCH  10  11
ATOM     11  C   UNL     1      45.962  48.173  35.616  1.00  0.00     0.000 C 
BRANCH  11  12
ATOM     12  C   UNL     1      46.776  46.867  35.586  1.00  0.00     0.006 C 
BRANCH  12  13
ATOM     13  C   UNL     1      45.925  45.587  35.607  1.00  0.00     0.053 C 
BRANCH  13  14
ATOM     14  C   UNL     1      46.257  44.670  34.471  1.00  0.00     0.041 C 
ATOM     15  O   UNL     1      45.909  44.962  33.297  1.00  0.00    -0.550 OA
ATOM     16  O   UNL     1      46.932  43.479  34.712  1.00  0.00    -0.550 OA
ENDBRANCH  13  14
ENDBRANCH  12  13
ENDBRANCH  11  12
ENDBRANCH  10  11
ENDBRANCH   9  10
ENDBRANCH   8   9
ENDBRANCH   7   8
ENDBRANCH   6   7
ENDBRANCH   5   6
ENDBRANCH   4   5
ENDBRANCH   3   4
ENDBRANCH   2   3
ENDBRANCH   1   2
BRANCH   1  17
ATOM     17  C   UNL     1      49.239  44.421  37.174  1.00  0.00     0.000 C 
BRANCH  17  18
ATOM     18  C   UNL     1      49.654  42.940  37.268  1.00  0.00     0.000 C 
BRANCH  18  19
ATOM     19  C   UNL     1      49.201  42.237  38.563  1.00  0.00     0.000 C 
BRANCH  19  20
ATOM     20  C   UNL     1      48.297  41.010  38.331  1.00  0.00     0.000 C 
BRANCH  20  21
ATOM     21  C   UNL     1      47.051  41.351  37.494  1.00  0.00     0.000 C 
BRANCH  21  22
ATOM     22  C   UNL     1      46.133  42.384  38.174  1.00  0.00    -0.000 C 
BRANCH  22  23
ATOM     23  C   UNL     1      44.748  41.854  38.587  1.00  0.00    -0.000 C 
BRANCH  23  24
ATOM     24  C   UNL     1      44.538  40.374  38.222  1.00  0.00    -0.000 C 
BRANCH  24  25
ATOM     25  C   UNL     1      43.837  39.587  39.340  1.00  0.00    -0.000 C 
BRANCH  25  26
ATOM     26  C   UNL     1      44.822  38.822  40.237  1.00  0.00    -0.000 C 
BRANCH  26  27
ATOM     27  C   UNL     1      46.008  38.290  39.419  1.00  0.00    -0.000 C 
BRANCH  27  28
ATOM     28  C   UNL     1      45.650  37.041  38.598  1.00  0.00    -0.000 C 
BRANCH  28  29
ATOM     29  C   UNL     1      46.234  37.078  37.179  1.00  0.00    -0.003 C 
ATOM     30  C   UNL     1      45.200  36.632  36.149  1.00  0.00     0.004 C 
ENDBRANCH  28  29
ENDBRANCH  27  28
ENDBRANCH  26  27
ENDBRANCH  25  26
ENDBRANCH  24  25
ENDBRANCH  23  24
ENDBRANCH  22  23
ENDBRANCH  21  22
ENDBRANCH  20  21
ENDBRANCH  19  20
ENDBRANCH  18  19
ENDBRANCH  17  18
ENDBRANCH   1  17
TORSDOF 26
ENDMDL
MODEL 2
REMARK VINA RESULT:    -4.980      2.337      8.129
REMARK INTER + INTRA:         -17.121
REMARK INTER:                 -11.978
REMARK INTRA:                  -5.143
REMARK UNBOUND:                -4.573
REMARK SMILES CCCCCCCCCCCCCCCCCCCCCCCCCCCC(=O)[O-]
REMARK SMILES IDX 15 1 16 2 17 3 18 4 19 5 20 6 21 7 22 8 23 9 24 10 25 11
REMARK SMILES IDX 26 12 27 13 28 14 29 15 30 16 14 17 13 18 12 19 11 20 10 21
REMARK SMILES IDX 9 22 8 23 7 24 6 25 5 26 4 27 3 28 2 29 1 30
REMARK H PARENT
REMARK Flexibility Score: inf
ROOT
ATOM      1  C   UNL     1      46.958  43.528  38.404  1.00  0.00     0.000 C 
ENDROOT
BRANCH   1   2
ATOM      2  C   UNL     1      48.470  43.279  38.280  1.00  0.00     0.000 C 
BRANCH   2   3
ATOM      3  C   UNL     1      48.898  41.799  38.355  1.00  0.00     0.000 C 
BRANCH   3   4
ATOM      4  C   UNL     1      49.570  41.241  37.088  1.00  0.00     0.000 C 
BRANCH   4   5
ATOM      5  C   UNL     1      48.557  40.742  36.043  1.00  0.00     0.000 C 
BRANCH   5   6
ATOM      6  C   UNL     1      47.323  40.088  36.686  1.00  0.00     0.000 C 
BRANCH   6   7
ATOM      7  C   UNL     1      46.012  40.471  35.977  1.00  0.00     0.000 C 
BRANCH   7   8
ATOM      8  C   UNL     1      44.829  40.588  36.953  1.00  0.00     0.000 C 
BRANCH   8   9
ATOM      9  C   UNL     1      45.251  40.400  38.421  1.00  0.00     0.000 C 
BRANCH   9  10
ATOM     10  C   UNL     1      44.128  39.804  39.288  1.00  0.00     0.000 C 
BRANCH  10  11
ATOM     11  C   UNL     1      44.537  38.474  39.945  1.00  0.00     0.000 C 
BRANCH  11  12
ATOM     12  C   UNL     1      45.920  37.980  39.481  1.00  0.00     0.006 C 
BRANCH  12  13
ATOM     13  C   UNL     1      45.905  36.605  38.794  1.00  0.00     0.053 C 
BRANCH  13  14
ATOM     14  C   UNL     1      46.117  36.710  37.316  1.00  0.00     0.041 C 
ATOM     15  O   UNL     1      45.171  37.058  36.562  1.00  0.00    -0.550 OA
ATOM     16  O   UNL     1      47.356  36.401  36.767  1.00  0.00    -0.550 OA
ENDBRANCH  13  14
ENDBRANCH  12  13
ENDBRANCH  11  12
ENDBRANCH  10  11
ENDBRANCH   9  10
ENDBRANCH   8   9
ENDBRANCH   7   8
ENDBRANCH   6   7
ENDBRANCH   5   6
ENDBRANCH   4   5
ENDBRANCH   3   4
ENDBRANCH   2   3
ENDBRANCH   1   2
BRANCH   1  17
ATOM     17  C   UNL     1      46.334  44.079  37.109  1.00  0.00     0.000 C 
BRANCH  17  18
ATOM     18  C   UNL     1      47.312  44.035  35.919  1.00  0.00     0.000 C 
BRANCH  18  19
ATOM     19  C   UNL     1      47.589  45.409  35.276  1.00  0.00     0.000 C 
BRANCH  19  20
ATOM     20  C   UNL     1      47.402  46.602  36.234  1.00  0.00     0.000 C 
BRANCH  20  21
ATOM     21  C   UNL     1      48.693  46.949  36.997  1.00  0.00     0.000 C 
BRANCH  21  22
ATOM     22  C   UNL     1      48.628  48.319  37.696  1.00  0.00    -0.000 C 
BRANCH  22  23
ATOM     23  C   UNL     1      47.630  49.319  37.083  1.00  0.00    -0.000 C 
BRANCH  23  24
ATOM     24  C   UNL     1      46.794  50.058  38.143  1.00  0.00    -0.000 C 
BRANCH  24  25
ATOM     25  C   UNL     1      45.311  50.160  37.753  1.00  0.00    -0.000 C 
BRANCH  25  26
ATOM     26  C   UNL     1      44.665  48.789  37.504  1.00  0.00    -0.000 C 
BRANCH  26  27
ATOM     27  C   UNL     1      44.298  48.107  38.830  1.00  0.00    -0.000 C 
BRANCH  27  28
ATOM     28  C   UNL     1      44.857  46.680  38.939  1.00  0.00    -0.000 C 
BRANCH  28  29
ATOM     29  C   UNL     1      45.405  46.363  40.337  1.00  0.00    -0.003 C 
ATOM     30  C   UNL     1      46.827  46.891  40.500  1.00  0.00     0.004 C 
ENDBRANCH  28  29
ENDBRANCH  27  28
ENDBRANCH  26  27
ENDBRANCH  25  26
ENDBRANCH  24  25
ENDBRANCH  23  24
ENDBRANCH  22  23
ENDBRANCH  21  22
ENDBRANCH  20  21
ENDBRANCH  19  20
ENDBRANCH  18  19
ENDBRANCH  17  18
ENDBRANCH   1  17
TORSDOF 26
ENDMDL
MODEL 3
REMARK VINA RESULT:    -4.959      2.213      7.702
REMARK INTER + INTRA:         -17.070
REMARK INTER:                 -12.205
REMARK INTRA:                  -4.864
REMARK UNBOUND:                -4.573
REMARK SMILES CCCCCCCCCCCCCCCCCCCCCCCCCCCC(=O)[O-]
REMARK SMILES IDX 15 1 16 2 17 3 18 4 19 5 20 6 21 7 22 8 23 9 24 10 25 11
REMARK SMILES IDX 26 12 27 13 28 14 29 15 30 16 14 17 13 18 12 19 11 20 10 21
REMARK SMILES IDX 9 22 8 23 7 24 6 25 5 26 4 27 3 28 2 29 1 30
REMARK H PARENT
REMARK Flexibility Score: inf
ROOT
ATOM      1  C   UNL     1      45.040  39.327  39.768  1.00  0.00     0.000 C 
ENDROOT
BRANCH   1   2
ATOM      2  C   UNL     1      45.030  37.789  39.800  1.00  0.00     0.000 C 
BRANCH   2   3
ATOM      3  C   UNL     1      46.210  37.111  39.074  1.00  0.00     0.000 C 
BRANCH   3   4
ATOM      4  C   UNL     1      46.837  37.928  37.930  1.00  0.00     0.000 C 
BRANCH   4   5
ATOM      5  C   UNL     1      48.204  38.527  38.301  1.00  0.00     0.000 C 
BRANCH   5   6
ATOM      6  C   UNL     1      48.274  40.041  38.039  1.00  0.00     0.000 C 
BRANCH   6   7
ATOM      7  C   UNL     1      48.799  40.828  39.252  1.00  0.00     0.000 C 
BRANCH   7   8
ATOM      8  C   UNL     1      49.577  42.090  38.841  1.00  0.00     0.000 C 
BRANCH   8   9
ATOM      9  C   UNL     1      48.847  42.911  37.764  1.00  0.00     0.000 C 
BRANCH   9  10
ATOM     10  C   UNL     1      49.032  44.428  37.949  1.00  0.00     0.000 C 
BRANCH  10  11
ATOM     11  C   UNL     1      47.890  45.065  38.760  1.00  0.00     0.000 C 
BRANCH  11  12
ATOM     12  C   UNL     1      46.593  44.237  38.713  1.00  0.00     0.006 C 
BRANCH  12  13
ATOM     13  C   UNL     1      45.306  45.076  38.670  1.00  0.00     0.053 C 
BRANCH  13  14
ATOM     14  C   UNL     1      44.944  45.623  40.016  1.00  0.00     0.041 C 
ATOM     15  O   UNL     1      45.680  46.483  40.570  1.00  0.00    -0.550 OA
ATOM     16  O   UNL     1      43.807  45.166  40.671  1.00  0.00    -0.550 OA
ENDBRANCH  13  14
ENDBRANCH  12  13
ENDBRANCH  11  12
ENDBRANCH  10  11
ENDBRANCH   9  10
ENDBRANCH   8   9
ENDBRANCH   7   8
ENDBRANCH   6   7
ENDBRANCH   5   6
ENDBRANCH   4   5
ENDBRANCH   3   4
ENDBRANCH   2   3
ENDBRANCH   1   2
BRANCH   1  17
ATOM     17  C   UNL     1      43.683  39.925  39.357  1.00  0.00     0.000 C 
BRANCH  17  18
ATOM     18  C   UNL     1      43.756  40.685  38.018  1.00  0.00     0.000 C 
BRANCH  18  19
ATOM     19  C   UNL     1      43.998  39.784  36.791  1.00  0.00     0.000 C 
BRANCH  19  20
ATOM     20  C   UNL     1      45.134  40.268  35.868  1.00  0.00     0.000 C 
BRANCH  20  21
ATOM     21  C   UNL     1      45.634  41.674  36.243  1.00  0.00     0.000 C 
BRANCH  21  22
ATOM     22  C   UNL     1      46.505  42.315  35.146  1.00  0.00    -0.000 C 
BRANCH  22  23
ATOM     23  C   UNL     1      46.252  43.815  34.905  1.00  0.00    -0.000 C 
BRANCH  23  24
ATOM     24  C   UNL     1      47.535  44.591  34.559  1.00  0.00    -0.000 C 
BRANCH  24  25
ATOM     25  C   UNL     1      47.521  46.025  35.111  1.00  0.00    -0.000 C 
BRANCH  25  26
ATOM     26  C   UNL     1      46.131  46.460  35.600  1.00  0.00    -0.000 C 
BRANCH  26  27
ATOM     27  C   UNL     1      46.110  47.961  35.924  1.00  0.00    -0.000 C 
BRANCH  27  28
ATOM     28  C   UNL     1      46.849  48.297  37.230  1.00  0.00    -0.000 C 
BRANCH  28  29
ATOM     29  C   UNL     1      46.041  49.228  38.145  1.00  0.00    -0.003 C 
ATOM     30  C   UNL     1      44.555  48.884  38.103  1.00  0.00     0.004 C 
ENDBRANCH  28  29
ENDBRANCH  27  28
ENDBRANCH  26  27
ENDBRANCH  25  26
ENDBRANCH  24  25
ENDBRANCH  23  24
ENDBRANCH  22  23
ENDBRANCH  21  22
ENDBRANCH  20  21
ENDBRANCH  19  20
ENDBRANCH  18  19
ENDBRANCH  17  18
ENDBRANCH   1  17
TORSDOF 26
ENDMDL
MODEL 4
REMARK VINA RESULT:    -4.907      2.379      7.466
REMARK INTER + INTRA:         -16.939
REMARK INTER:                 -12.133
REMARK INTRA:                  -4.805
REMARK UNBOUND:                -4.573
REMARK SMILES CCCCCCCCCCCCCCCCCCCCCCCCCCCC(=O)[O-]
REMARK SMILES IDX 15 1 16 2 17 3 18 4 19 5 20 6 21 7 22 8 23 9 24 10 25 11
REMARK SMILES IDX 26 12 27 13 28 14 29 15 30 16 14 17 13 18 12 19 11 20 10 21
REMARK SMILES IDX 9 22 8 23 7 24 6 25 5 26 4 27 3 28 2 29 1 30
REMARK H PARENT
REMARK Flexibility Score: inf
ROOT
ATOM      1  C   UNL     1      46.023  44.938  34.929  1.00  0.00     0.000 C 
ENDROOT
BRANCH   1   2
ATOM      2  C   UNL     1      46.460  44.885  33.455  1.00  0.00     0.000 C 
BRANCH   2   3
ATOM      3  C   UNL     1      47.943  44.525  33.224  1.00  0.00     0.000 C 
BRANCH   3   4
ATOM      4  C   UNL     1      48.709  44.057  34.474  1.00  0.00     0.000 C 
BRANCH   4   5
ATOM      5  C   UNL     1      49.366  42.677  34.291  1.00  0.00     0.000 C 
BRANCH   5   6
ATOM      6  C   UNL     1      48.891  41.656  35.337  1.00  0.00     0.000 C 
BRANCH   6   7
ATOM      7  C   UNL     1      47.406  41.288  35.174  1.00  0.00     0.000 C 
BRANCH   7   8
ATOM      8  C   UNL     1      46.752  40.879  36.505  1.00  0.00     0.000 C 
BRANCH   8   9
ATOM      9  C   UNL     1      45.632  41.843  36.935  1.00  0.00     0.000 C 
BRANCH   9  10
ATOM     10  C   UNL     1      45.314  41.748  38.438  1.00  0.00     0.000 C 
BRANCH  10  11
ATOM     11  C   UNL     1      43.950  41.088  38.709  1.00  0.00     0.000 C 
BRANCH  11  12
ATOM     12  C   UNL     1      44.050  39.559  38.868  1.00  0.00     0.006 C 
BRANCH  12  13
ATOM     13  C   UNL     1      45.158  39.092  39.826  1.00  0.00     0.053 C 
BRANCH  13  14
ATOM     14  C   UNL     1      46.035  38.048  39.206  1.00  0.00     0.041 C 
ATOM     15  O   UNL     1      47.213  38.332  38.862  1.00  0.00    -0.550 OA
ATOM     16  O   UNL     1      45.544  36.767  38.986  1.00  0.00    -0.550 OA
ENDBRANCH  13  14
ENDBRANCH  12  13
ENDBRANCH  11  12
ENDBRANCH  10  11
ENDBRANCH   9  10
ENDBRANCH   8   9
ENDBRANCH   7   8
ENDBRANCH   6   7
ENDBRANCH   5   6
ENDBRANCH   4   5
ENDBRANCH   3   4
ENDBRANCH   2   3
ENDBRANCH   1   2
BRANCH   1  17
ATOM     17  C   UNL     1      45.814  46.375  35.439  1.00  0.00     0.000 C 
BRANCH  17  18
ATOM     18  C   UNL     1      47.135  47.048  35.861  1.00  0.00     0.000 C 
BRANCH  18  19
ATOM     19  C   UNL     1      47.029  48.572  36.073  1.00  0.00     0.000 C 
BRANCH  19  20
ATOM     20  C   UNL     1      47.673  49.073  37.381  1.00  0.00     0.000 C 
BRANCH  20  21
ATOM     21  C   UNL     1      46.628  49.592  38.385  1.00  0.00     0.000 C 
BRANCH  21  22
ATOM     22  C   UNL     1      45.229  49.759  37.766  1.00  0.00    -0.000 C 
BRANCH  22  23
ATOM     23  C   UNL     1      44.116  48.931  38.434  1.00  0.00    -0.000 C 
BRANCH  23  24
ATOM     24  C   UNL     1      44.432  47.425  38.478  1.00  0.00    -0.000 C 
BRANCH  24  25
ATOM     25  C   UNL     1      44.598  46.902  39.914  1.00  0.00    -0.000 C 
BRANCH  25  26
ATOM     26  C   UNL     1      45.093  45.448  39.964  1.00  0.00    -0.000 C 
BRANCH  26  27
ATOM     27  C   UNL     1      46.133  45.186  38.865  1.00  0.00    -0.000 C 
BRANCH  27  28
ATOM     28  C   UNL     1      47.542  45.660  39.255  1.00  0.00    -0.000 C 
BRANCH  28  29
ATOM     29  C   UNL     1      48.638  45.055  38.367  1.00  0.00    -0.003 C 
ATOM     30  C   UNL     1      48.608  43.531  38.421  1.00  0.00     0.004 C 
ENDBRANCH  28  29
ENDBRANCH  27  28
ENDBRANCH  26  27
ENDBRANCH  25  26
ENDBRANCH  24  25
ENDBRANCH  23  24
ENDBRANCH  22  23
ENDBRANCH  21  22
ENDBRANCH  20  21
ENDBRANCH  19  20
ENDBRANCH  18  19
ENDBRANCH  17  18
ENDBRANCH   1  17
TORSDOF 26
ENDMDL
MODEL 5
REMARK VINA RESULT:    -4.886      1.845      7.665
REMARK INTER + INTRA:         -16.886
REMARK INTER:                 -12.148
REMARK INTRA:                  -4.738
REMARK UNBOUND:                -4.573
REMARK SMILES CCCCCCCCCCCCCCCCCCCCCCCCCCCC(=O)[O-]
REMARK SMILES IDX 15 1 16 2 17 3 18 4 19 5 20 6 21 7 22 8 23 9 24 10 25 11
REMARK SMILES IDX 26 12 27 13 28 14 29 15 30 16 14 17 13 18 12 19 11 20 10 21
REMARK SMILES IDX 9 22 8 23 7 24 6 25 5 26 4 27 3 28 2 29 1 30
REMARK H PARENT
REMARK Flexibility Score: inf
ROOT
ATOM      1  C   UNL     1      49.382  43.272  35.861  1.00  0.00     0.000 C 
ENDROOT
BRANCH   1   2
ATOM      2  C   UNL     1      48.887  44.141  37.029  1.00  0.00     0.000 C 
BRANCH   2   3
ATOM      3  C   UNL     1      49.006  43.492  38.424  1.00  0.00     0.000 C 
BRANCH   3   4
ATOM      4  C   UNL     1      50.066  42.383  38.546  1.00  0.00     0.000 C 
BRANCH   4   5
ATOM      5  C   UNL     1      49.554  41.146  39.305  1.00  0.00     0.000 C 
BRANCH   5   6
ATOM      6  C   UNL     1      48.176  40.680  38.809  1.00  0.00     0.000 C 
BRANCH   6   7
ATOM      7  C   UNL     1      48.231  40.063  37.400  1.00  0.00     0.000 C 
BRANCH   7   8
ATOM      8  C   UNL     1      47.852  38.572  37.397  1.00  0.00     0.000 C 
BRANCH   8   9
ATOM      9  C   UNL     1      46.917  38.196  38.560  1.00  0.00     0.000 C 
BRANCH   9  10
ATOM     10  C   UNL     1      45.523  37.755  38.080  1.00  0.00     0.000 C 
BRANCH  10  11
ATOM     11  C   UNL     1      45.190  38.287  36.676  1.00  0.00     0.000 C 
BRANCH  11  12
ATOM     12  C   UNL     1      44.115  39.390  36.696  1.00  0.00     0.006 C 
BRANCH  12  13
ATOM     13  C   UNL     1      44.650  40.792  37.028  1.00  0.00     0.053 C 
BRANCH  13  14
ATOM     14  C   UNL     1      44.218  41.254  38.385  1.00  0.00     0.041 C 
ATOM     15  O   UNL     1      43.554  40.490  39.133  1.00  0.00    -0.550 OA
ATOM     16  O   UNL     1      44.528  42.539  38.814  1.00  0.00    -0.550 OA
ENDBRANCH  13  14
ENDBRANCH  12  13
ENDBRANCH  11  12
ENDBRANCH  10  11
ENDBRANCH   9  10
ENDBRANCH   8   9
ENDBRANCH   7   8
ENDBRANCH   6   7
ENDBRANCH   5   6
ENDBRANCH   4   5
ENDBRANCH   3   4
ENDBRANCH   2   3
ENDBRANCH   1   2
BRANCH   1  17
ATOM     17  C   UNL     1      48.261  42.909  34.870  1.00  0.00     0.000 C 
BRANCH  17  18
ATOM     18  C   UNL     1      46.907  43.536  35.256  1.00  0.00     0.000 C 
BRANCH  18  19
ATOM     19  C   UNL     1      46.383  44.580  34.250  1.00  0.00     0.000 C 
BRANCH  19  20
ATOM     20  C   UNL     1      45.596  45.738  34.896  1.00  0.00     0.000 C 
BRANCH  20  21
ATOM     21  C   UNL     1      46.512  46.720  35.649  1.00  0.00     0.000 C 
BRANCH  21  22
ATOM     22  C   UNL     1      45.955  48.155  35.684  1.00  0.00    -0.000 C 
BRANCH  22  23
ATOM     23  C   UNL     1      46.570  49.068  36.761  1.00  0.00    -0.000 C 
BRANCH  23  24
ATOM     24  C   UNL     1      45.570  49.450  37.865  1.00  0.00    -0.000 C 
BRANCH  24  25
ATOM     25  C   UNL     1      44.445  48.414  38.022  1.00  0.00    -0.000 C 
BRANCH  25  26
ATOM     26  C   UNL     1      44.588  47.569  39.297  1.00  0.00    -0.000 C 
BRANCH  26  27
ATOM     27  C   UNL     1      44.863  46.098  38.950  1.00  0.00    -0.000 C 
BRANCH  27  28
ATOM     28  C   UNL     1      46.324  45.692  39.199  1.00  0.00    -0.000 C 
BRANCH  28  29
ATOM     29  C   UNL     1      47.115  46.765  39.960  1.00  0.00    -0.003 C 
ATOM     30  C   UNL     1      48.435  47.072  39.259  1.00  0.00     0.004 C 
ENDBRANCH  28  29
ENDBRANCH  27  28
ENDBRANCH  26  27
ENDBRANCH  25  26
ENDBRANCH  24  25
ENDBRANCH  23  24
ENDBRANCH  22  23
ENDBRANCH  21  22
ENDBRANCH  20  21
ENDBRANCH  19  20
ENDBRANCH  18  19
ENDBRANCH  17  18
ENDBRANCH   1  17
TORSDOF 26
ENDMDL
MODEL 6
REMARK VINA RESULT:    -4.876      2.387      3.982
REMARK INTER + INTRA:         -16.859
REMARK INTER:                 -11.671
REMARK INTRA:                  -5.188
REMARK UNBOUND:                -4.573
REMARK SMILES CCCCCCCCCCCCCCCCCCCCCCCCCCCC(=O)[O-]
REMARK SMILES IDX 15 1 16 2 17 3 18 4 19 5 20 6 21 7 22 8 23 9 24 10 25 11
REMARK SMILES IDX 26 12 27 13 28 14 29 15 30 16 14 17 13 18 12 19 11 20 10 21
REMARK SMILES IDX 9 22 8 23 7 24 6 25 5 26 4 27 3 28 2 29 1 30
REMARK H PARENT
REMARK Flexibility Score: inf
ROOT
ATOM      1  C   UNL     1      46.007  44.317  37.055  1.00  0.00     0.000 C 
ENDROOT
BRANCH   1   2
ATOM      2  C   UNL     1      46.774  44.109  35.738  1.00  0.00     0.000 C 
BRANCH   2   3
ATOM      3  C   UNL     1      47.430  45.377  35.154  1.00  0.00     0.000 C 
BRANCH   3   4
ATOM      4  C   UNL     1      48.969  45.387  35.162  1.00  0.00     0.000 C 
BRANCH   4   5
ATOM      5  C   UNL     1      49.557  46.092  36.397  1.00  0.00     0.000 C 
BRANCH   5   6
ATOM      6  C   UNL     1      48.564  47.068  37.047  1.00  0.00     0.000 C 
BRANCH   6   7
ATOM      7  C   UNL     1      49.001  48.537  36.912  1.00  0.00     0.000 C 
BRANCH   7   8
ATOM      8  C   UNL     1      47.824  49.471  36.580  1.00  0.00     0.000 C 
BRANCH   8   9
ATOM      9  C   UNL     1      47.070  49.942  37.836  1.00  0.00     0.000 C 
BRANCH   9  10
ATOM     10  C   UNL     1      45.545  49.785  37.703  1.00  0.00     0.000 C 
BRANCH  10  11
ATOM     11  C   UNL     1      45.129  48.340  37.379  1.00  0.00     0.000 C 
BRANCH  11  12
ATOM     12  C   UNL     1      44.673  47.558  38.625  1.00  0.00     0.006 C 
BRANCH  12  13
ATOM     13  C   UNL     1      45.820  47.092  39.536  1.00  0.00     0.053 C 
BRANCH  13  14
ATOM     14  C   UNL     1      45.317  46.426  40.779  1.00  0.00     0.041 C 
ATOM     15  O   UNL     1      44.296  45.689  40.736  1.00  0.00    -0.550 OA
ATOM     16  O   UNL     1      45.961  46.637  41.992  1.00  0.00    -0.550 OA
ENDBRANCH  13  14
ENDBRANCH  12  13
ENDBRANCH  11  12
ENDBRANCH  10  11
ENDBRANCH   9  10
ENDBRANCH   8   9
ENDBRANCH   7   8
ENDBRANCH   6   7
ENDBRANCH   5   6
ENDBRANCH   4   5
ENDBRANCH   3   4
ENDBRANCH   2   3
ENDBRANCH   1   2
BRANCH   1  17
ATOM     17  C   UNL     1      46.515  43.412  38.192  1.00  0.00     0.000 C 
BRANCH  17  18
ATOM     18  C   UNL     1      47.974  43.717  38.582  1.00  0.00     0.000 C 
BRANCH  18  19
ATOM     19  C   UNL     1      48.971  42.593  38.238  1.00  0.00     0.000 C 
BRANCH  19  20
ATOM     20  C   UNL     1      48.665  41.247  38.925  1.00  0.00     0.000 C 
BRANCH  20  21
ATOM     21  C   UNL     1      48.500  40.098  37.914  1.00  0.00     0.000 C 
BRANCH  21  22
ATOM     22  C   UNL     1      48.033  40.579  36.528  1.00  0.00    -0.000 C 
BRANCH  22  23
ATOM     23  C   UNL     1      46.821  39.826  35.950  1.00  0.00    -0.000 C 
BRANCH  23  24
ATOM     24  C   UNL     1      45.530  40.664  35.968  1.00  0.00    -0.000 C 
BRANCH  24  25
ATOM     25  C   UNL     1      44.375  39.947  36.686  1.00  0.00    -0.000 C 
BRANCH  25  26
ATOM     26  C   UNL     1      44.009  40.603  38.026  1.00  0.00    -0.000 C 
BRANCH  26  27
ATOM     27  C   UNL     1      44.993  40.184  39.128  1.00  0.00    -0.000 C 
BRANCH  27  28
ATOM     28  C   UNL     1      44.810  38.722  39.564  1.00  0.00    -0.000 C 
BRANCH  28  29
ATOM     29  C   UNL     1      46.070  37.874  39.337  1.00  0.00    -0.003 C 
ATOM     30  C   UNL     1      45.831  36.812  38.268  1.00  0.00     0.004 C 
ENDBRANCH  28  29
ENDBRANCH  27  28
ENDBRANCH  26  27
ENDBRANCH  25  26
ENDBRANCH  24  25
ENDBRANCH  23  24
ENDBRANCH  22  23
ENDBRANCH  21  22
ENDBRANCH  20  21
ENDBRANCH  19  20
ENDBRANCH  18  19
ENDBRANCH  17  18
ENDBRANCH   1  17
TORSDOF 26
ENDMDL
MODEL 7
REMARK VINA RESULT:    -4.871      2.101      7.915
REMARK INTER + INTRA:         -16.848
REMARK INTER:                 -12.544
REMARK INTRA:                  -4.304
REMARK UNBOUND:                -4.573
REMARK SMILES CCCCCCCCCCCCCCCCCCCCCCCCCCCC(=O)[O-]
REMARK SMILES IDX 15 1 16 2 17 3 18 4 19 5 20 6 21 7 22 8 23 9 24 10 25 11
REMARK SMILES IDX 26 12 27 13 28 14 29 15 30 16 14 17 13 18 12 19 11 20 10 21
REMARK SMILES IDX 9 22 8 23 7 24 6 25 5 26 4 27 3 28 2 29 1 30
REMARK H PARENT
REMARK Flexibility Score: inf
ROOT
ATOM      1  C   UNL     1      46.569  42.836  36.093  1.00  0.00     0.000 C 
ENDROOT
BRANCH   1   2
ATOM      2  C   UNL     1      46.141  43.401  37.459  1.00  0.00     0.000 C 
BRANCH   2   3
ATOM      3  C   UNL     1      47.272  43.523  38.501  1.00  0.00     0.000 C 
BRANCH   3   4
ATOM      4  C   UNL     1      48.699  43.550  37.924  1.00  0.00     0.000 C 
BRANCH   4   5
ATOM      5  C   UNL     1      49.604  42.453  38.512  1.00  0.00     0.000 C 
BRANCH   5   6
ATOM      6  C   UNL     1      49.412  41.096  37.815  1.00  0.00     0.000 C 
BRANCH   6   7
ATOM      7  C   UNL     1      48.535  40.130  38.629  1.00  0.00     0.000 C 
BRANCH   7   8
ATOM      8  C   UNL     1      47.810  39.104  37.741  1.00  0.00     0.000 C 
BRANCH   8   9
ATOM      9  C   UNL     1      47.180  37.958  38.552  1.00  0.00     0.000 C 
BRANCH   9  10
ATOM     10  C   UNL     1      45.642  38.019  38.565  1.00  0.00     0.000 C 
BRANCH  10  11
ATOM     11  C   UNL     1      45.103  39.036  39.586  1.00  0.00     0.000 C 
BRANCH  11  12
ATOM     12  C   UNL     1      44.871  40.429  38.972  1.00  0.00     0.006 C 
BRANCH  12  13
ATOM     13  C   UNL     1      43.399  40.872  38.942  1.00  0.00     0.053 C 
BRANCH  13  14
ATOM     14  C   UNL     1      42.674  40.339  37.745  1.00  0.00     0.041 C 
ATOM     15  O   UNL     1      43.310  40.029  36.704  1.00  0.00    -0.550 OA
ATOM     16  O   UNL     1      41.291  40.207  37.771  1.00  0.00    -0.550 OA
ENDBRANCH  13  14
ENDBRANCH  12  13
ENDBRANCH  11  12
ENDBRANCH  10  11
ENDBRANCH   9  10
ENDBRANCH   8   9
ENDBRANCH   7   8
ENDBRANCH   6   7
ENDBRANCH   5   6
ENDBRANCH   4   5
ENDBRANCH   3   4
ENDBRANCH   2   3
ENDBRANCH   1   2
BRANCH   1  17
ATOM     17  C   UNL     1      46.549  43.895  34.976  1.00  0.00     0.000 C 
BRANCH  17  18
ATOM     18  C   UNL     1      45.829  45.189  35.404  1.00  0.00     0.000 C 
BRANCH  18  19
ATOM     19  C   UNL     1      46.689  46.462  35.279  1.00  0.00     0.000 C 
BRANCH  19  20
ATOM     20  C   UNL     1      47.798  46.580  36.342  1.00  0.00     0.000 C 
BRANCH  20  21
ATOM     21  C   UNL     1      48.174  48.043  36.636  1.00  0.00     0.000 C 
BRANCH  21  22
ATOM     22  C   UNL     1      48.140  48.383  38.138  1.00  0.00    -0.000 C 
BRANCH  22  23
ATOM     23  C   UNL     1      47.072  49.413  38.550  1.00  0.00    -0.000 C 
BRANCH  23  24
ATOM     24  C   UNL     1      46.187  49.862  37.375  1.00  0.00    -0.000 C 
BRANCH  24  25
ATOM     25  C   UNL     1      44.908  49.020  37.248  1.00  0.00    -0.000 C 
BRANCH  25  26
ATOM     26  C   UNL     1      44.506  48.346  38.569  1.00  0.00    -0.000 C 
BRANCH  26  27
ATOM     27  C   UNL     1      44.802  46.840  38.527  1.00  0.00    -0.000 C 
BRANCH  27  28
ATOM     28  C   UNL     1      44.855  46.206  39.926  1.00  0.00    -0.000 C 
BRANCH  28  29
ATOM     29  C   UNL     1      46.207  46.419  40.622  1.00  0.00    -0.003 C 
ATOM     30  C   UNL     1      46.017  46.753  42.099  1.00  0.00     0.004 C 
ENDBRANCH  28  29
ENDBRANCH  27  28
ENDBRANCH  26  27
ENDBRANCH  25  26
ENDBRANCH  24  25
ENDBRANCH  23  24
ENDBRANCH  22  23
ENDBRANCH  21  22
ENDBRANCH  20  21
ENDBRANCH  19  20
ENDBRANCH  18  19
ENDBRANCH  17  18
ENDBRANCH   1  17
TORSDOF 26
ENDMDL
MODEL 8
REMARK VINA RESULT:    -4.865      1.262      2.245
REMARK INTER + INTRA:         -16.832
REMARK INTER:                 -12.352
REMARK INTRA:                  -4.480
REMARK UNBOUND:                -4.573
REMARK SMILES CCCCCCCCCCCCCCCCCCCCCCCCCCCC(=O)[O-]
REMARK SMILES IDX 15 1 16 2 17 3 18 4 19 5 20 6 21 7 22 8 23 9 24 10 25 11
REMARK SMILES IDX 26 12 27 13 28 14 29 15 30 16 14 17 13 18 12 19 11 20 10 21
REMARK SMILES IDX 9 22 8 23 7 24 6 25 5 26 4 27 3 28 2 29 1 30
REMARK H PARENT
REMARK Flexibility Score: inf
ROOT
ATOM      1  C   UNL     1      46.247  43.933  38.436  1.00  0.00     0.000 C 
ENDROOT
BRANCH   1   2
ATOM      2  C   UNL     1      45.282  44.932  39.097  1.00  0.00     0.000 C 
BRANCH   2   3
ATOM      3  C   UNL     1      45.950  45.978  40.014  1.00  0.00     0.000 C 
BRANCH   3   4
ATOM      4  C   UNL     1      45.679  47.447  39.645  1.00  0.00     0.000 C 
BRANCH   4   5
ATOM      5  C   UNL     1      44.559  47.606  38.602  1.00  0.00     0.000 C 
BRANCH   5   6
ATOM      6  C   UNL     1      44.464  49.039  38.054  1.00  0.00     0.000 C 
BRANCH   6   7
ATOM      7  C   UNL     1      45.827  49.750  38.014  1.00  0.00     0.000 C 
BRANCH   7   8
ATOM      8  C   UNL     1      46.575  49.513  36.691  1.00  0.00     0.000 C 
BRANCH   8   9
ATOM      9  C   UNL     1      47.794  48.588  36.857  1.00  0.00     0.000 C 
BRANCH   9  10
ATOM     10  C   UNL     1      47.528  47.163  36.341  1.00  0.00     0.000 C 
BRANCH  10  11
ATOM     11  C   UNL     1      46.297  47.091  35.420  1.00  0.00     0.000 C 
BRANCH  11  12
ATOM     12  C   UNL     1      45.649  45.694  35.401  1.00  0.00     0.006 C 
BRANCH  12  13
ATOM     13  C   UNL     1      46.035  44.832  34.188  1.00  0.00     0.053 C 
BRANCH  13  14
ATOM     14  C   UNL     1      46.819  43.620  34.585  1.00  0.00     0.041 C 
ATOM     15  O   UNL     1      46.245  42.648  35.144  1.00  0.00    -0.550 OA
ATOM     16  O   UNL     1      48.189  43.572  34.359  1.00  0.00    -0.550 OA
ENDBRANCH  13  14
ENDBRANCH  12  13
ENDBRANCH  11  12
ENDBRANCH  10  11
ENDBRANCH   9  10
ENDBRANCH   8   9
ENDBRANCH   7   8
ENDBRANCH   6   7
ENDBRANCH   5   6
ENDBRANCH   4   5
ENDBRANCH   3   4
ENDBRANCH   2   3
ENDBRANCH   1   2
BRANCH   1  17
ATOM     17  C   UNL     1      47.723  44.346  38.575  1.00  0.00     0.000 C 
BRANCH  17  18
ATOM     18  C   UNL     1      48.677  43.378  37.849  1.00  0.00     0.000 C 
BRANCH  18  19
ATOM     19  C   UNL     1      49.010  42.101  38.646  1.00  0.00     0.000 C 
BRANCH  19  20
ATOM     20  C   UNL     1      48.958  40.806  37.812  1.00  0.00     0.000 C 
BRANCH  20  21
ATOM     21  C   UNL     1      47.775  39.903  38.207  1.00  0.00     0.000 C 
BRANCH  21  22
ATOM     22  C   UNL     1      46.623  40.678  38.871  1.00  0.00    -0.000 C 
BRANCH  22  23
ATOM     23  C   UNL     1      45.603  39.808  39.630  1.00  0.00    -0.000 C 
BRANCH  23  24
ATOM     24  C   UNL     1      44.218  39.786  38.960  1.00  0.00    -0.000 C 
BRANCH  24  25
ATOM     25  C   UNL     1      44.243  40.372  37.540  1.00  0.00    -0.000 C 
BRANCH  25  26
ATOM     26  C   UNL     1      43.981  39.317  36.455  1.00  0.00    -0.000 C 
BRANCH  26  27
ATOM     27  C   UNL     1      45.284  38.613  36.049  1.00  0.00    -0.000 C 
BRANCH  27  28
ATOM     28  C   UNL     1      45.231  37.093  36.271  1.00  0.00    -0.000 C 
BRANCH  28  29
ATOM     29  C   UNL     1      46.417  36.573  37.096  1.00  0.00    -0.003 C 
ATOM     30  C   UNL     1      46.080  36.546  38.584  1.00  0.00     0.004 C 
ENDBRANCH  28  29
ENDBRANCH  27  28
ENDBRANCH  26  27
ENDBRANCH  25  26
ENDBRANCH  24  25
ENDBRANCH  23  24
ENDBRANCH  22  23
ENDBRANCH  21  22
ENDBRANCH  20  21
ENDBRANCH  19  20
ENDBRANCH  18  19
ENDBRANCH  17  18
ENDBRANCH   1  17
TORSDOF 26
ENDMDL
MODEL 9
REMARK VINA RESULT:    -4.858      2.296      4.320
REMARK INTER + INTRA:         -16.814
REMARK INTER:                 -12.414
REMARK INTRA:                  -4.400
REMARK UNBOUND:                -4.573
REMARK SMILES CCCCCCCCCCCCCCCCCCCCCCCCCCCC(=O)[O-]
REMARK SMILES IDX 15 1 16 2 17 3 18 4 19 5 20 6 21 7 22 8 23 9 24 10 25 11
REMARK SMILES IDX 26 12 27 13 28 14 29 15 30 16 14 17 13 18 12 19 11 20 10 21
REMARK SMILES IDX 9 22 8 23 7 24 6 25 5 26 4 27 3 28 2 29 1 30
REMARK H PARENT
REMARK Flexibility Score: inf
ROOT
ATOM      1  C   UNL     1      48.016  40.844  37.598  1.00  0.00     0.000 C 
ENDROOT
BRANCH   1   2
ATOM      2  C   UNL     1      49.393  41.224  38.170  1.00  0.00     0.000 C 
BRANCH   2   3
ATOM      3  C   UNL     1      49.896  42.631  37.787  1.00  0.00     0.000 C 
BRANCH   3   4
ATOM      4  C   UNL     1      48.960  43.792  38.167  1.00  0.00     0.000 C 
BRANCH   4   5
ATOM      5  C   UNL     1      48.214  44.382  36.957  1.00  0.00     0.000 C 
BRANCH   5   6
ATOM      6  C   UNL     1      46.687  44.336  37.127  1.00  0.00     0.000 C 
BRANCH   6   7
ATOM      7  C   UNL     1      46.260  44.068  38.581  1.00  0.00     0.000 C 
BRANCH   7   8
ATOM      8  C   UNL     1      45.169  45.040  39.061  1.00  0.00     0.000 C 
BRANCH   8   9
ATOM      9  C   UNL     1      45.650  45.952  40.203  1.00  0.00     0.000 C 
BRANCH   9  10
ATOM     10  C   UNL     1      47.081  46.472  39.983  1.00  0.00     0.000 C 
BRANCH  10  11
ATOM     11  C   UNL     1      47.106  47.905  39.424  1.00  0.00     0.000 C 
BRANCH  11  12
ATOM     12  C   UNL     1      47.234  47.944  37.889  1.00  0.00     0.006 C 
BRANCH  12  13
ATOM     13  C   UNL     1      45.894  48.041  37.143  1.00  0.00     0.053 C 
BRANCH  13  14
ATOM     14  C   UNL     1      44.910  48.911  37.861  1.00  0.00     0.041 C 
ATOM     15  O   UNL     1      45.143  50.140  38.014  1.00  0.00    -0.550 OA
ATOM     16  O   UNL     1      43.747  48.362  38.385  1.00  0.00    -0.550 OA
ENDBRANCH  13  14
ENDBRANCH  12  13
ENDBRANCH  11  12
ENDBRANCH  10  11
ENDBRANCH   9  10
ENDBRANCH   8   9
ENDBRANCH   7   8
ENDBRANCH   6   7
ENDBRANCH   5   6
ENDBRANCH   4   5
ENDBRANCH   3   4
ENDBRANCH   2   3
ENDBRANCH   1   2
BRANCH   1  17
ATOM     17  C   UNL     1      48.009  40.766  36.061  1.00  0.00     0.000 C 
BRANCH  17  18
ATOM     18  C   UNL     1      46.627  40.383  35.497  1.00  0.00     0.000 C 
BRANCH  18  19
ATOM     19  C   UNL     1      45.445  41.104  36.175  1.00  0.00     0.000 C 
BRANCH  19  20
ATOM     20  C   UNL     1      44.453  40.160  36.883  1.00  0.00     0.000 C 
BRANCH  20  21
ATOM     21  C   UNL     1      44.028  40.687  38.265  1.00  0.00     0.000 C 
BRANCH  21  22
ATOM     22  C   UNL     1      44.176  39.637  39.381  1.00  0.00    -0.000 C 
BRANCH  22  23
ATOM     23  C   UNL     1      45.499  38.850  39.366  1.00  0.00    -0.000 C 
BRANCH  23  24
ATOM     24  C   UNL     1      45.290  37.326  39.316  1.00  0.00    -0.000 C 
BRANCH  24  25
ATOM     25  C   UNL     1      46.433  36.600  38.590  1.00  0.00    -0.000 C 
BRANCH  25  26
ATOM     26  C   UNL     1      47.092  37.464  37.504  1.00  0.00    -0.000 C 
BRANCH  26  27
ATOM     27  C   UNL     1      47.645  36.589  36.369  1.00  0.00    -0.000 C 
BRANCH  27  28
ATOM     28  C   UNL     1      46.537  35.912  35.547  1.00  0.00    -0.000 C 
BRANCH  28  29
ATOM     29  C   UNL     1      47.044  34.698  34.756  1.00  0.00    -0.003 C 
ATOM     30  C   UNL     1      45.990  34.208  33.769  1.00  0.00     0.004 C 
ENDBRANCH  28  29
ENDBRANCH  27  28
ENDBRANCH  26  27
ENDBRANCH  25  26
ENDBRANCH  24  25
ENDBRANCH  23  24
ENDBRANCH  22  23
ENDBRANCH  21  22
ENDBRANCH  20  21
ENDBRANCH  19  20
ENDBRANCH  18  19
ENDBRANCH  17  18
ENDBRANCH   1  17
TORSDOF 26
ENDMDL
