MODEL 1
REMARK VINA RESULT:    -5.155      0.000      0.000
REMARK INTER + INTRA:          -5.742
REMARK INTER:                  -5.607
REMARK INTRA:                  -0.135
REMARK UNBOUND:                -0.135
REMARK SMILES CC(=O)c1cc(C)ccc1O
REMARK SMILES IDX 7 1 6 2 5 3 4 4 10 5 9 6 8 7 2 8 3 9 1 10 11 11
REMARK H PARENT 11 12
REMARK Flexibility Score: inf
ROOT
ATOM      1  C   UNL     1       6.165  -1.821  51.406  1.00  0.00     0.044 C 
ATOM      2  C   UNL     1       6.816  -1.943  50.059  1.00  0.00    -0.050 A 
ATOM      3  C   UNL     1       6.124  -1.556  48.903  1.00  0.00     0.019 A 
ATOM      4  C   UNL     1       6.735  -1.621  47.635  1.00  0.00     0.059 A 
ATOM      5  C   UNL     1       8.065  -2.096  47.544  1.00  0.00     0.126 A 
ATOM      6  C   UNL     1       8.759  -2.458  48.707  1.00  0.00     0.047 A 
ATOM      7  C   UNL     1       8.144  -2.375  49.955  1.00  0.00     0.007 A 
ENDROOT
BRANCH   4   8
ATOM      8  C   UNL     1       5.955  -1.198  46.442  1.00  0.00     0.163 C 
ATOM      9  O   UNL     1       5.975   0.012  46.087  1.00  0.00    -0.294 OA
ATOM     10  C   UNL     1       5.139  -2.160  45.634  1.00  0.00     0.093 C 
ENDBRANCH   4   8
BRANCH   5  11
ATOM     11  O   UNL     1       8.693  -2.230  46.306  1.00  0.00    -0.507 OA
ATOM     12  H   UNL     1       8.461  -1.629  45.523  1.00  0.00     0.293 HD
ENDBRANCH   5  11
TORSDOF 2
ENDMDL
MODEL 2
REMARK VINA RESULT:    -5.087      2.551      3.983
REMARK INTER + INTRA:          -5.668
REMARK INTER:                  -5.368
REMARK INTRA:                  -0.300
REMARK UNBOUND:                -0.135
REMARK SMILES CC(=O)c1cc(C)ccc1O
REMARK SMILES IDX 7 1 6 2 5 3 4 4 10 5 9 6 8 7 2 8 3 9 1 10 11 11
REMARK H PARENT 11 12
REMARK Flexibility Score: inf
ROOT
ATOM      1  C   UNL     1       6.615   0.048  46.676  1.00  0.00     0.044 C 
ATOM      2  C   UNL     1       6.994  -1.180  47.452  1.00  0.00    -0.050 A 
ATOM      3  C   UNL     1       6.514  -1.367  48.756  1.00  0.00     0.019 A 
ATOM      4  C   UNL     1       6.821  -2.534  49.482  1.00  0.00     0.059 A 
ATOM      5  C   UNL     1       7.637  -3.518  48.875  1.00  0.00     0.126 A 
ATOM      6  C   UNL     1       8.092  -3.336  47.562  1.00  0.00     0.047 A 
ATOM      7  C   UNL     1       7.768  -2.181  46.852  1.00  0.00     0.007 A 
ENDROOT
BRANCH   4   8
ATOM      8  C   UNL     1       6.285  -2.681  50.861  1.00  0.00     0.163 C 
ATOM      9  O   UNL     1       5.609  -3.703  51.157  1.00  0.00    -0.294 OA
ATOM     10  C   UNL     1       6.520  -1.654  51.927  1.00  0.00     0.093 C 
ENDBRANCH   4   8
BRANCH   5  11
ATOM     11  O   UNL     1       8.012  -4.665  49.573  1.00  0.00    -0.507 OA
ATOM     12  H   UNL     1       8.982  -4.860  49.796  1.00  0.00     0.293 HD
ENDBRANCH   5  11
TORSDOF 2
ENDMDL
MODEL 3
REMARK VINA RESULT:    -5.041      1.965      2.393
REMARK INTER + INTRA:          -5.618
REMARK INTER:                  -5.381
REMARK INTRA:                  -0.237
REMARK UNBOUND:                -0.135
REMARK SMILES CC(=O)c1cc(C)ccc1O
REMARK SMILES IDX 7 1 6 2 5 3 4 4 10 5 9 6 8 7 2 8 3 9 1 10 11 11
REMARK H PARENT 11 12
REMARK Flexibility Score: inf
ROOT
ATOM      1  C   UNL     1       6.603  -1.624  51.832  1.00  0.00     0.044 C 
ATOM      2  C   UNL     1       6.173  -2.281  50.553  1.00  0.00    -0.050 A 
ATOM      3  C   UNL     1       6.160  -1.553  49.355  1.00  0.00     0.019 A 
ATOM      4  C   UNL     1       5.804  -2.165  48.138  1.00  0.00     0.059 A 
ATOM      5  C   UNL     1       5.447  -3.534  48.143  1.00  0.00     0.126 A 
ATOM      6  C   UNL     1       5.487  -4.262  49.340  1.00  0.00     0.047 A 
ATOM      7  C   UNL     1       5.854  -3.644  50.534  1.00  0.00     0.007 A 
ENDROOT
BRANCH   4   8
ATOM      8  C   UNL     1       5.807  -1.345  46.897  1.00  0.00     0.163 C 
ATOM      9  O   UNL     1       5.110  -1.712  45.912  1.00  0.00    -0.294 OA
ATOM     10  C   UNL     1       6.609  -0.086  46.768  1.00  0.00     0.093 C 
ENDBRANCH   4   8
BRANCH   5  11
ATOM     11  O   UNL     1       5.035  -4.170  46.972  1.00  0.00    -0.507 OA
ATOM     12  H   UNL     1       4.776  -5.150  46.961  1.00  0.00     0.293 HD
ENDBRANCH   5  11
TORSDOF 2
ENDMDL
MODEL 4
REMARK VINA RESULT:    -5.034      2.267      2.744
REMARK INTER + INTRA:          -5.611
REMARK INTER:                  -5.306
REMARK INTRA:                  -0.305
REMARK UNBOUND:                -0.135
REMARK SMILES CC(=O)c1cc(C)ccc1O
REMARK SMILES IDX 7 1 6 2 5 3 4 4 10 5 9 6 8 7 2 8 3 9 1 10 11 11
REMARK H PARENT 11 12
REMARK Flexibility Score: inf
ROOT
ATOM      1  C   UNL     1       8.857  -5.850  49.724  1.00  0.00     0.044 C 
ATOM      2  C   UNL     1       8.597  -4.719  48.772  1.00  0.00    -0.050 A 
ATOM      3  C   UNL     1       7.288  -4.429  48.361  1.00  0.00     0.019 A 
ATOM      4  C   UNL     1       7.019  -3.344  47.505  1.00  0.00     0.059 A 
ATOM      5  C   UNL     1       8.100  -2.550  47.053  1.00  0.00     0.126 A 
ATOM      6  C   UNL     1       9.403  -2.830  47.488  1.00  0.00     0.047 A 
ATOM      7  C   UNL     1       9.649  -3.900  48.346  1.00  0.00     0.007 A 
ENDROOT
BRANCH   4   8
ATOM      8  C   UNL     1       5.612  -3.082  47.100  1.00  0.00     0.163 C 
ATOM      9  O   UNL     1       5.345  -2.885  45.884  1.00  0.00    -0.294 OA
ATOM     10  C   UNL     1       4.486  -3.046  48.089  1.00  0.00     0.093 C 
ENDBRANCH   4   8
BRANCH   5  11
ATOM     11  O   UNL     1       7.890  -1.498  46.161  1.00  0.00    -0.507 OA
ATOM     12  H   UNL     1       6.972  -1.088  46.026  1.00  0.00     0.293 HD
ENDBRANCH   5  11
TORSDOF 2
ENDMDL
MODEL 5
REMARK VINA RESULT:    -5.033      2.131      3.579
REMARK INTER + INTRA:          -5.609
REMARK INTER:                  -5.310
REMARK INTRA:                  -0.300
REMARK UNBOUND:                -0.135
REMARK SMILES CC(=O)c1cc(C)ccc1O
REMARK SMILES IDX 7 1 6 2 5 3 4 4 10 5 9 6 8 7 2 8 3 9 1 10 11 11
REMARK H PARENT 11 12
REMARK Flexibility Score: inf
ROOT
ATOM      1  C   UNL     1      10.061  -3.241  49.004  1.00  0.00     0.044 C 
ATOM      2  C   UNL     1       8.698  -2.699  48.684  1.00  0.00    -0.050 A 
ATOM      3  C   UNL     1       7.551  -3.338  49.176  1.00  0.00     0.019 A 
ATOM      4  C   UNL     1       6.267  -2.818  48.924  1.00  0.00     0.059 A 
ATOM      5  C   UNL     1       6.149  -1.639  48.152  1.00  0.00     0.126 A 
ATOM      6  C   UNL     1       7.301  -0.992  47.684  1.00  0.00     0.047 A 
ATOM      7  C   UNL     1       8.566  -1.512  47.954  1.00  0.00     0.007 A 
ENDROOT
BRANCH   4   8
ATOM      8  C   UNL     1       5.085  -3.537  49.471  1.00  0.00     0.163 C 
ATOM      9  O   UNL     1       4.061  -3.682  48.749  1.00  0.00    -0.294 OA
ATOM     10  C   UNL     1       5.060  -4.103  50.858  1.00  0.00     0.093 C 
ENDBRANCH   4   8
BRANCH   5  11
ATOM     11  O   UNL     1       4.896  -1.117  47.831  1.00  0.00    -0.507 OA
ATOM     12  H   UNL     1       4.758  -0.523  47.021  1.00  0.00     0.293 HD
ENDBRANCH   5  11
TORSDOF 2
ENDMDL
MODEL 6
REMARK VINA RESULT:    -4.968      1.799      2.848
REMARK INTER + INTRA:          -5.539
REMARK INTER:                  -5.240
REMARK INTRA:                  -0.300
REMARK UNBOUND:                -0.135
REMARK SMILES CC(=O)c1cc(C)ccc1O
REMARK SMILES IDX 7 1 6 2 5 3 4 4 10 5 9 6 8 7 2 8 3 9 1 10 11 11
REMARK H PARENT 11 12
REMARK Flexibility Score: inf
ROOT
ATOM      1  C   UNL     1      10.009  -3.506  48.987  1.00  0.00     0.044 C 
ATOM      2  C   UNL     1       8.534  -3.275  48.825  1.00  0.00    -0.050 A 
ATOM      3  C   UNL     1       8.065  -2.346  47.886  1.00  0.00     0.019 A 
ATOM      4  C   UNL     1       6.684  -2.148  47.688  1.00  0.00     0.059 A 
ATOM      5  C   UNL     1       5.771  -2.900  48.464  1.00  0.00     0.126 A 
ATOM      6  C   UNL     1       6.248  -3.846  49.383  1.00  0.00     0.047 A 
ATOM      7  C   UNL     1       7.617  -4.038  49.557  1.00  0.00     0.007 A 
ENDROOT
BRANCH   4   8
ATOM      8  C   UNL     1       6.242  -1.150  46.679  1.00  0.00     0.163 C 
ATOM      9  O   UNL     1       5.458  -1.506  45.758  1.00  0.00    -0.294 OA
ATOM     10  C   UNL     1       6.692   0.280  46.713  1.00  0.00     0.093 C 
ENDBRANCH   4   8
BRANCH   5  11
ATOM     11  O   UNL     1       4.396  -2.701  48.342  1.00  0.00    -0.507 OA
ATOM     12  H   UNL     1       3.854  -3.156  47.616  1.00  0.00     0.293 HD
ENDBRANCH   5  11
TORSDOF 2
ENDMDL
MODEL 7
REMARK VINA RESULT:    -4.963     13.131     13.532
REMARK INTER + INTRA:          -5.533
REMARK INTER:                  -5.235
REMARK INTRA:                  -0.299
REMARK UNBOUND:                -0.135
REMARK SMILES CC(=O)c1cc(C)ccc1O
REMARK SMILES IDX 7 1 6 2 5 3 4 4 10 5 9 6 8 7 2 8 3 9 1 10 11 11
REMARK H PARENT 11 12
REMARK Flexibility Score: inf
ROOT
ATOM      1  C   UNL     1       6.032  10.935  45.955  1.00  0.00     0.044 C 
ATOM      2  C   UNL     1       5.043  11.023  47.080  1.00  0.00    -0.050 A 
ATOM      3  C   UNL     1       3.691  10.725  46.856  1.00  0.00     0.019 A 
ATOM      4  C   UNL     1       2.757  10.758  47.909  1.00  0.00     0.059 A 
ATOM      5  C   UNL     1       3.203  11.108  49.205  1.00  0.00     0.126 A 
ATOM      6  C   UNL     1       4.561  11.380  49.427  1.00  0.00     0.047 A 
ATOM      7  C   UNL     1       5.475  11.330  48.376  1.00  0.00     0.007 A 
ENDROOT
BRANCH   4   8
ATOM      8  C   UNL     1       1.335  10.433  47.615  1.00  0.00     0.163 C 
ATOM      9  O   UNL     1       0.421  11.125  48.141  1.00  0.00    -0.294 OA
ATOM     10  C   UNL     1       0.940   9.308  46.707  1.00  0.00     0.093 C 
ENDBRANCH   4   8
BRANCH   5  11
ATOM     11  O   UNL     1       2.306  11.206  50.268  1.00  0.00    -0.507 OA
ATOM     12  H   UNL     1       1.390  11.626  50.156  1.00  0.00     0.293 HD
ENDBRANCH   5  11
TORSDOF 2
ENDMDL
MODEL 8
REMARK VINA RESULT:    -4.926      2.650      3.418
REMARK INTER + INTRA:          -5.493
REMARK INTER:                  -5.188
REMARK INTRA:                  -0.304
REMARK UNBOUND:                -0.135
REMARK SMILES CC(=O)c1cc(C)ccc1O
REMARK SMILES IDX 7 1 6 2 5 3 4 4 10 5 9 6 8 7 2 8 3 9 1 10 11 11
REMARK H PARENT 11 12
REMARK Flexibility Score: inf
ROOT
ATOM      1  C   UNL     1       6.123  -1.671  50.255  1.00  0.00     0.044 C 
ATOM      2  C   UNL     1       5.941  -1.979  48.797  1.00  0.00    -0.050 A 
ATOM      3  C   UNL     1       5.762  -3.303  48.372  1.00  0.00     0.019 A 
ATOM      4  C   UNL     1       5.544  -3.606  47.014  1.00  0.00     0.059 A 
ATOM      5  C   UNL     1       5.519  -2.547  46.076  1.00  0.00     0.126 A 
ATOM      6  C   UNL     1       5.673  -1.224  46.512  1.00  0.00     0.047 A 
ATOM      7  C   UNL     1       5.875  -0.940  47.861  1.00  0.00     0.007 A 
ENDROOT
BRANCH   4   8
ATOM      8  C   UNL     1       5.360  -5.028  46.619  1.00  0.00     0.163 C 
ATOM      9  O   UNL     1       4.361  -5.352  45.921  1.00  0.00    -0.294 OA
ATOM     10  C   UNL     1       6.325  -6.103  47.018  1.00  0.00     0.093 C 
ENDBRANCH   4   8
BRANCH   5  11
ATOM     11  O   UNL     1       5.360  -2.802  44.714  1.00  0.00    -0.507 OA
ATOM     12  H   UNL     1       6.017  -3.378  44.200  1.00  0.00     0.293 HD
ENDBRANCH   5  11
TORSDOF 2
ENDMDL
MODEL 9
REMARK VINA RESULT:    -4.849      2.759      4.240
REMARK INTER + INTRA:          -5.409
REMARK INTER:                  -5.146
REMARK INTRA:                  -0.263
REMARK UNBOUND:                -0.135
REMARK SMILES CC(=O)c1cc(C)ccc1O
REMARK SMILES IDX 7 1 6 2 5 3 4 4 10 5 9 6 8 7 2 8 3 9 1 10 11 11
REMARK H PARENT 11 12
REMARK Flexibility Score: inf
ROOT
ATOM      1  C   UNL     1       6.630   0.238  46.742  1.00  0.00     0.044 C 
ATOM      2  C   UNL     1       6.617  -1.257  46.876  1.00  0.00    -0.050 A 
ATOM      3  C   UNL     1       7.740  -1.930  47.378  1.00  0.00     0.019 A 
ATOM      4  C   UNL     1       7.730  -3.327  47.554  1.00  0.00     0.059 A 
ATOM      5  C   UNL     1       6.565  -4.049  47.203  1.00  0.00     0.126 A 
ATOM      6  C   UNL     1       5.438  -3.367  46.725  1.00  0.00     0.047 A 
ATOM      7  C   UNL     1       5.460  -1.982  46.570  1.00  0.00     0.007 A 
ENDROOT
BRANCH   4   8
ATOM      8  C   UNL     1       8.949  -3.990  48.090  1.00  0.00     0.163 C 
ATOM      9  O   UNL     1       9.167  -5.201  47.815  1.00  0.00    -0.294 OA
ATOM     10  C   UNL     1       9.942  -3.269  48.952  1.00  0.00     0.093 C 
ENDBRANCH   4   8
BRANCH   5  11
ATOM     11  O   UNL     1       6.527  -5.439  47.308  1.00  0.00    -0.507 OA
ATOM     12  H   UNL     1       6.803  -6.040  46.539  1.00  0.00     0.293 HD
ENDBRANCH   5  11
TORSDOF 2
ENDMDL
