MODEL 1
REMARK VINA RESULT:    -2.302      0.000      0.000
REMARK INTER + INTRA:          -2.586
REMARK INTER:                  -2.571
REMARK INTRA:                  -0.015
REMARK UNBOUND:                -0.015
REMARK SMILES CCCC(=O)[O-]
REMARK SMILES IDX 3 1 4 2 5 3 6 4 2 5 1 6
REMARK H PARENT
REMARK Flexibility Score: inf
ROOT
ATOM      1  C   UNL     1      24.517  31.271  -7.212  1.00  0.00     0.052 C 
ENDROOT
BRANCH   1   2
ATOM      2  C   UNL     1      25.328  32.355  -7.854  1.00  0.00     0.041 C 
ATOM      3  O   UNL     1      26.543  32.161  -8.125  1.00  0.00    -0.550 OA
ATOM      4  O   UNL     1      24.753  33.590  -8.122  1.00  0.00    -0.550 OA
ENDBRANCH   1   2
BRANCH   1   5
ATOM      5  C   UNL     1      23.360  30.818  -8.112  1.00  0.00     0.003 C 
ATOM      6  C   UNL     1      22.041  31.502  -7.752  1.00  0.00     0.004 C 
ENDBRANCH   1   5
TORSDOF 2
ENDMDL
MODEL 2
REMARK VINA RESULT:    -2.050      2.145      3.437
REMARK INTER + INTRA:          -2.304
REMARK INTER:                  -2.297
REMARK INTRA:                  -0.007
REMARK UNBOUND:                -0.015
REMARK SMILES CCCC(=O)[O-]
REMARK SMILES IDX 3 1 4 2 5 3 6 4 2 5 1 6
REMARK H PARENT
REMARK Flexibility Score: inf
ROOT
ATOM      1  C   UNL     1      24.807  31.301  -7.261  1.00  0.00     0.052 C 
ENDROOT
BRANCH   1   2
ATOM      2  C   UNL     1      23.432  31.072  -7.809  1.00  0.00     0.041 C 
ATOM      3  O   UNL     1      22.642  32.041  -7.962  1.00  0.00    -0.550 OA
ATOM      4  O   UNL     1      23.011  29.785  -8.119  1.00  0.00    -0.550 OA
ENDBRANCH   1   2
BRANCH   1   5
ATOM      5  C   UNL     1      25.508  32.475  -7.958  1.00  0.00     0.003 C 
ATOM      6  C   UNL     1      27.009  32.240  -8.125  1.00  0.00     0.004 C 
ENDBRANCH   1   5
TORSDOF 2
ENDMDL
MODEL 3
REMARK VINA RESULT:    -1.610      2.404      3.251
REMARK INTER + INTRA:          -1.813
REMARK INTER:                  -1.779
REMARK INTRA:                  -0.034
REMARK UNBOUND:                -0.015
REMARK SMILES CCCC(=O)[O-]
REMARK SMILES IDX 3 1 4 2 5 3 6 4 2 5 1 6
REMARK H PARENT
REMARK Flexibility Score: inf
ROOT
ATOM      1  C   UNL     1      24.151  32.817  -8.125  1.00  0.00     0.052 C 
ENDROOT
BRANCH   1   2
ATOM      2  C   UNL     1      22.667  32.607  -8.117  1.00  0.00     0.041 C 
ATOM      3  O   UNL     1      21.888  33.595  -8.121  1.00  0.00    -0.550 OA
ATOM      4  O   UNL     1      22.146  31.320  -8.070  1.00  0.00    -0.550 OA
ENDBRANCH   1   2
BRANCH   1   5
ATOM      5  C   UNL     1      24.914  31.490  -8.017  1.00  0.00     0.003 C 
ATOM      6  C   UNL     1      25.669  31.359  -6.695  1.00  0.00     0.004 C 
ENDBRANCH   1   5
TORSDOF 2
ENDMDL
MODEL 4
REMARK VINA RESULT:    -1.175     13.269     13.940
REMARK INTER + INTRA:          -1.328
REMARK INTER:                  -1.312
REMARK INTRA:                  -0.015
REMARK UNBOUND:                -0.015
REMARK SMILES CCCC(=O)[O-]
REMARK SMILES IDX 3 1 4 2 5 3 6 4 2 5 1 6
REMARK H PARENT
REMARK Flexibility Score: inf
ROOT
ATOM      1  C   UNL     1      34.605  29.712   0.059  1.00  0.00     0.052 C 
ENDROOT
BRANCH   1   2
ATOM      2  C   UNL     1      35.554  30.532   0.878  1.00  0.00     0.041 C 
ATOM      3  O   UNL     1      35.118  31.451   1.621  1.00  0.00    -0.550 OA
ATOM      4  O   UNL     1      36.922  30.304   0.797  1.00  0.00    -0.550 OA
ENDBRANCH   1   2
BRANCH   1   5
ATOM      5  C   UNL     1      35.220  28.366  -0.346  1.00  0.00     0.003 C 
ATOM      6  C   UNL     1      34.709  27.877  -1.701  1.00  0.00     0.004 C 
ENDBRANCH   1   5
TORSDOF 2
ENDMDL
MODEL 5
REMARK VINA RESULT:    -0.690     12.912     14.027
REMARK INTER + INTRA:          -0.785
REMARK INTER:                  -0.775
REMARK INTRA:                  -0.010
REMARK UNBOUND:                -0.015
REMARK SMILES CCCC(=O)[O-]
REMARK SMILES IDX 3 1 4 2 5 3 6 4 2 5 1 6
REMARK H PARENT
REMARK Flexibility Score: inf
ROOT
ATOM      1  C   UNL     1      35.764  29.044   0.321  1.00  0.00     0.052 C 
ENDROOT
BRANCH   1   2
ATOM      2  C   UNL     1      34.546  28.953  -0.545  1.00  0.00     0.041 C 
ATOM      3  O   UNL     1      33.583  29.745  -0.370  1.00  0.00    -0.550 OA
ATOM      4  O   UNL     1      34.459  27.972  -1.525  1.00  0.00    -0.550 OA
ENDBRANCH   1   2
BRANCH   1   5
ATOM      5  C   UNL     1      35.952  30.456   0.891  1.00  0.00     0.003 C 
ATOM      6  C   UNL     1      37.409  30.750   1.249  1.00  0.00     0.004 C 
ENDBRANCH   1   5
TORSDOF 2
ENDMDL
MODEL 6
REMARK VINA RESULT:    -0.626     12.923     13.988
REMARK INTER + INTRA:          -0.714
REMARK INTER:                  -0.707
REMARK INTRA:                  -0.008
REMARK UNBOUND:                -0.015
REMARK SMILES CCCC(=O)[O-]
REMARK SMILES IDX 3 1 4 2 5 3 6 4 2 5 1 6
REMARK H PARENT
REMARK Flexibility Score: inf
ROOT
ATOM      1  C   UNL     1      35.797  29.095   0.264  1.00  0.00     0.052 C 
ENDROOT
BRANCH   1   2
ATOM      2  C   UNL     1      34.503  29.020  -0.486  1.00  0.00     0.041 C 
ATOM      3  O   UNL     1      34.363  28.195  -1.426  1.00  0.00    -0.550 OA
ATOM      4  O   UNL     1      33.462  29.884  -0.168  1.00  0.00    -0.550 OA
ENDBRANCH   1   2
BRANCH   1   5
ATOM      5  C   UNL     1      36.014  30.481   0.886  1.00  0.00     0.003 C 
ATOM      6  C   UNL     1      37.464  30.705   1.318  1.00  0.00     0.004 C 
ENDBRANCH   1   5
TORSDOF 2
ENDMDL
MODEL 7
REMARK VINA RESULT:    -0.579      2.088      3.008
REMARK INTER + INTRA:          -0.661
REMARK INTER:                  -0.626
REMARK INTRA:                  -0.035
REMARK UNBOUND:                -0.015
REMARK SMILES CCCC(=O)[O-]
REMARK SMILES IDX 3 1 4 2 5 3 6 4 2 5 1 6
REMARK H PARENT
REMARK Flexibility Score: inf
ROOT
ATOM      1  C   UNL     1      24.790  32.302  -7.012  1.00  0.00     0.052 C 
ENDROOT
BRANCH   1   2
ATOM      2  C   UNL     1      23.750  33.224  -7.570  1.00  0.00     0.041 C 
ATOM      3  O   UNL     1      22.571  32.817  -7.743  1.00  0.00    -0.550 OA
ATOM      4  O   UNL     1      24.089  34.522  -7.930  1.00  0.00    -0.550 OA
ENDBRANCH   1   2
BRANCH   1   5
ATOM      5  C   UNL     1      25.654  31.683  -8.119  1.00  0.00     0.003 C 
ATOM      6  C   UNL     1      27.079  32.237  -8.124  1.00  0.00     0.004 C 
ENDBRANCH   1   5
TORSDOF 2
ENDMDL
MODEL 8
REMARK VINA RESULT:    -0.476      9.712     10.422
REMARK INTER + INTRA:          -0.546
REMARK INTER:                  -0.519
REMARK INTRA:                  -0.027
REMARK UNBOUND:                -0.015
REMARK SMILES CCCC(=O)[O-]
REMARK SMILES IDX 3 1 4 2 5 3 6 4 2 5 1 6
REMARK H PARENT
REMARK Flexibility Score: inf
ROOT
ATOM      1  C   UNL     1      27.082  28.348   1.216  1.00  0.00     0.052 C 
ENDROOT
BRANCH   1   2
ATOM      2  C   UNL     1      28.495  28.192   1.689  1.00  0.00     0.041 C 
ATOM      3  O   UNL     1      29.451  28.317   0.880  1.00  0.00    -0.550 OA
ATOM      4  O   UNL     1      28.755  27.875   3.016  1.00  0.00    -0.550 OA
ENDBRANCH   1   2
BRANCH   1   5
ATOM      5  C   UNL     1      26.746  29.812   0.903  1.00  0.00     0.003 C 
ATOM      6  C   UNL     1      26.851  30.128  -0.589  1.00  0.00     0.004 C 
ENDBRANCH   1   5
TORSDOF 2
ENDMDL
