MODEL 1
REMARK VINA RESULT:     2.157      0.000      0.000
REMARK INTER + INTRA:           2.277
REMARK INTER:                   2.598
REMARK INTRA:                  -0.321
REMARK UNBOUND:                -0.321
REMARK SMILES O=c1c(O)c(-c2ccc(O)c(O)c2)oc2cc(O)cc(O)c12
REMARK SMILES IDX 5 1 3 2 2 3 1 4 22 5 20 6 19 7 17 8 16 9 15 10 14 11 6 12
REMARK SMILES IDX 7 13 8 14 9 15 13 16 11 17 10 18 12 20 4 22 21 24 18 26
REMARK H PARENT 10 19 12 21 4 23 21 25 18 27
REMARK Flexibility Score: inf
ROOT
ATOM      1  C   UNL     1       8.313  16.879  37.960  1.00  0.00     0.180 A 
ATOM      2  C   UNL     1       8.561  15.768  38.784  1.00  0.00     0.208 A 
ATOM      3  C   UNL     1       8.446  15.914  40.176  1.00  0.00     0.238 A 
ATOM      4  O   UNL     1       8.615  14.902  40.906  1.00  0.00    -0.285 OA
ATOM      5  C   UNL     1       8.101  17.172  40.727  1.00  0.00     0.111 A 
ATOM      6  C   UNL     1       7.997  17.444  42.124  1.00  0.00     0.134 A 
ATOM      7  C   UNL     1       7.522  18.690  42.552  1.00  0.00     0.093 A 
ATOM      8  C   UNL     1       7.211  19.695  41.636  1.00  0.00     0.123 A 
ATOM      9  C   UNL     1       7.367  19.460  40.269  1.00  0.00     0.094 A 
ATOM     10  C   UNL     1       7.804  18.214  39.811  1.00  0.00     0.146 A 
ATOM     11  O   UNL     1       7.928  18.029  38.502  1.00  0.00    -0.452 OA
ENDROOT
BRANCH   1  12
ATOM     12  C   UNL     1       8.438  16.810  36.485  1.00  0.00     0.025 A 
ATOM     13  C   UNL     1       9.671  17.102  35.883  1.00  0.00     0.016 A 
ATOM     14  C   UNL     1       9.817  17.022  34.495  1.00  0.00     0.051 A 
ATOM     15  C   UNL     1       8.739  16.637  33.692  1.00  0.00     0.157 A 
ATOM     16  C   UNL     1       7.361  16.401  35.678  1.00  0.00     0.062 A 
ATOM     17  C   UNL     1       7.506  16.320  34.285  1.00  0.00     0.158 A 
BRANCH  15  18
ATOM     18  O   UNL     1       8.914  16.569  32.310  1.00  0.00    -0.504 OA
ATOM     19  H   UNL     1       9.696  16.080  31.890  1.00  0.00     0.293 HD
ENDBRANCH  15  18
BRANCH  17  20
ATOM     20  O   UNL     1       6.432  15.921  33.492  1.00  0.00    -0.504 OA
ATOM     21  H   UNL     1       5.548  16.418  33.504  1.00  0.00     0.293 HD
ENDBRANCH  17  20
ENDBRANCH   1  12
BRANCH   2  22
ATOM     22  O   UNL     1       8.877  14.530  38.219  1.00  0.00    -0.502 OA
ATOM     23  H   UNL     1       8.173  13.913  37.833  1.00  0.00     0.293 HD
ENDBRANCH   2  22
BRANCH   6  24
ATOM     24  O   UNL     1       8.369  16.541  43.124  1.00  0.00    -0.507 OA
ATOM     25  H   UNL     1       9.233  16.584  43.645  1.00  0.00     0.293 HD
ENDBRANCH   6  24
BRANCH   8  26
ATOM     26  O   UNL     1       6.756  20.928  42.098  1.00  0.00    -0.508 OA
ATOM     27  H   UNL     1       7.030  21.288  43.004  1.00  0.00     0.293 HD
ENDBRANCH   8  26
TORSDOF 6
ENDMDL
MODEL 2
REMARK VINA RESULT:     4.925      1.267      2.958
REMARK INTER + INTRA:           5.611
REMARK INTER:                   5.903
REMARK INTRA:                  -0.292
REMARK UNBOUND:                -0.321
REMARK SMILES O=c1c(O)c(-c2ccc(O)c(O)c2)oc2cc(O)cc(O)c12
REMARK SMILES IDX 5 1 3 2 2 3 1 4 22 5 20 6 19 7 17 8 16 9 15 10 14 11 6 12
REMARK SMILES IDX 7 13 8 14 9 15 13 16 11 17 10 18 12 20 4 22 21 24 18 26
REMARK H PARENT 10 19 12 21 4 23 21 25 18 27
REMARK Flexibility Score: inf
ROOT
ATOM      1  C   UNL     1       8.194  17.187  38.204  1.00  0.00     0.180 A 
ATOM      2  C   UNL     1       7.865  18.409  38.816  1.00  0.00     0.208 A 
ATOM      3  C   UNL     1       7.629  18.435  40.199  1.00  0.00     0.238 A 
ATOM      4  O   UNL     1       7.390  19.541  40.751  1.00  0.00    -0.285 OA
ATOM      5  C   UNL     1       7.709  17.238  40.951  1.00  0.00     0.111 A 
ATOM      6  C   UNL     1       7.449  17.140  42.351  1.00  0.00     0.134 A 
ATOM      7  C   UNL     1       7.684  15.930  43.015  1.00  0.00     0.093 A 
ATOM      8  C   UNL     1       8.106  14.798  42.319  1.00  0.00     0.123 A 
ATOM      9  C   UNL     1       8.306  14.865  40.939  1.00  0.00     0.094 A 
ATOM     10  C   UNL     1       8.114  16.069  40.256  1.00  0.00     0.146 A 
ATOM     11  O   UNL     1       8.325  16.093  38.945  1.00  0.00    -0.452 OA
ENDROOT
BRANCH   1  12
ATOM     12  C   UNL     1       8.432  17.075  36.745  1.00  0.00     0.025 A 
ATOM     13  C   UNL     1       9.683  17.431  36.221  1.00  0.00     0.016 A 
ATOM     14  C   UNL     1       9.937  17.313  34.852  1.00  0.00     0.051 A 
ATOM     15  C   UNL     1       8.951  16.824  33.990  1.00  0.00     0.157 A 
ATOM     16  C   UNL     1       7.449  16.563  35.881  1.00  0.00     0.062 A 
ATOM     17  C   UNL     1       7.701  16.442  34.506  1.00  0.00     0.158 A 
BRANCH  15  18
ATOM     18  O   UNL     1       9.232  16.720  32.628  1.00  0.00    -0.504 OA
ATOM     19  H   UNL     1       9.376  17.536  32.045  1.00  0.00     0.293 HD
ENDBRANCH  15  18
BRANCH  17  20
ATOM     20  O   UNL     1       6.719  15.940  33.655  1.00  0.00    -0.504 OA
ATOM     21  H   UNL     1       6.084  16.553  33.156  1.00  0.00     0.293 HD
ENDBRANCH  17  20
ENDBRANCH   1  12
BRANCH   2  22
ATOM     22  O   UNL     1       7.815  19.582  38.059  1.00  0.00    -0.502 OA
ATOM     23  H   UNL     1       8.493  19.793  37.337  1.00  0.00     0.293 HD
ENDBRANCH   2  22
BRANCH   6  24
ATOM     24  O   UNL     1       6.938  18.187  43.124  1.00  0.00    -0.507 OA
ATOM     25  H   UNL     1       6.336  18.069  43.925  1.00  0.00     0.293 HD
ENDBRANCH   6  24
BRANCH   8  26
ATOM     26  O   UNL     1       8.316  13.606  43.010  1.00  0.00    -0.508 OA
ATOM     27  H   UNL     1       8.267  13.564  44.021  1.00  0.00     0.293 HD
ENDBRANCH   8  26
TORSDOF 6
ENDMDL
