MODEL 1
REMARK VINA RESULT:    -3.181      0.000      0.000
REMARK INTER + INTRA:          -3.829
REMARK INTER:                  -3.739
REMARK INTRA:                  -0.090
REMARK UNBOUND:                -0.090
REMARK SMILES O=C([O-])CCC(=O)[O-]
REMARK SMILES IDX 4 1 2 2 1 3 3 4 5 5 6 6 7 7 8 8
REMARK H PARENT
REMARK Flexibility Score: inf
ROOT
ATOM      1  C   UNL     1     112.625 102.313  99.359  1.00  0.00     0.059 C 
ENDROOT
BRANCH   1   2
ATOM      2  C   UNL     1     111.272 101.784  98.989  1.00  0.00     0.042 C 
ATOM      3  O   UNL     1     110.901 100.653  99.398  1.00  0.00    -0.550 OA
ATOM      4  O   UNL     1     110.406 102.559  98.228  1.00  0.00    -0.550 OA
ENDBRANCH   1   2
BRANCH   1   5
ATOM      5  C   UNL     1     113.275 101.476 100.466  1.00  0.00     0.059 C 
BRANCH   5   6
ATOM      6  C   UNL     1     113.322 102.219 101.766  1.00  0.00     0.042 C 
ATOM      7  O   UNL     1     112.813 103.367 101.858  1.00  0.00    -0.550 OA
ATOM      8  O   UNL     1     113.891 101.627 102.886  1.00  0.00    -0.550 OA
ENDBRANCH   5   6
ENDBRANCH   1   5
TORSDOF 3
ENDMDL
MODEL 2
REMARK VINA RESULT:    -3.175      0.035      4.063
REMARK INTER + INTRA:          -3.823
REMARK INTER:                  -3.731
REMARK INTRA:                  -0.091
REMARK UNBOUND:                -0.090
REMARK SMILES O=C([O-])CCC(=O)[O-]
REMARK SMILES IDX 4 1 2 2 1 3 3 4 5 5 6 6 7 7 8 8
REMARK H PARENT
REMARK Flexibility Score: inf
ROOT
ATOM      1  C   UNL     1     113.304 101.454 100.472  1.00  0.00     0.059 C 
ENDROOT
BRANCH   1   2
ATOM      2  C   UNL     1     113.335 102.202 101.770  1.00  0.00     0.042 C 
ATOM      3  O   UNL     1     112.842 103.358 101.846  1.00  0.00    -0.550 OA
ATOM      4  O   UNL     1     113.870 101.605 102.905  1.00  0.00    -0.550 OA
ENDBRANCH   1   2
BRANCH   1   5
ATOM      5  C   UNL     1     112.657 102.284  99.357  1.00  0.00     0.059 C 
BRANCH   5   6
ATOM      6  C   UNL     1     111.299 101.765  98.999  1.00  0.00     0.042 C 
ATOM      7  O   UNL     1     110.916 100.644  99.426  1.00  0.00    -0.550 OA
ATOM      8  O   UNL     1     110.440 102.537  98.227  1.00  0.00    -0.550 OA
ENDBRANCH   5   6
ENDBRANCH   1   5
TORSDOF 3
ENDMDL
MODEL 3
REMARK VINA RESULT:    -3.165     12.413     13.282
REMARK INTER + INTRA:          -3.810
REMARK INTER:                  -3.721
REMARK INTRA:                  -0.090
REMARK UNBOUND:                -0.090
REMARK SMILES O=C([O-])CCC(=O)[O-]
REMARK SMILES IDX 4 1 2 2 1 3 3 4 5 5 6 6 7 7 8 8
REMARK H PARENT
REMARK Flexibility Score: inf
ROOT
ATOM      1  C   UNL     1     101.217 108.249  99.303  1.00  0.00     0.059 C 
ENDROOT
BRANCH   1   2
ATOM      2  C   UNL     1     101.375 109.688  98.914  1.00  0.00     0.042 C 
ATOM      3  O   UNL     1     100.597 110.560  99.382  1.00  0.00    -0.550 OA
ATOM      4  O   UNL     1     102.408 110.070  98.067  1.00  0.00    -0.550 OA
ENDBRANCH   1   2
BRANCH   1   5
ATOM      5  C   UNL     1     100.145 108.072 100.384  1.00  0.00     0.059 C 
BRANCH   5   6
ATOM      6  C   UNL     1     100.748 107.710 101.707  1.00  0.00     0.042 C 
ATOM      7  O   UNL     1     100.010 107.513 102.708  1.00  0.00    -0.550 OA
ATOM      8  O   UNL     1     102.123 107.549 101.824  1.00  0.00    -0.550 OA
ENDBRANCH   5   6
ENDBRANCH   1   5
TORSDOF 3
ENDMDL
MODEL 4
REMARK VINA RESULT:    -3.158     12.552     13.594
REMARK INTER + INTRA:          -3.803
REMARK INTER:                  -3.711
REMARK INTRA:                  -0.092
REMARK UNBOUND:                -0.090
REMARK SMILES O=C([O-])CCC(=O)[O-]
REMARK SMILES IDX 4 1 2 2 1 3 3 4 5 5 6 6 7 7 8 8
REMARK H PARENT
REMARK Flexibility Score: inf
ROOT
ATOM      1  C   UNL     1     112.384 116.315 100.420  1.00  0.00     0.059 C 
ENDROOT
BRANCH   1   2
ATOM      2  C   UNL     1     111.765 115.928 101.729  1.00  0.00     0.042 C 
ATOM      3  O   UNL     1     111.968 116.627 102.756  1.00  0.00    -0.550 OA
ATOM      4  O   UNL     1     110.931 114.820 101.804  1.00  0.00    -0.550 OA
ENDBRANCH   1   2
BRANCH   1   5
ATOM      5  C   UNL     1     111.983 115.350  99.298  1.00  0.00     0.059 C 
BRANCH   5   6
ATOM      6  C   UNL     1     113.085 114.385  98.980  1.00  0.00     0.042 C 
ATOM      7  O   UNL     1     114.269 114.640  99.324  1.00  0.00    -0.550 OA
ATOM      8  O   UNL     1     112.796 113.186  98.341  1.00  0.00    -0.550 OA
ENDBRANCH   5   6
ENDBRANCH   1   5
TORSDOF 3
ENDMDL
MODEL 5
REMARK VINA RESULT:    -3.141     12.482     13.305
REMARK INTER + INTRA:          -3.782
REMARK INTER:                  -3.694
REMARK INTRA:                  -0.088
REMARK UNBOUND:                -0.090
REMARK SMILES O=C([O-])CCC(=O)[O-]
REMARK SMILES IDX 4 1 2 2 1 3 3 4 5 5 6 6 7 7 8 8
REMARK H PARENT
REMARK Flexibility Score: inf
ROOT
ATOM      1  C   UNL     1     112.020 115.258  99.306  1.00  0.00     0.059 C 
ENDROOT
BRANCH   1   2
ATOM      2  C   UNL     1     113.149 114.332  98.966  1.00  0.00     0.042 C 
ATOM      3  O   UNL     1     114.328 114.622  99.300  1.00  0.00    -0.550 OA
ATOM      4  O   UNL     1     112.892 113.129  98.319  1.00  0.00    -0.550 OA
ENDBRANCH   1   2
BRANCH   1   5
ATOM      5  C   UNL     1     112.390 116.201 100.455  1.00  0.00     0.059 C 
BRANCH   5   6
ATOM      6  C   UNL     1     111.681 115.832 101.723  1.00  0.00     0.042 C 
ATOM      7  O   UNL     1     111.736 116.594 102.724  1.00  0.00    -0.550 OA
ATOM      8  O   UNL     1     110.927 114.668 101.784  1.00  0.00    -0.550 OA
ENDBRANCH   5   6
ENDBRANCH   1   5
TORSDOF 3
ENDMDL
MODEL 6
REMARK VINA RESULT:    -3.124     12.479     13.489
REMARK INTER + INTRA:          -3.762
REMARK INTER:                  -3.674
REMARK INTRA:                  -0.088
REMARK UNBOUND:                -0.090
REMARK SMILES O=C([O-])CCC(=O)[O-]
REMARK SMILES IDX 4 1 2 2 1 3 3 4 5 5 6 6 7 7 8 8
REMARK H PARENT
REMARK Flexibility Score: inf
ROOT
ATOM      1  C   UNL     1     100.086 108.252 100.169  1.00  0.00     0.059 C 
ENDROOT
BRANCH   1   2
ATOM      2  C   UNL     1     100.760 107.795 101.428  1.00  0.00     0.042 C 
ATOM      3  O   UNL     1     100.083 107.592 102.470  1.00  0.00    -0.550 OA
ATOM      4  O   UNL     1     102.128 107.555 101.437  1.00  0.00    -0.550 OA
ENDBRANCH   1   2
BRANCH   1   5
ATOM      5  C   UNL     1     101.095 108.476  99.037  1.00  0.00     0.059 C 
BRANCH   5   6
ATOM      6  C   UNL     1     101.509 109.912  98.942  1.00  0.00     0.042 C 
ATOM      7  O   UNL     1     100.717 110.825  99.298  1.00  0.00    -0.550 OA
ATOM      8  O   UNL     1     102.783 110.241  98.498  1.00  0.00    -0.550 OA
ENDBRANCH   5   6
ENDBRANCH   1   5
TORSDOF 3
ENDMDL
MODEL 7
REMARK VINA RESULT:    -3.085      1.763      4.312
REMARK INTER + INTRA:          -3.716
REMARK INTER:                  -3.602
REMARK INTRA:                  -0.115
REMARK UNBOUND:                -0.090
REMARK SMILES O=C([O-])CCC(=O)[O-]
REMARK SMILES IDX 4 1 2 2 1 3 3 4 5 5 6 6 7 7 8 8
REMARK H PARENT
REMARK Flexibility Score: inf
ROOT
ATOM      1  C   UNL     1     112.197 101.942 102.499  1.00  0.00     0.059 C 
ENDROOT
BRANCH   1   2
ATOM      2  C   UNL     1     113.138 101.961 103.666  1.00  0.00     0.042 C 
ATOM      3  O   UNL     1     114.261 101.398 103.582  1.00  0.00    -0.550 OA
ATOM      4  O   UNL     1     112.791 102.636 104.829  1.00  0.00    -0.550 OA
ENDBRANCH   1   2
BRANCH   1   5
ATOM      5  C   UNL     1     112.796 102.651 101.279  1.00  0.00     0.059 C 
BRANCH   5   6
ATOM      6  C   UNL     1     112.900 101.731 100.102  1.00  0.00     0.042 C 
ATOM      7  O   UNL     1     113.696 100.755 100.129  1.00  0.00    -0.550 OA
ATOM      8  O   UNL     1     112.090 101.928  98.991  1.00  0.00    -0.550 OA
ENDBRANCH   5   6
ENDBRANCH   1   5
TORSDOF 3
ENDMDL
MODEL 8
REMARK VINA RESULT:    -3.060      1.998      2.786
REMARK INTER + INTRA:          -3.687
REMARK INTER:                  -3.566
REMARK INTRA:                  -0.122
REMARK UNBOUND:                -0.090
REMARK SMILES O=C([O-])CCC(=O)[O-]
REMARK SMILES IDX 4 1 2 2 1 3 3 4 5 5 6 6 7 7 8 8
REMARK H PARENT
REMARK Flexibility Score: inf
ROOT
ATOM      1  C   UNL     1     110.058 101.223  99.140  1.00  0.00     0.059 C 
ENDROOT
BRANCH   1   2
ATOM      2  C   UNL     1     109.233 100.308  99.994  1.00  0.00     0.042 C 
ATOM      3  O   UNL     1     108.794  99.227  99.521  1.00  0.00    -0.550 OA
ATOM      4  O   UNL     1     108.985 100.629 101.322  1.00  0.00    -0.550 OA
ENDBRANCH   1   2
BRANCH   1   5
ATOM      5  C   UNL     1     111.553 101.088  99.449  1.00  0.00     0.059 C 
BRANCH   5   6
ATOM      6  C   UNL     1     112.036 102.190 100.342  1.00  0.00     0.042 C 
ATOM      7  O   UNL     1     112.134 102.003 101.583  1.00  0.00    -0.550 OA
ATOM      8  O   UNL     1     112.416 103.410  99.797  1.00  0.00    -0.550 OA
ENDBRANCH   5   6
ENDBRANCH   1   5
TORSDOF 3
ENDMDL
MODEL 9
REMARK VINA RESULT:    -3.057     13.213     13.903
REMARK INTER + INTRA:          -3.683
REMARK INTER:                  -3.564
REMARK INTRA:                  -0.120
REMARK UNBOUND:                -0.090
REMARK SMILES O=C([O-])CCC(=O)[O-]
REMARK SMILES IDX 4 1 2 2 1 3 3 4 5 5 6 6 7 7 8 8
REMARK H PARENT
REMARK Flexibility Score: inf
ROOT
ATOM      1  C   UNL     1     111.620 115.104 101.240  1.00  0.00     0.059 C 
ENDROOT
BRANCH   1   2
ATOM      2  C   UNL     1     112.396 115.689 100.097  1.00  0.00     0.042 C 
ATOM      3  O   UNL     1     112.757 116.894 100.129  1.00  0.00    -0.550 OA
ATOM      4  O   UNL     1     112.755 114.890  99.019  1.00  0.00    -0.550 OA
ENDBRANCH   1   2
BRANCH   1   5
ATOM      5  C   UNL     1     112.496 114.931 102.486  1.00  0.00     0.059 C 
BRANCH   5   6
ATOM      6  C   UNL     1     112.003 115.767 103.627  1.00  0.00     0.042 C 
ATOM      7  O   UNL     1     111.914 117.017 103.505  1.00  0.00    -0.550 OA
ATOM      8  O   UNL     1     111.605 115.162 104.812  1.00  0.00    -0.550 OA
ENDBRANCH   5   6
ENDBRANCH   1   5
TORSDOF 3
ENDMDL
