MODEL 1
REMARK VINA RESULT:    -5.027      0.000      0.000
REMARK INTER + INTRA:          -5.586
REMARK INTER:                  -5.321
REMARK INTRA:                  -0.265
REMARK UNBOUND:                -0.265
REMARK SMILES O=c1cc(-c2ccccc2)oc2ccccc12
REMARK SMILES IDX 4 1 3 2 2 3 1 4 17 5 16 6 15 7 14 8 13 9 12 10 11 11 5 12
REMARK SMILES IDX 8 13 7 14 9 15 6 16 10 17
REMARK H PARENT
REMARK Flexibility Score: inf
ROOT
ATOM      1  C   UNL     1     -12.012   3.313  -5.642  1.00  0.00     0.138 A 
ATOM      2  C   UNL     1     -11.955   2.480  -4.505  1.00  0.00     0.100 A 
ATOM      3  C   UNL     1     -11.954   3.053  -3.231  1.00  0.00     0.193 A 
ATOM      4  O   UNL     1     -11.904   2.308  -2.214  1.00  0.00    -0.289 OA
ATOM      5  C   UNL     1     -12.010   4.447  -3.101  1.00  0.00     0.065 A 
ATOM      6  C   UNL     1     -12.012   5.088  -1.848  1.00  0.00     0.016 A 
ATOM      7  C   UNL     1     -12.069   6.484  -1.776  1.00  0.00     0.001 A 
ATOM      8  C   UNL     1     -12.123   7.247  -2.945  1.00  0.00     0.004 A 
ATOM      9  C   UNL     1     -12.120   6.619  -4.194  1.00  0.00     0.048 A 
ATOM     10  C   UNL     1     -12.065   5.223  -4.278  1.00  0.00     0.138 A 
ATOM     11  O   UNL     1     -12.063   4.636  -5.471  1.00  0.00    -0.456 OA
ENDROOT
BRANCH   1  12
ATOM     12  C   UNL     1     -12.017   2.782  -7.040  1.00  0.00     0.017 A 
ATOM     13  C   UNL     1     -12.018   1.873  -9.711  1.00  0.00     0.000 A 
ATOM     14  C   UNL     1     -11.911   3.236  -9.438  1.00  0.00     0.001 A 
ATOM     15  C   UNL     1     -12.125   0.960  -8.664  1.00  0.00     0.001 A 
ATOM     16  C   UNL     1     -11.910   3.689  -8.116  1.00  0.00     0.012 A 
ATOM     17  C   UNL     1     -12.125   1.405  -7.337  1.00  0.00     0.012 A 
ENDBRANCH   1  12
TORSDOF 1
ENDMDL
MODEL 2
REMARK VINA RESULT:    -4.824      2.871      4.644
REMARK INTER + INTRA:          -5.371
REMARK INTER:                  -5.108
REMARK INTRA:                  -0.264
REMARK UNBOUND:                -0.265
REMARK SMILES O=c1cc(-c2ccccc2)oc2ccccc12
REMARK SMILES IDX 4 1 3 2 2 3 1 4 17 5 16 6 15 7 14 8 13 9 12 10 11 11 5 12
REMARK SMILES IDX 8 13 7 14 9 15 6 16 10 17
REMARK H PARENT
REMARK Flexibility Score: inf
ROOT
ATOM      1  C   UNL     1     -11.912   6.673  -4.562  1.00  0.00     0.138 A 
ATOM      2  C   UNL     1     -11.985   7.278  -3.289  1.00  0.00     0.100 A 
ATOM      3  C   UNL     1     -12.057   6.476  -2.149  1.00  0.00     0.193 A 
ATOM      4  O   UNL     1     -12.122   7.017  -1.011  1.00  0.00    -0.289 OA
ATOM      5  C   UNL     1     -12.054   5.081  -2.284  1.00  0.00     0.065 A 
ATOM      6  C   UNL     1     -12.124   4.216  -1.176  1.00  0.00     0.016 A 
ATOM      7  C   UNL     1     -12.119   2.831  -1.369  1.00  0.00     0.001 A 
ATOM      8  C   UNL     1     -12.044   2.300  -2.659  1.00  0.00     0.004 A 
ATOM      9  C   UNL     1     -11.975   3.152  -3.766  1.00  0.00     0.048 A 
ATOM     10  C   UNL     1     -11.979   4.539  -3.585  1.00  0.00     0.138 A 
ATOM     11  O   UNL     1     -11.913   5.341  -4.643  1.00  0.00    -0.456 OA
ENDROOT
BRANCH   1  12
ATOM     12  C   UNL     1     -11.832   7.457  -5.833  1.00  0.00     0.017 A 
ATOM     13  C   UNL     1     -11.655   8.854  -8.278  1.00  0.00     0.000 A 
ATOM     14  C   UNL     1     -11.365   7.492  -8.231  1.00  0.00     0.001 A 
ATOM     15  C   UNL     1     -12.032   9.526  -7.116  1.00  0.00     0.001 A 
ATOM     16  C   UNL     1     -11.453   6.797  -7.021  1.00  0.00     0.012 A 
ATOM     17  C   UNL     1     -12.121   8.839  -5.901  1.00  0.00     0.012 A 
ENDBRANCH   1  12
TORSDOF 1
ENDMDL
MODEL 3
REMARK VINA RESULT:    -4.704      1.175      2.741
REMARK INTER + INTRA:          -5.245
REMARK INTER:                  -4.979
REMARK INTRA:                  -0.266
REMARK UNBOUND:                -0.265
REMARK SMILES O=c1cc(-c2ccccc2)oc2ccccc12
REMARK SMILES IDX 4 1 3 2 2 3 1 4 17 5 16 6 15 7 14 8 13 9 12 10 11 11 5 12
REMARK SMILES IDX 8 13 7 14 9 15 6 16 10 17
REMARK H PARENT
REMARK Flexibility Score: inf
ROOT
ATOM      1  C   UNL     1     -12.069   3.787  -5.730  1.00  0.00     0.138 A 
ATOM      2  C   UNL     1     -12.070   5.154  -5.380  1.00  0.00     0.100 A 
ATOM      3  C   UNL     1     -12.084   5.519  -4.032  1.00  0.00     0.193 A 
ATOM      4  O   UNL     1     -12.085   6.741  -3.719  1.00  0.00    -0.289 OA
ATOM      5  C   UNL     1     -12.097   4.522  -3.047  1.00  0.00     0.065 A 
ATOM      6  C   UNL     1     -12.112   4.822  -1.672  1.00  0.00     0.016 A 
ATOM      7  C   UNL     1     -12.125   3.787  -0.731  1.00  0.00     0.001 A 
ATOM      8  C   UNL     1     -12.123   2.454  -1.150  1.00  0.00     0.004 A 
ATOM      9  C   UNL     1     -12.109   2.148  -2.514  1.00  0.00     0.048 A 
ATOM     10  C   UNL     1     -12.095   3.174  -3.465  1.00  0.00     0.138 A 
ATOM     11  O   UNL     1     -12.081   2.872  -4.759  1.00  0.00    -0.456 OA
ENDROOT
BRANCH   1  12
ATOM     12  C   UNL     1     -12.053   3.311  -7.148  1.00  0.00     0.017 A 
ATOM     13  C   UNL     1     -12.028   2.319  -9.790  1.00  0.00     0.000 A 
ATOM     14  C   UNL     1     -12.071   1.434  -8.713  1.00  0.00     0.001 A 
ATOM     15  C   UNL     1     -11.996   3.693  -9.561  1.00  0.00     0.001 A 
ATOM     16  C   UNL     1     -12.085   1.923  -7.403  1.00  0.00     0.012 A 
ATOM     17  C   UNL     1     -12.008   4.191  -8.253  1.00  0.00     0.012 A 
ENDBRANCH   1  12
TORSDOF 1
ENDMDL
MODEL 4
REMARK VINA RESULT:    -4.616      2.800      5.146
REMARK INTER + INTRA:          -5.151
REMARK INTER:                  -4.891
REMARK INTRA:                  -0.260
REMARK UNBOUND:                -0.265
REMARK SMILES O=c1cc(-c2ccccc2)oc2ccccc12
REMARK SMILES IDX 4 1 3 2 2 3 1 4 17 5 16 6 15 7 14 8 13 9 12 10 11 11 5 12
REMARK SMILES IDX 8 13 7 14 9 15 6 16 10 17
REMARK H PARENT
REMARK Flexibility Score: inf
ROOT
ATOM      1  C   UNL     1     -11.793   5.232  -3.787  1.00  0.00     0.138 A 
ATOM      2  C   UNL     1     -11.909   6.463  -3.107  1.00  0.00     0.100 A 
ATOM      3  C   UNL     1     -12.020   7.646  -3.839  1.00  0.00     0.193 A 
ATOM      4  O   UNL     1     -12.124   8.746  -3.232  1.00  0.00    -0.289 OA
ATOM      5  C   UNL     1     -12.016   7.594  -5.240  1.00  0.00     0.065 A 
ATOM      6  C   UNL     1     -12.125   8.748  -6.037  1.00  0.00     0.016 A 
ATOM      7  C   UNL     1     -12.115   8.639  -7.432  1.00  0.00     0.001 A 
ATOM      8  C   UNL     1     -11.997   7.386  -8.038  1.00  0.00     0.004 A 
ATOM      9  C   UNL     1     -11.887   6.234  -7.254  1.00  0.00     0.048 A 
ATOM     10  C   UNL     1     -11.897   6.331  -5.858  1.00  0.00     0.138 A 
ATOM     11  O   UNL     1     -11.793   5.230  -5.121  1.00  0.00    -0.456 OA
ENDROOT
BRANCH   1  12
ATOM     12  C   UNL     1     -11.669   3.920  -3.079  1.00  0.00     0.017 A 
ATOM     13  C   UNL     1     -11.392   1.407  -1.825  1.00  0.00     0.000 A 
ATOM     14  C   UNL     1     -10.937   1.590  -3.130  1.00  0.00     0.001 A 
ATOM     15  C   UNL     1     -11.985   2.467  -1.140  1.00  0.00     0.001 A 
ATOM     16  C   UNL     1     -11.072   2.833  -3.753  1.00  0.00     0.012 A 
ATOM     17  C   UNL     1     -12.125   3.715  -1.757  1.00  0.00     0.012 A 
ENDBRANCH   1  12
TORSDOF 1
ENDMDL
MODEL 5
REMARK VINA RESULT:    -4.593     17.299     18.492
REMARK INTER + INTRA:          -5.127
REMARK INTER:                  -4.869
REMARK INTRA:                  -0.258
REMARK UNBOUND:                -0.265
REMARK SMILES O=c1cc(-c2ccccc2)oc2ccccc12
REMARK SMILES IDX 4 1 3 2 2 3 1 4 17 5 16 6 15 7 14 8 13 9 12 10 11 11 5 12
REMARK SMILES IDX 8 13 7 14 9 15 6 16 10 17
REMARK H PARENT
REMARK Flexibility Score: inf
ROOT
ATOM      1  C   UNL     1       4.386  -3.980  -6.212  1.00  0.00     0.138 A 
ATOM      2  C   UNL     1       3.670  -4.962  -6.930  1.00  0.00     0.100 A 
ATOM      3  C   UNL     1       2.784  -4.570  -7.935  1.00  0.00     0.193 A 
ATOM      4  O   UNL     1       2.145  -5.448  -8.578  1.00  0.00    -0.289 OA
ATOM      5  C   UNL     1       2.619  -3.207  -8.217  1.00  0.00     0.065 A 
ATOM      6  C   UNL     1       1.743  -2.745  -9.217  1.00  0.00     0.016 A 
ATOM      7  C   UNL     1       1.615  -1.373  -9.456  1.00  0.00     0.001 A 
ATOM      8  C   UNL     1       2.356  -0.456  -8.705  1.00  0.00     0.004 A 
ATOM      9  C   UNL     1       3.228  -0.906  -7.710  1.00  0.00     0.048 A 
ATOM     10  C   UNL     1       3.364  -2.277  -7.462  1.00  0.00     0.138 A 
ATOM     11  O   UNL     1       4.196  -2.694  -6.514  1.00  0.00    -0.456 OA
ENDROOT
BRANCH   1  12
ATOM     12  C   UNL     1       5.353  -4.314  -5.121  1.00  0.00     0.017 A 
ATOM     13  C   UNL     1       7.129  -5.027  -3.048  1.00  0.00     0.000 A 
ATOM     14  C   UNL     1       6.059  -5.861  -3.367  1.00  0.00     0.001 A 
ATOM     15  C   UNL     1       7.322  -3.841  -3.753  1.00  0.00     0.001 A 
ATOM     16  C   UNL     1       5.178  -5.510  -4.394  1.00  0.00     0.012 A 
ATOM     17  C   UNL     1       6.444  -3.482  -4.783  1.00  0.00     0.012 A 
ENDBRANCH   1  12
TORSDOF 1
ENDMDL
MODEL 6
REMARK VINA RESULT:    -4.571     13.873     15.086
REMARK INTER + INTRA:          -5.104
REMARK INTER:                  -4.844
REMARK INTRA:                  -0.260
REMARK UNBOUND:                -0.265
REMARK SMILES O=c1cc(-c2ccccc2)oc2ccccc12
REMARK SMILES IDX 4 1 3 2 2 3 1 4 17 5 16 6 15 7 14 8 13 9 12 10 11 11 5 12
REMARK SMILES IDX 8 13 7 14 9 15 6 16 10 17
REMARK H PARENT
REMARK Flexibility Score: inf
ROOT
ATOM      1  C   UNL     1      -9.065   2.190   8.966  1.00  0.00     0.138 A 
ATOM      2  C   UNL     1     -10.315   2.317   8.326  1.00  0.00     0.100 A 
ATOM      3  C   UNL     1     -10.932   3.569   8.262  1.00  0.00     0.193 A 
ATOM      4  O   UNL     1     -12.050   3.683   7.689  1.00  0.00    -0.289 OA
ATOM      5  C   UNL     1     -10.298   4.681   8.834  1.00  0.00     0.065 A 
ATOM      6  C   UNL     1     -10.864   5.968   8.805  1.00  0.00     0.016 A 
ATOM      7  C   UNL     1     -10.189   7.043   9.393  1.00  0.00     0.001 A 
ATOM      8  C   UNL     1      -8.952   6.843  10.011  1.00  0.00     0.004 A 
ATOM      9  C   UNL     1      -8.382   5.567  10.046  1.00  0.00     0.048 A 
ATOM     10  C   UNL     1      -9.049   4.484   9.460  1.00  0.00     0.138 A 
ATOM     11  O   UNL     1      -8.499   3.275   9.498  1.00  0.00    -0.456 OA
ENDROOT
BRANCH   1  12
ATOM     12  C   UNL     1      -8.337   0.888   9.078  1.00  0.00     0.017 A 
ATOM     13  C   UNL     1      -7.015  -1.602   9.211  1.00  0.00     0.000 A 
ATOM     14  C   UNL     1      -7.981  -1.376   8.232  1.00  0.00     0.001 A 
ATOM     15  C   UNL     1      -6.703  -0.596  10.125  1.00  0.00     0.001 A 
ATOM     16  C   UNL     1      -8.637  -0.143   8.163  1.00  0.00     0.012 A 
ATOM     17  C   UNL     1      -7.355   0.640  10.064  1.00  0.00     0.012 A 
ENDBRANCH   1  12
TORSDOF 1
ENDMDL
MODEL 7
REMARK VINA RESULT:    -4.489     13.955     15.646
REMARK INTER + INTRA:          -5.017
REMARK INTER:                  -4.751
REMARK INTRA:                  -0.266
REMARK UNBOUND:                -0.265
REMARK SMILES O=c1cc(-c2ccccc2)oc2ccccc12
REMARK SMILES IDX 4 1 3 2 2 3 1 4 17 5 16 6 15 7 14 8 13 9 12 10 11 11 5 12
REMARK SMILES IDX 8 13 7 14 9 15 6 16 10 17
REMARK H PARENT
REMARK Flexibility Score: inf
ROOT
ATOM      1  C   UNL     1      -9.458   2.846   8.950  1.00  0.00     0.138 A 
ATOM      2  C   UNL     1     -10.337   1.994   8.249  1.00  0.00     0.100 A 
ATOM      3  C   UNL     1     -10.058   0.628   8.174  1.00  0.00     0.193 A 
ATOM      4  O   UNL     1     -10.844  -0.134   7.547  1.00  0.00    -0.289 OA
ATOM      5  C   UNL     1      -8.908   0.122   8.797  1.00  0.00     0.065 A 
ATOM      6  C   UNL     1      -8.569  -1.242   8.760  1.00  0.00     0.016 A 
ATOM      7  C   UNL     1      -7.409  -1.693   9.399  1.00  0.00     0.001 A 
ATOM      8  C   UNL     1      -6.583  -0.791  10.076  1.00  0.00     0.004 A 
ATOM      9  C   UNL     1      -6.913   0.567  10.117  1.00  0.00     0.048 A 
ATOM     10  C   UNL     1      -8.071   1.029   9.482  1.00  0.00     0.138 A 
ATOM     11  O   UNL     1      -8.375   2.322   9.528  1.00  0.00    -0.456 OA
ENDROOT
BRANCH   1  12
ATOM     12  C   UNL     1      -9.683   4.319   9.079  1.00  0.00     0.017 A 
ATOM     13  C   UNL     1     -10.020   7.106   9.369  1.00  0.00     0.000 A 
ATOM     14  C   UNL     1      -8.883   6.484   9.881  1.00  0.00     0.001 A 
ATOM     15  C   UNL     1     -10.991   6.350   8.713  1.00  0.00     0.001 A 
ATOM     16  C   UNL     1      -8.713   5.104   9.738  1.00  0.00     0.012 A 
ATOM     17  C   UNL     1     -10.829   4.968   8.567  1.00  0.00     0.012 A 
ENDBRANCH   1  12
TORSDOF 1
ENDMDL
MODEL 8
REMARK VINA RESULT:    -4.437      2.654      4.501
REMARK INTER + INTRA:          -4.962
REMARK INTER:                  -4.701
REMARK INTRA:                  -0.261
REMARK UNBOUND:                -0.265
REMARK SMILES O=c1cc(-c2ccccc2)oc2ccccc12
REMARK SMILES IDX 4 1 3 2 2 3 1 4 17 5 16 6 15 7 14 8 13 9 12 10 11 11 5 12
REMARK SMILES IDX 8 13 7 14 9 15 6 16 10 17
REMARK H PARENT
REMARK Flexibility Score: inf
ROOT
ATOM      1  C   UNL     1     -11.771   5.873  -6.346  1.00  0.00     0.138 A 
ATOM      2  C   UNL     1     -11.774   4.615  -6.986  1.00  0.00     0.100 A 
ATOM      3  C   UNL     1     -11.864   3.452  -6.219  1.00  0.00     0.193 A 
ATOM      4  O   UNL     1     -11.867   2.328  -6.791  1.00  0.00    -0.289 OA
ATOM      5  C   UNL     1     -11.949   3.550  -4.823  1.00  0.00     0.065 A 
ATOM      6  C   UNL     1     -12.041   2.419  -3.992  1.00  0.00     0.016 A 
ATOM      7  C   UNL     1     -12.123   2.574  -2.604  1.00  0.00     0.001 A 
ATOM      8  C   UNL     1     -12.115   3.852  -2.038  1.00  0.00     0.004 A 
ATOM      9  C   UNL     1     -12.023   4.982  -2.856  1.00  0.00     0.048 A 
ATOM     10  C   UNL     1     -11.940   4.838  -4.246  1.00  0.00     0.138 A 
ATOM     11  O   UNL     1     -11.854   5.919  -5.015  1.00  0.00    -0.456 OA
ENDROOT
BRANCH   1  12
ATOM     12  C   UNL     1     -11.679   7.165  -7.092  1.00  0.00     0.017 A 
ATOM     13  C   UNL     1     -11.542   9.651  -8.421  1.00  0.00     0.000 A 
ATOM     14  C   UNL     1     -12.043   9.581  -7.122  1.00  0.00     0.001 A 
ATOM     15  C   UNL     1     -11.109   8.492  -9.063  1.00  0.00     0.001 A 
ATOM     16  C   UNL     1     -12.111   8.351  -6.461  1.00  0.00     0.012 A 
ATOM     17  C   UNL     1     -11.175   7.257  -8.409  1.00  0.00     0.012 A 
ENDBRANCH   1  12
TORSDOF 1
ENDMDL
