MODEL 1
REMARK VINA RESULT:    -3.182      0.000      0.000
REMARK INTER + INTRA:          -4.308
REMARK INTER:                  -3.926
REMARK INTRA:                  -0.382
REMARK UNBOUND:                -0.382
REMARK SMILES Oc1cc(O)c2cc(O)c(-c3cc(O)c(O)c(O)c3)[o+]c2c1
REMARK SMILES IDX 10 1 20 2 21 3 22 4 2 5 3 6 4 7 6 8 7 9 8 10 11 11 12 12
REMARK SMILES IDX 13 13 19 14 15 15 17 16 14 17 16 19 18 21 9 23 1 25 5 27
REMARK H PARENT 14 18 16 20 18 22 9 24 1 26 5 28
REMARK Flexibility Score: inf
ROOT
ATOM      1  C   UNL     1     -21.945 -15.871 -13.840  1.00  0.00     0.402 A 
ATOM      2  O   UNL     1     -22.690 -16.863 -13.361  1.00  0.00    -0.202 OA
ATOM      3  C   UNL     1     -23.951 -17.071 -13.727  1.00  0.00     0.368 A 
ATOM      4  C   UNL     1     -24.654 -18.138 -13.164  1.00  0.00     0.162 A 
ATOM      5  C   UNL     1     -25.980 -18.379 -13.528  1.00  0.00     0.128 A 
ATOM      6  C   UNL     1     -26.608 -17.547 -14.461  1.00  0.00     0.093 A 
ATOM      7  C   UNL     1     -25.925 -16.470 -15.039  1.00  0.00     0.136 A 
ATOM      8  C   UNL     1     -24.576 -16.223 -14.673  1.00  0.00     0.125 A 
ATOM      9  C   UNL     1     -23.809 -15.177 -15.211  1.00  0.00     0.078 A 
ATOM     10  C   UNL     1     -22.483 -14.999 -14.805  1.00  0.00     0.223 A 
ENDROOT
BRANCH   1  11
ATOM     11  C   UNL     1     -20.554 -15.736 -13.346  1.00  0.00     0.091 A 
ATOM     12  C   UNL     1     -19.548 -16.548 -13.892  1.00  0.00     0.068 A 
ATOM     13  C   UNL     1     -18.228 -16.456 -13.428  1.00  0.00     0.162 A 
ATOM     14  C   UNL     1     -20.231 -14.854 -12.302  1.00  0.00     0.068 A 
ATOM     15  C   UNL     1     -17.909 -15.556 -12.398  1.00  0.00     0.200 A 
ATOM     16  C   UNL     1     -18.914 -14.759 -11.833  1.00  0.00     0.162 A 
BRANCH  13  17
ATOM     17  O   UNL     1     -17.233 -17.257 -13.987  1.00  0.00    -0.504 OA
ATOM     18  H   UNL     1     -17.452 -18.134 -14.445  1.00  0.00     0.293 HD
ENDBRANCH  13  17
BRANCH  15  19
ATOM     19  O   UNL     1     -16.603 -15.444 -11.921  1.00  0.00    -0.502 OA
ATOM     20  H   UNL     1     -15.923 -14.829 -12.352  1.00  0.00     0.293 HD
ENDBRANCH  15  19
BRANCH  16  21
ATOM     21  O   UNL     1     -18.596 -13.876 -10.802  1.00  0.00    -0.504 OA
ATOM     22  H   UNL     1     -18.964 -13.998  -9.866  1.00  0.00     0.293 HD
ENDBRANCH  16  21
ENDBRANCH   1  11
BRANCH  10  23
ATOM     23  O   UNL     1     -21.706 -13.991 -15.375  1.00  0.00    -0.500 OA
ATOM     24  H   UNL     1     -22.109 -13.289 -15.986  1.00  0.00     0.294 HD
ENDBRANCH  10  23
BRANCH   5  25
ATOM     25  O   UNL     1     -26.664 -19.450 -12.955  1.00  0.00    -0.507 OA
ATOM     26  H   UNL     1     -26.895 -19.462 -11.968  1.00  0.00     0.293 HD
ENDBRANCH   5  25
BRANCH   7  27
ATOM     27  O   UNL     1     -26.625 -15.684 -15.958  1.00  0.00    -0.507 OA
ATOM     28  H   UNL     1     -27.042 -14.790 -15.743  1.00  0.00     0.293 HD
ENDBRANCH   7  27
TORSDOF 7
ENDMDL
MODEL 2
REMARK VINA RESULT:    -0.998      1.161      3.063
REMARK INTER + INTRA:          -1.614
REMARK INTER:                  -1.472
REMARK INTRA:                  -0.141
REMARK UNBOUND:                -0.382
REMARK SMILES Oc1cc(O)c2cc(O)c(-c3cc(O)c(O)c(O)c3)[o+]c2c1
REMARK SMILES IDX 10 1 20 2 21 3 22 4 2 5 3 6 4 7 6 8 7 9 8 10 11 11 12 12
REMARK SMILES IDX 13 13 19 14 15 15 17 16 14 17 16 19 18 21 9 23 1 25 5 27
REMARK H PARENT 14 18 16 20 18 22 9 24 1 26 5 28
REMARK Flexibility Score: inf
ROOT
ATOM      1  C   UNL     1     -21.639 -16.864 -13.515  1.00  0.00     0.402 A 
ATOM      2  O   UNL     1     -22.519 -15.944 -13.902  1.00  0.00    -0.202 OA
ATOM      3  C   UNL     1     -23.770 -16.231 -14.248  1.00  0.00     0.368 A 
ATOM      4  C   UNL     1     -24.619 -15.196 -14.645  1.00  0.00     0.162 A 
ATOM      5  C   UNL     1     -25.937 -15.468 -15.016  1.00  0.00     0.128 A 
ATOM      6  C   UNL     1     -26.409 -16.785 -14.992  1.00  0.00     0.093 A 
ATOM      7  C   UNL     1     -25.577 -17.840 -14.599  1.00  0.00     0.136 A 
ATOM      8  C   UNL     1     -24.237 -17.567 -14.218  1.00  0.00     0.125 A 
ATOM      9  C   UNL     1     -23.337 -18.559 -13.798  1.00  0.00     0.078 A 
ATOM     10  C   UNL     1     -22.032 -18.212 -13.433  1.00  0.00     0.223 A 
ENDROOT
BRANCH   1  11
ATOM     11  C   UNL     1     -20.270 -16.420 -13.164  1.00  0.00     0.091 A 
ATOM     12  C   UNL     1     -20.099 -15.367 -12.252  1.00  0.00     0.068 A 
ATOM     13  C   UNL     1     -18.816 -14.913 -11.918  1.00  0.00     0.162 A 
ATOM     14  C   UNL     1     -19.138 -16.992 -13.768  1.00  0.00     0.068 A 
ATOM     15  C   UNL     1     -17.688 -15.505 -12.510  1.00  0.00     0.200 A 
ATOM     16  C   UNL     1     -17.852 -16.542 -13.439  1.00  0.00     0.162 A 
BRANCH  13  17
ATOM     17  O   UNL     1     -18.658 -13.876 -11.000  1.00  0.00    -0.504 OA
ATOM     18  H   UNL     1     -18.954 -13.969 -10.035  1.00  0.00     0.293 HD
ENDBRANCH  13  17
BRANCH  15  19
ATOM     19  O   UNL     1     -16.400 -15.073 -12.192  1.00  0.00    -0.502 OA
ATOM     20  H   UNL     1     -16.178 -14.095 -12.055  1.00  0.00     0.293 HD
ENDBRANCH  15  19
BRANCH  16  21
ATOM     21  O   UNL     1     -16.730 -17.117 -14.034  1.00  0.00    -0.504 OA
ATOM     22  H   UNL     1     -16.811 -17.903 -14.669  1.00  0.00     0.293 HD
ENDBRANCH  16  21
ENDBRANCH   1  11
BRANCH  10  23
ATOM     23  O   UNL     1     -21.152 -19.189 -12.968  1.00  0.00    -0.500 OA
ATOM     24  H   UNL     1     -20.889 -19.248 -11.991  1.00  0.00     0.294 HD
ENDBRANCH  10  23
BRANCH   5  25
ATOM     25  O   UNL     1     -26.769 -14.421 -15.409  1.00  0.00    -0.507 OA
ATOM     26  H   UNL     1     -26.958 -14.234 -16.387  1.00  0.00     0.293 HD
ENDBRANCH   5  25
BRANCH   7  27
ATOM     27  O   UNL     1     -26.123 -19.127 -14.606  1.00  0.00    -0.507 OA
ATOM     28  H   UNL     1     -25.933 -19.823 -15.312  1.00  0.00     0.293 HD
ENDBRANCH   7  27
TORSDOF 7
ENDMDL
MODEL 3
REMARK VINA RESULT:    -0.562      1.159      7.125
REMARK INTER + INTRA:          -1.075
REMARK INTER:                  -0.781
REMARK INTRA:                  -0.294
REMARK UNBOUND:                -0.382
REMARK SMILES Oc1cc(O)c2cc(O)c(-c3cc(O)c(O)c(O)c3)[o+]c2c1
REMARK SMILES IDX 10 1 20 2 21 3 22 4 2 5 3 6 4 7 6 8 7 9 8 10 11 11 12 12
REMARK SMILES IDX 13 13 19 14 15 15 17 16 14 17 16 19 18 21 9 23 1 25 5 27
REMARK H PARENT 14 18 16 20 18 22 9 24 1 26 5 28
REMARK Flexibility Score: inf
ROOT
ATOM      1  C   UNL     1     -22.435 -16.043 -13.193  1.00  0.00     0.402 A 
ATOM      2  O   UNL     1     -21.394 -16.764 -13.600  1.00  0.00    -0.202 OA
ATOM      3  C   UNL     1     -20.133 -16.449 -13.318  1.00  0.00     0.368 A 
ATOM      4  C   UNL     1     -19.106 -17.267 -13.794  1.00  0.00     0.162 A 
ATOM      5  C   UNL     1     -17.774 -16.960 -13.515  1.00  0.00     0.128 A 
ATOM      6  C   UNL     1     -17.464 -15.826 -12.757  1.00  0.00     0.093 A 
ATOM      7  C   UNL     1     -18.476 -14.990 -12.268  1.00  0.00     0.136 A 
ATOM      8  C   UNL     1     -19.832 -15.300 -12.547  1.00  0.00     0.125 A 
ATOM      9  C   UNL     1     -20.912 -14.528 -12.088  1.00  0.00     0.078 A 
ATOM     10  C   UNL     1     -22.223 -14.900 -12.399  1.00  0.00     0.223 A 
ENDROOT
BRANCH   1  11
ATOM     11  C   UNL     1     -23.793 -16.491 -13.580  1.00  0.00     0.091 A 
ATOM     12  C   UNL     1     -24.526 -15.742 -14.514  1.00  0.00     0.068 A 
ATOM     13  C   UNL     1     -25.820 -16.132 -14.883  1.00  0.00     0.162 A 
ATOM     14  C   UNL     1     -24.387 -17.618 -12.989  1.00  0.00     0.068 A 
ATOM     15  C   UNL     1     -26.400 -17.274 -14.303  1.00  0.00     0.200 A 
ATOM     16  C   UNL     1     -25.682 -18.013 -13.352  1.00  0.00     0.162 A 
BRANCH  13  17
ATOM     17  O   UNL     1     -26.534 -15.389 -15.823  1.00  0.00    -0.504 OA
ATOM     18  H   UNL     1     -27.526 -15.214 -15.719  1.00  0.00     0.293 HD
ENDBRANCH  13  17
BRANCH  15  19
ATOM     19  O   UNL     1     -27.686 -17.684 -14.655  1.00  0.00    -0.502 OA
ATOM     20  H   UNL     1     -28.080 -17.495 -15.569  1.00  0.00     0.293 HD
ENDBRANCH  15  19
BRANCH  16  21
ATOM     21  O   UNL     1     -26.266 -19.136 -12.770  1.00  0.00    -0.504 OA
ATOM     22  H   UNL     1     -26.812 -19.070 -11.918  1.00  0.00     0.293 HD
ENDBRANCH  16  21
ENDBRANCH   1  11
BRANCH  10  23
ATOM     23  O   UNL     1     -23.297 -14.162 -11.903  1.00  0.00    -0.500 OA
ATOM     24  H   UNL     1     -24.156 -14.607 -11.601  1.00  0.00     0.294 HD
ENDBRANCH  10  23
BRANCH   5  25
ATOM     25  O   UNL     1     -16.764 -17.789 -14.000  1.00  0.00    -0.507 OA
ATOM     26  H   UNL     1     -16.763 -18.785 -13.816  1.00  0.00     0.293 HD
ENDBRANCH   5  25
BRANCH   7  27
ATOM     27  O   UNL     1     -18.084 -13.875 -11.522  1.00  0.00    -0.507 OA
ATOM     28  H   UNL     1     -18.720 -13.275 -11.016  1.00  0.00     0.293 HD
ENDBRANCH   7  27
TORSDOF 7
ENDMDL
MODEL 4
REMARK VINA RESULT:    -0.455      1.168      7.088
REMARK INTER + INTRA:          -0.943
REMARK INTER:                  -0.606
REMARK INTRA:                  -0.337
REMARK UNBOUND:                -0.382
REMARK SMILES Oc1cc(O)c2cc(O)c(-c3cc(O)c(O)c(O)c3)[o+]c2c1
REMARK SMILES IDX 10 1 20 2 21 3 22 4 2 5 3 6 4 7 6 8 7 9 8 10 11 11 12 12
REMARK SMILES IDX 13 13 19 14 15 15 17 16 14 17 16 19 18 21 9 23 1 25 5 27
REMARK H PARENT 14 18 16 20 18 22 9 24 1 26 5 28
REMARK Flexibility Score: inf
ROOT
ATOM      1  C   UNL     1     -22.385 -15.974 -13.185  1.00  0.00     0.402 A 
ATOM      2  O   UNL     1     -21.353 -16.700 -13.606  1.00  0.00    -0.202 OA
ATOM      3  C   UNL     1     -20.088 -16.402 -13.325  1.00  0.00     0.368 A 
ATOM      4  C   UNL     1     -19.072 -17.224 -13.817  1.00  0.00     0.162 A 
ATOM      5  C   UNL     1     -17.735 -16.935 -13.539  1.00  0.00     0.128 A 
ATOM      6  C   UNL     1     -17.411 -15.815 -12.766  1.00  0.00     0.093 A 
ATOM      7  C   UNL     1     -18.412 -14.975 -12.262  1.00  0.00     0.136 A 
ATOM      8  C   UNL     1     -19.772 -15.267 -12.539  1.00  0.00     0.125 A 
ATOM      9  C   UNL     1     -20.841 -14.491 -12.065  1.00  0.00     0.078 A 
ATOM     10  C   UNL     1     -22.158 -14.845 -12.376  1.00  0.00     0.223 A 
ENDROOT
BRANCH   1  11
ATOM     11  C   UNL     1     -23.749 -16.403 -13.573  1.00  0.00     0.091 A 
ATOM     12  C   UNL     1     -24.302 -17.553 -12.989  1.00  0.00     0.068 A 
ATOM     13  C   UNL     1     -25.582 -17.993 -13.354  1.00  0.00     0.162 A 
ATOM     14  C   UNL     1     -24.480 -15.716 -14.556  1.00  0.00     0.068 A 
ATOM     15  C   UNL     1     -26.315 -17.288 -14.323  1.00  0.00     0.200 A 
ATOM     16  C   UNL     1     -25.760 -16.151 -14.926  1.00  0.00     0.162 A 
BRANCH  13  17
ATOM     17  O   UNL     1     -26.127 -19.129 -12.757  1.00  0.00    -0.504 OA
ATOM     18  H   UNL     1     -26.407 -19.136 -11.783  1.00  0.00     0.293 HD
ENDBRANCH  13  17
BRANCH  15  19
ATOM     19  O   UNL     1     -27.592 -17.704 -14.701  1.00  0.00    -0.502 OA
ATOM     20  H   UNL     1     -28.422 -17.174 -14.466  1.00  0.00     0.293 HD
ENDBRANCH  15  19
BRANCH  16  21
ATOM     21  O   UNL     1     -26.485 -15.463 -15.897  1.00  0.00    -0.504 OA
ATOM     22  H   UNL     1     -27.283 -14.888 -15.655  1.00  0.00     0.293 HD
ENDBRANCH  16  21
ENDBRANCH   1  11
BRANCH  10  23
ATOM     23  O   UNL     1     -23.222 -14.102 -11.865  1.00  0.00    -0.500 OA
ATOM     24  H   UNL     1     -23.813 -13.536 -12.463  1.00  0.00     0.294 HD
ENDBRANCH  10  23
BRANCH   5  25
ATOM     25  O   UNL     1     -16.735 -17.767 -14.039  1.00  0.00    -0.507 OA
ATOM     26  H   UNL     1     -15.946 -17.395 -14.555  1.00  0.00     0.293 HD
ENDBRANCH   5  25
BRANCH   7  27
ATOM     27  O   UNL     1     -18.005 -13.875 -11.502  1.00  0.00    -0.507 OA
ATOM     28  H   UNL     1     -17.653 -13.012 -11.890  1.00  0.00     0.293 HD
ENDBRANCH   7  27
TORSDOF 7
ENDMDL
