MODEL 1
REMARK VINA RESULT:    -3.841      0.000      0.000
REMARK INTER + INTRA:          -3.841
REMARK INTER:                  -3.841
REMARK INTRA:                   0.000
REMARK UNBOUND:                 0.000
REMARK SMILES CC1=CC(=O)[C@@H]2C[C@H]1C2(C)C
REMARK SMILES IDX 1 1 2 2 3 3 4 4 5 5 6 6 7 7 8 8 9 9 10 10 11 11
REMARK H PARENT
REMARK Flexibility Score: inf
ROOT
ATOM      1  C   UNL     1      26.494  41.203  21.129  1.00  0.00     0.040 C 
ATOM      2  C   UNL     1      26.529  39.722  20.920  1.00  0.00    -0.066 C 
ATOM      3  C   UNL     1      25.384  38.985  20.886  1.00  0.00     0.047 C 
ATOM      4  C   UNL     1      25.549  37.516  20.639  1.00  0.00     0.159 C 
ATOM      5  O   UNL     1      24.566  36.736  20.546  1.00  0.00    -0.295 OA
ATOM      6  C   UNL     1      26.993  37.033  20.506  1.00  0.00     0.067 C 
ATOM      7  C   UNL     1      27.731  37.722  21.674  1.00  0.00     0.021 C 
ATOM      8  C   UNL     1      27.858  38.956  20.753  1.00  0.00     0.022 C 
ATOM      9  C   UNL     1      27.747  37.988  19.539  1.00  0.00    -0.019 C 
ATOM     10  C   UNL     1      29.125  37.423  19.108  1.00  0.00     0.012 C 
ATOM     11  C   UNL     1      27.006  38.487  18.266  1.00  0.00     0.012 C 
ENDROOT
TORSDOF 0
ENDMDL
MODEL 2
REMARK VINA RESULT:    -3.648     12.915     14.138
REMARK INTER + INTRA:          -3.648
REMARK INTER:                  -3.648
REMARK INTRA:                   0.000
REMARK UNBOUND:                 0.000
REMARK SMILES CC1=CC(=O)[C@@H]2C[C@H]1C2(C)C
REMARK SMILES IDX 1 1 2 2 3 3 4 4 5 5 6 6 7 7 8 8 9 9 10 10 11 11
REMARK H PARENT
REMARK Flexibility Score: inf
ROOT
ATOM      1  C   UNL     1      23.476  28.265  28.387  1.00  0.00     0.040 C 
ATOM      2  C   UNL     1      24.762  27.579  28.725  1.00  0.00    -0.066 C 
ATOM      3  C   UNL     1      24.961  26.264  28.432  1.00  0.00     0.047 C 
ATOM      4  C   UNL     1      26.303  25.701  28.792  1.00  0.00     0.159 C 
ATOM      5  O   UNL     1      26.622  24.510  28.537  1.00  0.00    -0.295 OA
ATOM      6  C   UNL     1      27.255  26.673  29.488  1.00  0.00     0.067 C 
ATOM      7  C   UNL     1      26.379  27.362  30.556  1.00  0.00     0.021 C 
ATOM      8  C   UNL     1      25.915  28.319  29.435  1.00  0.00     0.022 C 
ATOM      9  C   UNL     1      27.254  28.014  28.701  1.00  0.00    -0.019 C 
ATOM     10  C   UNL     1      28.399  28.960  29.148  1.00  0.00     0.012 C 
ATOM     11  C   UNL     1      27.245  27.960  27.148  1.00  0.00     0.012 C 
ENDROOT
TORSDOF 0
ENDMDL
MODEL 3
REMARK VINA RESULT:    -3.524      1.709      3.432
REMARK INTER + INTRA:          -3.524
REMARK INTER:                  -3.524
REMARK INTRA:                   0.000
REMARK UNBOUND:                 0.000
REMARK SMILES CC1=CC(=O)[C@@H]2C[C@H]1C2(C)C
REMARK SMILES IDX 1 1 2 2 3 3 4 4 5 5 6 6 7 7 8 8 9 9 10 10 11 11
REMARK H PARENT
REMARK Flexibility Score: inf
ROOT
ATOM      1  C   UNL     1      28.359  38.476  17.117  1.00  0.00     0.040 C 
ATOM      2  C   UNL     1      28.010  38.305  18.562  1.00  0.00    -0.066 C 
ATOM      3  C   UNL     1      28.705  37.450  19.361  1.00  0.00     0.047 C 
ATOM      4  C   UNL     1      28.279  37.391  20.797  1.00  0.00     0.159 C 
ATOM      5  O   UNL     1      28.868  36.670  21.644  1.00  0.00    -0.295 OA
ATOM      6  C   UNL     1      27.083  38.270  21.161  1.00  0.00     0.067 C 
ATOM      7  C   UNL     1      26.066  38.014  20.028  1.00  0.00     0.021 C 
ATOM      8  C   UNL     1      26.839  39.073  19.211  1.00  0.00     0.022 C 
ATOM      9  C   UNL     1      27.310  39.687  20.562  1.00  0.00    -0.019 C 
ATOM     10  C   UNL     1      26.305  40.730  21.116  1.00  0.00     0.012 C 
ATOM     11  C   UNL     1      28.737  40.300  20.633  1.00  0.00     0.012 C 
ENDROOT
TORSDOF 0
ENDMDL
MODEL 4
REMARK VINA RESULT:    -3.515      1.890      3.204
REMARK INTER + INTRA:          -3.515
REMARK INTER:                  -3.515
REMARK INTRA:                   0.000
REMARK UNBOUND:                 0.000
REMARK SMILES CC1=CC(=O)[C@@H]2C[C@H]1C2(C)C
REMARK SMILES IDX 1 1 2 2 3 3 4 4 5 5 6 6 7 7 8 8 9 9 10 10 11 11
REMARK H PARENT
REMARK Flexibility Score: inf
ROOT
ATOM      1  C   UNL     1      28.297  38.404  17.370  1.00  0.00     0.040 C 
ATOM      2  C   UNL     1      28.010  38.891  18.755  1.00  0.00    -0.066 C 
ATOM      3  C   UNL     1      27.372  40.074  18.971  1.00  0.00     0.047 C 
ATOM      4  C   UNL     1      27.115  40.436  20.403  1.00  0.00     0.159 C 
ATOM      5  O   UNL     1      26.500  41.484  20.731  1.00  0.00    -0.295 OA
ATOM      6  C   UNL     1      27.650  39.444  21.435  1.00  0.00     0.067 C 
ATOM      7  C   UNL     1      29.081  39.127  20.948  1.00  0.00     0.021 C 
ATOM      8  C   UNL     1      28.436  38.089  20.002  1.00  0.00     0.022 C 
ATOM      9  C   UNL     1      27.243  38.008  20.998  1.00  0.00    -0.019 C 
ATOM     10  C   UNL     1      27.479  36.963  22.118  1.00  0.00     0.012 C 
ATOM     11  C   UNL     1      25.816  37.789  20.420  1.00  0.00     0.012 C 
ENDROOT
TORSDOF 0
ENDMDL
MODEL 5
REMARK VINA RESULT:    -3.512      1.843      2.776
REMARK INTER + INTRA:          -3.512
REMARK INTER:                  -3.512
REMARK INTRA:                   0.000
REMARK UNBOUND:                 0.000
REMARK SMILES CC1=CC(=O)[C@@H]2C[C@H]1C2(C)C
REMARK SMILES IDX 1 1 2 2 3 3 4 4 5 5 6 6 7 7 8 8 9 9 10 10 11 11
REMARK H PARENT
REMARK Flexibility Score: inf
ROOT
ATOM      1  C   UNL     1      26.499  41.748  20.690  1.00  0.00     0.040 C 
ATOM      2  C   UNL     1      26.826  40.384  20.168  1.00  0.00    -0.066 C 
ATOM      3  C   UNL     1      27.429  40.215  18.959  1.00  0.00     0.047 C 
ATOM      4  C   UNL     1      27.732  38.802  18.561  1.00  0.00     0.159 C 
ATOM      5  O   UNL     1      28.322  38.518  17.487  1.00  0.00    -0.295 OA
ATOM      6  C   UNL     1      27.276  37.731  19.553  1.00  0.00     0.067 C 
ATOM      7  C   UNL     1      25.839  38.152  19.930  1.00  0.00     0.021 C 
ATOM      8  C   UNL     1      26.481  39.107  20.961  1.00  0.00     0.022 C 
ATOM      9  C   UNL     1      27.717  38.161  20.981  1.00  0.00    -0.019 C 
ATOM     10  C   UNL     1      27.565  37.014  22.014  1.00  0.00     0.012 C 
ATOM     11  C   UNL     1      29.125  38.795  21.161  1.00  0.00     0.012 C 
ENDROOT
TORSDOF 0
ENDMDL
MODEL 6
REMARK VINA RESULT:    -3.494      1.893      3.596
REMARK INTER + INTRA:          -3.494
REMARK INTER:                  -3.494
REMARK INTRA:                   0.000
REMARK UNBOUND:                 0.000
REMARK SMILES CC1=CC(=O)[C@@H]2C[C@H]1C2(C)C
REMARK SMILES IDX 1 1 2 2 3 3 4 4 5 5 6 6 7 7 8 8 9 9 10 10 11 11
REMARK H PARENT
REMARK Flexibility Score: inf
ROOT
ATOM      1  C   UNL     1      28.817  36.368  21.639  1.00  0.00     0.040 C 
ATOM      2  C   UNL     1      28.527  37.511  20.718  1.00  0.00    -0.066 C 
ATOM      3  C   UNL     1      28.494  37.342  19.368  1.00  0.00     0.047 C 
ATOM      4  C   UNL     1      28.162  38.556  18.555  1.00  0.00     0.159 C 
ATOM      5  O   UNL     1      28.063  38.519  17.301  1.00  0.00    -0.295 OA
ATOM      6  C   UNL     1      27.949  39.841  19.356  1.00  0.00     0.067 C 
ATOM      7  C   UNL     1      29.125  39.862  20.357  1.00  0.00     0.021 C 
ATOM      8  C   UNL     1      28.268  38.937  21.250  1.00  0.00     0.022 C 
ATOM      9  C   UNL     1      27.008  39.527  20.553  1.00  0.00    -0.019 C 
ATOM     10  C   UNL     1      26.496  40.813  21.252  1.00  0.00     0.012 C 
ATOM     11  C   UNL     1      25.793  38.588  20.311  1.00  0.00     0.012 C 
ENDROOT
TORSDOF 0
ENDMDL
MODEL 7
REMARK VINA RESULT:    -3.469      2.092      3.548
REMARK INTER + INTRA:          -3.469
REMARK INTER:                  -3.469
REMARK INTRA:                   0.000
REMARK UNBOUND:                 0.000
REMARK SMILES CC1=CC(=O)[C@@H]2C[C@H]1C2(C)C
REMARK SMILES IDX 1 1 2 2 3 3 4 4 5 5 6 6 7 7 8 8 9 9 10 10 11 11
REMARK H PARENT
REMARK Flexibility Score: inf
ROOT
ATOM      1  C   UNL     1      27.247  35.879  24.057  1.00  0.00     0.040 C 
ATOM      2  C   UNL     1      27.592  36.169  22.630  1.00  0.00    -0.066 C 
ATOM      3  C   UNL     1      27.953  35.175  21.773  1.00  0.00     0.047 C 
ATOM      4  C   UNL     1      28.244  35.589  20.362  1.00  0.00     0.159 C 
ATOM      5  O   UNL     1      28.549  34.758  19.468  1.00  0.00    -0.295 OA
ATOM      6  C   UNL     1      28.142  37.089  20.087  1.00  0.00     0.067 C 
ATOM      7  C   UNL     1      28.890  37.743  21.269  1.00  0.00     0.021 C 
ATOM      8  C   UNL     1      27.573  37.605  22.066  1.00  0.00     0.022 C 
ATOM      9  C   UNL     1      26.816  37.616  20.705  1.00  0.00    -0.019 C 
ATOM     10  C   UNL     1      26.476  39.053  20.232  1.00  0.00     0.012 C 
ATOM     11  C   UNL     1      25.538  36.743  20.568  1.00  0.00     0.012 C 
ENDROOT
TORSDOF 0
ENDMDL
MODEL 8
REMARK VINA RESULT:    -3.445     13.412     14.596
REMARK INTER + INTRA:          -3.445
REMARK INTER:                  -3.445
REMARK INTRA:                   0.000
REMARK UNBOUND:                 0.000
REMARK SMILES CC1=CC(=O)[C@@H]2C[C@H]1C2(C)C
REMARK SMILES IDX 1 1 2 2 3 3 4 4 5 5 6 6 7 7 8 8 9 9 10 10 11 11
REMARK H PARENT
REMARK Flexibility Score: inf
ROOT
ATOM      1  C   UNL     1      28.004  29.116  29.137  1.00  0.00     0.040 C 
ATOM      2  C   UNL     1      27.108  27.918  29.117  1.00  0.00    -0.066 C 
ATOM      3  C   UNL     1      25.794  28.022  28.777  1.00  0.00     0.047 C 
ATOM      4  C   UNL     1      25.009  26.745  28.765  1.00  0.00     0.159 C 
ATOM      5  O   UNL     1      23.796  26.705  28.430  1.00  0.00    -0.295 OA
ATOM      6  C   UNL     1      25.784  25.497  29.187  1.00  0.00     0.067 C 
ATOM      7  C   UNL     1      26.551  25.937  30.452  1.00  0.00     0.021 C 
ATOM      8  C   UNL     1      27.622  26.513  29.498  1.00  0.00     0.022 C 
ATOM      9  C   UNL     1      27.145  25.482  28.434  1.00  0.00    -0.019 C 
ATOM     10  C   UNL     1      27.875  24.121  28.563  1.00  0.00     0.012 C 
ATOM     11  C   UNL     1      27.166  25.906  26.938  1.00  0.00     0.012 C 
ENDROOT
TORSDOF 0
ENDMDL
MODEL 9
REMARK VINA RESULT:    -3.443      1.752      2.764
REMARK INTER + INTRA:          -3.443
REMARK INTER:                  -3.443
REMARK INTRA:                   0.000
REMARK UNBOUND:                 0.000
REMARK SMILES CC1=CC(=O)[C@@H]2C[C@H]1C2(C)C
REMARK SMILES IDX 1 1 2 2 3 3 4 4 5 5 6 6 7 7 8 8 9 9 10 10 11 11
REMARK H PARENT
REMARK Flexibility Score: inf
ROOT
ATOM      1  C   UNL     1      24.398  37.382  21.090  1.00  0.00     0.040 C 
ATOM      2  C   UNL     1      25.835  37.714  20.839  1.00  0.00    -0.066 C 
ATOM      3  C   UNL     1      26.775  36.737  20.710  1.00  0.00     0.047 C 
ATOM      4  C   UNL     1      28.174  37.195  20.430  1.00  0.00     0.159 C 
ATOM      5  O   UNL     1      29.123  36.388  20.251  1.00  0.00    -0.295 OA
ATOM      6  C   UNL     1      28.367  38.711  20.373  1.00  0.00     0.067 C 
ATOM      7  C   UNL     1      27.599  39.236  21.606  1.00  0.00     0.021 C 
ATOM      8  C   UNL     1      26.326  39.173  20.732  1.00  0.00     0.022 C 
ATOM      9  C   UNL     1      27.245  39.319  19.484  1.00  0.00    -0.019 C 
ATOM     10  C   UNL     1      27.518  40.802  19.123  1.00  0.00     0.012 C 
ATOM     11  C   UNL     1      26.844  38.567  18.183  1.00  0.00     0.012 C 
ENDROOT
TORSDOF 0
ENDMDL
