MODEL 1
REMARK VINA RESULT:    -2.919      0.000      0.000
REMARK INTER + INTRA:          -3.175
REMARK INTER:                  -3.175
REMARK INTRA:                   0.000
REMARK UNBOUND:                 0.000
REMARK SMILES [NH3+]CC(=O)[O-]
REMARK SMILES IDX 2 1 1 2 3 6 4 7 5 8
REMARK H PARENT 1 3 1 4 1 5
REMARK Flexibility Score: inf
ROOT
ATOM      1  C   UNL     1      46.206  11.255  95.039  1.00  0.00     0.312 C 
ENDROOT
BRANCH   1   2
ATOM      2  N   UNL     1      46.789  10.526  93.915  1.00  0.00    -0.353 N 
ATOM      3  H   UNL     1      47.142   9.594  94.234  1.00  0.00     0.344 HD
ATOM      4  H   UNL     1      46.055  10.378  93.186  1.00  0.00     0.344 HD
ATOM      5  H   UNL     1      47.574  11.077  93.497  1.00  0.00     0.344 HD
ENDBRANCH   1   2
BRANCH   1   6
ATOM      6  C   UNL     1      46.466  12.725  94.908  1.00  0.00     0.096 C 
ATOM      7  O   UNL     1      46.547  13.254  93.768  1.00  0.00    -0.544 OA
ATOM      8  O   UNL     1      46.670  13.499  96.043  1.00  0.00    -0.544 OA
ENDBRANCH   1   6
TORSDOF 2
ENDMDL
MODEL 2
REMARK VINA RESULT:    -2.845      3.161      3.744
REMARK INTER + INTRA:          -3.094
REMARK INTER:                  -3.094
REMARK INTRA:                   0.000
REMARK UNBOUND:                 0.000
REMARK SMILES [NH3+]CC(=O)[O-]
REMARK SMILES IDX 2 1 1 2 3 6 4 7 5 8
REMARK H PARENT 1 3 1 4 1 5
REMARK Flexibility Score: inf
ROOT
ATOM      1  C   UNL     1      48.686  15.221  95.829  1.00  0.00     0.312 C 
ENDROOT
BRANCH   1   2
ATOM      2  N   UNL     1      49.444  14.567  96.893  1.00  0.00    -0.353 N 
ATOM      3  H   UNL     1      49.555  13.548  96.681  1.00  0.00     0.344 HD
ATOM      4  H   UNL     1      50.391  15.004  96.957  1.00  0.00     0.344 HD
ATOM      5  H   UNL     1      48.953  14.686  97.809  1.00  0.00     0.344 HD
ENDBRANCH   1   2
BRANCH   1   6
ATOM      6  C   UNL     1      47.556  14.351  95.373  1.00  0.00     0.096 C 
ATOM      7  O   UNL     1      46.878  13.702  96.213  1.00  0.00    -0.544 OA
ATOM      8  O   UNL     1      47.283  14.217  94.017  1.00  0.00    -0.544 OA
ENDBRANCH   1   6
TORSDOF 2
ENDMDL
MODEL 3
REMARK VINA RESULT:    -2.655     14.795     15.135
REMARK INTER + INTRA:          -2.888
REMARK INTER:                  -2.888
REMARK INTRA:                   0.000
REMARK UNBOUND:                 0.000
REMARK SMILES [NH3+]CC(=O)[O-]
REMARK SMILES IDX 2 1 1 2 3 6 4 7 5 8
REMARK H PARENT 1 3 1 4 1 5
REMARK Flexibility Score: inf
ROOT
ATOM      1  C   UNL     1      58.658   7.408 102.568  1.00  0.00     0.312 C 
ENDROOT
BRANCH   1   2
ATOM      2  N   UNL     1      58.524   8.862 102.502  1.00  0.00    -0.353 N 
ATOM      3  H   UNL     1      57.744   9.122 101.854  1.00  0.00     0.344 HD
ATOM      4  H   UNL     1      58.308   9.229 103.456  1.00  0.00     0.344 HD
ATOM      5  H   UNL     1      59.418   9.291 102.168  1.00  0.00     0.344 HD
ENDBRANCH   1   2
BRANCH   1   6
ATOM      6  C   UNL     1      57.538   6.810 103.362  1.00  0.00     0.096 C 
ATOM      7  O   UNL     1      57.472   7.000 104.605  1.00  0.00    -0.544 OA
ATOM      8  O   UNL     1      56.598   6.000 102.739  1.00  0.00    -0.544 OA
ENDBRANCH   1   6
TORSDOF 2
ENDMDL
MODEL 4
REMARK VINA RESULT:    -2.654      2.451      2.613
REMARK INTER + INTRA:          -2.887
REMARK INTER:                  -2.887
REMARK INTRA:                   0.000
REMARK UNBOUND:                 0.000
REMARK SMILES [NH3+]CC(=O)[O-]
REMARK SMILES IDX 2 1 1 2 3 6 4 7 5 8
REMARK H PARENT 1 3 1 4 1 5
REMARK Flexibility Score: inf
ROOT
ATOM      1  C   UNL     1      46.950  13.498  95.692  1.00  0.00     0.312 C 
ENDROOT
BRANCH   1   2
ATOM      2  N   UNL     1      46.314  14.808  95.571  1.00  0.00    -0.353 N 
ATOM      3  H   UNL     1      46.529  15.228  94.637  1.00  0.00     0.344 HD
ATOM      4  H   UNL     1      45.279  14.695  95.661  1.00  0.00     0.344 HD
ATOM      5  H   UNL     1      46.653  15.443  96.330  1.00  0.00     0.344 HD
ENDBRANCH   1   2
BRANCH   1   6
ATOM      6  C   UNL     1      46.427  12.559  94.648  1.00  0.00     0.096 C 
ATOM      7  O   UNL     1      46.247  12.960  93.468  1.00  0.00    -0.544 OA
ATOM      8  O   UNL     1      46.091  11.255  94.991  1.00  0.00    -0.544 OA
ENDBRANCH   1   6
TORSDOF 2
ENDMDL
MODEL 5
REMARK VINA RESULT:    -2.630     13.305     13.778
REMARK INTER + INTRA:          -2.860
REMARK INTER:                  -2.860
REMARK INTRA:                   0.000
REMARK UNBOUND:                 0.000
REMARK SMILES [NH3+]CC(=O)[O-]
REMARK SMILES IDX 2 1 1 2 3 6 4 7 5 8
REMARK H PARENT 1 3 1 4 1 5
REMARK Flexibility Score: inf
ROOT
ATOM      1  C   UNL     1      49.817   3.004 104.793  1.00  0.00     0.312 C 
ENDROOT
BRANCH   1   2
ATOM      2  N   UNL     1      48.875   3.750 105.625  1.00  0.00    -0.353 N 
ATOM      3  H   UNL     1      48.226   4.307 105.023  1.00  0.00     0.344 HD
ATOM      4  H   UNL     1      48.315   3.076 106.195  1.00  0.00     0.344 HD
ATOM      5  H   UNL     1      49.394   4.389 106.270  1.00  0.00     0.344 HD
ENDBRANCH   1   2
BRANCH   1   6
ATOM      6  C   UNL     1      50.999   3.854 104.441  1.00  0.00     0.096 C 
ATOM      7  O   UNL     1      52.163   3.377 104.502  1.00  0.00    -0.544 OA
ATOM      8  O   UNL     1      50.818   5.187 104.095  1.00  0.00    -0.544 OA
ENDBRANCH   1   6
TORSDOF 2
ENDMDL
MODEL 6
REMARK VINA RESULT:    -2.595     13.769     13.974
REMARK INTER + INTRA:          -2.822
REMARK INTER:                  -2.822
REMARK INTRA:                   0.000
REMARK UNBOUND:                 0.000
REMARK SMILES [NH3+]CC(=O)[O-]
REMARK SMILES IDX 2 1 1 2 3 6 4 7 5 8
REMARK H PARENT 1 3 1 4 1 5
REMARK Flexibility Score: inf
ROOT
ATOM      1  C   UNL     1      60.162  10.288  90.776  1.00  0.00     0.312 C 
ENDROOT
BRANCH   1   2
ATOM      2  N   UNL     1      61.217  10.864  89.944  1.00  0.00    -0.353 N 
ATOM      3  H   UNL     1      60.835  11.115  89.003  1.00  0.00     0.344 HD
ATOM      4  H   UNL     1      61.581  11.728  90.405  1.00  0.00     0.344 HD
ATOM      5  H   UNL     1      62.002  10.180  89.836  1.00  0.00     0.344 HD
ENDBRANCH   1   2
BRANCH   1   6
ATOM      6  C   UNL     1      58.855  10.281  90.043  1.00  0.00     0.096 C 
ATOM      7  O   UNL     1      57.942   9.484  90.384  1.00  0.00    -0.544 OA
ATOM      8  O   UNL     1      58.667  11.119  88.951  1.00  0.00    -0.544 OA
ENDBRANCH   1   6
TORSDOF 2
ENDMDL
MODEL 7
REMARK VINA RESULT:    -2.588      5.317      5.754
REMARK INTER + INTRA:          -2.815
REMARK INTER:                  -2.815
REMARK INTRA:                   0.000
REMARK UNBOUND:                 0.000
REMARK SMILES [NH3+]CC(=O)[O-]
REMARK SMILES IDX 2 1 1 2 3 6 4 7 5 8
REMARK H PARENT 1 3 1 4 1 5
REMARK Flexibility Score: inf
ROOT
ATOM      1  C   UNL     1      49.113  15.623  95.996  1.00  0.00     0.312 C 
ENDROOT
BRANCH   1   2
ATOM      2  N   UNL     1      49.503  14.548  96.907  1.00  0.00    -0.353 N 
ATOM      3  H   UNL     1      49.209  14.780  97.884  1.00  0.00     0.344 HD
ATOM      4  H   UNL     1      49.033  13.663  96.612  1.00  0.00     0.344 HD
ATOM      5  H   UNL     1      50.540  14.408  96.874  1.00  0.00     0.344 HD
ENDBRANCH   1   2
BRANCH   1   6
ATOM      6  C   UNL     1      49.950  16.843  96.230  1.00  0.00     0.096 C 
ATOM      7  O   UNL     1      50.295  17.160  97.399  1.00  0.00    -0.544 OA
ATOM      8  O   UNL     1      50.306  17.657  95.162  1.00  0.00    -0.544 OA
ENDBRANCH   1   6
TORSDOF 2
ENDMDL
MODEL 8
REMARK VINA RESULT:    -2.569      1.670      1.933
REMARK INTER + INTRA:          -2.794
REMARK INTER:                  -2.794
REMARK INTRA:                   0.000
REMARK UNBOUND:                 0.000
REMARK SMILES [NH3+]CC(=O)[O-]
REMARK SMILES IDX 2 1 1 2 3 6 4 7 5 8
REMARK H PARENT 1 3 1 4 1 5
REMARK Flexibility Score: inf
ROOT
ATOM      1  C   UNL     1      46.707  13.589  93.706  1.00  0.00     0.312 C 
ENDROOT
BRANCH   1   2
ATOM      2  N   UNL     1      46.399  12.710  92.580  1.00  0.00    -0.353 N 
ATOM      3  H   UNL     1      47.282  12.403  92.111  1.00  0.00     0.344 HD
ATOM      4  H   UNL     1      45.891  11.868  92.932  1.00  0.00     0.344 HD
ATOM      5  H   UNL     1      45.789  13.209  91.891  1.00  0.00     0.344 HD
ENDBRANCH   1   2
BRANCH   1   6
ATOM      6  C   UNL     1      46.765  12.809  94.984  1.00  0.00     0.096 C 
ATOM      7  O   UNL     1      46.770  11.550  94.958  1.00  0.00    -0.544 OA
ATOM      8  O   UNL     1      46.760  13.473  96.204  1.00  0.00    -0.544 OA
ENDBRANCH   1   6
TORSDOF 2
ENDMDL
MODEL 9
REMARK VINA RESULT:    -2.538      8.734      8.832
REMARK INTER + INTRA:          -2.761
REMARK INTER:                  -2.761
REMARK INTRA:                   0.000
REMARK UNBOUND:                 0.000
REMARK SMILES [NH3+]CC(=O)[O-]
REMARK SMILES IDX 2 1 1 2 3 6 4 7 5 8
REMARK H PARENT 1 3 1 4 1 5
REMARK Flexibility Score: inf
ROOT
ATOM      1  C   UNL     1      54.412   9.096  93.370  1.00  0.00     0.312 C 
ENDROOT
BRANCH   1   2
ATOM      2  N   UNL     1      53.951   9.350  92.006  1.00  0.00    -0.353 N 
ATOM      3  H   UNL     1      54.771   9.465  91.365  1.00  0.00     0.344 HD
ATOM      4  H   UNL     1      53.378   8.539  91.682  1.00  0.00     0.344 HD
ATOM      5  H   UNL     1      53.361  10.214  91.982  1.00  0.00     0.344 HD
ENDBRANCH   1   2
BRANCH   1   6
ATOM      6  C   UNL     1      53.894   7.781  93.866  1.00  0.00     0.096 C 
ATOM      7  O   UNL     1      52.974   7.188  93.243  1.00  0.00    -0.544 OA
ATOM      8  O   UNL     1      54.393   7.236  95.042  1.00  0.00    -0.544 OA
ENDBRANCH   1   6
TORSDOF 2
ENDMDL
