MODEL 1
REMARK VINA RESULT:    -5.321      0.000      0.000
REMARK INTER + INTRA:          -6.144
REMARK INTER:                  -6.099
REMARK INTRA:                  -0.045
REMARK UNBOUND:                -0.045
REMARK SMILES O=C([O-])c1cc(O)c(O)c(O)c1
REMARK SMILES IDX 4 1 5 2 12 3 6 4 10 5 8 6 2 7 1 8 3 9 7 10 11 12 9 14
REMARK H PARENT 7 11 11 13 9 15
REMARK Flexibility Score: inf
ROOT
ATOM      1  C   UNL     1     -14.722 -32.429  18.689  1.00  0.00     0.005 A 
ATOM      2  C   UNL     1     -15.478 -31.638  19.569  1.00  0.00     0.060 A 
ATOM      3  C   UNL     1     -13.622 -33.145  19.192  1.00  0.00     0.060 A 
ATOM      4  C   UNL     1     -15.145 -31.561  20.929  1.00  0.00     0.162 A 
ATOM      5  C   UNL     1     -13.281 -33.074  20.547  1.00  0.00     0.162 A 
ATOM      6  C   UNL     1     -14.043 -32.281  21.421  1.00  0.00     0.200 A 
ENDROOT
BRANCH   1   7
ATOM      7  C   UNL     1     -15.079 -32.504  17.256  1.00  0.00     0.072 C 
ATOM      8  O   UNL     1     -14.886 -31.521  16.494  1.00  0.00    -0.545 OA
ATOM      9  O   UNL     1     -15.633 -33.665  16.728  1.00  0.00    -0.545 OA
ENDBRANCH   1   7
BRANCH   4  10
ATOM     10  O   UNL     1     -15.905 -30.772  21.791  1.00  0.00    -0.504 OA
ATOM     11  H   UNL     1     -16.687 -30.220  21.457  1.00  0.00     0.293 HD
ENDBRANCH   4  10
BRANCH   5  12
ATOM     12  O   UNL     1     -12.183 -33.801  21.006  1.00  0.00    -0.504 OA
ATOM     13  H   UNL     1     -11.235 -33.581  20.723  1.00  0.00     0.293 HD
ENDBRANCH   5  12
BRANCH   6  14
ATOM     14  O   UNL     1     -13.698 -32.216  22.772  1.00  0.00    -0.502 OA
ATOM     15  H   UNL     1     -12.996 -32.822  23.180  1.00  0.00     0.293 HD
ENDBRANCH   6  14
TORSDOF 4
ENDMDL
MODEL 2
REMARK VINA RESULT:    -5.256      0.129      2.433
REMARK INTER + INTRA:          -6.070
REMARK INTER:                  -6.024
REMARK INTRA:                  -0.046
REMARK UNBOUND:                -0.045
REMARK SMILES O=C([O-])c1cc(O)c(O)c(O)c1
REMARK SMILES IDX 4 1 5 2 12 3 6 4 10 5 8 6 2 7 1 8 3 9 7 10 11 12 9 14
REMARK H PARENT 7 11 11 13 9 15
REMARK Flexibility Score: inf
ROOT
ATOM      1  C   UNL     1     -14.705 -32.316  18.670  1.00  0.00     0.005 A 
ATOM      2  C   UNL     1     -13.612 -33.054  19.153  1.00  0.00     0.060 A 
ATOM      3  C   UNL     1     -15.469 -31.559  19.575  1.00  0.00     0.060 A 
ATOM      4  C   UNL     1     -13.285 -33.039  20.516  1.00  0.00     0.162 A 
ATOM      5  C   UNL     1     -15.150 -31.539  20.937  1.00  0.00     0.162 A 
ATOM      6  C   UNL     1     -14.055 -32.279  21.413  1.00  0.00     0.200 A 
ENDROOT
BRANCH   1   7
ATOM      7  C   UNL     1     -15.045 -32.337  17.231  1.00  0.00     0.072 C 
ATOM      8  O   UNL     1     -14.970 -31.287  16.538  1.00  0.00    -0.545 OA
ATOM      9  O   UNL     1     -15.451 -33.518  16.620  1.00  0.00    -0.545 OA
ENDBRANCH   1   7
BRANCH   4  10
ATOM     10  O   UNL     1     -12.196 -33.776  20.981  1.00  0.00    -0.504 OA
ATOM     11  H   UNL     1     -11.803 -33.620  21.902  1.00  0.00     0.293 HD
ENDBRANCH   4  10
BRANCH   5  12
ATOM     12  O   UNL     1     -15.933 -30.774  21.802  1.00  0.00    -0.504 OA
ATOM     13  H   UNL     1     -16.891 -31.020  22.020  1.00  0.00     0.293 HD
ENDBRANCH   5  12
BRANCH   6  14
ATOM     14  O   UNL     1     -13.743 -32.253  22.773  1.00  0.00    -0.502 OA
ATOM     15  H   UNL     1     -14.096 -31.536  23.395  1.00  0.00     0.293 HD
ENDBRANCH   6  14
TORSDOF 4
ENDMDL
MODEL 3
REMARK VINA RESULT:    -5.040      5.844      7.859
REMARK INTER + INTRA:          -5.822
REMARK INTER:                  -5.778
REMARK INTRA:                  -0.045
REMARK UNBOUND:                -0.045
REMARK SMILES O=C([O-])c1cc(O)c(O)c(O)c1
REMARK SMILES IDX 4 1 5 2 12 3 6 4 10 5 8 6 2 7 1 8 3 9 7 10 11 12 9 14
REMARK H PARENT 7 11 11 13 9 15
REMARK Flexibility Score: inf
ROOT
ATOM      1  C   UNL     1     -20.622 -32.651  19.546  1.00  0.00     0.005 A 
ATOM      2  C   UNL     1     -19.837 -31.642  18.965  1.00  0.00     0.060 A 
ATOM      3  C   UNL     1     -21.769 -33.098  18.866  1.00  0.00     0.060 A 
ATOM      4  C   UNL     1     -20.187 -31.086  17.727  1.00  0.00     0.162 A 
ATOM      5  C   UNL     1     -22.126 -32.548  17.630  1.00  0.00     0.162 A 
ATOM      6  C   UNL     1     -21.335 -31.539  17.056  1.00  0.00     0.200 A 
ENDROOT
BRANCH   1   7
ATOM      7  C   UNL     1     -20.247 -33.233  20.853  1.00  0.00     0.072 C 
ATOM      8  O   UNL     1     -20.541 -32.644  21.926  1.00  0.00    -0.545 OA
ATOM      9  O   UNL     1     -19.564 -34.443  20.915  1.00  0.00    -0.545 OA
ENDBRANCH   1   7
BRANCH   4  10
ATOM     10  O   UNL     1     -19.397 -30.085  17.162  1.00  0.00    -0.504 OA
ATOM     11  H   UNL     1     -19.575 -29.104  17.341  1.00  0.00     0.293 HD
ENDBRANCH   4  10
BRANCH   5  12
ATOM     12  O   UNL     1     -23.271 -33.019  16.988  1.00  0.00    -0.504 OA
ATOM     13  H   UNL     1     -23.597 -33.972  17.098  1.00  0.00     0.293 HD
ENDBRANCH   5  12
BRANCH   6  14
ATOM     14  O   UNL     1     -21.698 -30.996  15.822  1.00  0.00    -0.502 OA
ATOM     15  H   UNL     1     -22.423 -31.405  15.244  1.00  0.00     0.293 HD
ENDBRANCH   6  14
TORSDOF 4
ENDMDL
MODEL 4
REMARK VINA RESULT:    -4.989      5.818      7.821
REMARK INTER + INTRA:          -5.763
REMARK INTER:                  -5.718
REMARK INTRA:                  -0.046
REMARK UNBOUND:                -0.045
REMARK SMILES O=C([O-])c1cc(O)c(O)c(O)c1
REMARK SMILES IDX 4 1 5 2 12 3 6 4 10 5 8 6 2 7 1 8 3 9 7 10 11 12 9 14
REMARK H PARENT 7 11 11 13 9 15
REMARK Flexibility Score: inf
ROOT
ATOM      1  C   UNL     1     -20.600 -32.560  19.523  1.00  0.00     0.005 A 
ATOM      2  C   UNL     1     -21.740 -33.049  18.865  1.00  0.00     0.060 A 
ATOM      3  C   UNL     1     -19.839 -31.551  18.909  1.00  0.00     0.060 A 
ATOM      4  C   UNL     1     -22.118 -32.539  17.615  1.00  0.00     0.162 A 
ATOM      5  C   UNL     1     -20.208 -31.037  17.661  1.00  0.00     0.162 A 
ATOM      6  C   UNL     1     -21.351 -31.530  17.009  1.00  0.00     0.200 A 
ENDROOT
BRANCH   1   7
ATOM      7  C   UNL     1     -20.207 -33.103  20.842  1.00  0.00     0.072 C 
ATOM      8  O   UNL     1     -19.780 -34.283  20.949  1.00  0.00    -0.545 OA
ATOM      9  O   UNL     1     -20.302 -32.316  21.984  1.00  0.00    -0.545 OA
ENDBRANCH   1   7
BRANCH   4  10
ATOM     10  O   UNL     1     -23.254 -33.033  16.973  1.00  0.00    -0.504 OA
ATOM     11  H   UNL     1     -24.181 -32.688  17.193  1.00  0.00     0.293 HD
ENDBRANCH   4  10
BRANCH   5  12
ATOM     12  O   UNL     1     -19.427 -30.034  17.086  1.00  0.00    -0.504 OA
ATOM     13  H   UNL     1     -19.718 -29.064  17.076  1.00  0.00     0.293 HD
ENDBRANCH   5  12
BRANCH   6  14
ATOM     14  O   UNL     1     -21.713 -31.011  15.765  1.00  0.00    -0.502 OA
ATOM     15  H   UNL     1     -21.742 -31.583  14.929  1.00  0.00     0.293 HD
ENDBRANCH   6  14
TORSDOF 4
ENDMDL
MODEL 5
REMARK VINA RESULT:    -4.975      1.663      2.060
REMARK INTER + INTRA:          -5.748
REMARK INTER:                  -5.697
REMARK INTRA:                  -0.051
REMARK UNBOUND:                -0.045
REMARK SMILES O=C([O-])c1cc(O)c(O)c(O)c1
REMARK SMILES IDX 4 1 5 2 12 3 6 4 10 5 8 6 2 7 1 8 3 9 7 10 11 12 9 14
REMARK H PARENT 7 11 11 13 9 15
REMARK Flexibility Score: inf
ROOT
ATOM      1  C   UNL     1     -14.184 -31.912  19.305  1.00  0.00     0.005 A 
ATOM      2  C   UNL     1     -14.530 -32.031  20.661  1.00  0.00     0.060 A 
ATOM      3  C   UNL     1     -12.825 -31.879  18.948  1.00  0.00     0.060 A 
ATOM      4  C   UNL     1     -13.537 -32.117  21.647  1.00  0.00     0.162 A 
ATOM      5  C   UNL     1     -11.828 -31.963  19.926  1.00  0.00     0.162 A 
ATOM      6  C   UNL     1     -12.181 -32.083  21.281  1.00  0.00     0.200 A 
ENDROOT
BRANCH   1   7
ATOM      7  C   UNL     1     -15.237 -31.822  18.270  1.00  0.00     0.072 C 
ATOM      8  O   UNL     1     -15.008 -32.189  17.087  1.00  0.00    -0.545 OA
ATOM      9  O   UNL     1     -16.498 -31.330  18.588  1.00  0.00    -0.545 OA
ENDBRANCH   1   7
BRANCH   4  10
ATOM     10  O   UNL     1     -13.894 -32.235  22.990  1.00  0.00    -0.504 OA
ATOM     11  H   UNL     1     -13.878 -33.129  23.467  1.00  0.00     0.293 HD
ENDBRANCH   4  10
BRANCH   5  12
ATOM     12  O   UNL     1     -10.490 -31.928  19.530  1.00  0.00    -0.504 OA
ATOM     13  H   UNL     1      -9.889 -31.139  19.734  1.00  0.00     0.293 HD
ENDBRANCH   5  12
BRANCH   6  14
ATOM     14  O   UNL     1     -11.180 -32.167  22.249  1.00  0.00    -0.502 OA
ATOM     15  H   UNL     1     -11.177 -32.886  22.963  1.00  0.00     0.293 HD
ENDBRANCH   6  14
TORSDOF 4
ENDMDL
MODEL 6
REMARK VINA RESULT:    -4.968      1.665      2.805
REMARK INTER + INTRA:          -5.740
REMARK INTER:                  -5.687
REMARK INTRA:                  -0.052
REMARK UNBOUND:                -0.045
REMARK SMILES O=C([O-])c1cc(O)c(O)c(O)c1
REMARK SMILES IDX 4 1 5 2 12 3 6 4 10 5 8 6 2 7 1 8 3 9 7 10 11 12 9 14
REMARK H PARENT 7 11 11 13 9 15
REMARK Flexibility Score: inf
ROOT
ATOM      1  C   UNL     1     -14.172 -31.882  19.311  1.00  0.00     0.005 A 
ATOM      2  C   UNL     1     -12.817 -31.872  18.941  1.00  0.00     0.060 A 
ATOM      3  C   UNL     1     -14.507 -32.001  20.671  1.00  0.00     0.060 A 
ATOM      4  C   UNL     1     -11.811 -31.979  19.911  1.00  0.00     0.162 A 
ATOM      5  C   UNL     1     -13.508 -32.109  21.645  1.00  0.00     0.162 A 
ATOM      6  C   UNL     1     -12.155 -32.098  21.267  1.00  0.00     0.200 A 
ENDROOT
BRANCH   1   7
ATOM      7  C   UNL     1     -15.229 -31.769  18.282  1.00  0.00     0.072 C 
ATOM      8  O   UNL     1     -14.958 -31.930  17.063  1.00  0.00    -0.545 OA
ATOM      9  O   UNL     1     -16.540 -31.484  18.648  1.00  0.00    -0.545 OA
ENDBRANCH   1   7
BRANCH   4  10
ATOM     10  O   UNL     1     -10.469 -31.967  19.529  1.00  0.00    -0.504 OA
ATOM     11  H   UNL     1      -9.870 -32.773  19.666  1.00  0.00     0.293 HD
ENDBRANCH   4  10
BRANCH   5  12
ATOM     12  O   UNL     1     -13.882 -32.225  22.984  1.00  0.00    -0.504 OA
ATOM     13  H   UNL     1     -14.023 -33.124  23.428  1.00  0.00     0.293 HD
ENDBRANCH   5  12
BRANCH   6  14
ATOM     14  O   UNL     1     -11.165 -32.205  22.245  1.00  0.00    -0.502 OA
ATOM     15  H   UNL     1     -10.396 -31.549  22.311  1.00  0.00     0.293 HD
ENDBRANCH   6  14
TORSDOF 4
ENDMDL
MODEL 7
REMARK VINA RESULT:    -4.962      1.657      2.344
REMARK INTER + INTRA:          -5.733
REMARK INTER:                  -5.688
REMARK INTRA:                  -0.045
REMARK UNBOUND:                -0.045
REMARK SMILES O=C([O-])c1cc(O)c(O)c(O)c1
REMARK SMILES IDX 4 1 5 2 12 3 6 4 10 5 8 6 2 7 1 8 3 9 7 10 11 12 9 14
REMARK H PARENT 7 11 11 13 9 15
REMARK Flexibility Score: inf
ROOT
ATOM      1  C   UNL     1     -13.703 -33.090  19.136  1.00  0.00     0.005 A 
ATOM      2  C   UNL     1     -14.832 -32.383  18.691  1.00  0.00     0.060 A 
ATOM      3  C   UNL     1     -13.344 -33.015  20.493  1.00  0.00     0.060 A 
ATOM      4  C   UNL     1     -15.591 -31.613  19.583  1.00  0.00     0.162 A 
ATOM      5  C   UNL     1     -14.097 -32.250  21.390  1.00  0.00     0.162 A 
ATOM      6  C   UNL     1     -15.225 -31.545  20.937  1.00  0.00     0.200 A 
ENDROOT
BRANCH   1   7
ATOM      7  C   UNL     1     -12.905 -33.899  18.189  1.00  0.00     0.072 C 
ATOM      8  O   UNL     1     -11.997 -33.367  17.497  1.00  0.00    -0.545 OA
ATOM      9  O   UNL     1     -13.146 -35.261  18.050  1.00  0.00    -0.545 OA
ENDBRANCH   1   7
BRANCH   4  10
ATOM     10  O   UNL     1     -16.711 -30.917  19.127  1.00  0.00    -0.504 OA
ATOM     11  H   UNL     1     -17.228 -31.219  18.310  1.00  0.00     0.293 HD
ENDBRANCH   4  10
BRANCH   5  12
ATOM     12  O   UNL     1     -13.707 -32.203  22.729  1.00  0.00    -0.504 OA
ATOM     13  H   UNL     1     -14.117 -31.550  23.386  1.00  0.00     0.293 HD
ENDBRANCH   5  12
BRANCH   6  14
ATOM     14  O   UNL     1     -15.971 -30.784  21.839  1.00  0.00    -0.502 OA
ATOM     15  H   UNL     1     -15.773 -29.806  22.013  1.00  0.00     0.293 HD
ENDBRANCH   6  14
TORSDOF 4
ENDMDL
MODEL 8
REMARK VINA RESULT:    -4.844      1.817      3.043
REMARK INTER + INTRA:          -5.597
REMARK INTER:                  -5.550
REMARK INTRA:                  -0.046
REMARK UNBOUND:                -0.045
REMARK SMILES O=C([O-])c1cc(O)c(O)c(O)c1
REMARK SMILES IDX 4 1 5 2 12 3 6 4 10 5 8 6 2 7 1 8 3 9 7 10 11 12 9 14
REMARK H PARENT 7 11 11 13 9 15
REMARK Flexibility Score: inf
ROOT
ATOM      1  C   UNL     1     -15.597 -31.589  19.435  1.00  0.00     0.005 A 
ATOM      2  C   UNL     1     -14.541 -31.815  18.537  1.00  0.00     0.060 A 
ATOM      3  C   UNL     1     -15.354 -31.700  20.815  1.00  0.00     0.060 A 
ATOM      4  C   UNL     1     -13.262 -32.146  19.006  1.00  0.00     0.162 A 
ATOM      5  C   UNL     1     -14.080 -32.031  21.292  1.00  0.00     0.162 A 
ATOM      6  C   UNL     1     -13.029 -32.255  20.387  1.00  0.00     0.200 A 
ENDROOT
BRANCH   1   7
ATOM      7  C   UNL     1     -16.944 -31.241  18.934  1.00  0.00     0.072 C 
ATOM      8  O   UNL     1     -17.935 -31.974  19.192  1.00  0.00    -0.545 OA
ATOM      9  O   UNL     1     -17.137 -30.096  18.169  1.00  0.00    -0.545 OA
ENDBRANCH   1   7
BRANCH   4  10
ATOM     10  O   UNL     1     -12.222 -32.366  18.103  1.00  0.00    -0.504 OA
ATOM     11  H   UNL     1     -11.663 -33.211  18.132  1.00  0.00     0.293 HD
ENDBRANCH   4  10
BRANCH   5  12
ATOM     12  O   UNL     1     -13.880 -32.130  22.669  1.00  0.00    -0.504 OA
ATOM     13  H   UNL     1     -14.260 -32.895  23.214  1.00  0.00     0.293 HD
ENDBRANCH   5  12
BRANCH   6  14
ATOM     14  O   UNL     1     -11.761 -32.583  20.871  1.00  0.00    -0.502 OA
ATOM     15  H   UNL     1     -11.519 -32.501  21.851  1.00  0.00     0.293 HD
ENDBRANCH   6  14
TORSDOF 4
ENDMDL
MODEL 9
REMARK VINA RESULT:    -4.805      1.770      2.630
REMARK INTER + INTRA:          -5.553
REMARK INTER:                  -5.506
REMARK INTRA:                  -0.047
REMARK UNBOUND:                -0.045
REMARK SMILES O=C([O-])c1cc(O)c(O)c(O)c1
REMARK SMILES IDX 4 1 5 2 12 3 6 4 10 5 8 6 2 7 1 8 3 9 7 10 11 12 9 14
REMARK H PARENT 7 11 11 13 9 15
REMARK Flexibility Score: inf
ROOT
ATOM      1  C   UNL     1     -15.670 -31.568  19.454  1.00  0.00     0.005 A 
ATOM      2  C   UNL     1     -15.391 -31.668  20.827  1.00  0.00     0.060 A 
ATOM      3  C   UNL     1     -14.654 -31.861  18.529  1.00  0.00     0.060 A 
ATOM      4  C   UNL     1     -14.119 -32.055  21.271  1.00  0.00     0.162 A 
ATOM      5  C   UNL     1     -13.381 -32.247  18.964  1.00  0.00     0.162 A 
ATOM      6  C   UNL     1     -13.109 -32.346  20.339  1.00  0.00     0.200 A 
ENDROOT
BRANCH   1   7
ATOM      7  C   UNL     1     -17.014 -31.158  18.993  1.00  0.00     0.072 C 
ATOM      8  O   UNL     1     -18.038 -31.802  19.345  1.00  0.00    -0.545 OA
ATOM      9  O   UNL     1     -17.168 -30.054  18.162  1.00  0.00    -0.545 OA
ENDBRANCH   1   7
BRANCH   4  10
ATOM     10  O   UNL     1     -13.856 -32.152  22.638  1.00  0.00    -0.504 OA
ATOM     11  H   UNL     1     -12.941 -32.415  22.986  1.00  0.00     0.293 HD
ENDBRANCH   4  10
BRANCH   5  12
ATOM     12  O   UNL     1     -12.401 -32.530  18.013  1.00  0.00    -0.504 OA
ATOM     13  H   UNL     1     -11.528 -32.017  17.970  1.00  0.00     0.293 HD
ENDBRANCH   5  12
BRANCH   6  14
ATOM     14  O   UNL     1     -11.838 -32.733  20.764  1.00  0.00    -0.502 OA
ATOM     15  H   UNL     1     -11.054 -32.091  20.780  1.00  0.00     0.293 HD
ENDBRANCH   6  14
TORSDOF 4
ENDMDL
