MODEL 1
REMARK VINA RESULT:    -8.333      0.000      0.000
REMARK INTER + INTRA:         -12.655
REMARK INTER:                 -11.499
REMARK INTRA:                  -1.155
REMARK UNBOUND:                -1.155
REMARK SMILES O=C([O-])[C@H]1O[C@H](Oc2cc3oc(-c4ccccc4)cc(=O)c3c(O)c2O)[C@H](O)[C@@H](O)[C@H]1O
REMARK SMILES IDX 7 1 6 2 4 3 31 4 5 5 29 6 27 7 2 8 1 9 3 10 32 11 30 13
REMARK SMILES IDX 28 15 8 17 25 18 9 19 23 20 10 21 22 22 11 23 20 24 12 25
REMARK SMILES IDX 19 26 21 27 26 28 24 30 13 32 14 33 18 34 15 35 17 36 16 37
REMARK H PARENT 32 12 30 14 28 16 26 29 24 31
REMARK Flexibility Score: inf
ROOT
ATOM      1  O   UNL     1       1.112  -0.019  -4.625  1.00  0.00    -0.458 OA
ENDROOT
BRANCH   1   2
ATOM      2  C   UNL     1       1.385  -1.388  -4.307  1.00  0.00     0.339 C 
ATOM      3  C   UNL     1      -0.890  -1.983  -4.342  1.00  0.00     0.199 C 
ATOM      4  C   UNL     1      -0.737  -2.887  -5.584  1.00  0.00     0.180 C 
ATOM      5  O   UNL     1       0.311  -1.975  -3.582  1.00  0.00    -0.328 OA
ATOM      6  C   UNL     1       0.423  -2.358  -6.450  1.00  0.00     0.181 C 
ATOM      7  C   UNL     1       1.690  -2.196  -5.590  1.00  0.00     0.214 C 
BRANCH   3   8
ATOM      8  C   UNL     1      -2.027  -2.449  -3.474  1.00  0.00     0.073 C 
ATOM      9  O   UNL     1      -2.958  -3.144  -3.959  1.00  0.00    -0.547 OA
ATOM     10  O   UNL     1      -2.014  -2.195  -2.107  1.00  0.00    -0.547 OA
ENDBRANCH   3   8
BRANCH   4  11
ATOM     11  O   UNL     1      -0.487  -4.211  -5.179  1.00  0.00    -0.387 OA
ATOM     12  H   UNL     1       0.496  -4.343  -5.213  1.00  0.00     0.211 HD
ENDBRANCH   4  11
BRANCH   6  13
ATOM     13  O   UNL     1       0.687  -3.238  -7.512  1.00  0.00    -0.387 OA
ATOM     14  H   UNL     1       1.339  -3.909  -7.175  1.00  0.00     0.211 HD
ENDBRANCH   6  13
BRANCH   7  15
ATOM     15  O   UNL     1       2.737  -1.606  -6.323  1.00  0.00    -0.384 OA
ATOM     16  H   UNL     1       2.368  -1.303  -7.193  1.00  0.00     0.211 HD
ENDBRANCH   7  15
ENDBRANCH   1   2
BRANCH   1  17
ATOM     17  C   UNL     1       1.461   1.114  -3.863  1.00  0.00     0.172 A 
ATOM     18  C   UNL     1       0.572   2.173  -3.551  1.00  0.00     0.201 A 
ATOM     19  C   UNL     1       2.777   1.163  -3.403  1.00  0.00     0.098 A 
ATOM     20  C   UNL     1       1.012   3.242  -2.724  1.00  0.00     0.176 A 
ATOM     21  C   UNL     1       3.224   2.214  -2.607  1.00  0.00     0.146 A 
ATOM     22  C   UNL     1       2.350   3.265  -2.259  1.00  0.00     0.111 A 
ATOM     23  O   UNL     1       4.479   2.200  -2.170  1.00  0.00    -0.456 OA
ATOM     24  C   UNL     1       2.863   4.288  -1.432  1.00  0.00     0.197 A 
ATOM     25  C   UNL     1       4.997   3.146  -1.388  1.00  0.00     0.138 A 
ATOM     26  C   UNL     1       4.188   4.225  -0.994  1.00  0.00     0.100 A 
ATOM     27  O   UNL     1       2.151   5.263  -1.071  1.00  0.00    -0.289 OA
BRANCH  18  28
ATOM     28  O   UNL     1      -0.719   2.158  -4.083  1.00  0.00    -0.502 OA
ATOM     29  H   UNL     1      -0.976   2.528  -4.985  1.00  0.00     0.293 HD
ENDBRANCH  18  28
BRANCH  20  30
ATOM     30  O   UNL     1       0.144   4.270  -2.338  1.00  0.00    -0.504 OA
ATOM     31  H   UNL     1       0.433   5.184  -2.025  1.00  0.00     0.293 HD
ENDBRANCH  20  30
BRANCH  25  32
ATOM     32  C   UNL     1       6.412   3.005  -0.941  1.00  0.00     0.017 A 
ATOM     33  C   UNL     1       6.967   3.822   0.068  1.00  0.00     0.012 A 
ATOM     34  C   UNL     1       7.232   2.037  -1.552  1.00  0.00     0.012 A 
ATOM     35  C   UNL     1       8.293   3.642   0.476  1.00  0.00     0.001 A 
ATOM     36  C   UNL     1       8.556   1.867  -1.142  1.00  0.00     0.001 A 
ATOM     37  C   UNL     1       9.084   2.662  -0.123  1.00  0.00     0.000 A 
ENDBRANCH  25  32
ENDBRANCH   1  17
TORSDOF 9
ENDMDL
MODEL 2
REMARK VINA RESULT:    -8.325      6.134     10.596
REMARK INTER + INTRA:         -12.644
REMARK INTER:                 -11.606
REMARK INTRA:                  -1.039
REMARK UNBOUND:                -1.155
REMARK SMILES O=C([O-])[C@H]1O[C@H](Oc2cc3oc(-c4ccccc4)cc(=O)c3c(O)c2O)[C@H](O)[C@@H](O)[C@H]1O
REMARK SMILES IDX 7 1 6 2 4 3 31 4 5 5 29 6 27 7 2 8 1 9 3 10 32 11 30 13
REMARK SMILES IDX 28 15 8 17 25 18 9 19 23 20 10 21 22 22 11 23 20 24 12 25
REMARK SMILES IDX 19 26 21 27 26 28 24 30 13 32 14 33 18 34 15 35 17 36 16 37
REMARK H PARENT 32 12 30 14 28 16 26 29 24 31
REMARK Flexibility Score: inf
ROOT
ATOM      1  O   UNL     1      -5.983  -3.319   1.468  1.00  0.00    -0.458 OA
ENDROOT
BRANCH   1   2
ATOM      2  C   UNL     1      -7.381  -3.030   1.355  1.00  0.00     0.339 C 
ATOM      3  C   UNL     1      -7.959  -4.523   3.077  1.00  0.00     0.199 C 
ATOM      4  C   UNL     1      -8.437  -3.401   4.025  1.00  0.00     0.180 C 
ATOM      5  O   UNL     1      -8.173  -4.153   1.722  1.00  0.00    -0.328 OA
ATOM      6  C   UNL     1      -7.656  -2.110   3.708  1.00  0.00     0.181 C 
ATOM      7  C   UNL     1      -7.753  -1.793   2.205  1.00  0.00     0.214 C 
BRANCH   3   8
ATOM      8  C   UNL     1      -8.682  -5.811   3.363  1.00  0.00     0.073 C 
ATOM      9  O   UNL     1      -8.670  -6.751   2.526  1.00  0.00    -0.547 OA
ATOM     10  O   UNL     1      -9.294  -6.013   4.596  1.00  0.00    -0.547 OA
ENDBRANCH   3   8
BRANCH   4  11
ATOM     11  O   UNL     1      -9.819  -3.196   3.857  1.00  0.00    -0.387 OA
ATOM     12  H   UNL     1     -10.261  -4.073   4.002  1.00  0.00     0.211 HD
ENDBRANCH   4  11
BRANCH   6  13
ATOM     13  O   UNL     1      -8.165  -1.032   4.449  1.00  0.00    -0.387 OA
ATOM     14  H   UNL     1      -8.891  -0.625   3.905  1.00  0.00     0.211 HD
ENDBRANCH   6  13
BRANCH   7  15
ATOM     15  O   UNL     1      -6.956  -0.684   1.861  1.00  0.00    -0.384 OA
ATOM     16  H   UNL     1      -6.722  -0.761   0.900  1.00  0.00     0.211 HD
ENDBRANCH   7  15
ENDBRANCH   1   2
BRANCH   1  17
ATOM     17  C   UNL     1      -5.031  -3.323   0.428  1.00  0.00     0.172 A 
ATOM     18  C   UNL     1      -4.344  -4.478  -0.022  1.00  0.00     0.201 A 
ATOM     19  C   UNL     1      -4.773  -2.091  -0.173  1.00  0.00     0.098 A 
ATOM     20  C   UNL     1      -3.447  -4.381  -1.119  1.00  0.00     0.176 A 
ATOM     21  C   UNL     1      -3.883  -1.981  -1.237  1.00  0.00     0.146 A 
ATOM     22  C   UNL     1      -3.208  -3.121  -1.722  1.00  0.00     0.111 A 
ATOM     23  O   UNL     1      -3.692  -0.790  -1.795  1.00  0.00    -0.456 OA
ATOM     24  C   UNL     1      -2.335  -2.941  -2.816  1.00  0.00     0.197 A 
ATOM     25  C   UNL     1      -2.878  -0.582  -2.828  1.00  0.00     0.138 A 
ATOM     26  C   UNL     1      -2.173  -1.670  -3.371  1.00  0.00     0.100 A 
ATOM     27  O   UNL     1      -1.694  -3.906  -3.315  1.00  0.00    -0.289 OA
BRANCH  18  28
ATOM     28  O   UNL     1      -4.547  -5.692   0.638  1.00  0.00    -0.502 OA
ATOM     29  H   UNL     1      -4.637  -5.798   1.637  1.00  0.00     0.293 HD
ENDBRANCH  18  28
BRANCH  20  30
ATOM     30  O   UNL     1      -2.802  -5.512  -1.637  1.00  0.00    -0.504 OA
ATOM     31  H   UNL     1      -3.080  -6.003  -2.472  1.00  0.00     0.293 HD
ENDBRANCH  20  30
BRANCH  25  32
ATOM     32  C   UNL     1      -2.769   0.796  -3.383  1.00  0.00     0.017 A 
ATOM     33  C   UNL     1      -1.640   1.614  -3.153  1.00  0.00     0.012 A 
ATOM     34  C   UNL     1      -3.829   1.313  -4.152  1.00  0.00     0.012 A 
ATOM     35  C   UNL     1      -1.566   2.893  -3.712  1.00  0.00     0.001 A 
ATOM     36  C   UNL     1      -3.749   2.594  -4.703  1.00  0.00     0.001 A 
ATOM     37  C   UNL     1      -2.615   3.380  -4.491  1.00  0.00     0.000 A 
ENDBRANCH  25  32
ENDBRANCH   1  17
TORSDOF 9
ENDMDL
MODEL 3
REMARK VINA RESULT:    -8.305      1.830      9.019
REMARK INTER + INTRA:         -12.617
REMARK INTER:                 -11.465
REMARK INTRA:                  -1.151
REMARK UNBOUND:                -1.155
REMARK SMILES O=C([O-])[C@H]1O[C@H](Oc2cc3oc(-c4ccccc4)cc(=O)c3c(O)c2O)[C@H](O)[C@@H](O)[C@H]1O
REMARK SMILES IDX 7 1 6 2 4 3 31 4 5 5 29 6 27 7 2 8 1 9 3 10 32 11 30 13
REMARK SMILES IDX 28 15 8 17 25 18 9 19 23 20 10 21 22 22 11 23 20 24 12 25
REMARK SMILES IDX 19 26 21 27 26 28 24 30 13 32 14 33 18 34 15 35 17 36 16 37
REMARK H PARENT 32 12 30 14 28 16 26 29 24 31
REMARK Flexibility Score: inf
ROOT
ATOM      1  O   UNL     1       2.333   2.488  -3.311  1.00  0.00    -0.458 OA
ENDROOT
BRANCH   1   2
ATOM      2  C   UNL     1       2.188   2.773  -1.915  1.00  0.00     0.339 C 
ATOM      3  C   UNL     1       4.272   3.854  -1.789  1.00  0.00     0.199 C 
ATOM      4  C   UNL     1       3.649   5.237  -1.502  1.00  0.00     0.180 C 
ATOM      5  O   UNL     1       3.451   2.821  -1.263  1.00  0.00    -0.328 OA
ATOM      6  C   UNL     1       2.251   5.303  -2.150  1.00  0.00     0.181 C 
ATOM      7  C   UNL     1       1.409   4.092  -1.706  1.00  0.00     0.214 C 
BRANCH   3   8
ATOM      8  C   UNL     1       5.649   3.751  -1.191  1.00  0.00     0.073 C 
ATOM      9  O   UNL     1       6.293   4.788  -0.884  1.00  0.00    -0.547 OA
ATOM     10  O   UNL     1       6.189   2.505  -0.887  1.00  0.00    -0.547 OA
ENDBRANCH   3   8
BRANCH   4  11
ATOM     11  O   UNL     1       3.559   5.438  -0.112  1.00  0.00    -0.387 OA
ATOM     12  H   UNL     1       3.128   4.629   0.269  1.00  0.00     0.211 HD
ENDBRANCH   4  11
BRANCH   6  13
ATOM     13  O   UNL     1       1.594   6.489  -1.787  1.00  0.00    -0.387 OA
ATOM     14  H   UNL     1       2.077   6.857  -1.000  1.00  0.00     0.211 HD
ENDBRANCH   6  13
BRANCH   7  15
ATOM     15  O   UNL     1       0.168   4.059  -2.369  1.00  0.00    -0.384 OA
ATOM     16  H   UNL     1      -0.361   3.309  -1.990  1.00  0.00     0.211 HD
ENDBRANCH   7  15
ENDBRANCH   1   2
BRANCH   1  17
ATOM     17  C   UNL     1       2.102   1.254  -3.953  1.00  0.00     0.172 A 
ATOM     18  C   UNL     1       2.895   0.742  -5.010  1.00  0.00     0.201 A 
ATOM     19  C   UNL     1       1.013   0.516  -3.491  1.00  0.00     0.098 A 
ATOM     20  C   UNL     1       2.609  -0.542  -5.548  1.00  0.00     0.176 A 
ATOM     21  C   UNL     1       0.713  -0.736  -4.021  1.00  0.00     0.146 A 
ATOM     22  C   UNL     1       1.504  -1.279  -5.055  1.00  0.00     0.111 A 
ATOM     23  O   UNL     1      -0.319  -1.412  -3.527  1.00  0.00    -0.456 OA
ATOM     24  C   UNL     1       1.156  -2.561  -5.533  1.00  0.00     0.197 A 
ATOM     25  C   UNL     1      -0.677  -2.623  -3.952  1.00  0.00     0.138 A 
ATOM     26  C   UNL     1       0.066  -3.234  -4.977  1.00  0.00     0.100 A 
ATOM     27  O   UNL     1       1.810  -3.122  -6.452  1.00  0.00    -0.289 OA
BRANCH  18  28
ATOM     28  O   UNL     1       3.934   1.523  -5.522  1.00  0.00    -0.502 OA
ATOM     29  H   UNL     1       3.877   2.514  -5.702  1.00  0.00     0.293 HD
ENDBRANCH  18  28
BRANCH  20  30
ATOM     30  O   UNL     1       3.411  -1.110  -6.545  1.00  0.00    -0.504 OA
ATOM     31  H   UNL     1       4.306  -1.546  -6.388  1.00  0.00     0.293 HD
ENDBRANCH  20  30
BRANCH  25  32
ATOM     32  C   UNL     1      -1.837  -3.292  -3.300  1.00  0.00     0.017 A 
ATOM     33  C   UNL     1      -2.282  -4.576  -3.688  1.00  0.00     0.012 A 
ATOM     34  C   UNL     1      -2.528  -2.623  -2.272  1.00  0.00     0.012 A 
ATOM     35  C   UNL     1      -3.361  -5.180  -3.035  1.00  0.00     0.001 A 
ATOM     36  C   UNL     1      -3.608  -3.231  -1.628  1.00  0.00     0.001 A 
ATOM     37  C   UNL     1      -4.018  -4.512  -2.002  1.00  0.00     0.000 A 
ENDBRANCH  25  32
ENDBRANCH   1  17
TORSDOF 9
ENDMDL
MODEL 4
REMARK VINA RESULT:    -8.209      3.556      8.806
REMARK INTER + INTRA:         -12.483
REMARK INTER:                 -11.423
REMARK INTRA:                  -1.059
REMARK UNBOUND:                -1.155
REMARK SMILES O=C([O-])[C@H]1O[C@H](Oc2cc3oc(-c4ccccc4)cc(=O)c3c(O)c2O)[C@H](O)[C@@H](O)[C@H]1O
REMARK SMILES IDX 7 1 6 2 4 3 31 4 5 5 29 6 27 7 2 8 1 9 3 10 32 11 30 13
REMARK SMILES IDX 28 15 8 17 25 18 9 19 23 20 10 21 22 22 11 23 20 24 12 25
REMARK SMILES IDX 19 26 21 27 26 28 24 30 13 32 14 33 18 34 15 35 17 36 16 37
REMARK H PARENT 32 12 30 14 28 16 26 29 24 31
REMARK Flexibility Score: inf
ROOT
ATOM      1  O   UNL     1       1.039   4.792  -2.753  1.00  0.00    -0.458 OA
ENDROOT
BRANCH   1   2
ATOM      2  C   UNL     1       1.654   4.465  -1.501  1.00  0.00     0.339 C 
ATOM      3  C   UNL     1       3.587   3.607  -2.529  1.00  0.00     0.199 C 
ATOM      4  C   UNL     1       4.497   4.726  -1.977  1.00  0.00     0.180 C 
ATOM      5  O   UNL     1       2.521   3.345  -1.627  1.00  0.00    -0.328 OA
ATOM      6  C   UNL     1       3.658   6.004  -1.777  1.00  0.00     0.181 C 
ATOM      7  C   UNL     1       2.411   5.686  -0.930  1.00  0.00     0.214 C 
BRANCH   3   8
ATOM      8  C   UNL     1       4.369   2.343  -2.759  1.00  0.00     0.073 C 
ATOM      9  O   UNL     1       5.617   2.382  -2.914  1.00  0.00    -0.547 OA
ATOM     10  O   UNL     1       3.732   1.107  -2.713  1.00  0.00    -0.547 OA
ENDBRANCH   3   8
BRANCH   4  11
ATOM     11  O   UNL     1       5.068   4.315  -0.759  1.00  0.00    -0.387 OA
ATOM     12  H   UNL     1       6.053   4.356  -0.873  1.00  0.00     0.211 HD
ENDBRANCH   4  11
BRANCH   6  13
ATOM     13  O   UNL     1       4.416   6.998  -1.140  1.00  0.00    -0.387 OA
ATOM     14  H   UNL     1       3.998   7.156  -0.253  1.00  0.00     0.211 HD
ENDBRANCH   6  13
BRANCH   7  15
ATOM     15  O   UNL     1       1.563   6.805  -0.825  1.00  0.00    -0.384 OA
ATOM     16  H   UNL     1       0.661   6.482  -0.565  1.00  0.00     0.211 HD
ENDBRANCH   7  15
ENDBRANCH   1   2
BRANCH   1  17
ATOM     17  C   UNL     1      -0.159   4.260  -3.272  1.00  0.00     0.172 A 
ATOM     18  C   UNL     1      -0.937   4.880  -4.283  1.00  0.00     0.201 A 
ATOM     19  C   UNL     1      -0.577   3.045  -2.731  1.00  0.00     0.098 A 
ATOM     20  C   UNL     1      -2.099   4.229  -4.776  1.00  0.00     0.176 A 
ATOM     21  C   UNL     1      -1.724   2.406  -3.195  1.00  0.00     0.146 A 
ATOM     22  C   UNL     1      -2.498   2.988  -4.220  1.00  0.00     0.111 A 
ATOM     23  O   UNL     1      -2.064   1.234  -2.667  1.00  0.00    -0.456 OA
ATOM     24  C   UNL     1      -3.637   2.277  -4.656  1.00  0.00     0.197 A 
ATOM     25  C   UNL     1      -3.130   0.535  -3.053  1.00  0.00     0.138 A 
ATOM     26  C   UNL     1      -3.950   1.047  -4.073  1.00  0.00     0.100 A 
ATOM     27  O   UNL     1      -4.383   2.722  -5.569  1.00  0.00    -0.289 OA
BRANCH  18  28
ATOM     28  O   UNL     1      -0.556   6.135  -4.761  1.00  0.00    -0.502 OA
ATOM     29  H   UNL     1       0.164   6.714  -4.356  1.00  0.00     0.293 HD
ENDBRANCH  18  28
BRANCH  20  30
ATOM     30  O   UNL     1      -2.854   4.776  -5.821  1.00  0.00    -0.504 OA
ATOM     31  H   UNL     1      -2.475   5.303  -6.593  1.00  0.00     0.293 HD
ENDBRANCH  20  30
BRANCH  25  32
ATOM     32  C   UNL     1      -3.393  -0.780  -2.403  1.00  0.00     0.017 A 
ATOM     33  C   UNL     1      -2.415  -1.797  -2.339  1.00  0.00     0.012 A 
ATOM     34  C   UNL     1      -4.661  -1.029  -1.845  1.00  0.00     0.012 A 
ATOM     35  C   UNL     1      -2.693  -3.009  -1.698  1.00  0.00     0.001 A 
ATOM     36  C   UNL     1      -4.933  -2.244  -1.212  1.00  0.00     0.001 A 
ATOM     37  C   UNL     1      -3.947  -3.229  -1.130  1.00  0.00     0.000 A 
ENDBRANCH  25  32
ENDBRANCH   1  17
TORSDOF 9
ENDMDL
MODEL 5
REMARK VINA RESULT:    -8.207      4.634      7.481
REMARK INTER + INTRA:         -12.481
REMARK INTER:                 -11.354
REMARK INTRA:                  -1.127
REMARK UNBOUND:                -1.155
REMARK SMILES O=C([O-])[C@H]1O[C@H](Oc2cc3oc(-c4ccccc4)cc(=O)c3c(O)c2O)[C@H](O)[C@@H](O)[C@H]1O
REMARK SMILES IDX 7 1 6 2 4 3 31 4 5 5 29 6 27 7 2 8 1 9 3 10 32 11 30 13
REMARK SMILES IDX 28 15 8 17 25 18 9 19 23 20 10 21 22 22 11 23 20 24 12 25
REMARK SMILES IDX 19 26 21 27 26 28 24 30 13 32 14 33 18 34 15 35 17 36 16 37
REMARK H PARENT 32 12 30 14 28 16 26 29 24 31
REMARK Flexibility Score: inf
ROOT
ATOM      1  O   UNL     1      -4.579  -2.430  -1.987  1.00  0.00    -0.458 OA
ENDROOT
BRANCH   1   2
ATOM      2  C   UNL     1      -3.972  -2.679  -0.713  1.00  0.00     0.339 C 
ATOM      3  C   UNL     1      -6.042  -2.743   0.402  1.00  0.00     0.199 C 
ATOM      4  C   UNL     1      -5.922  -4.244   0.747  1.00  0.00     0.180 C 
ATOM      5  O   UNL     1      -4.755  -2.142   0.347  1.00  0.00    -0.328 OA
ATOM      6  C   UNL     1      -5.068  -4.940  -0.331  1.00  0.00     0.181 C 
ATOM      7  C   UNL     1      -3.733  -4.193  -0.509  1.00  0.00     0.214 C 
BRANCH   3   8
ATOM      8  C   UNL     1      -6.885  -2.024   1.419  1.00  0.00     0.073 C 
ATOM      9  O   UNL     1      -7.010  -0.772   1.377  1.00  0.00    -0.547 OA
ATOM     10  O   UNL     1      -7.611  -2.744   2.363  1.00  0.00    -0.547 OA
ENDBRANCH   3   8
BRANCH   4  11
ATOM     11  O   UNL     1      -5.332  -4.393   2.016  1.00  0.00    -0.387 OA
ATOM     12  H   UNL     1      -4.353  -4.469   1.872  1.00  0.00     0.211 HD
ENDBRANCH   4  11
BRANCH   6  13
ATOM     13  O   UNL     1      -4.815  -6.274   0.025  1.00  0.00    -0.387 OA
ATOM     14  H   UNL     1      -3.846  -6.435  -0.128  1.00  0.00     0.211 HD
ENDBRANCH   6  13
BRANCH   7  15
ATOM     15  O   UNL     1      -2.978  -4.734  -1.566  1.00  0.00    -0.384 OA
ATOM     16  H   UNL     1      -2.272  -5.311  -1.174  1.00  0.00     0.211 HD
ENDBRANCH   7  15
ENDBRANCH   1   2
BRANCH   1  17
ATOM     17  C   UNL     1      -4.409  -1.290  -2.798  1.00  0.00     0.172 A 
ATOM     18  C   UNL     1      -5.255  -0.947  -3.882  1.00  0.00     0.201 A 
ATOM     19  C   UNL     1      -3.325  -0.470  -2.485  1.00  0.00     0.098 A 
ATOM     20  C   UNL     1      -5.027   0.259  -4.599  1.00  0.00     0.176 A 
ATOM     21  C   UNL     1      -3.082   0.704  -3.191  1.00  0.00     0.146 A 
ATOM     22  C   UNL     1      -3.926   1.083  -4.256  1.00  0.00     0.111 A 
ATOM     23  O   UNL     1      -2.052   1.467  -2.836  1.00  0.00    -0.456 OA
ATOM     24  C   UNL     1      -3.634   2.295  -4.916  1.00  0.00     0.197 A 
ATOM     25  C   UNL     1      -1.747   2.617  -3.435  1.00  0.00     0.138 A 
ATOM     26  C   UNL     1      -2.544   3.064  -4.502  1.00  0.00     0.100 A 
ATOM     27  O   UNL     1      -4.338   2.710  -5.876  1.00  0.00    -0.289 OA
BRANCH  18  28
ATOM     28  O   UNL     1      -6.288  -1.815  -4.240  1.00  0.00    -0.502 OA
ATOM     29  H   UNL     1      -7.040  -1.587  -4.873  1.00  0.00     0.293 HD
ENDBRANCH  18  28
BRANCH  20  30
ATOM     30  O   UNL     1      -5.882   0.666  -5.630  1.00  0.00    -0.504 OA
ATOM     31  H   UNL     1      -6.512   0.059  -6.132  1.00  0.00     0.293 HD
ENDBRANCH  20  30
BRANCH  25  32
ATOM     32  C   UNL     1      -0.583   3.396  -2.927  1.00  0.00     0.017 A 
ATOM     33  C   UNL     1       0.521   2.778  -2.297  1.00  0.00     0.012 A 
ATOM     34  C   UNL     1      -0.583   4.798  -3.064  1.00  0.00     0.012 A 
ATOM     35  C   UNL     1       1.605   3.544  -1.857  1.00  0.00     0.001 A 
ATOM     36  C   UNL     1       0.502   5.555  -2.616  1.00  0.00     0.001 A 
ATOM     37  C   UNL     1       1.599   4.929  -2.022  1.00  0.00     0.000 A 
ENDBRANCH  25  32
ENDBRANCH   1  17
TORSDOF 9
ENDMDL
MODEL 6
REMARK VINA RESULT:    -8.161      2.092      4.589
REMARK INTER + INTRA:         -12.417
REMARK INTER:                 -11.354
REMARK INTRA:                  -1.064
REMARK UNBOUND:                -1.155
REMARK SMILES O=C([O-])[C@H]1O[C@H](Oc2cc3oc(-c4ccccc4)cc(=O)c3c(O)c2O)[C@H](O)[C@@H](O)[C@H]1O
REMARK SMILES IDX 7 1 6 2 4 3 31 4 5 5 29 6 27 7 2 8 1 9 3 10 32 11 30 13
REMARK SMILES IDX 28 15 8 17 25 18 9 19 23 20 10 21 22 22 11 23 20 24 12 25
REMARK SMILES IDX 19 26 21 27 26 28 24 30 13 32 14 33 18 34 15 35 17 36 16 37
REMARK H PARENT 32 12 30 14 28 16 26 29 24 31
REMARK Flexibility Score: inf
ROOT
ATOM      1  O   UNL     1      -0.647  -0.847  -3.592  1.00  0.00    -0.458 OA
ENDROOT
BRANCH   1   2
ATOM      2  C   UNL     1      -1.417  -0.306  -2.512  1.00  0.00     0.339 C 
ATOM      3  C   UNL     1      -2.707   1.045  -3.939  1.00  0.00     0.199 C 
ATOM      4  C   UNL     1      -4.011   0.267  -3.660  1.00  0.00     0.180 C 
ATOM      5  O   UNL     1      -1.858   1.015  -2.801  1.00  0.00    -0.328 OA
ATOM      6  C   UNL     1      -3.660  -1.193  -3.311  1.00  0.00     0.181 C 
ATOM      7  C   UNL     1      -2.614  -1.227  -2.182  1.00  0.00     0.214 C 
BRANCH   3   8
ATOM      8  C   UNL     1      -3.002   2.475  -4.304  1.00  0.00     0.073 C 
ATOM      9  O   UNL     1      -4.118   2.793  -4.792  1.00  0.00    -0.547 OA
ATOM     10  O   UNL     1      -2.078   3.475  -4.022  1.00  0.00    -0.547 OA
ENDBRANCH   3   8
BRANCH   4  11
ATOM     11  O   UNL     1      -4.708   0.874  -2.599  1.00  0.00    -0.387 OA
ATOM     12  H   UNL     1      -5.666   0.639  -2.710  1.00  0.00     0.211 HD
ENDBRANCH   4  11
BRANCH   6  13
ATOM     13  O   UNL     1      -4.808  -1.894  -2.909  1.00  0.00    -0.387 OA
ATOM     14  H   UNL     1      -4.502  -2.777  -2.570  1.00  0.00     0.211 HD
ENDBRANCH   6  13
BRANCH   7  15
ATOM     15  O   UNL     1      -2.185  -2.542  -1.917  1.00  0.00    -0.384 OA
ATOM     16  H   UNL     1      -1.481  -2.772  -2.578  1.00  0.00     0.211 HD
ENDBRANCH   7  15
ENDBRANCH   1   2
BRANCH   1  17
ATOM     17  C   UNL     1       0.696  -0.554  -3.905  1.00  0.00     0.172 A 
ATOM     18  C   UNL     1       1.406  -1.123  -4.991  1.00  0.00     0.201 A 
ATOM     19  C   UNL     1       1.337   0.360  -3.068  1.00  0.00     0.098 A 
ATOM     20  C   UNL     1       2.742  -0.713  -5.252  1.00  0.00     0.176 A 
ATOM     21  C   UNL     1       2.650   0.756  -3.304  1.00  0.00     0.146 A 
ATOM     22  C   UNL     1       3.368   0.225  -4.395  1.00  0.00     0.111 A 
ATOM     23  O   UNL     1       3.206   1.651  -2.494  1.00  0.00    -0.456 OA
ATOM     24  C   UNL     1       4.689   0.685  -4.588  1.00  0.00     0.197 A 
ATOM     25  C   UNL     1       4.448   2.109  -2.645  1.00  0.00     0.138 A 
ATOM     26  C   UNL     1       5.227   1.631  -3.712  1.00  0.00     0.100 A 
ATOM     27  O   UNL     1       5.402   0.266  -5.539  1.00  0.00    -0.289 OA
BRANCH  18  28
ATOM     28  O   UNL     1       0.785  -2.098  -5.775  1.00  0.00    -0.502 OA
ATOM     29  H   UNL     1       0.536  -3.022  -5.458  1.00  0.00     0.293 HD
ENDBRANCH  18  28
BRANCH  20  30
ATOM     30  O   UNL     1       3.452  -1.202  -6.356  1.00  0.00    -0.504 OA
ATOM     31  H   UNL     1       3.923  -2.093  -6.391  1.00  0.00     0.293 HD
ENDBRANCH  20  30
BRANCH  25  32
ATOM     32  C   UNL     1       4.951   3.133  -1.687  1.00  0.00     0.017 A 
ATOM     33  C   UNL     1       4.210   4.293  -1.366  1.00  0.00     0.012 A 
ATOM     34  C   UNL     1       6.212   2.952  -1.087  1.00  0.00     0.012 A 
ATOM     35  C   UNL     1       4.707   5.218  -0.443  1.00  0.00     0.001 A 
ATOM     36  C   UNL     1       6.704   3.885  -0.171  1.00  0.00     0.001 A 
ATOM     37  C   UNL     1       5.948   5.012   0.159  1.00  0.00     0.000 A 
ENDBRANCH  25  32
ENDBRANCH   1  17
TORSDOF 9
ENDMDL
MODEL 7
REMARK VINA RESULT:    -8.121      4.086      9.884
REMARK INTER + INTRA:         -12.362
REMARK INTER:                 -11.067
REMARK INTRA:                  -1.295
REMARK UNBOUND:                -1.155
REMARK SMILES O=C([O-])[C@H]1O[C@H](Oc2cc3oc(-c4ccccc4)cc(=O)c3c(O)c2O)[C@H](O)[C@@H](O)[C@H]1O
REMARK SMILES IDX 7 1 6 2 4 3 31 4 5 5 29 6 27 7 2 8 1 9 3 10 32 11 30 13
REMARK SMILES IDX 28 15 8 17 25 18 9 19 23 20 10 21 22 22 11 23 20 24 12 25
REMARK SMILES IDX 19 26 21 27 26 28 24 30 13 32 14 33 18 34 15 35 17 36 16 37
REMARK H PARENT 32 12 30 14 28 16 26 29 24 31
REMARK Flexibility Score: inf
ROOT
ATOM      1  O   UNL     1      -0.734  -2.492  -3.364  1.00  0.00    -0.458 OA
ENDROOT
BRANCH   1   2
ATOM      2  C   UNL     1      -0.578  -1.731  -4.567  1.00  0.00     0.339 C 
ATOM      3  C   UNL     1       0.257   0.146  -3.422  1.00  0.00     0.199 C 
ATOM      4  C   UNL     1       1.663   0.028  -4.050  1.00  0.00     0.180 C 
ATOM      5  O   UNL     1      -0.731  -0.338  -4.322  1.00  0.00    -0.328 OA
ATOM      6  C   UNL     1       1.941  -1.451  -4.383  1.00  0.00     0.181 C 
ATOM      7  C   UNL     1       0.789  -2.027  -5.226  1.00  0.00     0.214 C 
BRANCH   3   8
ATOM      8  C   UNL     1      -0.052   1.574  -3.062  1.00  0.00     0.073 C 
ATOM      9  O   UNL     1      -1.177   1.886  -2.592  1.00  0.00    -0.547 OA
ATOM     10  O   UNL     1       0.934   2.550  -3.160  1.00  0.00    -0.547 OA
ENDBRANCH   3   8
BRANCH   4  11
ATOM     11  O   UNL     1       1.730   0.816  -5.214  1.00  0.00    -0.387 OA
ATOM     12  H   UNL     1       2.395   1.533  -5.039  1.00  0.00     0.211 HD
ENDBRANCH   4  11
BRANCH   6  13
ATOM     13  O   UNL     1       3.148  -1.580  -5.088  1.00  0.00    -0.387 OA
ATOM     14  H   UNL     1       3.587  -0.688  -5.073  1.00  0.00     0.211 HD
ENDBRANCH   6  13
BRANCH   7  15
ATOM     15  O   UNL     1       0.955  -3.407  -5.451  1.00  0.00    -0.384 OA
ATOM     16  H   UNL     1       1.578  -3.756  -4.761  1.00  0.00     0.211 HD
ENDBRANCH   7  15
ENDBRANCH   1   2
BRANCH   1  17
ATOM     17  C   UNL     1      -1.836  -3.296  -3.007  1.00  0.00     0.172 A 
ATOM     18  C   UNL     1      -2.147  -4.540  -3.611  1.00  0.00     0.201 A 
ATOM     19  C   UNL     1      -2.652  -2.802  -1.989  1.00  0.00     0.098 A 
ATOM     20  C   UNL     1      -3.250  -5.298  -3.134  1.00  0.00     0.176 A 
ATOM     21  C   UNL     1      -3.746  -3.528  -1.526  1.00  0.00     0.146 A 
ATOM     22  C   UNL     1      -4.059  -4.782  -2.091  1.00  0.00     0.111 A 
ATOM     23  O   UNL     1      -4.476  -3.027  -0.535  1.00  0.00    -0.456 OA
ATOM     24  C   UNL     1      -5.169  -5.473  -1.560  1.00  0.00     0.197 A 
ATOM     25  C   UNL     1      -5.528  -3.651  -0.008  1.00  0.00     0.138 A 
ATOM     26  C   UNL     1      -5.902  -4.907  -0.515  1.00  0.00     0.100 A 
ATOM     27  O   UNL     1      -5.518  -6.600  -2.004  1.00  0.00    -0.289 OA
BRANCH  18  28
ATOM     28  O   UNL     1      -1.373  -4.989  -4.683  1.00  0.00    -0.502 OA
ATOM     29  H   UNL     1      -1.506  -4.716  -5.645  1.00  0.00     0.293 HD
ENDBRANCH  18  28
BRANCH  20  30
ATOM     30  O   UNL     1      -3.547  -6.562  -3.659  1.00  0.00    -0.504 OA
ATOM     31  H   UNL     1      -2.878  -7.181  -4.088  1.00  0.00     0.293 HD
ENDBRANCH  20  30
BRANCH  25  32
ATOM     32  C   UNL     1      -6.252  -2.999   1.119  1.00  0.00     0.017 A 
ATOM     33  C   UNL     1      -7.021  -1.827   0.943  1.00  0.00     0.012 A 
ATOM     34  C   UNL     1      -6.159  -3.556   2.409  1.00  0.00     0.012 A 
ATOM     35  C   UNL     1      -7.705  -1.259   2.023  1.00  0.00     0.001 A 
ATOM     36  C   UNL     1      -6.841  -2.979   3.484  1.00  0.00     0.001 A 
ATOM     37  C   UNL     1      -7.620  -1.838   3.289  1.00  0.00     0.000 A 
ENDBRANCH  25  32
ENDBRANCH   1  17
TORSDOF 9
ENDMDL
MODEL 8
REMARK VINA RESULT:    -8.099      3.391      5.480
REMARK INTER + INTRA:         -12.332
REMARK INTER:                 -11.212
REMARK INTRA:                  -1.120
REMARK UNBOUND:                -1.155
REMARK SMILES O=C([O-])[C@H]1O[C@H](Oc2cc3oc(-c4ccccc4)cc(=O)c3c(O)c2O)[C@H](O)[C@@H](O)[C@H]1O
REMARK SMILES IDX 7 1 6 2 4 3 31 4 5 5 29 6 27 7 2 8 1 9 3 10 32 11 30 13
REMARK SMILES IDX 28 15 8 17 25 18 9 19 23 20 10 21 22 22 11 23 20 24 12 25
REMARK SMILES IDX 19 26 21 27 26 28 24 30 13 32 14 33 18 34 15 35 17 36 16 37
REMARK H PARENT 32 12 30 14 28 16 26 29 24 31
REMARK Flexibility Score: inf
ROOT
ATOM      1  O   UNL     1      -3.698  -0.860  -2.736  1.00  0.00    -0.458 OA
ENDROOT
BRANCH   1   2
ATOM      2  C   UNL     1      -3.325  -1.525  -1.523  1.00  0.00     0.339 C 
ATOM      3  C   UNL     1      -5.528  -2.211  -1.071  1.00  0.00     0.199 C 
ATOM      4  C   UNL     1      -5.207  -3.709  -1.261  1.00  0.00     0.180 C 
ATOM      5  O   UNL     1      -4.390  -1.517  -0.580  1.00  0.00    -0.328 OA
ATOM      6  C   UNL     1      -4.041  -3.849  -2.260  1.00  0.00     0.181 C 
ATOM      7  C   UNL     1      -2.858  -2.970  -1.815  1.00  0.00     0.214 C 
BRANCH   3   8
ATOM      8  C   UNL     1      -6.676  -2.025  -0.116  1.00  0.00     0.073 C 
ATOM      9  O   UNL     1      -7.618  -2.859  -0.077  1.00  0.00    -0.547 OA
ATOM     10  O   UNL     1      -6.663  -0.977   0.799  1.00  0.00    -0.547 OA
ENDBRANCH   3   8
BRANCH   4  11
ATOM     11  O   UNL     1      -4.866  -4.282  -0.022  1.00  0.00    -0.387 OA
ATOM     12  H   UNL     1      -4.054  -3.811   0.301  1.00  0.00     0.211 HD
ENDBRANCH   4  11
BRANCH   6  13
ATOM     13  O   UNL     1      -3.624  -5.187  -2.347  1.00  0.00    -0.387 OA
ATOM     14  H   UNL     1      -3.090  -5.376  -1.531  1.00  0.00     0.211 HD
ENDBRANCH   6  13
BRANCH   7  15
ATOM     15  O   UNL     1      -1.820  -2.985  -2.766  1.00  0.00    -0.384 OA
ATOM     16  H   UNL     1      -1.661  -2.050  -3.060  1.00  0.00     0.211 HD
ENDBRANCH   7  15
ENDBRANCH   1   2
BRANCH   1  17
ATOM     17  C   UNL     1      -3.210   0.374  -3.211  1.00  0.00     0.172 A 
ATOM     18  C   UNL     1      -3.898   1.206  -4.129  1.00  0.00     0.201 A 
ATOM     19  C   UNL     1      -1.963   0.768  -2.726  1.00  0.00     0.098 A 
ATOM     20  C   UNL     1      -3.340   2.460  -4.497  1.00  0.00     0.176 A 
ATOM     21  C   UNL     1      -1.398   1.986  -3.094  1.00  0.00     0.146 A 
ATOM     22  C   UNL     1      -2.077   2.845  -3.983  1.00  0.00     0.111 A 
ATOM     23  O   UNL     1      -0.221   2.329  -2.582  1.00  0.00    -0.456 OA
ATOM     24  C   UNL     1      -1.457   4.074  -4.298  1.00  0.00     0.197 A 
ATOM     25  C   UNL     1       0.394   3.479  -2.855  1.00  0.00     0.138 A 
ATOM     26  C   UNL     1      -0.221   4.391  -3.730  1.00  0.00     0.100 A 
ATOM     27  O   UNL     1      -1.994   4.902  -5.081  1.00  0.00    -0.289 OA
BRANCH  18  28
ATOM     28  O   UNL     1      -5.107   0.767  -4.672  1.00  0.00    -0.502 OA
ATOM     29  H   UNL     1      -5.729   0.104  -4.237  1.00  0.00     0.293 HD
ENDBRANCH  18  28
BRANCH  20  30
ATOM     30  O   UNL     1      -4.022   3.340  -5.347  1.00  0.00    -0.504 OA
ATOM     31  H   UNL     1      -4.283   3.137  -6.299  1.00  0.00     0.293 HD
ENDBRANCH  20  30
BRANCH  25  32
ATOM     32  C   UNL     1       1.700   3.762  -2.197  1.00  0.00     0.017 A 
ATOM     33  C   UNL     1       2.733   2.801  -2.129  1.00  0.00     0.012 A 
ATOM     34  C   UNL     1       1.914   5.023  -1.608  1.00  0.00     0.012 A 
ATOM     35  C   UNL     1       3.954   3.114  -1.524  1.00  0.00     0.001 A 
ATOM     36  C   UNL     1       3.134   5.326  -1.000  1.00  0.00     0.001 A 
ATOM     37  C   UNL     1       4.157   4.376  -0.967  1.00  0.00     0.000 A 
ENDBRANCH  25  32
ENDBRANCH   1  17
TORSDOF 9
ENDMDL
MODEL 9
REMARK VINA RESULT:    -8.052      5.809     10.032
REMARK INTER + INTRA:         -12.268
REMARK INTER:                 -11.309
REMARK INTRA:                  -0.959
REMARK UNBOUND:                -1.155
REMARK SMILES O=C([O-])[C@H]1O[C@H](Oc2cc3oc(-c4ccccc4)cc(=O)c3c(O)c2O)[C@H](O)[C@@H](O)[C@H]1O
REMARK SMILES IDX 7 1 6 2 4 3 31 4 5 5 29 6 27 7 2 8 1 9 3 10 32 11 30 13
REMARK SMILES IDX 28 15 8 17 25 18 9 19 23 20 10 21 22 22 11 23 20 24 12 25
REMARK SMILES IDX 19 26 21 27 26 28 24 30 13 32 14 33 18 34 15 35 17 36 16 37
REMARK H PARENT 32 12 30 14 28 16 26 29 24 31
REMARK Flexibility Score: inf
ROOT
ATOM      1  O   UNL     1      -5.463  -3.893   0.733  1.00  0.00    -0.458 OA
ENDROOT
BRANCH   1   2
ATOM      2  C   UNL     1      -5.693  -3.043   1.863  1.00  0.00     0.339 C 
ATOM      3  C   UNL     1      -7.941  -2.668   1.285  1.00  0.00     0.199 C 
ATOM      4  C   UNL     1      -8.487  -3.416   2.520  1.00  0.00     0.180 C 
ATOM      5  O   UNL     1      -6.688  -2.067   1.582  1.00  0.00    -0.328 OA
ATOM      6  C   UNL     1      -7.475  -4.501   2.938  1.00  0.00     0.181 C 
ATOM      7  C   UNL     1      -6.077  -3.879   3.106  1.00  0.00     0.214 C 
BRANCH   3   8
ATOM      8  C   UNL     1      -8.907  -1.609   0.827  1.00  0.00     0.073 C 
ATOM      9  O   UNL     1      -9.902  -1.302   1.534  1.00  0.00    -0.547 OA
ATOM     10  O   UNL     1      -8.660  -0.893  -0.339  1.00  0.00    -0.547 OA
ENDBRANCH   3   8
BRANCH   4  11
ATOM     11  O   UNL     1      -8.697  -2.505   3.572  1.00  0.00    -0.387 OA
ATOM     12  H   UNL     1      -8.852  -3.042   4.392  1.00  0.00     0.211 HD
ENDBRANCH   4  11
BRANCH   6  13
ATOM     13  O   UNL     1      -7.868  -5.104   4.143  1.00  0.00    -0.387 OA
ATOM     14  H   UNL     1      -8.004  -6.070   3.952  1.00  0.00     0.211 HD
ENDBRANCH   6  13
BRANCH   7  15
ATOM     15  O   UNL     1      -5.106  -4.862   3.375  1.00  0.00    -0.384 OA
ATOM     16  H   UNL     1      -4.371  -4.755   2.716  1.00  0.00     0.211 HD
ENDBRANCH   7  15
ENDBRANCH   1   2
BRANCH   1  17
ATOM     17  C   UNL     1      -4.498  -3.715  -0.279  1.00  0.00     0.172 A 
ATOM     18  C   UNL     1      -3.707  -4.759  -0.822  1.00  0.00     0.201 A 
ATOM     19  C   UNL     1      -4.336  -2.413  -0.751  1.00  0.00     0.098 A 
ATOM     20  C   UNL     1      -2.803  -4.479  -1.881  1.00  0.00     0.176 A 
ATOM     21  C   UNL     1      -3.441  -2.124  -1.777  1.00  0.00     0.146 A 
ATOM     22  C   UNL     1      -2.664  -3.150  -2.353  1.00  0.00     0.111 A 
ATOM     23  O   UNL     1      -3.344  -0.872  -2.211  1.00  0.00    -0.456 OA
ATOM     24  C   UNL     1      -1.791  -2.791  -3.403  1.00  0.00     0.197 A 
ATOM     25  C   UNL     1      -2.533  -0.496  -3.199  1.00  0.00     0.138 A 
ATOM     26  C   UNL     1      -1.729  -1.462  -3.828  1.00  0.00     0.100 A 
ATOM     27  O   UNL     1      -1.062  -3.645  -3.976  1.00  0.00    -0.289 OA
BRANCH  18  28
ATOM     28  O   UNL     1      -3.816  -6.045  -0.288  1.00  0.00    -0.502 OA
ATOM     29  H   UNL     1      -4.047  -6.254   0.672  1.00  0.00     0.293 HD
ENDBRANCH  18  28
BRANCH  20  30
ATOM     30  O   UNL     1      -2.056  -5.495  -2.490  1.00  0.00    -0.504 OA
ATOM     31  H   UNL     1      -1.495  -5.382  -3.320  1.00  0.00     0.293 HD
ENDBRANCH  20  30
BRANCH  25  32
ATOM     32  C   UNL     1      -2.533   0.935  -3.615  1.00  0.00     0.017 A 
ATOM     33  C   UNL     1      -1.456   1.803  -3.327  1.00  0.00     0.012 A 
ATOM     34  C   UNL     1      -3.646   1.449  -4.307  1.00  0.00     0.012 A 
ATOM     35  C   UNL     1      -1.485   3.133  -3.756  1.00  0.00     0.001 A 
ATOM     36  C   UNL     1      -3.669   2.781  -4.727  1.00  0.00     0.001 A 
ATOM     37  C   UNL     1      -2.585   3.620  -4.461  1.00  0.00     0.000 A 
ENDBRANCH  25  32
ENDBRANCH   1  17
TORSDOF 9
ENDMDL
