MODEL 1
REMARK VINA RESULT:    -3.994      0.000      0.000
REMARK INTER + INTRA:          -6.079
REMARK INTER:                  -5.628
REMARK INTRA:                  -0.450
REMARK UNBOUND:                -0.450
REMARK SMILES CCCCCCCCC(=O)[O-]
REMARK SMILES IDX 6 1 7 2 8 3 9 4 10 5 11 6 5 7 4 8 3 9 2 10 1 11
REMARK H PARENT
REMARK Flexibility Score: inf
ROOT
ATOM      1  C   UNL     1      13.338  25.259  33.358  1.00  0.00     0.000 C 
ENDROOT
BRANCH   1   2
ATOM      2  C   UNL     1      12.268  26.268  33.803  1.00  0.00     0.006 C 
BRANCH   2   3
ATOM      3  C   UNL     1      12.830  27.329  34.758  1.00  0.00     0.053 C 
BRANCH   3   4
ATOM      4  C   UNL     1      11.755  27.938  35.605  1.00  0.00     0.041 C 
ATOM      5  O   UNL     1      11.666  27.645  36.827  1.00  0.00    -0.550 OA
ATOM      6  O   UNL     1      10.830  28.805  35.036  1.00  0.00    -0.550 OA
ENDBRANCH   3   4
ENDBRANCH   2   3
ENDBRANCH   1   2
BRANCH   1   7
ATOM      7  C   UNL     1      14.716  25.929  33.260  1.00  0.00     0.000 C 
BRANCH   7   8
ATOM      8  C   UNL     1      15.872  24.922  33.357  1.00  0.00    -0.000 C 
BRANCH   8   9
ATOM      9  C   UNL     1      15.434  23.486  33.018  1.00  0.00    -0.000 C 
BRANCH   9  10
ATOM     10  C   UNL     1      15.780  22.487  34.133  1.00  0.00    -0.003 C 
ATOM     11  C   UNL     1      15.444  23.018  35.526  1.00  0.00     0.004 C 
ENDBRANCH   9  10
ENDBRANCH   8   9
ENDBRANCH   7   8
ENDBRANCH   1   7
TORSDOF 7
ENDMDL
MODEL 2
REMARK VINA RESULT:    -3.970      1.337      2.659
REMARK INTER + INTRA:          -6.044
REMARK INTER:                  -5.375
REMARK INTRA:                  -0.669
REMARK UNBOUND:                -0.450
REMARK SMILES CCCCCCCCC(=O)[O-]
REMARK SMILES IDX 6 1 7 2 8 3 9 4 10 5 11 6 5 7 4 8 3 9 2 10 1 11
REMARK H PARENT
REMARK Flexibility Score: inf
ROOT
ATOM      1  C   UNL     1      13.201  24.995  33.261  1.00  0.00     0.000 C 
ENDROOT
BRANCH   1   2
ATOM      2  C   UNL     1      12.962  25.877  34.496  1.00  0.00     0.006 C 
BRANCH   2   3
ATOM      3  C   UNL     1      12.157  27.139  34.163  1.00  0.00     0.053 C 
BRANCH   3   4
ATOM      4  C   UNL     1      11.565  27.760  35.391  1.00  0.00     0.041 C 
ATOM      5  O   UNL     1      11.015  28.892  35.329  1.00  0.00    -0.550 OA
ATOM      6  O   UNL     1      11.649  27.102  36.612  1.00  0.00    -0.550 OA
ENDBRANCH   3   4
ENDBRANCH   2   3
ENDBRANCH   1   2
BRANCH   1   7
ATOM      7  C   UNL     1      14.659  24.516  33.204  1.00  0.00     0.000 C 
BRANCH   7   8
ATOM      8  C   UNL     1      15.545  25.188  34.264  1.00  0.00    -0.000 C 
BRANCH   8   9
ATOM      9  C   UNL     1      16.746  25.927  33.649  1.00  0.00    -0.000 C 
BRANCH   9  10
ATOM     10  C   UNL     1      16.342  27.244  32.969  1.00  0.00    -0.003 C 
ATOM     11  C   UNL     1      15.741  28.252  33.949  1.00  0.00     0.004 C 
ENDBRANCH   9  10
ENDBRANCH   8   9
ENDBRANCH   7   8
ENDBRANCH   1   7
TORSDOF 7
ENDMDL
MODEL 3
REMARK VINA RESULT:    -3.782      1.698      2.667
REMARK INTER + INTRA:          -5.780
REMARK INTER:                  -5.442
REMARK INTRA:                  -0.338
REMARK UNBOUND:                -0.450
REMARK SMILES CCCCCCCCC(=O)[O-]
REMARK SMILES IDX 6 1 7 2 8 3 9 4 10 5 11 6 5 7 4 8 3 9 2 10 1 11
REMARK H PARENT
REMARK Flexibility Score: inf
ROOT
ATOM      1  C   UNL     1      14.828  24.178  33.937  1.00  0.00     0.000 C 
ENDROOT
BRANCH   1   2
ATOM      2  C   UNL     1      14.116  25.242  33.088  1.00  0.00     0.006 C 
BRANCH   2   3
ATOM      3  C   UNL     1      12.680  25.501  33.563  1.00  0.00     0.053 C 
BRANCH   3   4
ATOM      4  C   UNL     1      12.540  26.853  34.194  1.00  0.00     0.041 C 
ATOM      5  O   UNL     1      11.443  27.468  34.141  1.00  0.00    -0.550 OA
ATOM      6  O   UNL     1      13.633  27.447  34.812  1.00  0.00    -0.550 OA
ENDBRANCH   3   4
ENDBRANCH   2   3
ENDBRANCH   1   2
BRANCH   1   7
ATOM      7  C   UNL     1      15.697  23.266  33.057  1.00  0.00     0.000 C 
BRANCH   7   8
ATOM      8  C   UNL     1      16.293  22.084  33.838  1.00  0.00    -0.000 C 
BRANCH   8   9
ATOM      9  C   UNL     1      15.661  21.918  35.231  1.00  0.00    -0.000 C 
BRANCH   9  10
ATOM     10  C   UNL     1      15.382  20.447  35.579  1.00  0.00    -0.003 C 
ATOM     11  C   UNL     1      15.494  19.524  34.366  1.00  0.00     0.004 C 
ENDBRANCH   9  10
ENDBRANCH   8   9
ENDBRANCH   7   8
ENDBRANCH   1   7
TORSDOF 7
ENDMDL
MODEL 4
REMARK VINA RESULT:    -3.759      2.686      5.308
REMARK INTER + INTRA:          -5.748
REMARK INTER:                  -5.394
REMARK INTRA:                  -0.354
REMARK UNBOUND:                -0.450
REMARK SMILES CCCCCCCCC(=O)[O-]
REMARK SMILES IDX 6 1 7 2 8 3 9 4 10 5 11 6 5 7 4 8 3 9 2 10 1 11
REMARK H PARENT
REMARK Flexibility Score: inf
ROOT
ATOM      1  C   UNL     1      14.326  25.255  33.045  1.00  0.00     0.000 C 
ENDROOT
BRANCH   1   2
ATOM      2  C   UNL     1      14.818  23.804  33.161  1.00  0.00     0.006 C 
BRANCH   2   3
ATOM      3  C   UNL     1      15.916  23.645  34.221  1.00  0.00     0.053 C 
BRANCH   3   4
ATOM      4  C   UNL     1      15.370  23.102  35.506  1.00  0.00     0.041 C 
ATOM      5  O   UNL     1      15.572  21.900  35.824  1.00  0.00    -0.550 OA
ATOM      6  O   UNL     1      14.611  23.915  36.338  1.00  0.00    -0.550 OA
ENDBRANCH   3   4
ENDBRANCH   2   3
ENDBRANCH   1   2
BRANCH   1   7
ATOM      7  C   UNL     1      12.867  25.377  33.507  1.00  0.00     0.000 C 
BRANCH   7   8
ATOM      8  C   UNL     1      12.673  26.468  34.572  1.00  0.00    -0.000 C 
BRANCH   8   9
ATOM      9  C   UNL     1      11.539  27.445  34.216  1.00  0.00    -0.000 C 
BRANCH   9  10
ATOM     10  C   UNL     1      11.270  28.467  35.333  1.00  0.00    -0.003 C 
ATOM     11  C   UNL     1      12.030  28.146  36.619  1.00  0.00     0.004 C 
ENDBRANCH   9  10
ENDBRANCH   8   9
ENDBRANCH   7   8
ENDBRANCH   1   7
TORSDOF 7
ENDMDL
MODEL 5
REMARK VINA RESULT:    -3.739      1.534      2.421
REMARK INTER + INTRA:          -5.719
REMARK INTER:                  -5.381
REMARK INTRA:                  -0.339
REMARK UNBOUND:                -0.450
REMARK SMILES CCCCCCCCC(=O)[O-]
REMARK SMILES IDX 6 1 7 2 8 3 9 4 10 5 11 6 5 7 4 8 3 9 2 10 1 11
REMARK H PARENT
REMARK Flexibility Score: inf
ROOT
ATOM      1  C   UNL     1      12.702  26.260  35.736  1.00  0.00     0.000 C 
ENDROOT
BRANCH   1   2
ATOM      2  C   UNL     1      11.892  27.285  36.544  1.00  0.00     0.006 C 
BRANCH   2   3
ATOM      3  C   UNL     1      11.455  28.483  35.692  1.00  0.00     0.053 C 
BRANCH   3   4
ATOM      4  C   UNL     1      12.219  29.723  36.045  1.00  0.00     0.041 C 
ATOM      5  O   UNL     1      13.466  29.676  36.208  1.00  0.00    -0.550 OA
ATOM      6  O   UNL     1      11.546  30.926  36.225  1.00  0.00    -0.550 OA
ENDBRANCH   3   4
ENDBRANCH   2   3
ENDBRANCH   1   2
BRANCH   1   7
ATOM      7  C   UNL     1      12.579  26.530  34.229  1.00  0.00     0.000 C 
BRANCH   7   8
ATOM      8  C   UNL     1      12.839  25.276  33.380  1.00  0.00    -0.000 C 
BRANCH   8   9
ATOM      9  C   UNL     1      14.315  25.137  32.969  1.00  0.00    -0.000 C 
BRANCH   9  10
ATOM     10  C   UNL     1      14.890  23.750  33.298  1.00  0.00    -0.003 C 
ATOM     11  C   UNL     1      16.347  23.810  33.755  1.00  0.00     0.004 C 
ENDBRANCH   9  10
ENDBRANCH   8   9
ENDBRANCH   7   8
ENDBRANCH   1   7
TORSDOF 7
ENDMDL
MODEL 6
REMARK VINA RESULT:    -3.709      3.121      5.685
REMARK INTER + INTRA:          -5.678
REMARK INTER:                  -5.351
REMARK INTRA:                  -0.327
REMARK UNBOUND:                -0.450
REMARK SMILES CCCCCCCCC(=O)[O-]
REMARK SMILES IDX 6 1 7 2 8 3 9 4 10 5 11 6 5 7 4 8 3 9 2 10 1 11
REMARK H PARENT
REMARK Flexibility Score: inf
ROOT
ATOM      1  C   UNL     1      14.509  25.953  33.105  1.00  0.00     0.000 C 
ENDROOT
BRANCH   1   2
ATOM      2  C   UNL     1      15.635  25.003  33.539  1.00  0.00     0.006 C 
BRANCH   2   3
ATOM      3  C   UNL     1      15.401  23.565  33.057  1.00  0.00     0.053 C 
BRANCH   3   4
ATOM      4  C   UNL     1      15.526  22.577  34.177  1.00  0.00     0.041 C 
ATOM      5  O   UNL     1      15.873  21.390  33.942  1.00  0.00    -0.550 OA
ATOM      6  O   UNL     1      15.226  22.962  35.478  1.00  0.00    -0.550 OA
ENDBRANCH   3   4
ENDBRANCH   2   3
ENDBRANCH   1   2
BRANCH   1   7
ATOM      7  C   UNL     1      13.157  25.497  33.673  1.00  0.00     0.000 C 
BRANCH   7   8
ATOM      8  C   UNL     1      12.640  26.424  34.785  1.00  0.00    -0.000 C 
BRANCH   8   9
ATOM      9  C   UNL     1      11.607  27.441  34.272  1.00  0.00    -0.000 C 
BRANCH   9  10
ATOM     10  C   UNL     1      11.219  28.476  35.341  1.00  0.00    -0.003 C 
ATOM     11  C   UNL     1      12.431  29.038  36.083  1.00  0.00     0.004 C 
ENDBRANCH   9  10
ENDBRANCH   8   9
ENDBRANCH   7   8
ENDBRANCH   1   7
TORSDOF 7
ENDMDL
MODEL 7
REMARK VINA RESULT:    -3.563      3.613      5.857
REMARK INTER + INTRA:          -5.471
REMARK INTER:                  -5.125
REMARK INTRA:                  -0.346
REMARK UNBOUND:                -0.450
REMARK SMILES CCCCCCCCC(=O)[O-]
REMARK SMILES IDX 6 1 7 2 8 3 9 4 10 5 11 6 5 7 4 8 3 9 2 10 1 11
REMARK H PARENT
REMARK Flexibility Score: inf
ROOT
ATOM      1  C   UNL     1      15.928  25.053  33.424  1.00  0.00     0.000 C 
ENDROOT
BRANCH   1   2
ATOM      2  C   UNL     1      15.498  23.795  34.193  1.00  0.00     0.006 C 
BRANCH   2   3
ATOM      3  C   UNL     1      16.126  22.518  33.618  1.00  0.00     0.053 C 
BRANCH   3   4
ATOM      4  C   UNL     1      15.929  21.345  34.528  1.00  0.00     0.041 C 
ATOM      5  O   UNL     1      15.694  21.523  35.752  1.00  0.00    -0.550 OA
ATOM      6  O   UNL     1      16.038  20.052  34.029  1.00  0.00    -0.550 OA
ENDBRANCH   3   4
ENDBRANCH   2   3
ENDBRANCH   1   2
BRANCH   1   7
ATOM      7  C   UNL     1      14.723  25.966  33.149  1.00  0.00     0.000 C 
BRANCH   7   8
ATOM      8  C   UNL     1      13.380  25.241  33.327  1.00  0.00    -0.000 C 
BRANCH   8   9
ATOM      9  C   UNL     1      12.230  26.205  33.671  1.00  0.00    -0.000 C 
BRANCH   9  10
ATOM     10  C   UNL     1      12.398  26.852  35.054  1.00  0.00    -0.003 C 
ATOM     11  C   UNL     1      11.519  28.088  35.237  1.00  0.00     0.004 C 
ENDBRANCH   9  10
ENDBRANCH   8   9
ENDBRANCH   7   8
ENDBRANCH   1   7
TORSDOF 7
ENDMDL
MODEL 8
REMARK VINA RESULT:    -3.498      3.218      5.399
REMARK INTER + INTRA:          -5.380
REMARK INTER:                  -4.858
REMARK INTRA:                  -0.522
REMARK UNBOUND:                -0.450
REMARK SMILES CCCCCCCCC(=O)[O-]
REMARK SMILES IDX 6 1 7 2 8 3 9 4 10 5 11 6 5 7 4 8 3 9 2 10 1 11
REMARK H PARENT
REMARK Flexibility Score: inf
ROOT
ATOM      1  C   UNL     1      12.681  25.865  34.230  1.00  0.00     0.000 C 
ENDROOT
BRANCH   1   2
ATOM      2  C   UNL     1      13.927  25.890  33.332  1.00  0.00     0.006 C 
BRANCH   2   3
ATOM      3  C   UNL     1      14.462  24.481  33.041  1.00  0.00     0.053 C 
BRANCH   3   4
ATOM      4  C   UNL     1      15.926  24.372  33.339  1.00  0.00     0.041 C 
ATOM      5  O   UNL     1      16.445  23.249  33.576  1.00  0.00    -0.550 OA
ATOM      6  O   UNL     1      16.713  25.517  33.388  1.00  0.00    -0.550 OA
ENDBRANCH   3   4
ENDBRANCH   2   3
ENDBRANCH   1   2
BRANCH   1   7
ATOM      7  C   UNL     1      11.874  27.164  34.084  1.00  0.00     0.000 C 
BRANCH   7   8
ATOM      8  C   UNL     1      11.607  27.849  35.433  1.00  0.00    -0.000 C 
BRANCH   8   9
ATOM      9  C   UNL     1      12.882  28.000  36.282  1.00  0.00    -0.000 C 
BRANCH   9  10
ATOM     10  C   UNL     1      13.711  29.232  35.885  1.00  0.00    -0.003 C 
ATOM     11  C   UNL     1      15.052  28.861  35.255  1.00  0.00     0.004 C 
ENDBRANCH   9  10
ENDBRANCH   8   9
ENDBRANCH   7   8
ENDBRANCH   1   7
TORSDOF 7
ENDMDL
MODEL 9
REMARK VINA RESULT:    -3.334      3.103      5.018
REMARK INTER + INTRA:          -5.148
REMARK INTER:                  -4.336
REMARK INTRA:                  -0.812
REMARK UNBOUND:                -0.450
REMARK SMILES CCCCCCCCC(=O)[O-]
REMARK SMILES IDX 6 1 7 2 8 3 9 4 10 5 11 6 5 7 4 8 3 9 2 10 1 11
REMARK H PARENT
REMARK Flexibility Score: inf
ROOT
ATOM      1  C   UNL     1      16.041  28.058  33.524  1.00  0.00     0.000 C 
ENDROOT
BRANCH   1   2
ATOM      2  C   UNL     1      16.373  26.649  33.012  1.00  0.00     0.006 C 
BRANCH   2   3
ATOM      3  C   UNL     1      16.846  25.718  34.137  1.00  0.00     0.053 C 
BRANCH   3   4
ATOM      4  C   UNL     1      16.126  24.404  34.108  1.00  0.00     0.041 C 
ATOM      5  O   UNL     1      15.891  23.832  33.011  1.00  0.00    -0.550 OA
ATOM      6  O   UNL     1      15.686  23.826  35.292  1.00  0.00    -0.550 OA
ENDBRANCH   3   4
ENDBRANCH   2   3
ENDBRANCH   1   2
BRANCH   1   7
ATOM      7  C   UNL     1      15.658  28.025  35.011  1.00  0.00     0.000 C 
BRANCH   7   8
ATOM      8  C   UNL     1      14.159  28.272  35.242  1.00  0.00    -0.000 C 
BRANCH   8   9
ATOM      9  C   UNL     1      13.371  26.968  35.458  1.00  0.00    -0.000 C 
BRANCH   9  10
ATOM     10  C   UNL     1      12.349  26.707  34.341  1.00  0.00    -0.003 C 
ATOM     11  C   UNL     1      12.729  25.518  33.460  1.00  0.00     0.004 C 
ENDBRANCH   9  10
ENDBRANCH   8   9
ENDBRANCH   7   8
ENDBRANCH   1   7
TORSDOF 7
ENDMDL
