MODEL 1
REMARK VINA RESULT:    -4.337      0.000      0.000
REMARK INTER + INTRA:          -8.630
REMARK INTER:                  -8.013
REMARK INTRA:                  -0.618
REMARK UNBOUND:                -0.618
REMARK SMILES CCCCCCCCCCCCCCCCO
REMARK SMILES IDX 9 1 8 2 7 3 6 4 5 5 4 6 3 7 2 8 1 9 10 10 11 11 12 12 13 13
REMARK SMILES IDX 14 14 15 15 16 16 17 17
REMARK H PARENT 17 18
REMARK Flexibility Score: inf
ROOT
ATOM      1  C   UNL     1     -18.075  -4.976   1.504  1.00  0.00     0.000 C 
ENDROOT
BRANCH   1   2
ATOM      2  C   UNL     1     -16.722  -4.247   1.568  1.00  0.00    -0.000 C 
BRANCH   2   3
ATOM      3  C   UNL     1     -15.750  -4.895   2.568  1.00  0.00    -0.000 C 
BRANCH   3   4
ATOM      4  C   UNL     1     -14.297  -4.891   2.069  1.00  0.00    -0.000 C 
BRANCH   4   5
ATOM      5  C   UNL     1     -13.317  -5.091   3.232  1.00  0.00    -0.000 C 
BRANCH   5   6
ATOM      6  C   UNL     1     -11.872  -4.822   2.786  1.00  0.00    -0.000 C 
BRANCH   6   7
ATOM      7  C   UNL     1     -11.664  -3.384   2.287  1.00  0.00    -0.000 C 
BRANCH   7   8
ATOM      8  C   UNL     1     -10.184  -3.054   2.037  1.00  0.00    -0.003 C 
ATOM      9  C   UNL     1      -9.672  -2.032   3.047  1.00  0.00     0.004 C 
ENDBRANCH   7   8
ENDBRANCH   6   7
ENDBRANCH   5   6
ENDBRANCH   4   5
ENDBRANCH   3   4
ENDBRANCH   2   3
ENDBRANCH   1   2
BRANCH   1  10
ATOM     10  C   UNL     1     -19.233  -4.136   2.068  1.00  0.00     0.000 C 
BRANCH  10  11
ATOM     11  C   UNL     1     -20.472  -4.091   1.148  1.00  0.00     0.000 C 
BRANCH  11  12
ATOM     12  C   UNL     1     -20.120  -4.424  -0.313  1.00  0.00     0.000 C 
BRANCH  12  13
ATOM     13  C   UNL     1     -20.642  -5.801  -0.751  1.00  0.00     0.000 C 
BRANCH  13  14
ATOM     14  C   UNL     1     -21.599  -6.426   0.276  1.00  0.00     0.002 C 
BRANCH  14  15
ATOM     15  C   UNL     1     -21.630  -7.953   0.138  1.00  0.00     0.028 C 
BRANCH  15  16
ATOM     16  C   UNL     1     -20.261  -8.578   0.424  1.00  0.00     0.156 C 
BRANCH  16  17
ATOM     17  O   UNL     1     -19.639  -7.949   1.512  1.00  0.00    -0.396 OA
ATOM     18  H   UNL     1     -19.763  -6.973   1.384  1.00  0.00     0.210 HD
ENDBRANCH  16  17
ENDBRANCH  15  16
ENDBRANCH  14  15
ENDBRANCH  13  14
ENDBRANCH  12  13
ENDBRANCH  11  12
ENDBRANCH  10  11
ENDBRANCH   1  10
TORSDOF 15
ENDMDL
MODEL 2
REMARK VINA RESULT:    -4.252      2.902      9.042
REMARK INTER + INTRA:          -8.474
REMARK INTER:                  -7.735
REMARK INTRA:                  -0.740
REMARK UNBOUND:                -0.618
REMARK SMILES CCCCCCCCCCCCCCCCO
REMARK SMILES IDX 9 1 8 2 7 3 6 4 5 5 4 6 3 7 2 8 1 9 10 10 11 11 12 12 13 13
REMARK SMILES IDX 14 14 15 15 16 16 17 17
REMARK H PARENT 17 18
REMARK Flexibility Score: inf
ROOT
ATOM      1  C   UNL     1     -16.881  -4.500   1.453  1.00  0.00     0.000 C 
ENDROOT
BRANCH   1   2
ATOM      2  C   UNL     1     -18.255  -5.188   1.521  1.00  0.00    -0.000 C 
BRANCH   2   3
ATOM      3  C   UNL     1     -19.373  -4.229   1.963  1.00  0.00    -0.000 C 
BRANCH   3   4
ATOM      4  C   UNL     1     -20.564  -4.219   0.993  1.00  0.00    -0.000 C 
BRANCH   4   5
ATOM      5  C   UNL     1     -20.140  -4.695  -0.402  1.00  0.00    -0.000 C 
BRANCH   5   6
ATOM      6  C   UNL     1     -20.868  -5.991  -0.786  1.00  0.00    -0.000 C 
BRANCH   6   7
ATOM      7  C   UNL     1     -21.855  -6.461   0.295  1.00  0.00    -0.000 C 
BRANCH   7   8
ATOM      8  C   UNL     1     -21.687  -7.948   0.642  1.00  0.00    -0.003 C 
ATOM      9  C   UNL     1     -20.593  -8.588  -0.207  1.00  0.00     0.004 C 
ENDBRANCH   7   8
ENDBRANCH   6   7
ENDBRANCH   5   6
ENDBRANCH   4   5
ENDBRANCH   3   4
ENDBRANCH   2   3
ENDBRANCH   1   2
BRANCH   1  10
ATOM     10  C   UNL     1     -15.910  -4.999   2.536  1.00  0.00     0.000 C 
BRANCH  10  11
ATOM     11  C   UNL     1     -14.428  -4.957   2.107  1.00  0.00     0.000 C 
BRANCH  11  12
ATOM     12  C   UNL     1     -13.492  -4.639   3.286  1.00  0.00     0.000 C 
BRANCH  12  13
ATOM     13  C   UNL     1     -12.228  -5.513   3.293  1.00  0.00     0.000 C 
BRANCH  13  14
ATOM     14  C   UNL     1     -11.071  -4.887   2.500  1.00  0.00     0.002 C 
BRANCH  14  15
ATOM     15  C   UNL     1     -11.333  -3.400   2.229  1.00  0.00     0.028 C 
BRANCH  15  16
ATOM     16  C   UNL     1     -10.135  -2.530   2.624  1.00  0.00     0.156 C 
BRANCH  16  17
ATOM     17  O   UNL     1      -9.101  -2.642   1.685  1.00  0.00    -0.396 OA
ATOM     18  H   UNL     1      -8.298  -2.229   2.096  1.00  0.00     0.210 HD
ENDBRANCH  16  17
ENDBRANCH  15  16
ENDBRANCH  14  15
ENDBRANCH  13  14
ENDBRANCH  12  13
ENDBRANCH  11  12
ENDBRANCH  10  11
ENDBRANCH   1  10
TORSDOF 15
ENDMDL
MODEL 3
REMARK VINA RESULT:    -3.777     14.845     16.221
REMARK INTER + INTRA:          -7.597
REMARK INTER:                  -6.418
REMARK INTRA:                  -1.180
REMARK UNBOUND:                -0.618
REMARK SMILES CCCCCCCCCCCCCCCCO
REMARK SMILES IDX 9 1 8 2 7 3 6 4 5 5 4 6 3 7 2 8 1 9 10 10 11 11 12 12 13 13
REMARK SMILES IDX 14 14 15 15 16 16 17 17
REMARK H PARENT 17 18
REMARK Flexibility Score: inf
ROOT
ATOM      1  C   UNL     1     -15.761  -7.055  17.346  1.00  0.00     0.000 C 
ENDROOT
BRANCH   1   2
ATOM      2  C   UNL     1     -15.677  -6.026  18.486  1.00  0.00    -0.000 C 
BRANCH   2   3
ATOM      3  C   UNL     1     -14.923  -4.751  18.076  1.00  0.00    -0.000 C 
BRANCH   3   4
ATOM      4  C   UNL     1     -13.489  -4.707  18.626  1.00  0.00    -0.000 C 
BRANCH   4   5
ATOM      5  C   UNL     1     -12.601  -5.742  17.926  1.00  0.00    -0.000 C 
BRANCH   5   6
ATOM      6  C   UNL     1     -11.119  -5.511  18.260  1.00  0.00    -0.000 C 
BRANCH   6   7
ATOM      7  C   UNL     1     -10.208  -5.627  17.028  1.00  0.00    -0.000 C 
BRANCH   7   8
ATOM      8  C   UNL     1     -10.750  -6.614  15.983  1.00  0.00    -0.003 C 
ATOM      9  C   UNL     1     -10.116  -6.368  14.617  1.00  0.00     0.004 C 
ENDBRANCH   7   8
ENDBRANCH   6   7
ENDBRANCH   5   6
ENDBRANCH   4   5
ENDBRANCH   3   4
ENDBRANCH   2   3
ENDBRANCH   1   2
BRANCH   1  10
ATOM     10  C   UNL     1     -16.923  -8.048  17.523  1.00  0.00     0.000 C 
BRANCH  10  11
ATOM     11  C   UNL     1     -17.604  -7.964  18.905  1.00  0.00     0.000 C 
BRANCH  11  12
ATOM     12  C   UNL     1     -19.127  -7.778  18.789  1.00  0.00     0.000 C 
BRANCH  12  13
ATOM     13  C   UNL     1     -19.611  -7.735  17.331  1.00  0.00     0.000 C 
BRANCH  13  14
ATOM     14  C   UNL     1     -20.316  -6.416  16.980  1.00  0.00     0.002 C 
BRANCH  14  15
ATOM     15  C   UNL     1     -19.487  -5.211  17.442  1.00  0.00     0.028 C 
BRANCH  15  16
ATOM     16  C   UNL     1     -18.495  -4.757  16.366  1.00  0.00     0.156 C 
BRANCH  16  17
ATOM     17  O   UNL     1     -18.966  -5.074  15.084  1.00  0.00    -0.396 OA
ATOM     18  H   UNL     1     -18.930  -6.063  15.005  1.00  0.00     0.210 HD
ENDBRANCH  16  17
ENDBRANCH  15  16
ENDBRANCH  14  15
ENDBRANCH  13  14
ENDBRANCH  12  13
ENDBRANCH  11  12
ENDBRANCH  10  11
ENDBRANCH   1  10
TORSDOF 15
ENDMDL
MODEL 4
REMARK VINA RESULT:    -3.737     16.532     19.137
REMARK INTER + INTRA:          -7.522
REMARK INTER:                  -6.493
REMARK INTRA:                  -1.029
REMARK UNBOUND:                -0.618
REMARK SMILES CCCCCCCCCCCCCCCCO
REMARK SMILES IDX 9 1 8 2 7 3 6 4 5 5 4 6 3 7 2 8 1 9 10 10 11 11 12 12 13 13
REMARK SMILES IDX 14 14 15 15 16 16 17 17
REMARK H PARENT 17 18
REMARK Flexibility Score: inf
ROOT
ATOM      1  C   UNL     1     -22.413  -6.760  17.002  1.00  0.00     0.000 C 
ENDROOT
BRANCH   1   2
ATOM      2  C   UNL     1     -23.892  -7.164  16.878  1.00  0.00    -0.000 C 
BRANCH   2   3
ATOM      3  C   UNL     1     -24.809  -6.337  17.795  1.00  0.00    -0.000 C 
BRANCH   3   4
ATOM      4  C   UNL     1     -26.192  -6.978  17.986  1.00  0.00    -0.000 C 
BRANCH   4   5
ATOM      5  C   UNL     1     -27.221  -5.937  18.442  1.00  0.00    -0.000 C 
BRANCH   5   6
ATOM      6  C   UNL     1     -28.453  -5.944  17.525  1.00  0.00    -0.000 C 
BRANCH   6   7
ATOM      7  C   UNL     1     -28.512  -4.717  16.601  1.00  0.00    -0.000 C 
BRANCH   7   8
ATOM      8  C   UNL     1     -27.559  -3.597  17.046  1.00  0.00    -0.003 C 
ATOM      9  C   UNL     1     -28.011  -2.246  16.501  1.00  0.00     0.004 C 
ENDBRANCH   7   8
ENDBRANCH   6   7
ENDBRANCH   5   6
ENDBRANCH   4   5
ENDBRANCH   3   4
ENDBRANCH   2   3
ENDBRANCH   1   2
BRANCH   1  10
ATOM     10  C   UNL     1     -22.189  -5.620  18.011  1.00  0.00     0.000 C 
BRANCH  10  11
ATOM     11  C   UNL     1     -21.144  -5.953  19.098  1.00  0.00     0.000 C 
BRANCH  11  12
ATOM     12  C   UNL     1     -20.338  -7.218  18.758  1.00  0.00     0.000 C 
BRANCH  12  13
ATOM     13  C   UNL     1     -18.855  -6.922  18.483  1.00  0.00     0.000 C 
BRANCH  13  14
ATOM     14  C   UNL     1     -18.507  -5.435  18.654  1.00  0.00     0.002 C 
BRANCH  14  15
ATOM     15  C   UNL     1     -17.649  -4.934  17.485  1.00  0.00     0.028 C 
BRANCH  15  16
ATOM     16  C   UNL     1     -18.447  -4.875  16.178  1.00  0.00     0.156 C 
BRANCH  16  17
ATOM     17  O   UNL     1     -18.626  -3.549  15.760  1.00  0.00    -0.396 OA
ATOM     18  H   UNL     1     -18.964  -3.589  14.828  1.00  0.00     0.210 HD
ENDBRANCH  16  17
ENDBRANCH  15  16
ENDBRANCH  14  15
ENDBRANCH  13  14
ENDBRANCH  12  13
ENDBRANCH  11  12
ENDBRANCH  10  11
ENDBRANCH   1  10
TORSDOF 15
ENDMDL
MODEL 5
REMARK VINA RESULT:    -3.560     15.007     18.039
REMARK INTER + INTRA:          -7.195
REMARK INTER:                  -6.434
REMARK INTRA:                  -0.761
REMARK UNBOUND:                -0.618
REMARK SMILES CCCCCCCCCCCCCCCCO
REMARK SMILES IDX 9 1 8 2 7 3 6 4 5 5 4 6 3 7 2 8 1 9 10 10 11 11 12 12 13 13
REMARK SMILES IDX 14 14 15 15 16 16 17 17
REMARK H PARENT 17 18
REMARK Flexibility Score: inf
ROOT
ATOM      1  C   UNL     1     -15.770  -5.467  17.586  1.00  0.00     0.000 C 
ENDROOT
BRANCH   1   2
ATOM      2  C   UNL     1     -16.979  -5.272  18.517  1.00  0.00    -0.000 C 
BRANCH   2   3
ATOM      3  C   UNL     1     -18.312  -5.230  17.752  1.00  0.00    -0.000 C 
BRANCH   3   4
ATOM      4  C   UNL     1     -18.631  -6.555  17.042  1.00  0.00    -0.000 C 
BRANCH   4   5
ATOM      5  C   UNL     1     -18.882  -7.675  18.058  1.00  0.00    -0.000 C 
BRANCH   5   6
ATOM      6  C   UNL     1     -20.361  -7.721  18.472  1.00  0.00    -0.000 C 
BRANCH   6   7
ATOM      7  C   UNL     1     -21.292  -8.085  17.305  1.00  0.00    -0.000 C 
BRANCH   7   8
ATOM      8  C   UNL     1     -22.269  -6.953  16.954  1.00  0.00    -0.003 C 
ATOM      9  C   UNL     1     -22.323  -5.911  18.067  1.00  0.00     0.004 C 
ENDBRANCH   7   8
ENDBRANCH   6   7
ENDBRANCH   5   6
ENDBRANCH   4   5
ENDBRANCH   3   4
ENDBRANCH   2   3
ENDBRANCH   1   2
BRANCH   1  10
ATOM     10  C   UNL     1     -14.448  -4.998  18.218  1.00  0.00     0.000 C 
BRANCH  10  11
ATOM     11  C   UNL     1     -13.314  -6.041  18.126  1.00  0.00     0.000 C 
BRANCH  11  12
ATOM     12  C   UNL     1     -11.923  -5.383  18.114  1.00  0.00     0.000 C 
BRANCH  12  13
ATOM     13  C   UNL     1     -10.822  -6.331  17.613  1.00  0.00     0.000 C 
BRANCH  13  14
ATOM     14  C   UNL     1      -9.961  -5.705  16.505  1.00  0.00     0.002 C 
BRANCH  14  15
ATOM     15  C   UNL     1     -10.373  -6.234  15.125  1.00  0.00     0.028 C 
BRANCH  15  16
ATOM     16  C   UNL     1      -9.174  -6.779  14.343  1.00  0.00     0.156 C 
BRANCH  16  17
ATOM     17  O   UNL     1      -9.180  -6.310  13.022  1.00  0.00    -0.396 OA
ATOM     18  H   UNL     1      -9.756  -5.502  13.010  1.00  0.00     0.210 HD
ENDBRANCH  16  17
ENDBRANCH  15  16
ENDBRANCH  14  15
ENDBRANCH  13  14
ENDBRANCH  12  13
ENDBRANCH  11  12
ENDBRANCH  10  11
ENDBRANCH   1  10
TORSDOF 15
ENDMDL
MODEL 6
REMARK VINA RESULT:    -3.536     14.782     17.646
REMARK INTER + INTRA:          -7.151
REMARK INTER:                  -5.794
REMARK INTRA:                  -1.357
REMARK UNBOUND:                -0.618
REMARK SMILES CCCCCCCCCCCCCCCCO
REMARK SMILES IDX 9 1 8 2 7 3 6 4 5 5 4 6 3 7 2 8 1 9 10 10 11 11 12 12 13 13
REMARK SMILES IDX 14 14 15 15 16 16 17 17
REMARK H PARENT 17 18
REMARK Flexibility Score: inf
ROOT
ATOM      1  C   UNL     1     -15.150  -5.973  17.823  1.00  0.00     0.000 C 
ENDROOT
BRANCH   1   2
ATOM      2  C   UNL     1     -15.764  -6.817  18.953  1.00  0.00    -0.000 C 
BRANCH   2   3
ATOM      3  C   UNL     1     -16.060  -8.262  18.516  1.00  0.00    -0.000 C 
BRANCH   3   4
ATOM      4  C   UNL     1     -16.901  -8.333  17.233  1.00  0.00    -0.000 C 
BRANCH   4   5
ATOM      5  C   UNL     1     -18.356  -8.697  17.551  1.00  0.00    -0.000 C 
BRANCH   5   6
ATOM      6  C   UNL     1     -19.301  -7.534  17.214  1.00  0.00    -0.000 C 
BRANCH   6   7
ATOM      7  C   UNL     1     -19.371  -6.483  18.333  1.00  0.00    -0.000 C 
BRANCH   7   8
ATOM      8  C   UNL     1     -19.238  -5.047  17.804  1.00  0.00    -0.003 C 
ATOM      9  C   UNL     1     -18.488  -5.020  16.476  1.00  0.00     0.004 C 
ENDBRANCH   7   8
ENDBRANCH   6   7
ENDBRANCH   5   6
ENDBRANCH   4   5
ENDBRANCH   3   4
ENDBRANCH   2   3
ENDBRANCH   1   2
BRANCH   1  10
ATOM     10  C   UNL     1     -14.149  -4.924  18.338  1.00  0.00     0.000 C 
BRANCH  10  11
ATOM     11  C   UNL     1     -12.674  -5.296  18.075  1.00  0.00     0.000 C 
BRANCH  11  12
ATOM     12  C   UNL     1     -12.537  -6.649  17.357  1.00  0.00     0.000 C 
BRANCH  12  13
ATOM     13  C   UNL     1     -11.075  -7.020  17.062  1.00  0.00     0.000 C 
BRANCH  13  14
ATOM     14  C   UNL     1     -10.375  -5.994  16.156  1.00  0.00     0.002 C 
BRANCH  14  15
ATOM     15  C   UNL     1      -9.125  -6.600  15.505  1.00  0.00     0.028 C 
BRANCH  15  16
ATOM     16  C   UNL     1      -9.423  -7.145  14.104  1.00  0.00     0.156 C 
BRANCH  16  17
ATOM     17  O   UNL     1      -9.188  -6.169  13.125  1.00  0.00    -0.396 OA
ATOM     18  H   UNL     1      -9.732  -6.422  12.334  1.00  0.00     0.210 HD
ENDBRANCH  16  17
ENDBRANCH  15  16
ENDBRANCH  14  15
ENDBRANCH  13  14
ENDBRANCH  12  13
ENDBRANCH  11  12
ENDBRANCH  10  11
ENDBRANCH   1  10
TORSDOF 15
ENDMDL
MODEL 7
REMARK VINA RESULT:    -3.530     14.390     16.011
REMARK INTER + INTRA:          -7.140
REMARK INTER:                  -5.540
REMARK INTRA:                  -1.600
REMARK UNBOUND:                -0.618
REMARK SMILES CCCCCCCCCCCCCCCCO
REMARK SMILES IDX 9 1 8 2 7 3 6 4 5 5 4 6 3 7 2 8 1 9 10 10 11 11 12 12 13 13
REMARK SMILES IDX 14 14 15 15 16 16 17 17
REMARK H PARENT 17 18
REMARK Flexibility Score: inf
ROOT
ATOM      1  C   UNL     1     -14.092  -9.224  15.782  1.00  0.00     0.000 C 
ENDROOT
BRANCH   1   2
ATOM      2  C   UNL     1     -13.051  -8.136  16.095  1.00  0.00    -0.000 C 
BRANCH   2   3
ATOM      3  C   UNL     1     -12.628  -8.131  17.573  1.00  0.00    -0.000 C 
BRANCH   3   4
ATOM      4  C   UNL     1     -12.768  -6.747  18.225  1.00  0.00    -0.000 C 
BRANCH   4   5
ATOM      5  C   UNL     1     -11.893  -5.711  17.508  1.00  0.00    -0.000 C 
BRANCH   5   6
ATOM      6  C   UNL     1     -10.411  -5.906  17.858  1.00  0.00    -0.000 C 
BRANCH   6   7
ATOM      7  C   UNL     1      -9.540  -6.183  16.622  1.00  0.00    -0.000 C 
BRANCH   7   8
ATOM      8  C   UNL     1     -10.338  -6.116  15.311  1.00  0.00    -0.003 C 
ATOM      9  C   UNL     1      -9.484  -6.557  14.127  1.00  0.00     0.004 C 
ENDBRANCH   7   8
ENDBRANCH   6   7
ENDBRANCH   5   6
ENDBRANCH   4   5
ENDBRANCH   3   4
ENDBRANCH   2   3
ENDBRANCH   1   2
BRANCH   1  10
ATOM     10  C   UNL     1     -15.010  -9.532  16.977  1.00  0.00     0.000 C 
BRANCH  10  11
ATOM     11  C   UNL     1     -16.397  -8.860  16.881  1.00  0.00     0.000 C 
BRANCH  11  12
ATOM     12  C   UNL     1     -16.511  -7.634  17.805  1.00  0.00     0.000 C 
BRANCH  12  13
ATOM     13  C   UNL     1     -16.341  -6.305  17.052  1.00  0.00     0.000 C 
BRANCH  13  14
ATOM     14  C   UNL     1     -16.794  -5.093  17.881  1.00  0.00     0.002 C 
BRANCH  14  15
ATOM     15  C   UNL     1     -18.274  -4.777  17.626  1.00  0.00     0.028 C 
BRANCH  15  16
ATOM     16  C   UNL     1     -18.673  -5.056  16.173  1.00  0.00     0.156 C 
BRANCH  16  17
ATOM     17  O   UNL     1     -19.659  -6.051  16.105  1.00  0.00    -0.396 OA
ATOM     18  H   UNL     1     -19.222  -6.858  15.728  1.00  0.00     0.210 HD
ENDBRANCH  16  17
ENDBRANCH  15  16
ENDBRANCH  14  15
ENDBRANCH  13  14
ENDBRANCH  12  13
ENDBRANCH  11  12
ENDBRANCH  10  11
ENDBRANCH   1  10
TORSDOF 15
ENDMDL
MODEL 8
REMARK VINA RESULT:    -3.504     16.616     17.627
REMARK INTER + INTRA:          -7.092
REMARK INTER:                  -5.680
REMARK INTRA:                  -1.412
REMARK UNBOUND:                -0.618
REMARK SMILES CCCCCCCCCCCCCCCCO
REMARK SMILES IDX 9 1 8 2 7 3 6 4 5 5 4 6 3 7 2 8 1 9 10 10 11 11 12 12 13 13
REMARK SMILES IDX 14 14 15 15 16 16 17 17
REMARK H PARENT 17 18
REMARK Flexibility Score: inf
ROOT
ATOM      1  C   UNL     1     -21.925  -6.661  17.166  1.00  0.00     0.000 C 
ENDROOT
BRANCH   1   2
ATOM      2  C   UNL     1     -21.208  -8.021  17.207  1.00  0.00    -0.000 C 
BRANCH   2   3
ATOM      3  C   UNL     1     -20.828  -8.445  18.635  1.00  0.00    -0.000 C 
BRANCH   3   4
ATOM      4  C   UNL     1     -19.413  -9.036  18.722  1.00  0.00    -0.000 C 
BRANCH   4   5
ATOM      5  C   UNL     1     -18.519  -8.486  17.604  1.00  0.00    -0.000 C 
BRANCH   5   6
ATOM      6  C   UNL     1     -17.730  -7.259  18.084  1.00  0.00    -0.000 C 
BRANCH   6   7
ATOM      7  C   UNL     1     -17.721  -6.119  17.053  1.00  0.00    -0.000 C 
BRANCH   7   8
ATOM      8  C   UNL     1     -18.719  -5.003  17.398  1.00  0.00    -0.003 C 
ATOM      9  C   UNL     1     -18.982  -4.947  18.899  1.00  0.00     0.004 C 
ENDBRANCH   7   8
ENDBRANCH   6   7
ENDBRANCH   5   6
ENDBRANCH   4   5
ENDBRANCH   3   4
ENDBRANCH   2   3
ENDBRANCH   1   2
BRANCH   1  10
ATOM     10  C   UNL     1     -23.207  -6.636  18.015  1.00  0.00     0.000 C 
BRANCH  10  11
ATOM     11  C   UNL     1     -24.486  -6.967  17.217  1.00  0.00     0.000 C 
BRANCH  11  12
ATOM     12  C   UNL     1     -25.628  -7.450  18.127  1.00  0.00     0.000 C 
BRANCH  12  13
ATOM     13  C   UNL     1     -26.644  -6.342  18.444  1.00  0.00     0.000 C 
BRANCH  13  14
ATOM     14  C   UNL     1     -26.590  -5.183  17.437  1.00  0.00     0.002 C 
BRANCH  14  15
ATOM     15  C   UNL     1     -27.955  -4.490  17.324  1.00  0.00     0.028 C 
BRANCH  15  16
ATOM     16  C   UNL     1     -29.099  -5.503  17.210  1.00  0.00     0.156 C 
BRANCH  16  17
ATOM     17  O   UNL     1     -29.086  -6.136  15.959  1.00  0.00    -0.396 OA
ATOM     18  H   UNL     1     -29.075  -7.113  16.135  1.00  0.00     0.210 HD
ENDBRANCH  16  17
ENDBRANCH  15  16
ENDBRANCH  14  15
ENDBRANCH  13  14
ENDBRANCH  12  13
ENDBRANCH  11  12
ENDBRANCH  10  11
ENDBRANCH   1  10
TORSDOF 15
ENDMDL
MODEL 9
REMARK VINA RESULT:    -3.487     16.107     18.872
REMARK INTER + INTRA:          -7.061
REMARK INTER:                  -6.518
REMARK INTRA:                  -0.543
REMARK UNBOUND:                -0.618
REMARK SMILES CCCCCCCCCCCCCCCCO
REMARK SMILES IDX 9 1 8 2 7 3 6 4 5 5 4 6 3 7 2 8 1 9 10 10 11 11 12 12 13 13
REMARK SMILES IDX 14 14 15 15 16 16 17 17
REMARK H PARENT 17 18
REMARK Flexibility Score: inf
ROOT
ATOM      1  C   UNL     1     -22.180  -7.631  17.255  1.00  0.00     0.000 C 
ENDROOT
BRANCH   1   2
ATOM      2  C   UNL     1     -23.442  -7.391  18.102  1.00  0.00    -0.000 C 
BRANCH   2   3
ATOM      3  C   UNL     1     -24.640  -6.927  17.256  1.00  0.00    -0.000 C 
BRANCH   3   4
ATOM      4  C   UNL     1     -25.606  -6.028  18.041  1.00  0.00    -0.000 C 
BRANCH   4   5
ATOM      5  C   UNL     1     -27.029  -6.599  18.018  1.00  0.00    -0.000 C 
BRANCH   5   6
ATOM      6  C   UNL     1     -28.069  -5.481  17.851  1.00  0.00    -0.000 C 
BRANCH   6   7
ATOM      7  C   UNL     1     -27.564  -4.330  16.967  1.00  0.00    -0.000 C 
BRANCH   7   8
ATOM      8  C   UNL     1     -28.656  -3.289  16.673  1.00  0.00    -0.003 C 
ATOM      9  C   UNL     1     -28.059  -1.892  16.542  1.00  0.00     0.004 C 
ENDBRANCH   7   8
ENDBRANCH   6   7
ENDBRANCH   5   6
ENDBRANCH   4   5
ENDBRANCH   3   4
ENDBRANCH   2   3
ENDBRANCH   1   2
BRANCH   1  10
ATOM     10  C   UNL     1     -21.281  -6.387  17.158  1.00  0.00     0.000 C 
BRANCH  10  11
ATOM     11  C   UNL     1     -19.772  -6.711  17.162  1.00  0.00     0.000 C 
BRANCH  11  12
ATOM     12  C   UNL     1     -18.940  -5.606  16.488  1.00  0.00     0.000 C 
BRANCH  12  13
ATOM     13  C   UNL     1     -18.073  -4.823  17.487  1.00  0.00     0.000 C 
BRANCH  13  14
ATOM     14  C   UNL     1     -17.088  -5.724  18.248  1.00  0.00     0.002 C 
BRANCH  14  15
ATOM     15  C   UNL     1     -15.771  -5.872  17.475  1.00  0.00     0.028 C 
BRANCH  15  16
ATOM     16  C   UNL     1     -15.598  -7.287  16.912  1.00  0.00     0.156 C 
BRANCH  16  17
ATOM     17  O   UNL     1     -14.944  -7.257  15.672  1.00  0.00    -0.396 OA
ATOM     18  H   UNL     1     -14.776  -6.302  15.462  1.00  0.00     0.210 HD
ENDBRANCH  16  17
ENDBRANCH  15  16
ENDBRANCH  14  15
ENDBRANCH  13  14
ENDBRANCH  12  13
ENDBRANCH  11  12
ENDBRANCH  10  11
ENDBRANCH   1  10
TORSDOF 15
ENDMDL
