MODEL 1
REMARK VINA RESULT:    -4.238      0.000      0.000
REMARK INTER + INTRA:          -5.652
REMARK INTER:                  -5.477
REMARK INTRA:                  -0.176
REMARK UNBOUND:                -0.176
REMARK SMILES CCCCCCC(=O)[O-]
REMARK SMILES IDX 5 1 6 2 7 3 8 4 9 5 4 6 3 7 2 8 1 9
REMARK H PARENT
REMARK Flexibility Score: inf
ROOT
ATOM      1  C   UNL     1      -4.866  -1.059  28.395  1.00  0.00     0.006 C 
ENDROOT
BRANCH   1   2
ATOM      2  C   UNL     1      -3.523  -0.523  28.907  1.00  0.00     0.053 C 
BRANCH   2   3
ATOM      3  C   UNL     1      -2.368  -1.086  28.138  1.00  0.00     0.041 C 
ATOM      4  O   UNL     1      -1.850  -2.181  28.483  1.00  0.00    -0.550 OA
ATOM      5  O   UNL     1      -1.882  -0.415  27.022  1.00  0.00    -0.550 OA
ENDBRANCH   2   3
ENDBRANCH   1   2
BRANCH   1   6
ATOM      6  C   UNL     1      -5.319  -2.315  29.159  1.00  0.00     0.000 C 
BRANCH   6   7
ATOM      7  C   UNL     1      -5.750  -3.455  28.222  1.00  0.00    -0.000 C 
BRANCH   7   8
ATOM      8  C   UNL     1      -4.913  -4.728  28.413  1.00  0.00    -0.003 C 
ATOM      9  C   UNL     1      -5.745  -5.978  28.142  1.00  0.00     0.004 C 
ENDBRANCH   7   8
ENDBRANCH   6   7
ENDBRANCH   1   6
TORSDOF 5
ENDMDL
MODEL 2
REMARK VINA RESULT:    -4.218      0.239      1.101
REMARK INTER + INTRA:          -5.626
REMARK INTER:                  -5.478
REMARK INTRA:                  -0.148
REMARK UNBOUND:                -0.176
REMARK SMILES CCCCCCC(=O)[O-]
REMARK SMILES IDX 5 1 6 2 7 3 8 4 9 5 4 6 3 7 2 8 1 9
REMARK H PARENT
REMARK Flexibility Score: inf
ROOT
ATOM      1  C   UNL     1      -4.673  -0.998  28.220  1.00  0.00     0.006 C 
ENDROOT
BRANCH   1   2
ATOM      2  C   UNL     1      -3.346  -0.510  28.817  1.00  0.00     0.053 C 
BRANCH   2   3
ATOM      3  C   UNL     1      -2.169  -0.979  28.018  1.00  0.00     0.041 C 
ATOM      4  O   UNL     1      -1.814  -0.353  26.985  1.00  0.00    -0.550 OA
ATOM      5  O   UNL     1      -1.445  -2.091  28.432  1.00  0.00    -0.550 OA
ENDBRANCH   2   3
ENDBRANCH   1   2
BRANCH   1   6
ATOM      6  C   UNL     1      -5.318  -2.107  29.070  1.00  0.00     0.000 C 
BRANCH   6   7
ATOM      7  C   UNL     1      -5.768  -3.311  28.226  1.00  0.00    -0.000 C 
BRANCH   7   8
ATOM      8  C   UNL     1      -4.871  -4.542  28.426  1.00  0.00    -0.003 C 
ATOM      9  C   UNL     1      -5.619  -5.827  28.083  1.00  0.00     0.004 C 
ENDBRANCH   7   8
ENDBRANCH   6   7
ENDBRANCH   1   6
TORSDOF 5
ENDMDL
MODEL 3
REMARK VINA RESULT:    -4.200      1.186      1.270
REMARK INTER + INTRA:          -5.603
REMARK INTER:                  -5.383
REMARK INTRA:                  -0.220
REMARK UNBOUND:                -0.176
REMARK SMILES CCCCCCC(=O)[O-]
REMARK SMILES IDX 5 1 6 2 7 3 8 4 9 5 4 6 3 7 2 8 1 9
REMARK H PARENT
REMARK Flexibility Score: inf
ROOT
ATOM      1  C   UNL     1      -5.361  -1.580  28.937  1.00  0.00     0.006 C 
ENDROOT
BRANCH   1   2
ATOM      2  C   UNL     1      -4.282  -1.178  27.924  1.00  0.00     0.053 C 
BRANCH   2   3
ATOM      3  C   UNL     1      -3.002  -0.789  28.598  1.00  0.00     0.041 C 
ATOM      4  O   UNL     1      -1.943  -1.432  28.369  1.00  0.00    -0.550 OA
ATOM      5  O   UNL     1      -2.972   0.304  29.456  1.00  0.00    -0.550 OA
ENDBRANCH   2   3
ENDBRANCH   1   2
BRANCH   1   6
ATOM      6  C   UNL     1      -4.918  -2.760  29.820  1.00  0.00     0.000 C 
BRANCH   6   7
ATOM      7  C   UNL     1      -5.667  -4.061  29.488  1.00  0.00    -0.000 C 
BRANCH   7   8
ATOM      8  C   UNL     1      -4.984  -4.868  28.373  1.00  0.00    -0.003 C 
ATOM      9  C   UNL     1      -5.788  -6.119  28.030  1.00  0.00     0.004 C 
ENDBRANCH   7   8
ENDBRANCH   6   7
ENDBRANCH   1   6
TORSDOF 5
ENDMDL
MODEL 4
REMARK VINA RESULT:    -4.063      2.149      4.381
REMARK INTER + INTRA:          -5.427
REMARK INTER:                  -5.222
REMARK INTRA:                  -0.204
REMARK UNBOUND:                -0.176
REMARK SMILES CCCCCCC(=O)[O-]
REMARK SMILES IDX 5 1 6 2 7 3 8 4 9 5 4 6 3 7 2 8 1 9
REMARK H PARENT
REMARK Flexibility Score: inf
ROOT
ATOM      1  C   UNL     1      -5.299  -2.406  29.383  1.00  0.00     0.006 C 
ENDROOT
BRANCH   1   2
ATOM      2  C   UNL     1      -5.742  -3.343  28.252  1.00  0.00     0.053 C 
BRANCH   2   3
ATOM      3  C   UNL     1      -4.982  -4.634  28.267  1.00  0.00     0.041 C 
ATOM      4  O   UNL     1      -3.754  -4.643  28.546  1.00  0.00    -0.550 OA
ATOM      5  O   UNL     1      -5.637  -5.831  28.002  1.00  0.00    -0.550 OA
ENDBRANCH   2   3
ENDBRANCH   1   2
BRANCH   1   6
ATOM      6  C   UNL     1      -5.074  -0.967  28.889  1.00  0.00     0.000 C 
BRANCH   6   7
ATOM      7  C   UNL     1      -4.049  -0.887  27.746  1.00  0.00    -0.000 C 
BRANCH   7   8
ATOM      8  C   UNL     1      -2.645  -0.500  28.235  1.00  0.00    -0.003 C 
ATOM      9  C   UNL     1      -1.650  -0.470  27.079  1.00  0.00     0.004 C 
ENDBRANCH   7   8
ENDBRANCH   6   7
ENDBRANCH   1   6
TORSDOF 5
ENDMDL
MODEL 5
REMARK VINA RESULT:    -3.913      2.674      4.465
REMARK INTER + INTRA:          -5.233
REMARK INTER:                  -4.926
REMARK INTRA:                  -0.307
REMARK UNBOUND:                -0.176
REMARK SMILES CCCCCCC(=O)[O-]
REMARK SMILES IDX 5 1 6 2 7 3 8 4 9 5 4 6 3 7 2 8 1 9
REMARK H PARENT
REMARK Flexibility Score: inf
ROOT
ATOM      1  C   UNL     1      -3.833  -2.903  29.528  1.00  0.00     0.006 C 
ENDROOT
BRANCH   1   2
ATOM      2  C   UNL     1      -3.873  -4.254  28.802  1.00  0.00     0.053 C 
BRANCH   2   3
ATOM      3  C   UNL     1      -5.276  -4.733  28.591  1.00  0.00     0.041 C 
ATOM      4  O   UNL     1      -5.661  -5.815  29.106  1.00  0.00    -0.550 OA
ATOM      5  O   UNL     1      -6.169  -3.967  27.850  1.00  0.00    -0.550 OA
ENDBRANCH   2   3
ENDBRANCH   1   2
BRANCH   1   6
ATOM      6  C   UNL     1      -3.303  -1.775  28.626  1.00  0.00     0.000 C 
BRANCH   6   7
ATOM      7  C   UNL     1      -4.429  -0.903  28.047  1.00  0.00    -0.000 C 
BRANCH   7   8
ATOM      8  C   UNL     1      -5.573  -0.672  29.047  1.00  0.00    -0.003 C 
ATOM      9  C   UNL     1      -5.707   0.808  29.394  1.00  0.00     0.004 C 
ENDBRANCH   7   8
ENDBRANCH   6   7
ENDBRANCH   1   6
TORSDOF 5
ENDMDL
MODEL 6
REMARK VINA RESULT:    -3.897      2.475      2.821
REMARK INTER + INTRA:          -5.212
REMARK INTER:                  -5.038
REMARK INTRA:                  -0.174
REMARK UNBOUND:                -0.176
REMARK SMILES CCCCCCC(=O)[O-]
REMARK SMILES IDX 5 1 6 2 7 3 8 4 9 5 4 6 3 7 2 8 1 9
REMARK H PARENT
REMARK Flexibility Score: inf
ROOT
ATOM      1  C   UNL     1      -4.080  -1.533  29.045  1.00  0.00     0.006 C 
ENDROOT
BRANCH   1   2
ATOM      2  C   UNL     1      -5.444  -0.833  28.981  1.00  0.00     0.053 C 
BRANCH   2   3
ATOM      3  C   UNL     1      -5.351   0.608  29.379  1.00  0.00     0.041 C 
ATOM      4  O   UNL     1      -4.227   1.144  29.563  1.00  0.00    -0.550 OA
ATOM      5  O   UNL     1      -6.507   1.368  29.516  1.00  0.00    -0.550 OA
ENDBRANCH   2   3
ENDBRANCH   1   2
BRANCH   1   6
ATOM      6  C   UNL     1      -4.210  -3.064  28.970  1.00  0.00     0.000 C 
BRANCH   6   7
ATOM      7  C   UNL     1      -5.657  -3.545  29.166  1.00  0.00    -0.000 C 
BRANCH   7   8
ATOM      8  C   UNL     1      -6.150  -4.425  28.007  1.00  0.00    -0.003 C 
ATOM      9  C   UNL     1      -5.512  -5.810  28.060  1.00  0.00     0.004 C 
ENDBRANCH   7   8
ENDBRANCH   6   7
ENDBRANCH   1   6
TORSDOF 5
ENDMDL
MODEL 7
REMARK VINA RESULT:    -3.609      1.620      2.295
REMARK INTER + INTRA:          -4.840
REMARK INTER:                  -4.674
REMARK INTRA:                  -0.166
REMARK UNBOUND:                -0.176
REMARK SMILES CCCCCCC(=O)[O-]
REMARK SMILES IDX 5 1 6 2 7 3 8 4 9 5 4 6 3 7 2 8 1 9
REMARK H PARENT
REMARK Flexibility Score: inf
ROOT
ATOM      1  C   UNL     1      -2.795  -0.870  27.763  1.00  0.00     0.006 C 
ENDROOT
BRANCH   1   2
ATOM      2  C   UNL     1      -1.320  -0.666  28.132  1.00  0.00     0.053 C 
BRANCH   2   3
ATOM      3  C   UNL     1      -0.525  -1.925  27.966  1.00  0.00     0.041 C 
ATOM      4  O   UNL     1      -0.900  -2.990  28.524  1.00  0.00    -0.550 OA
ATOM      5  O   UNL     1       0.615  -1.928  27.171  1.00  0.00    -0.550 OA
ENDBRANCH   2   3
ENDBRANCH   1   2
BRANCH   1   6
ATOM      6  C   UNL     1      -3.708  -0.874  29.002  1.00  0.00     0.000 C 
BRANCH   6   7
ATOM      7  C   UNL     1      -5.171  -1.198  28.658  1.00  0.00    -0.000 C 
BRANCH   7   8
ATOM      8  C   UNL     1      -5.386  -2.683  28.328  1.00  0.00    -0.003 C 
ATOM      9  C   UNL     1      -5.347  -3.537  29.592  1.00  0.00     0.004 C 
ENDBRANCH   7   8
ENDBRANCH   6   7
ENDBRANCH   1   6
TORSDOF 5
ENDMDL
MODEL 8
REMARK VINA RESULT:    -3.607      2.184      2.948
REMARK INTER + INTRA:          -4.837
REMARK INTER:                  -4.617
REMARK INTRA:                  -0.220
REMARK UNBOUND:                -0.176
REMARK SMILES CCCCCCC(=O)[O-]
REMARK SMILES IDX 5 1 6 2 7 3 8 4 9 5 4 6 3 7 2 8 1 9
REMARK H PARENT
REMARK Flexibility Score: inf
ROOT
ATOM      1  C   UNL     1      -1.898  -3.868  28.892  1.00  0.00     0.006 C 
ENDROOT
BRANCH   1   2
ATOM      2  C   UNL     1      -1.297  -2.560  28.362  1.00  0.00     0.053 C 
BRANCH   2   3
ATOM      3  C   UNL     1       0.151  -2.426  28.719  1.00  0.00     0.041 C 
ATOM      4  O   UNL     1       0.648  -3.139  29.630  1.00  0.00    -0.550 OA
ATOM      5  O   UNL     1       0.960  -1.534  28.025  1.00  0.00    -0.550 OA
ENDBRANCH   2   3
ENDBRANCH   1   2
BRANCH   1   6
ATOM      6  C   UNL     1      -3.348  -3.687  29.374  1.00  0.00     0.000 C 
BRANCH   6   7
ATOM      7  C   UNL     1      -4.350  -4.524  28.561  1.00  0.00    -0.000 C 
BRANCH   7   8
ATOM      8  C   UNL     1      -5.642  -3.756  28.242  1.00  0.00    -0.003 C 
ATOM      9  C   UNL     1      -5.432  -2.250  28.377  1.00  0.00     0.004 C 
ENDBRANCH   7   8
ENDBRANCH   6   7
ENDBRANCH   1   6
TORSDOF 5
ENDMDL
MODEL 9
REMARK VINA RESULT:    -3.594      2.495      4.358
REMARK INTER + INTRA:          -4.820
REMARK INTER:                  -4.533
REMARK INTRA:                  -0.287
REMARK UNBOUND:                -0.176
REMARK SMILES CCCCCCC(=O)[O-]
REMARK SMILES IDX 5 1 6 2 7 3 8 4 9 5 4 6 3 7 2 8 1 9
REMARK H PARENT
REMARK Flexibility Score: inf
ROOT
ATOM      1  C   UNL     1      -3.622  -0.324  29.009  1.00  0.00     0.006 C 
ENDROOT
BRANCH   1   2
ATOM      2  C   UNL     1      -4.281  -1.246  27.975  1.00  0.00     0.053 C 
BRANCH   2   3
ATOM      3  C   UNL     1      -4.970  -2.408  28.621  1.00  0.00     0.041 C 
ATOM      4  O   UNL     1      -5.753  -3.133  27.952  1.00  0.00    -0.550 OA
ATOM      5  O   UNL     1      -4.725  -2.708  29.956  1.00  0.00    -0.550 OA
ENDBRANCH   2   3
ENDBRANCH   1   2
BRANCH   1   6
ATOM      6  C   UNL     1      -2.155  -0.017  28.662  1.00  0.00     0.000 C 
BRANCH   6   7
ATOM      7  C   UNL     1      -1.818  -0.325  27.194  1.00  0.00    -0.000 C 
BRANCH   7   8
ATOM      8  C   UNL     1      -0.523  -1.138  27.043  1.00  0.00    -0.003 C 
ATOM      9  C   UNL     1      -0.376  -2.152  28.175  1.00  0.00     0.004 C 
ENDBRANCH   7   8
ENDBRANCH   6   7
ENDBRANCH   1   6
TORSDOF 5
ENDMDL
