MODEL 1
REMARK VINA RESULT:    -2.420      0.000      0.000
REMARK INTER + INTRA:          -2.420
REMARK INTER:                  -2.420
REMARK INTRA:                   0.000
REMARK UNBOUND:                 0.000
REMARK SMILES CC(=O)[O-]
REMARK SMILES IDX 1 1 2 2 3 3 4 4
REMARK H PARENT
REMARK Flexibility Score: inf
ROOT
ATOM      1  C   UNL     1      35.040  44.576  45.104  1.00  0.00     0.063 C 
ATOM      2  C   UNL     1      35.611  44.095  46.394  1.00  0.00     0.038 C 
ATOM      3  O   UNL     1      35.280  44.647  47.476  1.00  0.00    -0.550 OA
ATOM      4  O   UNL     1      36.549  43.071  46.401  1.00  0.00    -0.550 OA
ENDROOT
TORSDOF 0
ENDMDL
MODEL 2
REMARK VINA RESULT:    -2.378      1.329      1.760
REMARK INTER + INTRA:          -2.378
REMARK INTER:                  -2.378
REMARK INTRA:                   0.000
REMARK UNBOUND:                 0.000
REMARK SMILES CC(=O)[O-]
REMARK SMILES IDX 1 1 2 2 3 3 4 4
REMARK H PARENT
REMARK Flexibility Score: inf
ROOT
ATOM      1  C   UNL     1      36.305  42.644  46.747  1.00  0.00     0.063 C 
ATOM      2  C   UNL     1      35.724  43.974  46.409  1.00  0.00     0.038 C 
ATOM      3  O   UNL     1      35.287  44.724  47.321  1.00  0.00    -0.550 OA
ATOM      4  O   UNL     1      35.615  44.369  45.081  1.00  0.00    -0.550 OA
ENDROOT
TORSDOF 0
ENDMDL
MODEL 3
REMARK VINA RESULT:    -2.356      3.768      4.086
REMARK INTER + INTRA:          -2.356
REMARK INTER:                  -2.356
REMARK INTRA:                   0.000
REMARK UNBOUND:                 0.000
REMARK SMILES CC(=O)[O-]
REMARK SMILES IDX 1 1 2 2 3 3 4 4
REMARK H PARENT
REMARK Flexibility Score: inf
ROOT
ATOM      1  C   UNL     1      32.250  45.526  42.593  1.00  0.00     0.063 C 
ATOM      2  C   UNL     1      32.768  44.650  43.682  1.00  0.00     0.038 C 
ATOM      3  O   UNL     1      32.003  43.827  44.250  1.00  0.00    -0.550 OA
ATOM      4  O   UNL     1      34.085  44.774  44.108  1.00  0.00    -0.550 OA
ENDROOT
TORSDOF 0
ENDMDL
MODEL 4
REMARK VINA RESULT:    -2.341      1.358      1.852
REMARK INTER + INTRA:          -2.341
REMARK INTER:                  -2.341
REMARK INTRA:                   0.000
REMARK UNBOUND:                 0.000
REMARK SMILES CC(=O)[O-]
REMARK SMILES IDX 1 1 2 2 3 3 4 4
REMARK H PARENT
REMARK Flexibility Score: inf
ROOT
ATOM      1  C   UNL     1      35.558  44.453  46.003  1.00  0.00     0.063 C 
ATOM      2  C   UNL     1      35.815  43.134  46.647  1.00  0.00     0.038 C 
ATOM      3  O   UNL     1      36.988  42.682  46.715  1.00  0.00    -0.550 OA
ATOM      4  O   UNL     1      34.755  42.376  47.128  1.00  0.00    -0.550 OA
ENDROOT
TORSDOF 0
ENDMDL
MODEL 5
REMARK VINA RESULT:    -2.338      1.385      1.681
REMARK INTER + INTRA:          -2.338
REMARK INTER:                  -2.338
REMARK INTRA:                   0.000
REMARK UNBOUND:                 0.000
REMARK SMILES CC(=O)[O-]
REMARK SMILES IDX 1 1 2 2 3 3 4 4
REMARK H PARENT
REMARK Flexibility Score: inf
ROOT
ATOM      1  C   UNL     1      35.034  44.485  47.559  1.00  0.00     0.063 C 
ATOM      2  C   UNL     1      35.740  43.969  46.351  1.00  0.00     0.038 C 
ATOM      3  O   UNL     1      35.483  44.448  45.216  1.00  0.00    -0.550 OA
ATOM      4  O   UNL     1      36.645  42.922  46.469  1.00  0.00    -0.550 OA
ENDROOT
TORSDOF 0
ENDMDL
MODEL 6
REMARK VINA RESULT:    -2.320      4.236      4.756
REMARK INTER + INTRA:          -2.320
REMARK INTER:                  -2.320
REMARK INTRA:                   0.000
REMARK UNBOUND:                 0.000
REMARK SMILES CC(=O)[O-]
REMARK SMILES IDX 1 1 2 2 3 3 4 4
REMARK H PARENT
REMARK Flexibility Score: inf
ROOT
ATOM      1  C   UNL     1      38.918  41.497  50.347  1.00  0.00     0.063 C 
ATOM      2  C   UNL     1      37.897  42.323  49.644  1.00  0.00     0.038 C 
ATOM      3  O   UNL     1      37.110  43.053  50.303  1.00  0.00    -0.550 OA
ATOM      4  O   UNL     1      37.775  42.252  48.262  1.00  0.00    -0.550 OA
ENDROOT
TORSDOF 0
ENDMDL
MODEL 7
REMARK VINA RESULT:    -2.271      4.405      4.984
REMARK INTER + INTRA:          -2.271
REMARK INTER:                  -2.271
REMARK INTRA:                   0.000
REMARK UNBOUND:                 0.000
REMARK SMILES CC(=O)[O-]
REMARK SMILES IDX 1 1 2 2 3 3 4 4
REMARK H PARENT
REMARK Flexibility Score: inf
ROOT
ATOM      1  C   UNL     1      37.719  42.197  48.428  1.00  0.00     0.063 C 
ATOM      2  C   UNL     1      38.221  42.172  49.831  1.00  0.00     0.038 C 
ATOM      3  O   UNL     1      38.961  41.231  50.221  1.00  0.00    -0.550 OA
ATOM      4  O   UNL     1      37.832  43.160  50.727  1.00  0.00    -0.550 OA
ENDROOT
TORSDOF 0
ENDMDL
MODEL 8
REMARK VINA RESULT:    -2.263     14.453     14.762
REMARK INTER + INTRA:          -2.263
REMARK INTER:                  -2.263
REMARK INTRA:                   0.000
REMARK UNBOUND:                 0.000
REMARK SMILES CC(=O)[O-]
REMARK SMILES IDX 1 1 2 2 3 3 4 4
REMARK H PARENT
REMARK Flexibility Score: inf
ROOT
ATOM      1  C   UNL     1      50.125  49.780  45.612  1.00  0.00     0.063 C 
ATOM      2  C   UNL     1      49.330  48.837  44.775  1.00  0.00     0.038 C 
ATOM      3  O   UNL     1      48.989  47.716  45.236  1.00  0.00    -0.550 OA
ATOM      4  O   UNL     1      49.007  49.170  43.466  1.00  0.00    -0.550 OA
ENDROOT
TORSDOF 0
ENDMDL
MODEL 9
REMARK VINA RESULT:    -2.217     14.195     14.616
REMARK INTER + INTRA:          -2.217
REMARK INTER:                  -2.217
REMARK INTRA:                   0.000
REMARK UNBOUND:                 0.000
REMARK SMILES CC(=O)[O-]
REMARK SMILES IDX 1 1 2 2 3 3 4 4
REMARK H PARENT
REMARK Flexibility Score: inf
ROOT
ATOM      1  C   UNL     1      39.932  36.735  32.875  1.00  0.00     0.063 C 
ATOM      2  C   UNL     1      39.774  37.560  34.106  1.00  0.00     0.038 C 
ATOM      3  O   UNL     1      40.005  37.059  35.238  1.00  0.00    -0.550 OA
ATOM      4  O   UNL     1      39.320  38.870  34.013  1.00  0.00    -0.550 OA
ENDROOT
TORSDOF 0
ENDMDL
