MODEL 1
REMARK VINA RESULT:    -4.017      0.000      0.000
REMARK INTER + INTRA:          -5.759
REMARK INTER:                  -5.544
REMARK INTRA:                  -0.216
REMARK UNBOUND:                -0.216
REMARK SMILES CCCCCCCCO
REMARK SMILES IDX 5 1 4 2 3 3 2 4 1 5 6 6 7 7 8 8 9 9
REMARK H PARENT 9 10
REMARK Flexibility Score: inf
ROOT
ATOM      1  C   UNL     1      -2.280 -16.563  20.852  1.00  0.00     0.000 C 
ENDROOT
BRANCH   1   2
ATOM      2  C   UNL     1      -1.581 -16.060  19.579  1.00  0.00    -0.000 C 
BRANCH   2   3
ATOM      3  C   UNL     1      -1.964 -14.611  19.230  1.00  0.00    -0.000 C 
BRANCH   3   4
ATOM      4  C   UNL     1      -2.264 -13.765  20.475  1.00  0.00    -0.003 C 
ATOM      5  C   UNL     1      -3.482 -12.859  20.294  1.00  0.00     0.004 C 
ENDBRANCH   3   4
ENDBRANCH   2   3
ENDBRANCH   1   2
BRANCH   1   6
ATOM      6  C   UNL     1      -3.334 -17.645  20.558  1.00  0.00     0.002 C 
BRANCH   6   7
ATOM      7  C   UNL     1      -3.356 -18.752  21.624  1.00  0.00     0.028 C 
BRANCH   7   8
ATOM      8  C   UNL     1      -4.718 -19.442  21.732  1.00  0.00     0.156 C 
BRANCH   8   9
ATOM      9  O   UNL     1      -4.995 -20.115  20.537  1.00  0.00    -0.396 OA
ATOM     10  H   UNL     1      -5.585 -19.515  20.012  1.00  0.00     0.210 HD
ENDBRANCH   8   9
ENDBRANCH   7   8
ENDBRANCH   6   7
ENDBRANCH   1   6
TORSDOF 7
ENDMDL
MODEL 2
REMARK VINA RESULT:    -4.016      2.884      5.506
REMARK INTER + INTRA:          -5.757
REMARK INTER:                  -5.604
REMARK INTRA:                  -0.153
REMARK UNBOUND:                -0.216
REMARK SMILES CCCCCCCCO
REMARK SMILES IDX 5 1 4 2 3 3 2 4 1 5 6 6 7 7 8 8 9 9
REMARK H PARENT 9 10
REMARK Flexibility Score: inf
ROOT
ATOM      1  C   UNL     1      -2.146 -16.617  20.004  1.00  0.00     0.000 C 
ENDROOT
BRANCH   1   2
ATOM      2  C   UNL     1      -2.666 -17.523  21.132  1.00  0.00    -0.000 C 
BRANCH   2   3
ATOM      3  C   UNL     1      -3.848 -18.401  20.686  1.00  0.00    -0.000 C 
BRANCH   3   4
ATOM      4  C   UNL     1      -4.376 -19.296  21.818  1.00  0.00    -0.003 C 
ATOM      5  C   UNL     1      -3.339 -19.536  22.914  1.00  0.00     0.004 C 
ENDBRANCH   3   4
ENDBRANCH   2   3
ENDBRANCH   1   2
BRANCH   1   6
ATOM      6  C   UNL     1      -2.148 -15.129  20.394  1.00  0.00     0.002 C 
BRANCH   6   7
ATOM      7  C   UNL     1      -1.744 -14.213  19.229  1.00  0.00     0.028 C 
BRANCH   7   8
ATOM      8  C   UNL     1      -0.324 -13.661  19.374  1.00  0.00     0.156 C 
BRANCH   8   9
ATOM      9  O   UNL     1       0.600 -14.672  19.083  1.00  0.00    -0.396 OA
ATOM     10  H   UNL     1       0.230 -15.505  19.476  1.00  0.00     0.210 HD
ENDBRANCH   8   9
ENDBRANCH   7   8
ENDBRANCH   6   7
ENDBRANCH   1   6
TORSDOF 7
ENDMDL
MODEL 3
REMARK VINA RESULT:    -3.811      2.294      4.874
REMARK INTER + INTRA:          -5.474
REMARK INTER:                  -5.204
REMARK INTRA:                  -0.271
REMARK UNBOUND:                -0.216
REMARK SMILES CCCCCCCCO
REMARK SMILES IDX 5 1 4 2 3 3 2 4 1 5 6 6 7 7 8 8 9 9
REMARK H PARENT 9 10
REMARK Flexibility Score: inf
ROOT
ATOM      1  C   UNL     1      -1.833 -15.139  19.348  1.00  0.00     0.000 C 
ENDROOT
BRANCH   1   2
ATOM      2  C   UNL     1      -1.831 -16.358  20.284  1.00  0.00    -0.000 C 
BRANCH   2   3
ATOM      3  C   UNL     1      -3.168 -17.120  20.262  1.00  0.00    -0.000 C 
BRANCH   3   4
ATOM      4  C   UNL     1      -3.252 -18.193  21.357  1.00  0.00    -0.003 C 
ATOM      5  C   UNL     1      -4.355 -19.219  21.096  1.00  0.00     0.004 C 
ENDBRANCH   3   4
ENDBRANCH   2   3
ENDBRANCH   1   2
BRANCH   1   6
ATOM      6  C   UNL     1      -1.711 -13.809  20.113  1.00  0.00     0.002 C 
BRANCH   6   7
ATOM      7  C   UNL     1      -3.077 -13.162  20.392  1.00  0.00     0.028 C 
BRANCH   7   8
ATOM      8  C   UNL     1      -3.325 -12.924  21.884  1.00  0.00     0.156 C 
BRANCH   8   9
ATOM      9  O   UNL     1      -3.470 -14.155  22.533  1.00  0.00    -0.396 OA
ATOM     10  H   UNL     1      -3.898 -13.957  23.407  1.00  0.00     0.210 HD
ENDBRANCH   8   9
ENDBRANCH   7   8
ENDBRANCH   6   7
ENDBRANCH   1   6
TORSDOF 7
ENDMDL
MODEL 4
REMARK VINA RESULT:    -3.771      3.211      4.692
REMARK INTER + INTRA:          -5.420
REMARK INTER:                  -5.198
REMARK INTRA:                  -0.222
REMARK UNBOUND:                -0.216
REMARK SMILES CCCCCCCCO
REMARK SMILES IDX 5 1 4 2 3 3 2 4 1 5 6 6 7 7 8 8 9 9
REMARK H PARENT 9 10
REMARK Flexibility Score: inf
ROOT
ATOM      1  C   UNL     1      -1.983 -12.420  20.835  1.00  0.00     0.000 C 
ENDROOT
BRANCH   1   2
ATOM      2  C   UNL     1      -3.094 -11.358  20.852  1.00  0.00    -0.000 C 
BRANCH   2   3
ATOM      3  C   UNL     1      -4.321 -11.776  20.023  1.00  0.00    -0.000 C 
BRANCH   3   4
ATOM      4  C   UNL     1      -5.430 -10.713  20.036  1.00  0.00    -0.003 C 
ATOM      5  C   UNL     1      -5.192  -9.624  21.082  1.00  0.00     0.004 C 
ENDBRANCH   3   4
ENDBRANCH   2   3
ENDBRANCH   1   2
BRANCH   1   6
ATOM      6  C   UNL     1      -2.505 -13.813  20.444  1.00  0.00     0.002 C 
BRANCH   6   7
ATOM      7  C   UNL     1      -1.596 -14.519  19.425  1.00  0.00     0.028 C 
BRANCH   7   8
ATOM      8  C   UNL     1      -1.353 -15.991  19.769  1.00  0.00     0.156 C 
BRANCH   8   9
ATOM      9  O   UNL     1      -0.173 -16.424  19.153  1.00  0.00    -0.396 OA
ATOM     10  H   UNL     1       0.241 -17.074  19.777  1.00  0.00     0.210 HD
ENDBRANCH   8   9
ENDBRANCH   7   8
ENDBRANCH   6   7
ENDBRANCH   1   6
TORSDOF 7
ENDMDL
MODEL 5
REMARK VINA RESULT:    -3.661      1.825      3.010
REMARK INTER + INTRA:          -5.268
REMARK INTER:                  -5.125
REMARK INTRA:                  -0.142
REMARK UNBOUND:                -0.216
REMARK SMILES CCCCCCCCO
REMARK SMILES IDX 5 1 4 2 3 3 2 4 1 5 6 6 7 7 8 8 9 9
REMARK H PARENT 9 10
REMARK Flexibility Score: inf
ROOT
ATOM      1  C   UNL     1      -2.591 -14.306  19.939  1.00  0.00     0.000 C 
ENDROOT
BRANCH   1   2
ATOM      2  C   UNL     1      -2.385 -12.927  20.584  1.00  0.00    -0.000 C 
BRANCH   2   3
ATOM      3  C   UNL     1      -3.701 -12.308  21.086  1.00  0.00    -0.000 C 
BRANCH   3   4
ATOM      4  C   UNL     1      -4.463 -11.567  19.977  1.00  0.00    -0.003 C 
ATOM      5  C   UNL     1      -5.233 -10.354  20.498  1.00  0.00     0.004 C 
ENDBRANCH   3   4
ENDBRANCH   2   3
ENDBRANCH   1   2
BRANCH   1   6
ATOM      6  C   UNL     1      -2.075 -15.454  20.825  1.00  0.00     0.002 C 
BRANCH   6   7
ATOM      7  C   UNL     1      -2.218 -16.829  20.153  1.00  0.00     0.028 C 
BRANCH   7   8
ATOM      8  C   UNL     1      -3.139 -17.773  20.929  1.00  0.00     0.156 C 
BRANCH   8   9
ATOM      9  O   UNL     1      -3.496 -17.180  22.145  1.00  0.00    -0.396 OA
ATOM     10  H   UNL     1      -4.385 -16.763  21.999  1.00  0.00     0.210 HD
ENDBRANCH   8   9
ENDBRANCH   7   8
ENDBRANCH   6   7
ENDBRANCH   1   6
TORSDOF 7
ENDMDL
MODEL 6
REMARK VINA RESULT:    -3.601     10.770     12.206
REMARK INTER + INTRA:          -5.185
REMARK INTER:                  -4.918
REMARK INTRA:                  -0.266
REMARK UNBOUND:                -0.216
REMARK SMILES CCCCCCCCO
REMARK SMILES IDX 5 1 4 2 3 3 2 4 1 5 6 6 7 7 8 8 9 9
REMARK H PARENT 9 10
REMARK Flexibility Score: inf
ROOT
ATOM      1  C   UNL     1       7.997 -12.208  18.190  1.00  0.00     0.000 C 
ENDROOT
BRANCH   1   2
ATOM      2  C   UNL     1       9.125 -11.169  18.083  1.00  0.00    -0.000 C 
BRANCH   2   3
ATOM      3  C   UNL     1       8.616  -9.792  17.623  1.00  0.00    -0.000 C 
BRANCH   3   4
ATOM      4  C   UNL     1       9.125  -9.413  16.224  1.00  0.00    -0.003 C 
ATOM      5  C   UNL     1       7.993  -9.069  15.257  1.00  0.00     0.004 C 
ENDBRANCH   3   4
ENDBRANCH   2   3
ENDBRANCH   1   2
BRANCH   1   6
ATOM      6  C   UNL     1       6.705 -11.748  17.495  1.00  0.00     0.002 C 
BRANCH   6   7
ATOM      7  C   UNL     1       5.806 -12.925  17.082  1.00  0.00     0.028 C 
BRANCH   7   8
ATOM      8  C   UNL     1       4.342 -12.517  16.903  1.00  0.00     0.156 C 
BRANCH   8   9
ATOM      9  O   UNL     1       3.910 -12.885  15.624  1.00  0.00    -0.396 OA
ATOM     10  H   UNL     1       2.987 -12.531  15.531  1.00  0.00     0.210 HD
ENDBRANCH   8   9
ENDBRANCH   7   8
ENDBRANCH   6   7
ENDBRANCH   1   6
TORSDOF 7
ENDMDL
MODEL 7
REMARK VINA RESULT:    -3.535      3.103      4.511
REMARK INTER + INTRA:          -5.094
REMARK INTER:                  -4.681
REMARK INTRA:                  -0.413
REMARK UNBOUND:                -0.216
REMARK SMILES CCCCCCCCO
REMARK SMILES IDX 5 1 4 2 3 3 2 4 1 5 6 6 7 7 8 8 9 9
REMARK H PARENT 9 10
REMARK Flexibility Score: inf
ROOT
ATOM      1  C   UNL     1      -3.451 -12.974  20.123  1.00  0.00     0.000 C 
ENDROOT
BRANCH   1   2
ATOM      2  C   UNL     1      -3.239 -11.591  20.760  1.00  0.00    -0.000 C 
BRANCH   2   3
ATOM      3  C   UNL     1      -1.926 -11.504  21.558  1.00  0.00    -0.000 C 
BRANCH   3   4
ATOM      4  C   UNL     1      -0.866 -10.643  20.855  1.00  0.00    -0.003 C 
ATOM      5  C   UNL     1       0.310 -11.466  20.330  1.00  0.00     0.004 C 
ENDBRANCH   3   4
ENDBRANCH   2   3
ENDBRANCH   1   2
BRANCH   1   6
ATOM      6  C   UNL     1      -2.441 -14.017  20.631  1.00  0.00     0.002 C 
BRANCH   6   7
ATOM      7  C   UNL     1      -1.699 -14.727  19.487  1.00  0.00     0.028 C 
BRANCH   7   8
ATOM      8  C   UNL     1      -1.343 -16.177  19.821  1.00  0.00     0.156 C 
BRANCH   8   9
ATOM      9  O   UNL     1      -0.192 -16.547  19.116  1.00  0.00    -0.396 OA
ATOM     10  H   UNL     1       0.210 -17.301  19.621  1.00  0.00     0.210 HD
ENDBRANCH   8   9
ENDBRANCH   7   8
ENDBRANCH   6   7
ENDBRANCH   1   6
TORSDOF 7
ENDMDL
MODEL 8
REMARK VINA RESULT:    -3.520      7.780      9.641
REMARK INTER + INTRA:          -5.073
REMARK INTER:                  -4.954
REMARK INTRA:                  -0.119
REMARK UNBOUND:                -0.216
REMARK SMILES CCCCCCCCO
REMARK SMILES IDX 5 1 4 2 3 3 2 4 1 5 6 6 7 7 8 8 9 9
REMARK H PARENT 9 10
REMARK Flexibility Score: inf
ROOT
ATOM      1  C   UNL     1       4.712 -11.080  17.296  1.00  0.00     0.000 C 
ENDROOT
BRANCH   1   2
ATOM      2  C   UNL     1       5.960 -11.894  16.920  1.00  0.00    -0.000 C 
BRANCH   2   3
ATOM      3  C   UNL     1       5.615 -13.312  16.433  1.00  0.00    -0.000 C 
BRANCH   3   4
ATOM      4  C   UNL     1       5.316 -13.361  14.927  1.00  0.00    -0.003 C 
ATOM      5  C   UNL     1       5.635 -14.721  14.305  1.00  0.00     0.004 C 
ENDBRANCH   3   4
ENDBRANCH   2   3
ENDBRANCH   1   2
BRANCH   1   6
ATOM      6  C   UNL     1       3.467 -11.964  17.484  1.00  0.00     0.002 C 
BRANCH   6   7
ATOM      7  C   UNL     1       2.338 -11.242  18.238  1.00  0.00     0.028 C 
BRANCH   7   8
ATOM      8  C   UNL     1       1.706 -12.110  19.328  1.00  0.00     0.156 C 
BRANCH   8   9
ATOM      9  O   UNL     1       2.094 -13.442  19.147  1.00  0.00    -0.396 OA
ATOM     10  H   UNL     1       1.770 -13.704  18.246  1.00  0.00     0.210 HD
ENDBRANCH   8   9
ENDBRANCH   7   8
ENDBRANCH   6   7
ENDBRANCH   1   6
TORSDOF 7
ENDMDL
MODEL 9
REMARK VINA RESULT:    -3.454      3.987      6.466
REMARK INTER + INTRA:          -4.982
REMARK INTER:                  -4.898
REMARK INTRA:                  -0.085
REMARK UNBOUND:                -0.216
REMARK SMILES CCCCCCCCO
REMARK SMILES IDX 5 1 4 2 3 3 2 4 1 5 6 6 7 7 8 8 9 9
REMARK H PARENT 9 10
REMARK Flexibility Score: inf
ROOT
ATOM      1  C   UNL     1      -4.060 -12.264  20.120  1.00  0.00     0.000 C 
ENDROOT
BRANCH   1   2
ATOM      2  C   UNL     1      -2.930 -13.128  20.702  1.00  0.00    -0.000 C 
BRANCH   2   3
ATOM      3  C   UNL     1      -2.477 -14.235  19.734  1.00  0.00    -0.000 C 
BRANCH   3   4
ATOM      4  C   UNL     1      -1.756 -15.386  20.452  1.00  0.00    -0.003 C 
ATOM      5  C   UNL     1      -2.467 -16.727  20.280  1.00  0.00     0.004 C 
ENDBRANCH   3   4
ENDBRANCH   2   3
ENDBRANCH   1   2
BRANCH   1   6
ATOM      6  C   UNL     1      -4.479 -11.126  21.067  1.00  0.00     0.002 C 
BRANCH   6   7
ATOM      7  C   UNL     1      -5.708 -10.357  20.559  1.00  0.00     0.028 C 
BRANCH   7   8
ATOM      8  C   UNL     1      -6.460  -9.635  21.679  1.00  0.00     0.156 C 
BRANCH   8   9
ATOM      9  O   UNL     1      -7.513 -10.441  22.128  1.00  0.00    -0.396 OA
ATOM     10  H   UNL     1      -8.343 -10.041  21.760  1.00  0.00     0.210 HD
ENDBRANCH   8   9
ENDBRANCH   7   8
ENDBRANCH   6   7
ENDBRANCH   1   6
TORSDOF 7
ENDMDL
