MODEL 1
REMARK VINA RESULT:    -5.734      0.000      0.000
REMARK INTER + INTRA:          -6.364
REMARK INTER:                  -6.237
REMARK INTRA:                  -0.126
REMARK UNBOUND:                -0.126
REMARK SMILES Cc1ccc(C(C)C)cc1O
REMARK SMILES IDX 1 1 2 2 10 3 9 4 5 5 4 6 3 7 11 8 6 10 7 11 8 12
REMARK H PARENT 11 9
REMARK Flexibility Score: inf
ROOT
ATOM      1  C   UNL     1       6.808   0.258  36.009  1.00  0.00     0.048 C 
ATOM      2  C   UNL     1       8.252   0.513  35.682  1.00  0.00    -0.009 A 
ATOM      3  C   UNL     1       8.880  -0.198  34.644  1.00  0.00     0.118 A 
ATOM      4  C   UNL     1      10.228   0.047  34.345  1.00  0.00     0.050 A 
ATOM      5  C   UNL     1      10.965   0.997  35.072  1.00  0.00    -0.042 A 
ATOM      6  C   UNL     1      10.327   1.703  36.108  1.00  0.00     0.004 A 
ATOM      7  C   UNL     1       8.985   1.464  36.410  1.00  0.00     0.007 A 
ENDROOT
BRANCH   3   8
ATOM      8  O   UNL     1       8.163  -1.145  33.913  1.00  0.00    -0.508 OA
ATOM      9  H   UNL     1       8.168  -2.126  34.165  1.00  0.00     0.293 HD
ENDBRANCH   3   8
BRANCH   5  10
ATOM     10  C   UNL     1      12.423   1.248  34.735  1.00  0.00     0.013 C 
ATOM     11  C   UNL     1      13.137   1.979  35.878  1.00  0.00     0.012 C 
ATOM     12  C   UNL     1      13.142  -0.059  34.381  1.00  0.00     0.012 C 
ENDBRANCH   5  10
TORSDOF 2
ENDMDL
MODEL 2
REMARK VINA RESULT:    -5.730      1.607      2.161
REMARK INTER + INTRA:          -6.359
REMARK INTER:                  -6.241
REMARK INTRA:                  -0.118
REMARK UNBOUND:                -0.126
REMARK SMILES Cc1ccc(C(C)C)cc1O
REMARK SMILES IDX 1 1 2 2 10 3 9 4 5 5 4 6 3 7 11 8 6 10 7 11 8 12
REMARK H PARENT 11 9
REMARK Flexibility Score: inf
ROOT
ATOM      1  C   UNL     1       6.892   0.705  36.374  1.00  0.00     0.048 C 
ATOM      2  C   UNL     1       8.318   0.836  35.919  1.00  0.00    -0.009 A 
ATOM      3  C   UNL     1       9.237   1.586  36.676  1.00  0.00     0.118 A 
ATOM      4  C   UNL     1      10.566   1.703  36.246  1.00  0.00     0.050 A 
ATOM      5  C   UNL     1      10.996   1.080  35.062  1.00  0.00    -0.042 A 
ATOM      6  C   UNL     1      10.070   0.332  34.313  1.00  0.00     0.004 A 
ATOM      7  C   UNL     1       8.745   0.212  34.737  1.00  0.00     0.007 A 
ENDROOT
BRANCH   3   8
ATOM      8  O   UNL     1       8.826   2.212  37.853  1.00  0.00    -0.508 OA
ATOM      9  H   UNL     1       7.886   2.099  38.215  1.00  0.00     0.293 HD
ENDBRANCH   3   8
BRANCH   5  10
ATOM     10  C   UNL     1      12.439   1.218  34.612  1.00  0.00     0.013 C 
ATOM     11  C   UNL     1      13.236   2.108  35.573  1.00  0.00     0.012 C 
ATOM     12  C   UNL     1      13.103  -0.155  34.452  1.00  0.00     0.012 C 
ENDBRANCH   5  10
TORSDOF 2
ENDMDL
MODEL 3
REMARK VINA RESULT:    -5.631      0.579      1.158
REMARK INTER + INTRA:          -6.252
REMARK INTER:                  -6.139
REMARK INTRA:                  -0.113
REMARK UNBOUND:                -0.126
REMARK SMILES Cc1ccc(C(C)C)cc1O
REMARK SMILES IDX 1 1 2 2 10 3 9 4 5 5 4 6 3 7 11 8 6 10 7 11 8 12
REMARK H PARENT 11 9
REMARK Flexibility Score: inf
ROOT
ATOM      1  C   UNL     1       6.668   0.181  35.921  1.00  0.00     0.048 C 
ATOM      2  C   UNL     1       8.126   0.508  35.768  1.00  0.00    -0.009 A 
ATOM      3  C   UNL     1       8.900  -0.147  34.793  1.00  0.00     0.118 A 
ATOM      4  C   UNL     1      10.261   0.164  34.656  1.00  0.00     0.050 A 
ATOM      5  C   UNL     1      10.866   1.125  35.483  1.00  0.00    -0.042 A 
ATOM      6  C   UNL     1      10.083   1.774  36.455  1.00  0.00     0.004 A 
ATOM      7  C   UNL     1       8.728   1.469  36.596  1.00  0.00     0.007 A 
ENDROOT
BRANCH   3   8
ATOM      8  O   UNL     1       8.315  -1.104  33.964  1.00  0.00    -0.508 OA
ATOM      9  H   UNL     1       7.382  -1.458  34.137  1.00  0.00     0.293 HD
ENDBRANCH   3   8
BRANCH   5  10
ATOM     10  C   UNL     1      12.339   1.448  35.321  1.00  0.00     0.013 C 
ATOM     11  C   UNL     1      13.037   0.416  34.426  1.00  0.00     0.012 C 
ATOM     12  C   UNL     1      12.538   2.869  34.781  1.00  0.00     0.012 C 
ENDBRANCH   5  10
TORSDOF 2
ENDMDL
MODEL 4
REMARK VINA RESULT:    -5.595      1.706      2.436
REMARK INTER + INTRA:          -6.212
REMARK INTER:                  -6.086
REMARK INTRA:                  -0.126
REMARK UNBOUND:                -0.126
REMARK SMILES Cc1ccc(C(C)C)cc1O
REMARK SMILES IDX 1 1 2 2 10 3 9 4 5 5 4 6 3 7 11 8 6 10 7 11 8 12
REMARK H PARENT 11 9
REMARK Flexibility Score: inf
ROOT
ATOM      1  C   UNL     1       7.145   0.754  36.204  1.00  0.00     0.048 C 
ATOM      2  C   UNL     1       8.608   0.860  35.881  1.00  0.00    -0.009 A 
ATOM      3  C   UNL     1       9.465   1.606  36.710  1.00  0.00     0.118 A 
ATOM      4  C   UNL     1      10.830   1.700  36.402  1.00  0.00     0.050 A 
ATOM      5  C   UNL     1      11.357   1.058  35.269  1.00  0.00    -0.042 A 
ATOM      6  C   UNL     1      10.492   0.314  34.446  1.00  0.00     0.004 A 
ATOM      7  C   UNL     1       9.132   0.217  34.748  1.00  0.00     0.007 A 
ENDROOT
BRANCH   3   8
ATOM      8  O   UNL     1       8.958   2.250  37.839  1.00  0.00    -0.508 OA
ATOM      9  H   UNL     1       8.281   3.000  37.764  1.00  0.00     0.293 HD
ENDBRANCH   3   8
BRANCH   5  10
ATOM     10  C   UNL     1      12.836   1.171  34.951  1.00  0.00     0.013 C 
ATOM     11  C   UNL     1      13.403  -0.171  34.472  1.00  0.00     0.012 C 
ATOM     12  C   UNL     1      13.097   2.278  33.923  1.00  0.00     0.012 C 
ENDBRANCH   5  10
TORSDOF 2
ENDMDL
MODEL 5
REMARK VINA RESULT:    -5.526      2.868      4.554
REMARK INTER + INTRA:          -6.137
REMARK INTER:                  -6.011
REMARK INTRA:                  -0.125
REMARK UNBOUND:                -0.126
REMARK SMILES Cc1ccc(C(C)C)cc1O
REMARK SMILES IDX 1 1 2 2 10 3 9 4 5 5 4 6 3 7 11 8 6 10 7 11 8 12
REMARK H PARENT 11 9
REMARK Flexibility Score: inf
ROOT
ATOM      1  C   UNL     1       3.756  -2.533  37.310  1.00  0.00     0.048 C 
ATOM      2  C   UNL     1       4.901  -1.732  36.757  1.00  0.00    -0.009 A 
ATOM      3  C   UNL     1       4.864  -0.326  36.793  1.00  0.00     0.118 A 
ATOM      4  C   UNL     1       5.936   0.415  36.276  1.00  0.00     0.050 A 
ATOM      5  C   UNL     1       7.053  -0.230  35.719  1.00  0.00    -0.042 A 
ATOM      6  C   UNL     1       7.080  -1.636  35.688  1.00  0.00     0.004 A 
ATOM      7  C   UNL     1       6.016  -2.379  36.202  1.00  0.00     0.007 A 
ENDROOT
BRANCH   3   8
ATOM      8  O   UNL     1       3.762   0.330  37.342  1.00  0.00    -0.508 OA
ATOM      9  H   UNL     1       2.821  -0.030  37.235  1.00  0.00     0.293 HD
ENDBRANCH   3   8
BRANCH   5  10
ATOM     10  C   UNL     1       8.204   0.588  35.163  1.00  0.00     0.013 C 
ATOM     11  C   UNL     1       9.137   1.062  36.284  1.00  0.00     0.012 C 
ATOM     12  C   UNL     1       8.978  -0.198  34.098  1.00  0.00     0.012 C 
ENDBRANCH   5  10
TORSDOF 2
ENDMDL
MODEL 6
REMARK VINA RESULT:    -5.409      1.320      4.450
REMARK INTER + INTRA:          -6.009
REMARK INTER:                  -5.884
REMARK INTRA:                  -0.126
REMARK UNBOUND:                -0.126
REMARK SMILES Cc1ccc(C(C)C)cc1O
REMARK SMILES IDX 1 1 2 2 10 3 9 4 5 5 4 6 3 7 11 8 6 10 7 11 8 12
REMARK H PARENT 11 9
REMARK Flexibility Score: inf
ROOT
ATOM      1  C   UNL     1      12.041   1.701  35.265  1.00  0.00     0.048 C 
ATOM      2  C   UNL     1      10.654   1.131  35.349  1.00  0.00    -0.009 A 
ATOM      3  C   UNL     1      10.245   0.128  34.452  1.00  0.00     0.118 A 
ATOM      4  C   UNL     1       8.948  -0.400  34.537  1.00  0.00     0.050 A 
ATOM      5  C   UNL     1       8.046   0.062  35.510  1.00  0.00    -0.042 A 
ATOM      6  C   UNL     1       8.465   1.066  36.402  1.00  0.00     0.004 A 
ATOM      7  C   UNL     1       9.755   1.594  36.322  1.00  0.00     0.007 A 
ENDROOT
BRANCH   3   8
ATOM      8  O   UNL     1      11.128  -0.342  33.480  1.00  0.00    -0.508 OA
ATOM      9  H   UNL     1      11.149   0.051  32.547  1.00  0.00     0.293 HD
ENDBRANCH   3   8
BRANCH   5  10
ATOM     10  C   UNL     1       6.647  -0.520  35.587  1.00  0.00     0.013 C 
ATOM     11  C   UNL     1       6.677  -1.966  36.095  1.00  0.00     0.012 C 
ATOM     12  C   UNL     1       5.732   0.351  36.455  1.00  0.00     0.012 C 
ENDBRANCH   5  10
TORSDOF 2
ENDMDL
MODEL 7
REMARK VINA RESULT:    -5.332      4.693      8.145
REMARK INTER + INTRA:          -5.926
REMARK INTER:                  -5.801
REMARK INTRA:                  -0.125
REMARK UNBOUND:                -0.126
REMARK SMILES Cc1ccc(C(C)C)cc1O
REMARK SMILES IDX 1 1 2 2 10 3 9 4 5 5 4 6 3 7 11 8 6 10 7 11 8 12
REMARK H PARENT 11 9
REMARK Flexibility Score: inf
ROOT
ATOM      1  C   UNL     1       6.857  -1.518  35.587  1.00  0.00     0.048 C 
ATOM      2  C   UNL     1       5.590  -1.418  36.387  1.00  0.00    -0.009 A 
ATOM      3  C   UNL     1       5.055  -0.159  36.714  1.00  0.00     0.118 A 
ATOM      4  C   UNL     1       3.872  -0.074  37.461  1.00  0.00     0.050 A 
ATOM      5  C   UNL     1       3.209  -1.236  37.892  1.00  0.00    -0.042 A 
ATOM      6  C   UNL     1       3.752  -2.491  37.560  1.00  0.00     0.004 A 
ATOM      7  C   UNL     1       4.930  -2.581  36.816  1.00  0.00     0.007 A 
ENDROOT
BRANCH   3   8
ATOM      8  O   UNL     1       5.701   1.004  36.294  1.00  0.00    -0.508 OA
ATOM      9  H   UNL     1       6.573   1.308  36.710  1.00  0.00     0.293 HD
ENDBRANCH   3   8
BRANCH   5  10
ATOM     10  C   UNL     1       1.929  -1.125  38.700  1.00  0.00     0.013 C 
ATOM     11  C   UNL     1       0.745  -1.743  37.947  1.00  0.00     0.012 C 
ATOM     12  C   UNL     1       2.093  -1.760  40.085  1.00  0.00     0.012 C 
ENDBRANCH   5  10
TORSDOF 2
ENDMDL
MODEL 8
REMARK VINA RESULT:    -5.284      1.737      4.285
REMARK INTER + INTRA:          -5.874
REMARK INTER:                  -5.751
REMARK INTRA:                  -0.123
REMARK UNBOUND:                -0.126
REMARK SMILES Cc1ccc(C(C)C)cc1O
REMARK SMILES IDX 1 1 2 2 10 3 9 4 5 5 4 6 3 7 11 8 6 10 7 11 8 12
REMARK H PARENT 11 9
REMARK Flexibility Score: inf
ROOT
ATOM      1  C   UNL     1      13.486   2.127  35.836  1.00  0.00     0.048 C 
ATOM      2  C   UNL     1      12.104   1.651  35.489  1.00  0.00    -0.009 A 
ATOM      3  C   UNL     1      11.929   0.555  34.625  1.00  0.00     0.118 A 
ATOM      4  C   UNL     1      10.636   0.116  34.307  1.00  0.00     0.050 A 
ATOM      5  C   UNL     1       9.506   0.759  34.840  1.00  0.00    -0.042 A 
ATOM      6  C   UNL     1       9.693   1.855  35.703  1.00  0.00     0.004 A 
ATOM      7  C   UNL     1      10.978   2.296  36.023  1.00  0.00     0.007 A 
ENDROOT
BRANCH   3   8
ATOM      8  O   UNL     1      13.039  -0.095  34.087  1.00  0.00    -0.508 OA
ATOM      9  H   UNL     1      13.849  -0.322  34.653  1.00  0.00     0.293 HD
ENDBRANCH   3   8
BRANCH   5  10
ATOM     10  C   UNL     1       8.115   0.271  34.483  1.00  0.00     0.013 C 
ATOM     11  C   UNL     1       8.169  -1.095  33.789  1.00  0.00     0.012 C 
ATOM     12  C   UNL     1       7.210   0.226  35.721  1.00  0.00     0.012 C 
ENDBRANCH   5  10
TORSDOF 2
ENDMDL
MODEL 9
REMARK VINA RESULT:    -5.254      1.757      2.464
REMARK INTER + INTRA:          -5.841
REMARK INTER:                  -5.715
REMARK INTRA:                  -0.126
REMARK UNBOUND:                -0.126
REMARK SMILES Cc1ccc(C(C)C)cc1O
REMARK SMILES IDX 1 1 2 2 10 3 9 4 5 5 4 6 3 7 11 8 6 10 7 11 8 12
REMARK H PARENT 11 9
REMARK Flexibility Score: inf
ROOT
ATOM      1  C   UNL     1       8.277  -0.241  33.778  1.00  0.00     0.048 C 
ATOM      2  C   UNL     1       9.488   0.592  34.087  1.00  0.00    -0.009 A 
ATOM      3  C   UNL     1      10.778   0.059  33.915  1.00  0.00     0.118 A 
ATOM      4  C   UNL     1      11.904   0.843  34.205  1.00  0.00     0.050 A 
ATOM      5  C   UNL     1      11.761   2.161  34.670  1.00  0.00    -0.042 A 
ATOM      6  C   UNL     1      10.466   2.685  34.839  1.00  0.00     0.004 A 
ATOM      7  C   UNL     1       9.342   1.909  34.551  1.00  0.00     0.007 A 
ENDROOT
BRANCH   3   8
ATOM      8  O   UNL     1      10.938  -1.248  33.455  1.00  0.00    -0.508 OA
ATOM      9  H   UNL     1      10.331  -1.999  33.764  1.00  0.00     0.293 HD
ENDBRANCH   3   8
BRANCH   5  10
ATOM     10  C   UNL     1      12.990   2.995  34.981  1.00  0.00     0.013 C 
ATOM     11  C   UNL     1      13.673   3.473  33.693  1.00  0.00     0.012 C 
ATOM     12  C   UNL     1      12.641   4.178  35.891  1.00  0.00     0.012 C 
ENDBRANCH   5  10
TORSDOF 2
ENDMDL
