MODEL 1
REMARK VINA RESULT:    -4.292      0.000      0.000
REMARK INTER + INTRA:          -6.843
REMARK INTER:                  -5.797
REMARK INTRA:                  -1.045
REMARK UNBOUND:                -1.045
REMARK SMILES CC(=O)CCC=C(C)CCC=C(C)C
REMARK SMILES IDX 7 1 6 2 8 3 9 4 10 5 11 6 13 7 12 8 14 9 5 10 4 11 2 12 3 13
REMARK SMILES IDX 1 14
REMARK H PARENT
REMARK Flexibility Score: inf
ROOT
ATOM      1  C   UNL     1     130.672 139.447 115.424  1.00  0.00    -0.077 C 
ATOM      2  C   UNL     1     131.263 140.591 115.008  1.00  0.00    -0.028 C 
ATOM      3  C   UNL     1     129.852 139.387 116.691  1.00  0.00     0.039 C 
ENDROOT
BRANCH   1   4
ATOM      4  C   UNL     1     130.856 138.186 114.607  1.00  0.00     0.034 C 
BRANCH   4   5
ATOM      5  C   UNL     1     129.815 137.130 114.993  1.00  0.00     0.032 C 
BRANCH   5   6
ATOM      6  C   UNL     1     128.963 136.760 113.805  1.00  0.00    -0.028 C 
ATOM      7  C   UNL     1     127.183 138.433 114.360  1.00  0.00     0.039 C 
ATOM      8  C   UNL     1     127.789 137.355 113.493  1.00  0.00    -0.080 C 
ATOM      9  C   UNL     1     127.064 136.907 112.250  1.00  0.00     0.039 C 
ENDBRANCH   5   6
ENDBRANCH   4   5
ENDBRANCH   1   4
BRANCH   2  10
ATOM     10  C   UNL     1     131.132 141.921 115.707  1.00  0.00     0.035 C 
BRANCH  10  11
ATOM     11  C   UNL     1     130.344 142.912 114.847  1.00  0.00     0.079 C 
BRANCH  11  12
ATOM     12  C   UNL     1     128.912 142.994 115.305  1.00  0.00     0.130 C 
ATOM     13  O   UNL     1     128.606 143.784 116.184  1.00  0.00    -0.300 OA
ATOM     14  C   UNL     1     127.850 142.115 114.711  1.00  0.00     0.087 C 
ENDBRANCH  11  12
ENDBRANCH  10  11
ENDBRANCH   2  10
TORSDOF 6
ENDMDL
MODEL 2
REMARK VINA RESULT:    -4.218      2.135      4.445
REMARK INTER + INTRA:          -6.743
REMARK INTER:                  -5.710
REMARK INTRA:                  -1.033
REMARK UNBOUND:                -1.045
REMARK SMILES CC(=O)CCC=C(C)CCC=C(C)C
REMARK SMILES IDX 7 1 6 2 8 3 9 4 10 5 11 6 13 7 12 8 14 9 5 10 4 11 2 12 3 13
REMARK SMILES IDX 1 14
REMARK H PARENT
REMARK Flexibility Score: inf
ROOT
ATOM      1  C   UNL     1     131.198 141.875 115.569  1.00  0.00    -0.077 C 
ATOM      2  C   UNL     1     131.094 140.676 114.949  1.00  0.00    -0.028 C 
ATOM      3  C   UNL     1     132.076 142.073 116.781  1.00  0.00     0.039 C 
ENDROOT
BRANCH   1   4
ATOM      4  C   UNL     1     130.396 143.046 115.042  1.00  0.00     0.034 C 
BRANCH   4   5
ATOM      5  C   UNL     1     128.948 142.981 115.539  1.00  0.00     0.032 C 
BRANCH   5   6
ATOM      6  C   UNL     1     128.038 142.437 114.467  1.00  0.00    -0.028 C 
ATOM      7  C   UNL     1     127.564 140.321 115.721  1.00  0.00     0.039 C 
ATOM      8  C   UNL     1     127.388 141.253 114.545  1.00  0.00    -0.080 C 
ATOM      9  C   UNL     1     126.479 140.857 113.411  1.00  0.00     0.039 C 
ENDBRANCH   5   6
ENDBRANCH   4   5
ENDBRANCH   1   4
BRANCH   2  10
ATOM     10  C   UNL     1     131.861 139.441 115.347  1.00  0.00     0.035 C 
BRANCH  10  11
ATOM     11  C   UNL     1     131.443 138.241 114.493  1.00  0.00     0.079 C 
BRANCH  11  12
ATOM     12  C   UNL     1     130.130 137.678 114.970  1.00  0.00     0.130 C 
ATOM     13  O   UNL     1     129.952 137.502 116.166  1.00  0.00    -0.300 OA
ATOM     14  C   UNL     1     129.037 137.318 114.008  1.00  0.00     0.087 C 
ENDBRANCH  11  12
ENDBRANCH  10  11
ENDBRANCH   2  10
TORSDOF 6
ENDMDL
MODEL 3
REMARK VINA RESULT:    -4.167      3.355      4.264
REMARK INTER + INTRA:          -6.674
REMARK INTER:                  -6.138
REMARK INTRA:                  -0.536
REMARK UNBOUND:                -1.045
REMARK SMILES CC(=O)CCC=C(C)CCC=C(C)C
REMARK SMILES IDX 7 1 6 2 8 3 9 4 10 5 11 6 13 7 12 8 14 9 5 10 4 11 2 12 3 13
REMARK SMILES IDX 1 14
REMARK H PARENT
REMARK Flexibility Score: inf
ROOT
ATOM      1  C   UNL     1     131.794 139.353 115.148  1.00  0.00    -0.077 C 
ATOM      2  C   UNL     1     132.892 138.977 115.843  1.00  0.00    -0.028 C 
ATOM      3  C   UNL     1     131.227 140.749 115.245  1.00  0.00     0.039 C 
ENDROOT
BRANCH   1   4
ATOM      4  C   UNL     1     131.103 138.339 114.262  1.00  0.00     0.034 C 
BRANCH   4   5
ATOM      5  C   UNL     1     130.068 137.535 115.058  1.00  0.00     0.032 C 
BRANCH   5   6
ATOM      6  C   UNL     1     129.105 136.837 114.132  1.00  0.00    -0.028 C 
ATOM      7  C   UNL     1     127.426 138.693 114.220  1.00  0.00     0.039 C 
ATOM      8  C   UNL     1     127.924 137.356 113.725  1.00  0.00    -0.080 C 
ATOM      9  C   UNL     1     127.081 136.558 112.764  1.00  0.00     0.039 C 
ENDBRANCH   5   6
ENDBRANCH   4   5
ENDBRANCH   1   4
BRANCH   2  10
ATOM     10  C   UNL     1     133.694 139.894 116.732  1.00  0.00     0.035 C 
BRANCH  10  11
ATOM     11  C   UNL     1     135.176 139.867 116.345  1.00  0.00     0.079 C 
BRANCH  11  12
ATOM     12  C   UNL     1     135.878 141.104 116.840  1.00  0.00     0.130 C 
ATOM     13  O   UNL     1     137.099 141.144 116.835  1.00  0.00    -0.300 OA
ATOM     14  C   UNL     1     135.110 142.287 117.351  1.00  0.00     0.087 C 
ENDBRANCH  11  12
ENDBRANCH  10  11
ENDBRANCH   2  10
TORSDOF 6
ENDMDL
MODEL 4
REMARK VINA RESULT:    -4.167      1.309      1.955
REMARK INTER + INTRA:          -6.673
REMARK INTER:                  -5.503
REMARK INTRA:                  -1.170
REMARK UNBOUND:                -1.045
REMARK SMILES CC(=O)CCC=C(C)CCC=C(C)C
REMARK SMILES IDX 7 1 6 2 8 3 9 4 10 5 11 6 13 7 12 8 14 9 5 10 4 11 2 12 3 13
REMARK SMILES IDX 1 14
REMARK H PARENT
REMARK Flexibility Score: inf
ROOT
ATOM      1  C   UNL     1     131.029 141.014 115.691  1.00  0.00    -0.077 C 
ATOM      2  C   UNL     1     130.681 142.080 114.933  1.00  0.00    -0.028 C 
ATOM      3  C   UNL     1     130.565 140.866 117.120  1.00  0.00     0.039 C 
ENDROOT
BRANCH   1   4
ATOM      4  C   UNL     1     131.925 139.950 115.094  1.00  0.00     0.034 C 
BRANCH   4   5
ATOM      5  C   UNL     1     131.475 138.551 115.533  1.00  0.00     0.032 C 
BRANCH   5   6
ATOM      6  C   UNL     1     130.642 137.897 114.461  1.00  0.00    -0.028 C 
ATOM      7  C   UNL     1     128.720 137.450 116.004  1.00  0.00     0.039 C 
ATOM      8  C   UNL     1     129.391 137.419 114.651  1.00  0.00    -0.080 C 
ATOM      9  C   UNL     1     128.662 136.825 113.473  1.00  0.00     0.039 C 
ENDBRANCH   5   6
ENDBRANCH   4   5
ENDBRANCH   1   4
BRANCH   2  10
ATOM     10  C   UNL     1     129.770 143.191 115.390  1.00  0.00     0.035 C 
BRANCH  10  11
ATOM     11  C   UNL     1     128.417 143.113 114.676  1.00  0.00     0.079 C 
BRANCH  11  12
ATOM     12  C   UNL     1     127.579 141.998 115.243  1.00  0.00     0.130 C 
ATOM     13  O   UNL     1     127.212 142.053 116.406  1.00  0.00    -0.300 OA
ATOM     14  C   UNL     1     127.193 140.810 114.411  1.00  0.00     0.087 C 
ENDBRANCH  11  12
ENDBRANCH  10  11
ENDBRANCH   2  10
TORSDOF 6
ENDMDL
MODEL 5
REMARK VINA RESULT:    -4.104      2.297      4.781
REMARK INTER + INTRA:          -6.589
REMARK INTER:                  -5.427
REMARK INTRA:                  -1.162
REMARK UNBOUND:                -1.045
REMARK SMILES CC(=O)CCC=C(C)CCC=C(C)C
REMARK SMILES IDX 7 1 6 2 8 3 9 4 10 5 11 6 13 7 12 8 14 9 5 10 4 11 2 12 3 13
REMARK SMILES IDX 1 14
REMARK H PARENT
REMARK Flexibility Score: inf
ROOT
ATOM      1  C   UNL     1     130.896 138.481 115.376  1.00  0.00    -0.077 C 
ATOM      2  C   UNL     1     130.258 137.818 114.385  1.00  0.00    -0.028 C 
ATOM      3  C   UNL     1     130.674 138.148 116.832  1.00  0.00     0.039 C 
ENDROOT
BRANCH   1   4
ATOM      4  C   UNL     1     131.847 139.603 115.016  1.00  0.00     0.034 C 
BRANCH   4   5
ATOM      5  C   UNL     1     131.565 140.849 115.862  1.00  0.00     0.032 C 
BRANCH   5   6
ATOM      6  C   UNL     1     130.674 141.811 115.118  1.00  0.00    -0.028 C 
ATOM      7  C   UNL     1     128.642 141.213 116.454  1.00  0.00     0.039 C 
ATOM      8  C   UNL     1     129.364 142.004 115.389  1.00  0.00    -0.080 C 
ATOM      9  C   UNL     1     128.607 143.030 114.586  1.00  0.00     0.039 C 
ENDBRANCH   5   6
ENDBRANCH   4   5
ENDBRANCH   1   4
BRANCH   2  10
ATOM     10  C   UNL     1     129.315 136.662 114.602  1.00  0.00     0.035 C 
BRANCH  10  11
ATOM     11  C   UNL     1     127.896 137.163 114.885  1.00  0.00     0.079 C 
BRANCH  11  12
ATOM     12  C   UNL     1     127.329 137.867 113.680  1.00  0.00     0.130 C 
ATOM     13  O   UNL     1     127.244 137.268 112.619  1.00  0.00    -0.300 OA
ATOM     14  C   UNL     1     126.876 139.295 113.750  1.00  0.00     0.087 C 
ENDBRANCH  11  12
ENDBRANCH  10  11
ENDBRANCH   2  10
TORSDOF 6
ENDMDL
MODEL 6
REMARK VINA RESULT:    -4.041      2.052      3.717
REMARK INTER + INTRA:          -6.504
REMARK INTER:                  -5.697
REMARK INTRA:                  -0.807
REMARK UNBOUND:                -1.045
REMARK SMILES CC(=O)CCC=C(C)CCC=C(C)C
REMARK SMILES IDX 7 1 6 2 8 3 9 4 10 5 11 6 13 7 12 8 14 9 5 10 4 11 2 12 3 13
REMARK SMILES IDX 1 14
REMARK H PARENT
REMARK Flexibility Score: inf
ROOT
ATOM      1  C   UNL     1     128.172 141.650 114.830  1.00  0.00    -0.077 C 
ATOM      2  C   UNL     1     128.891 140.707 115.481  1.00  0.00    -0.028 C 
ATOM      3  C   UNL     1     128.640 143.082 114.728  1.00  0.00     0.039 C 
ENDROOT
BRANCH   1   4
ATOM      4  C   UNL     1     126.851 141.262 114.202  1.00  0.00     0.034 C 
BRANCH   4   5
ATOM      5  C   UNL     1     126.513 139.798 114.504  1.00  0.00     0.032 C 
BRANCH   5   6
ATOM      6  C   UNL     1     126.422 138.996 113.230  1.00  0.00    -0.028 C 
ATOM      7  C   UNL     1     127.692 137.055 114.173  1.00  0.00     0.039 C 
ATOM      8  C   UNL     1     126.925 137.751 113.074  1.00  0.00    -0.080 C 
ATOM      9  C   UNL     1     126.724 137.055 111.753  1.00  0.00     0.039 C 
ENDBRANCH   5   6
ENDBRANCH   4   5
ENDBRANCH   1   4
BRANCH   2  10
ATOM     10  C   UNL     1     130.236 140.949 116.119  1.00  0.00     0.035 C 
BRANCH  10  11
ATOM     11  C   UNL     1     131.366 140.715 115.113  1.00  0.00     0.079 C 
BRANCH  11  12
ATOM     12  C   UNL     1     131.891 139.307 115.219  1.00  0.00     0.130 C 
ATOM     13  O   UNL     1     132.845 139.075 115.945  1.00  0.00    -0.300 OA
ATOM     14  C   UNL     1     131.273 138.182 114.442  1.00  0.00     0.087 C 
ENDBRANCH  11  12
ENDBRANCH  10  11
ENDBRANCH   2  10
TORSDOF 6
ENDMDL
MODEL 7
REMARK VINA RESULT:    -4.018      1.523      3.861
REMARK INTER + INTRA:          -6.472
REMARK INTER:                  -5.225
REMARK INTRA:                  -1.247
REMARK UNBOUND:                -1.045
REMARK SMILES CC(=O)CCC=C(C)CCC=C(C)C
REMARK SMILES IDX 7 1 6 2 8 3 9 4 10 5 11 6 13 7 12 8 14 9 5 10 4 11 2 12 3 13
REMARK SMILES IDX 1 14
REMARK H PARENT
REMARK Flexibility Score: inf
ROOT
ATOM      1  C   UNL     1     127.568 137.548 114.295  1.00  0.00    -0.077 C 
ATOM      2  C   UNL     1     127.058 138.468 113.444  1.00  0.00    -0.028 C 
ATOM      3  C   UNL     1     127.164 137.497 115.749  1.00  0.00     0.039 C 
ENDROOT
BRANCH   1   4
ATOM      4  C   UNL     1     128.588 136.556 113.780  1.00  0.00     0.034 C 
BRANCH   4   5
ATOM      5  C   UNL     1     129.863 136.594 114.630  1.00  0.00     0.032 C 
BRANCH   5   6
ATOM      6  C   UNL     1     130.613 137.884 114.412  1.00  0.00    -0.028 C 
ATOM      7  C   UNL     1     130.596 138.490 116.842  1.00  0.00     0.039 C 
ATOM      8  C   UNL     1     130.972 138.735 115.400  1.00  0.00    -0.080 C 
ATOM      9  C   UNL     1     131.755 139.970 115.036  1.00  0.00     0.039 C 
ENDBRANCH   5   6
ENDBRANCH   4   5
ENDBRANCH   1   4
BRANCH   2  10
ATOM     10  C   UNL     1     126.013 139.488 113.816  1.00  0.00     0.035 C 
BRANCH  10  11
ATOM     11  C   UNL     1     126.483 140.902 113.463  1.00  0.00     0.079 C 
BRANCH  11  12
ATOM     12  C   UNL     1     126.963 141.627 114.693  1.00  0.00     0.130 C 
ATOM     13  O   UNL     1     126.237 142.453 115.225  1.00  0.00    -0.300 OA
ATOM     14  C   UNL     1     128.321 141.365 115.275  1.00  0.00     0.087 C 
ENDBRANCH  11  12
ENDBRANCH  10  11
ENDBRANCH   2  10
TORSDOF 6
ENDMDL
MODEL 8
REMARK VINA RESULT:    -4.002     12.602     14.269
REMARK INTER + INTRA:          -6.451
REMARK INTER:                  -5.057
REMARK INTRA:                  -1.394
REMARK UNBOUND:                -1.045
REMARK SMILES CC(=O)CCC=C(C)CCC=C(C)C
REMARK SMILES IDX 7 1 6 2 8 3 9 4 10 5 11 6 13 7 12 8 14 9 5 10 4 11 2 12 3 13
REMARK SMILES IDX 1 14
REMARK H PARENT
REMARK Flexibility Score: inf
ROOT
ATOM      1  C   UNL     1     138.938 134.466 122.905  1.00  0.00    -0.077 C 
ATOM      2  C   UNL     1     138.380 134.596 121.679  1.00  0.00    -0.028 C 
ATOM      3  C   UNL     1     138.764 135.515 123.977  1.00  0.00     0.039 C 
ENDROOT
BRANCH   1   4
ATOM      4  C   UNL     1     139.776 133.241 123.204  1.00  0.00     0.034 C 
BRANCH   4   5
ATOM      5  C   UNL     1     141.193 133.642 123.629  1.00  0.00     0.032 C 
BRANCH   5   6
ATOM      6  C   UNL     1     141.954 134.230 122.467  1.00  0.00    -0.028 C 
ATOM      7  C   UNL     1     142.355 136.413 123.628  1.00  0.00     0.039 C 
ATOM      8  C   UNL     1     142.504 135.465 122.461  1.00  0.00    -0.080 C 
ATOM      9  C   UNL     1     143.271 135.904 121.241  1.00  0.00     0.039 C 
ENDBRANCH   5   6
ENDBRANCH   4   5
ENDBRANCH   1   4
BRANCH   2  10
ATOM     10  C   UNL     1     137.496 135.744 121.262  1.00  0.00     0.035 C 
BRANCH  10  11
ATOM     11  C   UNL     1     138.029 136.406 119.988  1.00  0.00     0.079 C 
BRANCH  11  12
ATOM     12  C   UNL     1     139.435 136.905 120.194  1.00  0.00     0.130 C 
ATOM     13  O   UNL     1     140.333 136.482 119.482  1.00  0.00    -0.300 OA
ATOM     14  C   UNL     1     139.761 137.905 121.265  1.00  0.00     0.087 C 
ENDBRANCH  11  12
ENDBRANCH  10  11
ENDBRANCH   2  10
TORSDOF 6
ENDMDL
MODEL 9
REMARK VINA RESULT:    -3.973      2.068      5.467
REMARK INTER + INTRA:          -6.411
REMARK INTER:                  -5.127
REMARK INTRA:                  -1.284
REMARK UNBOUND:                -1.045
REMARK SMILES CC(=O)CCC=C(C)CCC=C(C)C
REMARK SMILES IDX 7 1 6 2 8 3 9 4 10 5 11 6 13 7 12 8 14 9 5 10 4 11 2 12 3 13
REMARK SMILES IDX 1 14
REMARK H PARENT
REMARK Flexibility Score: inf
ROOT
ATOM      1  C   UNL     1     126.691 139.238 114.447  1.00  0.00    -0.077 C 
ATOM      2  C   UNL     1     127.209 138.287 113.635  1.00  0.00    -0.028 C 
ATOM      3  C   UNL     1     126.270 138.933 115.865  1.00  0.00     0.039 C 
ENDROOT
BRANCH   1   4
ATOM      4  C   UNL     1     126.511 140.642 113.912  1.00  0.00     0.034 C 
BRANCH   4   5
ATOM      5  C   UNL     1     126.921 141.682 114.961  1.00  0.00     0.032 C 
BRANCH   5   6
ATOM      6  C   UNL     1     128.329 142.162 114.717  1.00  0.00    -0.028 C 
ATOM      7  C   UNL     1     129.287 140.810 116.595  1.00  0.00     0.039 C 
ATOM      8  C   UNL     1     129.407 141.760 115.426  1.00  0.00    -0.080 C 
ATOM      9  C   UNL     1     130.762 142.296 115.042  1.00  0.00     0.039 C 
ENDBRANCH   5   6
ENDBRANCH   4   5
ENDBRANCH   1   4
BRANCH   2  10
ATOM     10  C   UNL     1     127.473 136.862 114.050  1.00  0.00     0.035 C 
BRANCH  10  11
ATOM     11  C   UNL     1     128.960 136.523 113.916  1.00  0.00     0.079 C 
BRANCH  11  12
ATOM     12  C   UNL     1     129.775 137.289 114.924  1.00  0.00     0.130 C 
ATOM     13  O   UNL     1     129.474 137.235 116.106  1.00  0.00    -0.300 OA
ATOM     14  C   UNL     1     130.946 138.130 114.506  1.00  0.00     0.087 C 
ENDBRANCH  11  12
ENDBRANCH  10  11
ENDBRANCH   2  10
TORSDOF 6
ENDMDL
