MODEL 1
REMARK VINA RESULT:    -3.457      0.000      0.000
REMARK INTER + INTRA:          -4.313
REMARK INTER:                  -5.074
REMARK INTRA:                   0.761
REMARK UNBOUND:                 0.761
REMARK SMILES C=C1C=C[C@@H](C(C)C)CCC(C)=CCC1
REMARK SMILES IDX 3 1 4 2 5 3 9 4 10 5 11 6 12 7 13 8 6 10 7 11 8 12 2 13 1 14
REMARK SMILES IDX 15 15 14 16
REMARK H PARENT
REMARK Flexibility Score: 70.00
ROOT
ATOM      1  C   UNL     1       4.009   6.809  13.437  1.00  0.00    -0.001 C 
ATOM      2  C   UNL     1       4.004   8.078  13.002  1.00  0.00    -0.023 C 
ENDROOT
BRANCH   2   3
ATOM      3  C   UNL     1       4.458   8.552  11.633  1.00  0.00     0.014 C 
BRANCH   3   4
ATOM      4  C   UNL     1       5.971   8.891  11.694  1.00  0.00     0.012 C 
BRANCH   4   5
ATOM      5  C   UNL     1       6.881   7.654  11.865  1.00  0.00     0.031 C 
BRANCH   5   6
ATOM      6  C   UNL     1       7.640   7.627  13.183  1.00  0.00    -0.077 C 
ATOM      7  C   UNL     1       8.716   8.662  13.409  1.00  0.00     0.039 C 
ATOM      8  C   UNL     1       7.477   6.680  14.140  1.00  0.00    -0.028 CG0
ATOM      9  G   UNL     1       6.493   5.531  14.125  1.00  0.00     0.000 G0
ENDBRANCH   5   6
ENDBRANCH   4   5
ENDBRANCH   3   4
BRANCH   3  10
ATOM     10  C   UNL     1       3.593   9.783  11.202  1.00  0.00    -0.010 C 
ATOM     11  C   UNL     1       2.440  10.075  12.182  1.00  0.00     0.008 C 
ATOM     12  C   UNL     1       4.453  11.055  11.068  1.00  0.00     0.008 C 
ENDBRANCH   3  10
ENDBRANCH   2   3
BRANCH   1  13
ATOM     13  C   UNL     1       4.466   5.639  12.659  1.00  0.00    -0.055 C 
ATOM     14  C   UNL     1       3.599   4.879  11.983  1.00  0.00     0.012 C 
BRANCH  13  15
ATOM     15  C   UNL     1       5.916   5.232  12.764  1.00  0.00     0.039 C 
BRANCH  15  16
ATOM     16  C   UNL     1       6.496   5.522  14.153  1.00  0.00     0.032 CG0
ATOM     17  G   UNL     1       7.475   6.675  14.121  1.00  0.00     0.000 G0
ENDBRANCH  15  16
ENDBRANCH  13  15
ENDBRANCH   1  13
TORSDOF 1
ENDMDL
MODEL 2
REMARK VINA RESULT:    -1.796      3.839      6.656
REMARK INTER + INTRA:          -1.875
REMARK INTER:                  -3.023
REMARK INTRA:                   1.147
REMARK UNBOUND:                 0.761
REMARK SMILES C=C1C=C[C@@H](C(C)C)CCC(C)=CCC1
REMARK SMILES IDX 3 1 4 2 5 3 9 4 10 5 11 6 12 7 13 8 6 10 7 11 8 12 2 13 1 14
REMARK SMILES IDX 15 15 14 16
REMARK H PARENT
REMARK Flexibility Score: 70.00
ROOT
ATOM      1  C   UNL     1       2.003  10.205  13.429  1.00  0.00    -0.001 C 
ATOM      2  C   UNL     1       3.026   9.610  12.797  1.00  0.00    -0.023 C 
ENDROOT
BRANCH   2   3
ATOM      3  C   UNL     1       4.171  10.316  12.094  1.00  0.00     0.014 C 
BRANCH   3   4
ATOM      4  C   UNL     1       3.589  11.272  11.019  1.00  0.00     0.012 C 
BRANCH   4   5
ATOM      5  C   UNL     1       4.368  12.598  10.875  1.00  0.00     0.031 C 
BRANCH   5   6
ATOM      6  C   UNL     1       3.509  13.840  11.064  1.00  0.00    -0.077 C 
ATOM      7  C   UNL     1       4.198  15.182  11.127  1.00  0.00     0.039 C 
ATOM      8  C   UNL     1       2.169  13.819  11.267  1.00  0.00    -0.028 CG0
ATOM      9  G   UNL     1       1.270  12.602  11.282  1.00  0.00     0.000 G0
ENDBRANCH   5   6
ENDBRANCH   4   5
ENDBRANCH   3   4
BRANCH   3  10
ATOM     10  C   UNL     1       5.134   9.248  11.476  1.00  0.00    -0.010 C 
ATOM     11  C   UNL     1       6.218   8.779  12.467  1.00  0.00     0.008 C 
ATOM     12  C   UNL     1       4.358   8.012  10.980  1.00  0.00     0.008 C 
ENDBRANCH   3  10
ENDBRANCH   2   3
BRANCH   1  13
ATOM     13  C   UNL     1       1.802  11.664  13.549  1.00  0.00    -0.055 C 
ATOM     14  C   UNL     1       2.459  12.376  14.470  1.00  0.00     0.012 C 
BRANCH  13  15
ATOM     15  C   UNL     1       0.731  12.309  12.705  1.00  0.00     0.039 C 
BRANCH  15  16
ATOM     16  C   UNL     1       1.222  12.618  11.286  1.00  0.00     0.032 CG0
ATOM     17  G   UNL     1       2.167  13.799  11.266  1.00  0.00     0.000 G0
ENDBRANCH  15  16
ENDBRANCH  13  15
ENDBRANCH   1  13
TORSDOF 1
ENDMDL
