MODEL 1
REMARK VINA RESULT:    -3.663      0.000      0.000
REMARK INTER + INTRA:          -4.536
REMARK INTER:                  -4.199
REMARK INTRA:                  -0.337
REMARK UNBOUND:                -0.337
REMARK SMILES COc1ccc(C(C)=O)c(O)c1
REMARK SMILES IDX 6 1 10 2 12 3 3 4 4 5 5 6 7 7 8 8 9 9 11 10 2 12 1 13
REMARK H PARENT 11 11
REMARK Flexibility Score: inf
ROOT
ATOM      1  C   UNL     1       7.890 176.739  46.338  1.00  0.00     0.059 A 
ATOM      2  C   UNL     1       7.563 175.443  45.875  1.00  0.00     0.130 A 
ATOM      3  C   UNL     1       6.288 175.184  45.350  1.00  0.00     0.093 A 
ATOM      4  C   UNL     1       5.324 176.204  45.270  1.00  0.00     0.122 A 
ATOM      5  C   UNL     1       5.650 177.484  45.724  1.00  0.00     0.047 A 
ATOM      6  C   UNL     1       6.914 177.752  46.250  1.00  0.00     0.019 A 
ENDROOT
BRANCH   1   7
ATOM      7  C   UNL     1       9.234 177.040  46.910  1.00  0.00     0.163 C 
ATOM      8  C   UNL     1       9.393 177.794  48.197  1.00  0.00     0.093 C 
ATOM      9  O   UNL     1      10.276 176.633  46.327  1.00  0.00    -0.294 OA
ENDBRANCH   1   7
BRANCH   2  10
ATOM     10  O   UNL     1       8.502 174.413  45.925  1.00  0.00    -0.507 OA
ATOM     11  H   UNL     1       9.371 174.457  45.404  1.00  0.00     0.293 HD
ENDBRANCH   2  10
BRANCH   4  12
ATOM     12  O   UNL     1       4.038 175.988  44.751  1.00  0.00    -0.497 OA
ATOM     13  C   UNL     1       3.600 174.765  44.170  1.00  0.00     0.278 C 
ENDBRANCH   4  12
TORSDOF 3
ENDMDL
MODEL 2
REMARK VINA RESULT:    -3.653     16.659     17.879
REMARK INTER + INTRA:          -4.524
REMARK INTER:                  -4.175
REMARK INTRA:                  -0.348
REMARK UNBOUND:                -0.337
REMARK SMILES COc1ccc(C(C)=O)c(O)c1
REMARK SMILES IDX 6 1 10 2 12 3 3 4 4 5 5 6 7 7 8 8 9 9 11 10 2 12 1 13
REMARK H PARENT 11 11
REMARK Flexibility Score: inf
ROOT
ATOM      1  C   UNL     1       4.699 159.747  42.930  1.00  0.00     0.059 A 
ATOM      2  C   UNL     1       4.730 159.202  44.236  1.00  0.00     0.130 A 
ATOM      3  C   UNL     1       5.893 158.577  44.711  1.00  0.00     0.093 A 
ATOM      4  C   UNL     1       7.041 158.490  43.904  1.00  0.00     0.122 A 
ATOM      5  C   UNL     1       7.010 159.032  42.617  1.00  0.00     0.047 A 
ATOM      6  C   UNL     1       5.857 159.653  42.134  1.00  0.00     0.019 A 
ENDROOT
BRANCH   1   7
ATOM      7  C   UNL     1       3.473 160.406  42.396  1.00  0.00     0.163 C 
ATOM      8  C   UNL     1       2.875 160.012  41.078  1.00  0.00     0.093 C 
ATOM      9  O   UNL     1       2.892 161.301  43.068  1.00  0.00    -0.294 OA
ENDBRANCH   1   7
BRANCH   2  10
ATOM     10  O   UNL     1       3.614 159.286  45.067  1.00  0.00    -0.507 OA
ATOM     11  H   UNL     1       2.946 160.046  44.989  1.00  0.00     0.293 HD
ENDBRANCH   2  10
BRANCH   4  12
ATOM     12  O   UNL     1       8.225 157.876  44.339  1.00  0.00    -0.497 OA
ATOM     13  C   UNL     1       9.451 157.886  43.615  1.00  0.00     0.278 C 
ENDBRANCH   4  12
TORSDOF 3
ENDMDL
MODEL 3
REMARK VINA RESULT:    -3.537      1.417      4.579
REMARK INTER + INTRA:          -4.391
REMARK INTER:                  -4.059
REMARK INTRA:                  -0.332
REMARK UNBOUND:                -0.337
REMARK SMILES COc1ccc(C(C)=O)c(O)c1
REMARK SMILES IDX 6 1 10 2 12 3 3 4 4 5 5 6 7 7 8 8 9 9 11 10 2 12 1 13
REMARK H PARENT 11 11
REMARK Flexibility Score: inf
ROOT
ATOM      1  C   UNL     1       6.783 175.828  45.914  1.00  0.00     0.059 A 
ATOM      2  C   UNL     1       8.036 175.185  46.044  1.00  0.00     0.130 A 
ATOM      3  C   UNL     1       9.190 175.938  46.310  1.00  0.00     0.093 A 
ATOM      4  C   UNL     1       9.117 177.334  46.457  1.00  0.00     0.122 A 
ATOM      5  C   UNL     1       7.878 177.967  46.332  1.00  0.00     0.047 A 
ATOM      6  C   UNL     1       6.725 177.228  46.065  1.00  0.00     0.019 A 
ENDROOT
BRANCH   1   7
ATOM      7  C   UNL     1       5.543 175.054  45.620  1.00  0.00     0.163 C 
ATOM      8  C   UNL     1       4.559 175.503  44.580  1.00  0.00     0.093 C 
ATOM      9  O   UNL     1       5.310 173.975  46.231  1.00  0.00    -0.294 OA
ENDBRANCH   1   7
BRANCH   2  10
ATOM     10  O   UNL     1       8.140 173.800  45.920  1.00  0.00    -0.507 OA
ATOM     11  H   UNL     1       7.329 173.195  45.991  1.00  0.00     0.293 HD
ENDBRANCH   2  10
BRANCH   4  12
ATOM     12  O   UNL     1      10.245 178.125  46.724  1.00  0.00    -0.497 OA
ATOM     13  C   UNL     1      11.459 178.070  45.983  1.00  0.00     0.278 C 
ENDBRANCH   4  12
TORSDOF 3
ENDMDL
MODEL 4
REMARK VINA RESULT:    -3.318      1.358      5.002
REMARK INTER + INTRA:          -4.141
REMARK INTER:                  -3.796
REMARK INTRA:                  -0.345
REMARK UNBOUND:                -0.337
REMARK SMILES COc1ccc(C(C)=O)c(O)c1
REMARK SMILES IDX 6 1 10 2 12 3 3 4 4 5 5 6 7 7 8 8 9 9 11 10 2 12 1 13
REMARK H PARENT 11 11
REMARK Flexibility Score: inf
ROOT
ATOM      1  C   UNL     1       5.769 175.948  45.324  1.00  0.00     0.059 A 
ATOM      2  C   UNL     1       5.818 177.290  45.769  1.00  0.00     0.130 A 
ATOM      3  C   UNL     1       6.993 177.799  46.344  1.00  0.00     0.093 A 
ATOM      4  C   UNL     1       8.134 176.989  46.479  1.00  0.00     0.122 A 
ATOM      5  C   UNL     1       8.085 175.665  46.037  1.00  0.00     0.047 A 
ATOM      6  C   UNL     1       6.920 175.149  45.466  1.00  0.00     0.019 A 
ENDROOT
BRANCH   1   7
ATOM      7  C   UNL     1       4.530 175.379  44.721  1.00  0.00     0.163 C 
ATOM      8  C   UNL     1       3.833 174.193  45.319  1.00  0.00     0.093 C 
ATOM      9  O   UNL     1       4.023 175.911  43.696  1.00  0.00    -0.294 OA
ENDBRANCH   1   7
BRANCH   2  10
ATOM     10  O   UNL     1       4.709 178.125  45.634  1.00  0.00    -0.507 OA
ATOM     11  H   UNL     1       4.502 178.851  46.311  1.00  0.00     0.293 HD
ENDBRANCH   2  10
BRANCH   4  12
ATOM     12  O   UNL     1       9.329 177.457  47.047  1.00  0.00    -0.497 OA
ATOM     13  C   UNL     1      10.509 176.675  47.198  1.00  0.00     0.278 C 
ENDBRANCH   4  12
TORSDOF 3
ENDMDL
MODEL 5
REMARK VINA RESULT:    -3.161      9.472     12.316
REMARK INTER + INTRA:          -3.960
REMARK INTER:                  -3.659
REMARK INTRA:                  -0.301
REMARK UNBOUND:                -0.337
REMARK SMILES COc1ccc(C(C)=O)c(O)c1
REMARK SMILES IDX 6 1 10 2 12 3 3 4 4 5 5 6 7 7 8 8 9 9 11 10 2 12 1 13
REMARK H PARENT 11 11
REMARK Flexibility Score: inf
ROOT
ATOM      1  C   UNL     1      18.702 177.340  51.956  1.00  0.00     0.059 A 
ATOM      2  C   UNL     1      17.516 177.062  52.676  1.00  0.00     0.130 A 
ATOM      3  C   UNL     1      16.264 177.321  52.097  1.00  0.00     0.093 A 
ATOM      4  C   UNL     1      16.170 177.852  50.798  1.00  0.00     0.122 A 
ATOM      5  C   UNL     1      17.342 178.122  50.088  1.00  0.00     0.047 A 
ATOM      6  C   UNL     1      18.592 177.870  50.655  1.00  0.00     0.019 A 
ENDROOT
BRANCH   1   7
ATOM      7  C   UNL     1      20.045 177.084  52.551  1.00  0.00     0.163 C 
ATOM      8  C   UNL     1      21.236 177.927  52.203  1.00  0.00     0.093 C 
ATOM      9  O   UNL     1      20.199 176.158  53.392  1.00  0.00    -0.294 OA
ENDBRANCH   1   7
BRANCH   2  10
ATOM     10  O   UNL     1      17.574 176.520  53.959  1.00  0.00    -0.507 OA
ATOM     11  H   UNL     1      17.394 177.082  54.784  1.00  0.00     0.293 HD
ENDBRANCH   2  10
BRANCH   4  12
ATOM     12  O   UNL     1      14.940 178.125  50.182  1.00  0.00    -0.497 OA
ATOM     13  C   UNL     1      14.643 177.843  48.818  1.00  0.00     0.278 C 
ENDBRANCH   4  12
TORSDOF 3
ENDMDL
MODEL 6
REMARK VINA RESULT:    -3.090     11.571     14.415
REMARK INTER + INTRA:          -3.878
REMARK INTER:                  -3.532
REMARK INTRA:                  -0.347
REMARK UNBOUND:                -0.337
REMARK SMILES COc1ccc(C(C)=O)c(O)c1
REMARK SMILES IDX 6 1 10 2 12 3 3 4 4 5 5 6 7 7 8 8 9 9 11 10 2 12 1 13
REMARK H PARENT 11 11
REMARK Flexibility Score: inf
ROOT
ATOM      1  C   UNL     1      20.812 176.988  52.461  1.00  0.00     0.059 A 
ATOM      2  C   UNL     1      20.012 176.060  53.168  1.00  0.00     0.130 A 
ATOM      3  C   UNL     1      18.613 176.139  53.098  1.00  0.00     0.093 A 
ATOM      4  C   UNL     1      17.989 177.133  52.323  1.00  0.00     0.122 A 
ATOM      5  C   UNL     1      18.780 178.046  51.623  1.00  0.00     0.047 A 
ATOM      6  C   UNL     1      20.173 177.977  51.688  1.00  0.00     0.019 A 
ENDROOT
BRANCH   1   7
ATOM      7  C   UNL     1      22.301 176.933  52.527  1.00  0.00     0.163 C 
ATOM      8  C   UNL     1      23.118 178.125  52.929  1.00  0.00     0.093 C 
ATOM      9  O   UNL     1      22.907 175.858  52.268  1.00  0.00    -0.294 OA
ENDBRANCH   1   7
BRANCH   2  10
ATOM     10  O   UNL     1      20.600 175.052  53.933  1.00  0.00    -0.507 OA
ATOM     11  H   UNL     1      21.135 174.303  53.507  1.00  0.00     0.293 HD
ENDBRANCH   2  10
BRANCH   4  12
ATOM     12  O   UNL     1      16.594 177.248  52.225  1.00  0.00    -0.497 OA
ATOM     13  C   UNL     1      15.910 177.814  51.112  1.00  0.00     0.278 C 
ENDBRANCH   4  12
TORSDOF 3
ENDMDL
MODEL 7
REMARK VINA RESULT:    -1.651      9.657     12.577
REMARK INTER + INTRA:          -2.229
REMARK INTER:                  -1.891
REMARK INTRA:                  -0.338
REMARK UNBOUND:                -0.337
REMARK SMILES COc1ccc(C(C)=O)c(O)c1
REMARK SMILES IDX 6 1 10 2 12 3 3 4 4 5 5 6 7 7 8 8 9 9 11 10 2 12 1 13
REMARK H PARENT 11 11
REMARK Flexibility Score: inf
ROOT
ATOM      1  C   UNL     1      18.431 176.906  52.838  1.00  0.00     0.059 A 
ATOM      2  C   UNL     1      18.622 177.561  51.598  1.00  0.00     0.130 A 
ATOM      3  C   UNL     1      17.515 177.966  50.838  1.00  0.00     0.093 A 
ATOM      4  C   UNL     1      16.206 177.735  51.297  1.00  0.00     0.122 A 
ATOM      5  C   UNL     1      16.019 177.093  52.522  1.00  0.00     0.047 A 
ATOM      6  C   UNL     1      17.114 176.683  53.285  1.00  0.00     0.019 A 
ENDROOT
BRANCH   1   7
ATOM      7  C   UNL     1      19.589 176.455  53.661  1.00  0.00     0.163 C 
ATOM      8  C   UNL     1      19.727 175.032  54.116  1.00  0.00     0.093 C 
ATOM      9  O   UNL     1      20.502 177.268  53.969  1.00  0.00    -0.294 OA
ENDBRANCH   1   7
BRANCH   2  10
ATOM     10  O   UNL     1      19.907 177.819  51.122  1.00  0.00    -0.507 OA
ATOM     11  H   UNL     1      20.096 177.941  50.133  1.00  0.00     0.293 HD
ENDBRANCH   2  10
BRANCH   4  12
ATOM     12  O   UNL     1      15.071 178.125  50.569  1.00  0.00    -0.497 OA
ATOM     13  C   UNL     1      14.839 177.794  49.204  1.00  0.00     0.278 C 
ENDBRANCH   4  12
TORSDOF 3
ENDMDL
