MODEL 1
REMARK VINA RESULT:    -3.021      0.000      0.000
REMARK INTER + INTRA:          -6.185
REMARK INTER:                  -4.788
REMARK INTRA:                  -1.397
REMARK UNBOUND:                -1.397
REMARK SMILES CCCCCCCCCCCC=O
REMARK SMILES IDX 7 1 6 2 5 3 4 4 3 5 2 6 1 7 8 8 9 9 10 10 11 11 12 12 13 13
REMARK H PARENT
REMARK Flexibility Score: inf
ROOT
ATOM      1  C   UNL     1     167.756 166.177 169.624  1.00  0.00     0.000 C 
ENDROOT
BRANCH   1   2
ATOM      2  C   UNL     1     166.844 165.512 168.578  1.00  0.00     0.000 C 
BRANCH   2   3
ATOM      3  C   UNL     1     165.879 166.511 167.915  1.00  0.00    -0.000 C 
BRANCH   3   4
ATOM      4  C   UNL     1     165.750 167.822 168.709  1.00  0.00    -0.000 C 
BRANCH   4   5
ATOM      5  C   UNL     1     166.124 169.059 167.875  1.00  0.00    -0.000 C 
BRANCH   5   6
ATOM      6  C   UNL     1     167.057 170.018 168.631  1.00  0.00    -0.003 C 
ATOM      7  C   UNL     1     167.028 169.805 170.144  1.00  0.00     0.004 C 
ENDBRANCH   5   6
ENDBRANCH   4   5
ENDBRANCH   3   4
ENDBRANCH   2   3
ENDBRANCH   1   2
BRANCH   1   8
ATOM      8  C   UNL     1     169.224 166.244 169.169  1.00  0.00     0.000 C 
BRANCH   8   9
ATOM      9  C   UNL     1     169.427 167.183 167.967  1.00  0.00     0.000 C 
BRANCH   9  10
ATOM     10  C   UNL     1     170.534 168.222 168.206  1.00  0.00     0.008 C 
BRANCH  10  11
ATOM     11  C   UNL     1     170.570 168.654 169.676  1.00  0.00     0.072 C 
BRANCH  11  12
ATOM     12  C   UNL     1     171.850 169.366 169.995  1.00  0.00     0.224 C 
ATOM     13  O   UNL     1     172.861 169.143 169.346  1.00  0.00    -0.303 OA
ENDBRANCH  11  12
ENDBRANCH  10  11
ENDBRANCH   9  10
ENDBRANCH   8   9
ENDBRANCH   1   8
TORSDOF 10
ENDMDL
MODEL 2
REMARK VINA RESULT:    -2.904      2.355      3.819
REMARK INTER + INTRA:          -5.998
REMARK INTER:                  -4.765
REMARK INTRA:                  -1.233
REMARK UNBOUND:                -1.397
REMARK SMILES CCCCCCCCCCCC=O
REMARK SMILES IDX 7 1 6 2 5 3 4 4 3 5 2 6 1 7 8 8 9 9 10 10 11 11 12 12 13 13
REMARK H PARENT
REMARK Flexibility Score: inf
ROOT
ATOM      1  C   UNL     1     169.046 168.541 169.334  1.00  0.00     0.000 C 
ENDROOT
BRANCH   1   2
ATOM      2  C   UNL     1     168.755 169.741 168.417  1.00  0.00     0.000 C 
BRANCH   2   3
ATOM      3  C   UNL     1     167.312 169.738 167.880  1.00  0.00    -0.000 C 
BRANCH   3   4
ATOM      4  C   UNL     1     166.326 169.057 168.844  1.00  0.00    -0.000 C 
BRANCH   4   5
ATOM      5  C   UNL     1     165.346 168.118 168.123  1.00  0.00    -0.000 C 
BRANCH   5   6
ATOM      6  C   UNL     1     164.812 167.007 169.042  1.00  0.00    -0.003 C 
ATOM      7  C   UNL     1     165.404 167.065 170.449  1.00  0.00     0.004 C 
ENDBRANCH   5   6
ENDBRANCH   4   5
ENDBRANCH   3   4
ENDBRANCH   2   3
ENDBRANCH   1   2
BRANCH   1   8
ATOM      8  C   UNL     1     170.262 167.723 168.867  1.00  0.00     0.000 C 
BRANCH   8   9
ATOM      9  C   UNL     1     169.867 166.344 168.312  1.00  0.00     0.000 C 
BRANCH   9  10
ATOM     10  C   UNL     1     168.426 165.949 168.672  1.00  0.00     0.008 C 
BRANCH  10  11
ATOM     11  C   UNL     1     168.411 164.882 169.773  1.00  0.00     0.072 C 
BRANCH  11  12
ATOM     12  C   UNL     1     169.210 163.681 169.366  1.00  0.00     0.224 C 
ATOM     13  O   UNL     1     169.811 163.025 170.202  1.00  0.00    -0.303 OA
ENDBRANCH  11  12
ENDBRANCH  10  11
ENDBRANCH   9  10
ENDBRANCH   8   9
ENDBRANCH   1   8
TORSDOF 10
ENDMDL
MODEL 3
REMARK VINA RESULT:    -2.893      3.029      4.686
REMARK INTER + INTRA:          -5.981
REMARK INTER:                  -4.727
REMARK INTRA:                  -1.255
REMARK UNBOUND:                -1.397
REMARK SMILES CCCCCCCCCCCC=O
REMARK SMILES IDX 7 1 6 2 5 3 4 4 3 5 2 6 1 7 8 8 9 9 10 10 11 11 12 12 13 13
REMARK H PARENT
REMARK Flexibility Score: inf
ROOT
ATOM      1  C   UNL     1     169.220 166.220 168.739  1.00  0.00     0.000 C 
ENDROOT
BRANCH   1   2
ATOM      2  C   UNL     1     169.306 167.620 168.108  1.00  0.00     0.000 C 
BRANCH   2   3
ATOM      3  C   UNL     1     169.234 168.746 169.155  1.00  0.00    -0.000 C 
BRANCH   3   4
ATOM      4  C   UNL     1     168.103 169.748 168.867  1.00  0.00    -0.000 C 
BRANCH   4   5
ATOM      5  C   UNL     1     167.020 169.750 169.958  1.00  0.00    -0.000 C 
BRANCH   5   6
ATOM      6  C   UNL     1     167.585 169.410 171.347  1.00  0.00    -0.003 C 
ATOM      7  C   UNL     1     166.498 169.042 172.356  1.00  0.00     0.004 C 
ENDBRANCH   5   6
ENDBRANCH   4   5
ENDBRANCH   3   4
ENDBRANCH   2   3
ENDBRANCH   1   2
BRANCH   1   8
ATOM      8  C   UNL     1     168.234 165.299 168.000  1.00  0.00     0.000 C 
BRANCH   8   9
ATOM      9  C   UNL     1     166.782 165.801 168.083  1.00  0.00     0.000 C 
BRANCH   9  10
ATOM     10  C   UNL     1     166.309 166.015 169.529  1.00  0.00     0.008 C 
BRANCH  10  11
ATOM     11  C   UNL     1     165.032 166.862 169.567  1.00  0.00     0.072 C 
BRANCH  11  12
ATOM     12  C   UNL     1     164.609 167.256 168.184  1.00  0.00     0.224 C 
ATOM     13  O   UNL     1     163.427 167.266 167.877  1.00  0.00    -0.303 OA
ENDBRANCH  11  12
ENDBRANCH  10  11
ENDBRANCH   9  10
ENDBRANCH   8   9
ENDBRANCH   1   8
TORSDOF 10
ENDMDL
MODEL 4
REMARK VINA RESULT:    -2.892      3.273      5.727
REMARK INTER + INTRA:          -5.980
REMARK INTER:                  -4.704
REMARK INTRA:                  -1.275
REMARK UNBOUND:                -1.397
REMARK SMILES CCCCCCCCCCCC=O
REMARK SMILES IDX 7 1 6 2 5 3 4 4 3 5 2 6 1 7 8 8 9 9 10 10 11 11 12 12 13 13
REMARK H PARENT
REMARK Flexibility Score: inf
ROOT
ATOM      1  C   UNL     1     167.079 169.621 169.535  1.00  0.00     0.000 C 
ENDROOT
BRANCH   1   2
ATOM      2  C   UNL     1     168.552 169.207 169.691  1.00  0.00     0.000 C 
BRANCH   2   3
ATOM      3  C   UNL     1     169.197 168.802 168.354  1.00  0.00    -0.000 C 
BRANCH   3   4
ATOM      4  C   UNL     1     169.759 167.370 168.380  1.00  0.00    -0.000 C 
BRANCH   4   5
ATOM      5  C   UNL     1     168.731 166.323 167.919  1.00  0.00    -0.000 C 
BRANCH   5   6
ATOM      6  C   UNL     1     168.623 165.138 168.893  1.00  0.00    -0.003 C 
ATOM      7  C   UNL     1     168.293 165.571 170.321  1.00  0.00     0.004 C 
ENDBRANCH   5   6
ENDBRANCH   4   5
ENDBRANCH   3   4
ENDBRANCH   2   3
ENDBRANCH   1   2
BRANCH   1   8
ATOM      8  C   UNL     1     166.486 169.195 168.180  1.00  0.00     0.000 C 
BRANCH   8   9
ATOM      9  C   UNL     1     165.052 168.654 168.307  1.00  0.00     0.000 C 
BRANCH   9  10
ATOM     10  C   UNL     1     165.001 167.119 168.368  1.00  0.00     0.008 C 
BRANCH  10  11
ATOM     11  C   UNL     1     164.775 166.636 169.806  1.00  0.00     0.072 C 
BRANCH  11  12
ATOM     12  C   UNL     1     163.459 165.931 169.934  1.00  0.00     0.224 C 
ATOM     13  O   UNL     1     162.891 165.871 171.013  1.00  0.00    -0.303 OA
ENDBRANCH  11  12
ENDBRANCH  10  11
ENDBRANCH   9  10
ENDBRANCH   8   9
ENDBRANCH   1   8
TORSDOF 10
ENDMDL
MODEL 5
REMARK VINA RESULT:    -2.892      2.557      4.033
REMARK INTER + INTRA:          -5.979
REMARK INTER:                  -4.551
REMARK INTRA:                  -1.428
REMARK UNBOUND:                -1.397
REMARK SMILES CCCCCCCCCCCC=O
REMARK SMILES IDX 7 1 6 2 5 3 4 4 3 5 2 6 1 7 8 8 9 9 10 10 11 11 12 12 13 13
REMARK H PARENT
REMARK Flexibility Score: inf
ROOT
ATOM      1  C   UNL     1     168.284 169.102 167.876  1.00  0.00     0.000 C 
ENDROOT
BRANCH   1   2
ATOM      2  C   UNL     1     167.105 169.887 168.477  1.00  0.00     0.000 C 
BRANCH   2   3
ATOM      3  C   UNL     1     165.784 169.099 168.426  1.00  0.00    -0.000 C 
BRANCH   3   4
ATOM      4  C   UNL     1     165.867 167.759 169.177  1.00  0.00    -0.000 C 
BRANCH   4   5
ATOM      5  C   UNL     1     166.259 167.932 170.654  1.00  0.00    -0.000 C 
BRANCH   5   6
ATOM      6  C   UNL     1     166.347 166.591 171.400  1.00  0.00    -0.003 C 
ATOM      7  C   UNL     1     167.692 166.385 172.095  1.00  0.00     0.004 C 
ENDBRANCH   5   6
ENDBRANCH   4   5
ENDBRANCH   3   4
ENDBRANCH   2   3
ENDBRANCH   1   2
BRANCH   1   8
ATOM      8  C   UNL     1     169.490 169.025 168.829  1.00  0.00     0.000 C 
BRANCH   8   9
ATOM      9  C   UNL     1     169.810 167.584 169.260  1.00  0.00     0.000 C 
BRANCH   9  10
ATOM     10  C   UNL     1     169.207 166.534 168.314  1.00  0.00     0.008 C 
BRANCH  10  11
ATOM     11  C   UNL     1     169.177 165.152 168.979  1.00  0.00     0.072 C 
BRANCH  11  12
ATOM     12  C   UNL     1     168.178 164.257 168.310  1.00  0.00     0.224 C 
ATOM     13  O   UNL     1     166.991 164.546 168.309  1.00  0.00    -0.303 OA
ENDBRANCH  11  12
ENDBRANCH  10  11
ENDBRANCH   9  10
ENDBRANCH   8   9
ENDBRANCH   1   8
TORSDOF 10
ENDMDL
MODEL 6
REMARK VINA RESULT:    -2.853      2.207      3.688
REMARK INTER + INTRA:          -5.918
REMARK INTER:                  -4.561
REMARK INTRA:                  -1.357
REMARK UNBOUND:                -1.397
REMARK SMILES CCCCCCCCCCCC=O
REMARK SMILES IDX 7 1 6 2 5 3 4 4 3 5 2 6 1 7 8 8 9 9 10 10 11 11 12 12 13 13
REMARK H PARENT
REMARK Flexibility Score: inf
ROOT
ATOM      1  C   UNL     1     168.103 166.732 170.690  1.00  0.00     0.000 C 
ENDROOT
BRANCH   1   2
ATOM      2  C   UNL     1     168.542 167.131 169.270  1.00  0.00     0.000 C 
BRANCH   2   3
ATOM      3  C   UNL     1     167.919 166.234 168.185  1.00  0.00    -0.000 C 
BRANCH   3   4
ATOM      4  C   UNL     1     166.412 166.010 168.400  1.00  0.00    -0.000 C 
BRANCH   4   5
ATOM      5  C   UNL     1     165.559 167.176 167.875  1.00  0.00    -0.000 C 
BRANCH   5   6
ATOM      6  C   UNL     1     164.173 167.235 168.537  1.00  0.00    -0.003 C 
ATOM      7  C   UNL     1     164.054 166.310 169.747  1.00  0.00     0.004 C 
ENDBRANCH   5   6
ENDBRANCH   4   5
ENDBRANCH   3   4
ENDBRANCH   2   3
ENDBRANCH   1   2
BRANCH   1   8
ATOM      8  C   UNL     1     167.665 167.941 171.534  1.00  0.00     0.000 C 
BRANCH   8   9
ATOM      9  C   UNL     1     166.593 168.793 170.834  1.00  0.00     0.000 C 
BRANCH   9  10
ATOM     10  C   UNL     1     167.034 170.251 170.629  1.00  0.00     0.008 C 
BRANCH  10  11
ATOM     11  C   UNL     1     166.474 170.812 169.317  1.00  0.00     0.072 C 
BRANCH  11  12
ATOM     12  C   UNL     1     167.376 170.485 168.166  1.00  0.00     0.224 C 
ATOM     13  O   UNL     1     168.580 170.672 168.249  1.00  0.00    -0.303 OA
ENDBRANCH  11  12
ENDBRANCH  10  11
ENDBRANCH   9  10
ENDBRANCH   8   9
ENDBRANCH   1   8
TORSDOF 10
ENDMDL
