MODEL 1
REMARK VINA RESULT:    -4.863      0.000      0.000
REMARK INTER + INTRA:          -7.755
REMARK INTER:                  -7.422
REMARK INTRA:                  -0.333
REMARK UNBOUND:                -0.333
REMARK SMILES O=C([O-])CCCCCCCCC(=O)[O-]
REMARK SMILES IDX 7 1 6 2 5 3 4 4 2 5 1 6 3 7 8 8 9 9 10 10 11 11 12 12 13 13
REMARK SMILES IDX 14 14
REMARK H PARENT
REMARK Flexibility Score: inf
ROOT
ATOM      1  C   UNL     1      20.305 -49.594 -33.279  1.00  0.00     0.000 C 
ENDROOT
BRANCH   1   2
ATOM      2  C   UNL     1      19.905 -50.777 -32.379  1.00  0.00     0.000 C 
BRANCH   2   3
ATOM      3  C   UNL     1      20.985 -51.873 -32.324  1.00  0.00     0.006 C 
BRANCH   3   4
ATOM      4  C   UNL     1      21.266 -52.550 -33.676  1.00  0.00     0.053 C 
BRANCH   4   5
ATOM      5  C   UNL     1      20.690 -53.930 -33.743  1.00  0.00     0.041 C 
ATOM      6  O   UNL     1      21.385 -54.887 -34.177  1.00  0.00    -0.550 OA
ATOM      7  O   UNL     1      19.374 -54.156 -33.358  1.00  0.00    -0.550 OA
ENDBRANCH   4   5
ENDBRANCH   3   4
ENDBRANCH   2   3
ENDBRANCH   1   2
BRANCH   1   8
ATOM      8  C   UNL     1      19.884 -48.236 -32.695  1.00  0.00     0.000 C 
BRANCH   8   9
ATOM      9  C   UNL     1      19.051 -48.380 -31.409  1.00  0.00     0.000 C 
BRANCH   9  10
ATOM     10  C   UNL     1      19.033 -47.092 -30.571  1.00  0.00     0.006 C 
BRANCH  10  11
ATOM     11  C   UNL     1      17.870 -47.051 -29.572  1.00  0.00     0.053 C 
BRANCH  11  12
ATOM     12  C   UNL     1      17.462 -45.638 -29.304  1.00  0.00     0.041 C 
ATOM     13  O   UNL     1      17.359 -44.817 -30.253  1.00  0.00    -0.550 OA
ATOM     14  O   UNL     1      17.243 -45.213 -27.999  1.00  0.00    -0.550 OA
ENDBRANCH  11  12
ENDBRANCH  10  11
ENDBRANCH   9  10
ENDBRANCH   8   9
ENDBRANCH   1   8
TORSDOF 9
ENDMDL
MODEL 2
REMARK VINA RESULT:    -4.855      9.743     12.151
REMARK INTER + INTRA:          -7.742
REMARK INTER:                  -6.851
REMARK INTRA:                  -0.891
REMARK UNBOUND:                -0.333
REMARK SMILES O=C([O-])CCCCCCCCC(=O)[O-]
REMARK SMILES IDX 7 1 6 2 5 3 4 4 2 5 1 6 3 7 8 8 9 9 10 10 11 11 12 12 13 13
REMARK SMILES IDX 14 14
REMARK H PARENT
REMARK Flexibility Score: inf
ROOT
ATOM      1  C   UNL     1      19.357 -43.332 -25.205  1.00  0.00     0.000 C 
ENDROOT
BRANCH   1   2
ATOM      2  C   UNL     1      19.266 -41.990 -24.456  1.00  0.00     0.000 C 
BRANCH   2   3
ATOM      3  C   UNL     1      17.814 -41.519 -24.256  1.00  0.00     0.006 C 
BRANCH   3   4
ATOM      4  C   UNL     1      17.400 -41.357 -22.784  1.00  0.00     0.053 C 
BRANCH   4   5
ATOM      5  C   UNL     1      15.945 -41.644 -22.575  1.00  0.00     0.041 C 
ATOM      6  O   UNL     1      15.194 -41.865 -23.562  1.00  0.00    -0.550 OA
ATOM      7  O   UNL     1      15.410 -41.633 -21.292  1.00  0.00    -0.550 OA
ENDBRANCH   4   5
ENDBRANCH   3   4
ENDBRANCH   2   3
ENDBRANCH   1   2
BRANCH   1   8
ATOM      8  C   UNL     1      19.116 -44.541 -24.286  1.00  0.00     0.000 C 
BRANCH   8   9
ATOM      9  C   UNL     1      17.793 -45.263 -24.596  1.00  0.00     0.000 C 
BRANCH   9  10
ATOM     10  C   UNL     1      16.739 -45.059 -23.497  1.00  0.00     0.006 C 
BRANCH  10  11
ATOM     11  C   UNL     1      17.249 -45.457 -22.106  1.00  0.00     0.053 C 
BRANCH  11  12
ATOM     12  C   UNL     1      17.153 -46.937 -21.918  1.00  0.00     0.041 C 
ATOM     13  O   UNL     1      16.037 -47.477 -21.700  1.00  0.00    -0.550 OA
ATOM     14  O   UNL     1      18.303 -47.717 -21.934  1.00  0.00    -0.550 OA
ENDBRANCH  11  12
ENDBRANCH  10  11
ENDBRANCH   9  10
ENDBRANCH   8   9
ENDBRANCH   1   8
TORSDOF 9
ENDMDL
MODEL 3
REMARK VINA RESULT:    -4.844     16.935     18.003
REMARK INTER + INTRA:          -7.726
REMARK INTER:                  -7.305
REMARK INTRA:                  -0.421
REMARK UNBOUND:                -0.333
REMARK SMILES O=C([O-])CCCCCCCCC(=O)[O-]
REMARK SMILES IDX 7 1 6 2 5 3 4 4 2 5 1 6 3 7 8 8 9 9 10 10 11 11 12 12 13 13
REMARK SMILES IDX 14 14
REMARK H PARENT
REMARK Flexibility Score: inf
ROOT
ATOM      1  C   UNL     1      11.831 -60.020 -20.505  1.00  0.00     0.000 C 
ENDROOT
BRANCH   1   2
ATOM      2  C   UNL     1      10.450 -59.417 -20.816  1.00  0.00     0.000 C 
BRANCH   2   3
ATOM      3  C   UNL     1      10.471 -58.486 -22.042  1.00  0.00     0.006 C 
BRANCH   3   4
ATOM      4  C   UNL     1       9.758 -57.140 -21.825  1.00  0.00     0.053 C 
BRANCH   4   5
ATOM      5  C   UNL     1      10.036 -56.173 -22.933  1.00  0.00     0.041 C 
ATOM      6  O   UNL     1      11.185 -55.675 -23.068  1.00  0.00    -0.550 OA
ATOM      7  O   UNL     1       9.016 -55.793 -23.799  1.00  0.00    -0.550 OA
ENDBRANCH   4   5
ENDBRANCH   3   4
ENDBRANCH   2   3
ENDBRANCH   1   2
BRANCH   1   8
ATOM      8  C   UNL     1      11.893 -60.674 -19.115  1.00  0.00     0.000 C 
BRANCH   8   9
ATOM      9  C   UNL     1      11.165 -59.847 -18.042  1.00  0.00     0.000 C 
BRANCH   9  10
ATOM     10  C   UNL     1      12.018 -59.638 -16.781  1.00  0.00     0.006 C 
BRANCH  10  11
ATOM     11  C   UNL     1      13.178 -60.636 -16.677  1.00  0.00     0.053 C 
BRANCH  11  12
ATOM     12  C   UNL     1      14.482 -59.912 -16.564  1.00  0.00     0.041 C 
ATOM     13  O   UNL     1      14.935 -59.266 -17.546  1.00  0.00    -0.550 OA
ATOM     14  O   UNL     1      15.222 -59.990 -15.391  1.00  0.00    -0.550 OA
ENDBRANCH  11  12
ENDBRANCH  10  11
ENDBRANCH   9  10
ENDBRANCH   8   9
ENDBRANCH   1   8
TORSDOF 9
ENDMDL
MODEL 4
REMARK VINA RESULT:    -4.839      9.601     10.838
REMARK INTER + INTRA:          -7.718
REMARK INTER:                  -6.925
REMARK INTRA:                  -0.793
REMARK UNBOUND:                -0.333
REMARK SMILES O=C([O-])CCCCCCCCC(=O)[O-]
REMARK SMILES IDX 7 1 6 2 5 3 4 4 2 5 1 6 3 7 8 8 9 9 10 10 11 11 12 12 13 13
REMARK SMILES IDX 14 14
REMARK H PARENT
REMARK Flexibility Score: inf
ROOT
ATOM      1  C   UNL     1      18.144 -44.093 -25.336  1.00  0.00     0.000 C 
ENDROOT
BRANCH   1   2
ATOM      2  C   UNL     1      17.827 -45.372 -24.540  1.00  0.00     0.000 C 
BRANCH   2   3
ATOM      3  C   UNL     1      16.817 -45.129 -23.403  1.00  0.00     0.006 C 
BRANCH   3   4
ATOM      4  C   UNL     1      17.268 -45.662 -22.033  1.00  0.00     0.053 C 
BRANCH   4   5
ATOM      5  C   UNL     1      17.209 -47.157 -21.965  1.00  0.00     0.041 C 
ATOM      6  O   UNL     1      16.142 -47.734 -21.627  1.00  0.00    -0.550 OA
ATOM      7  O   UNL     1      18.343 -47.912 -22.241  1.00  0.00    -0.550 OA
ENDBRANCH   4   5
ENDBRANCH   3   4
ENDBRANCH   2   3
ENDBRANCH   1   2
BRANCH   1   8
ATOM      8  C   UNL     1      19.415 -43.386 -24.840  1.00  0.00     0.000 C 
BRANCH   8   9
ATOM      9  C   UNL     1      19.146 -41.943 -24.379  1.00  0.00     0.000 C 
BRANCH   9  10
ATOM     10  C   UNL     1      17.646 -41.641 -24.234  1.00  0.00     0.006 C 
BRANCH  10  11
ATOM     11  C   UNL     1      17.253 -41.264 -22.800  1.00  0.00     0.053 C 
BRANCH  11  12
ATOM     12  C   UNL     1      15.843 -41.674 -22.519  1.00  0.00     0.041 C 
ATOM     13  O   UNL     1      15.080 -42.005 -23.464  1.00  0.00    -0.550 OA
ATOM     14  O   UNL     1      15.355 -41.644 -21.219  1.00  0.00    -0.550 OA
ENDBRANCH  11  12
ENDBRANCH  10  11
ENDBRANCH   9  10
ENDBRANCH   8   9
ENDBRANCH   1   8
TORSDOF 9
ENDMDL
MODEL 5
REMARK VINA RESULT:    -4.820     10.505     13.871
REMARK INTER + INTRA:          -7.689
REMARK INTER:                  -6.895
REMARK INTRA:                  -0.794
REMARK UNBOUND:                -0.333
REMARK SMILES O=C([O-])CCCCCCCCC(=O)[O-]
REMARK SMILES IDX 7 1 6 2 5 3 4 4 2 5 1 6 3 7 8 8 9 9 10 10 11 11 12 12 13 13
REMARK SMILES IDX 14 14
REMARK H PARENT
REMARK Flexibility Score: inf
ROOT
ATOM      1  C   UNL     1      16.460 -41.901 -23.668  1.00  0.00     0.000 C 
ENDROOT
BRANCH   1   2
ATOM      2  C   UNL     1      16.618 -41.061 -22.387  1.00  0.00     0.000 C 
BRANCH   2   3
ATOM      3  C   UNL     1      15.833 -41.641 -21.196  1.00  0.00     0.006 C 
BRANCH   3   4
ATOM      4  C   UNL     1      16.710 -42.048 -20.001  1.00  0.00     0.053 C 
BRANCH   4   5
ATOM      5  C   UNL     1      16.009 -41.839 -18.694  1.00  0.00     0.041 C 
ATOM      6  O   UNL     1      16.645 -41.937 -17.611  1.00  0.00    -0.550 OA
ATOM      7  O   UNL     1      14.646 -41.569 -18.669  1.00  0.00    -0.550 OA
ENDBRANCH   4   5
ENDBRANCH   3   4
ENDBRANCH   2   3
ENDBRANCH   1   2
BRANCH   1   8
ATOM      8  C   UNL     1      17.695 -42.767 -23.964  1.00  0.00     0.000 C 
BRANCH   8   9
ATOM      9  C   UNL     1      17.333 -44.240 -24.221  1.00  0.00     0.000 C 
BRANCH   9  10
ATOM     10  C   UNL     1      16.580 -44.876 -23.042  1.00  0.00     0.006 C 
BRANCH  10  11
ATOM     11  C   UNL     1      17.493 -45.174 -21.847  1.00  0.00     0.053 C 
BRANCH  11  12
ATOM     12  C   UNL     1      17.905 -46.612 -21.850  1.00  0.00     0.041 C 
ATOM     13  O   UNL     1      17.038 -47.519 -21.949  1.00  0.00    -0.550 OA
ATOM     14  O   UNL     1      19.243 -46.952 -21.694  1.00  0.00    -0.550 OA
ENDBRANCH  11  12
ENDBRANCH  10  11
ENDBRANCH   9  10
ENDBRANCH   8   9
ENDBRANCH   1   8
TORSDOF 9
ENDMDL
MODEL 6
REMARK VINA RESULT:    -4.736      0.565      7.956
REMARK INTER + INTRA:          -7.560
REMARK INTER:                  -7.258
REMARK INTRA:                  -0.302
REMARK UNBOUND:                -0.333
REMARK SMILES O=C([O-])CCCCCCCCC(=O)[O-]
REMARK SMILES IDX 7 1 6 2 5 3 4 4 2 5 1 6 3 7 8 8 9 9 10 10 11 11 12 12 13 13
REMARK SMILES IDX 14 14
REMARK H PARENT
REMARK Flexibility Score: inf
ROOT
ATOM      1  C   UNL     1      19.790 -48.281 -32.646  1.00  0.00     0.000 C 
ENDROOT
BRANCH   1   2
ATOM      2  C   UNL     1      18.958 -48.539 -31.376  1.00  0.00     0.000 C 
BRANCH   2   3
ATOM      3  C   UNL     1      18.223 -47.280 -30.882  1.00  0.00     0.006 C 
BRANCH   3   4
ATOM      4  C   UNL     1      17.590 -47.426 -29.488  1.00  0.00     0.053 C 
BRANCH   4   5
ATOM      5  C   UNL     1      17.653 -46.150 -28.707  1.00  0.00     0.041 C 
ATOM      6  O   UNL     1      17.983 -46.166 -27.491  1.00  0.00    -0.550 OA
ATOM      7  O   UNL     1      17.314 -44.945 -29.311  1.00  0.00    -0.550 OA
ENDBRANCH   4   5
ENDBRANCH   3   4
ENDBRANCH   2   3
ENDBRANCH   1   2
BRANCH   1   8
ATOM      8  C   UNL     1      20.386 -49.569 -33.236  1.00  0.00     0.000 C 
BRANCH   8   9
ATOM      9  C   UNL     1      19.888 -50.833 -32.515  1.00  0.00     0.000 C 
BRANCH   9  10
ATOM     10  C   UNL     1      20.966 -51.924 -32.426  1.00  0.00     0.006 C 
BRANCH  10  11
ATOM     11  C   UNL     1      21.242 -52.598 -33.776  1.00  0.00     0.053 C 
BRANCH  11  12
ATOM     12  C   UNL     1      20.652 -53.972 -33.803  1.00  0.00     0.041 C 
ATOM     13  O   UNL     1      19.514 -54.183 -33.308  1.00  0.00    -0.550 OA
ATOM     14  O   UNL     1      21.380 -55.031 -34.331  1.00  0.00    -0.550 OA
ENDBRANCH  11  12
ENDBRANCH  10  11
ENDBRANCH   9  10
ENDBRANCH   8   9
ENDBRANCH   1   8
TORSDOF 9
ENDMDL
MODEL 7
REMARK VINA RESULT:    -4.674     10.726     12.409
REMARK INTER + INTRA:          -7.466
REMARK INTER:                  -6.842
REMARK INTRA:                  -0.623
REMARK UNBOUND:                -0.333
REMARK SMILES O=C([O-])CCCCCCCCC(=O)[O-]
REMARK SMILES IDX 7 1 6 2 5 3 4 4 2 5 1 6 3 7 8 8 9 9 10 10 11 11 12 12 13 13
REMARK SMILES IDX 14 14
REMARK H PARENT
REMARK Flexibility Score: inf
ROOT
ATOM      1  C   UNL     1      16.114 -43.675 -23.079  1.00  0.00     0.000 C 
ENDROOT
BRANCH   1   2
ATOM      2  C   UNL     1      17.504 -44.336 -23.100  1.00  0.00     0.000 C 
BRANCH   2   3
ATOM      3  C   UNL     1      17.825 -45.084 -21.793  1.00  0.00     0.006 C 
BRANCH   3   4
ATOM      4  C   UNL     1      18.673 -46.353 -21.984  1.00  0.00     0.053 C 
BRANCH   4   5
ATOM      5  C   UNL     1      17.853 -47.600 -21.865  1.00  0.00     0.041 C 
ATOM      6  O   UNL     1      18.415 -48.714 -21.695  1.00  0.00    -0.550 OA
ATOM      7  O   UNL     1      16.469 -47.537 -21.976  1.00  0.00    -0.550 OA
ENDBRANCH   4   5
ENDBRANCH   3   4
ENDBRANCH   2   3
ENDBRANCH   1   2
BRANCH   1   8
ATOM      8  C   UNL     1      16.155 -42.196 -23.495  1.00  0.00     0.000 C 
BRANCH   8   9
ATOM      9  C   UNL     1      16.486 -41.262 -22.319  1.00  0.00     0.000 C 
BRANCH   9  10
ATOM     10  C   UNL     1      15.700 -41.616 -21.046  1.00  0.00     0.006 C 
BRANCH  10  11
ATOM     11  C   UNL     1      16.611 -41.858 -19.836  1.00  0.00     0.053 C 
BRANCH  11  12
ATOM     12  C   UNL     1      15.812 -41.846 -18.571  1.00  0.00     0.041 C 
ATOM     13  O   UNL     1      16.363 -42.118 -17.472  1.00  0.00    -0.550 OA
ATOM     14  O   UNL     1      14.449 -41.583 -18.612  1.00  0.00    -0.550 OA
ENDBRANCH  11  12
ENDBRANCH  10  11
ENDBRANCH   9  10
ENDBRANCH   8   9
ENDBRANCH   1   8
TORSDOF 9
ENDMDL
MODEL 8
REMARK VINA RESULT:    -4.636      9.861     11.022
REMARK INTER + INTRA:          -7.408
REMARK INTER:                  -6.631
REMARK INTRA:                  -0.777
REMARK UNBOUND:                -0.333
REMARK SMILES O=C([O-])CCCCCCCCC(=O)[O-]
REMARK SMILES IDX 7 1 6 2 5 3 4 4 2 5 1 6 3 7 8 8 9 9 10 10 11 11 12 12 13 13
REMARK SMILES IDX 14 14
REMARK H PARENT
REMARK Flexibility Score: inf
ROOT
ATOM      1  C   UNL     1      17.758 -45.525 -24.430  1.00  0.00     0.000 C 
ENDROOT
BRANCH   1   2
ATOM      2  C   UNL     1      16.818 -45.313 -23.230  1.00  0.00     0.000 C 
BRANCH   2   3
ATOM      3  C   UNL     1      17.346 -45.966 -21.939  1.00  0.00     0.006 C 
BRANCH   3   4
ATOM      4  C   UNL     1      18.502 -46.956 -22.160  1.00  0.00     0.053 C 
BRANCH   4   5
ATOM      5  C   UNL     1      19.784 -46.465 -21.564  1.00  0.00     0.041 C 
ATOM      6  O   UNL     1      19.993 -45.229 -21.439  1.00  0.00    -0.550 OA
ATOM      7  O   UNL     1      20.766 -47.370 -21.178  1.00  0.00    -0.550 OA
ENDBRANCH   4   5
ENDBRANCH   3   4
ENDBRANCH   2   3
ENDBRANCH   1   2
BRANCH   1   8
ATOM      8  C   UNL     1      18.204 -44.203 -25.075  1.00  0.00     0.000 C 
BRANCH   8   9
ATOM      9  C   UNL     1      18.479 -43.104 -24.035  1.00  0.00     0.000 C 
BRANCH   9  10
ATOM     10  C   UNL     1      17.624 -41.848 -24.264  1.00  0.00     0.006 C 
BRANCH  10  11
ATOM     11  C   UNL     1      17.144 -41.210 -22.955  1.00  0.00     0.053 C 
BRANCH  11  12
ATOM     12  C   UNL     1      15.786 -41.720 -22.593  1.00  0.00     0.041 C 
ATOM     13  O   UNL     1      15.005 -42.133 -23.489  1.00  0.00    -0.550 OA
ATOM     14  O   UNL     1      15.362 -41.693 -21.270  1.00  0.00    -0.550 OA
ENDBRANCH  11  12
ENDBRANCH  10  11
ENDBRANCH   9  10
ENDBRANCH   8   9
ENDBRANCH   1   8
TORSDOF 9
ENDMDL
MODEL 9
REMARK VINA RESULT:    -4.612      9.353     11.261
REMARK INTER + INTRA:          -7.371
REMARK INTER:                  -6.367
REMARK INTRA:                  -1.004
REMARK UNBOUND:                -0.333
REMARK SMILES O=C([O-])CCCCCCCCC(=O)[O-]
REMARK SMILES IDX 7 1 6 2 5 3 4 4 2 5 1 6 3 7 8 8 9 9 10 10 11 11 12 12 13 13
REMARK SMILES IDX 14 14
REMARK H PARENT
REMARK Flexibility Score: inf
ROOT
ATOM      1  C   UNL     1      16.320 -41.538 -23.470  1.00  0.00     0.000 C 
ENDROOT
BRANCH   1   2
ATOM      2  C   UNL     1      15.637 -42.826 -22.974  1.00  0.00     0.000 C 
BRANCH   2   3
ATOM      3  C   UNL     1      16.647 -43.922 -22.588  1.00  0.00     0.006 C 
BRANCH   3   4
ATOM      4  C   UNL     1      16.245 -45.336 -23.039  1.00  0.00     0.053 C 
BRANCH   4   5
ATOM      5  C   UNL     1      16.794 -46.392 -22.131  1.00  0.00     0.041 C 
ATOM      6  O   UNL     1      16.105 -47.409 -21.851  1.00  0.00    -0.550 OA
ATOM      7  O   UNL     1      18.054 -46.238 -21.564  1.00  0.00    -0.550 OA
ENDBRANCH   4   5
ENDBRANCH   3   4
ENDBRANCH   2   3
ENDBRANCH   1   2
BRANCH   1   8
ATOM      8  C   UNL     1      17.851 -41.594 -23.347  1.00  0.00     0.000 C 
BRANCH   8   9
ATOM      9  C   UNL     1      18.560 -41.365 -24.693  1.00  0.00     0.000 C 
BRANCH   9  10
ATOM     10  C   UNL     1      19.679 -42.386 -24.950  1.00  0.00     0.006 C 
BRANCH  10  11
ATOM     11  C   UNL     1      19.142 -43.775 -25.319  1.00  0.00     0.053 C 
BRANCH  11  12
ATOM     12  C   UNL     1      19.703 -44.812 -24.400  1.00  0.00     0.041 C 
ATOM     13  O   UNL     1      19.567 -46.035 -24.666  1.00  0.00    -0.550 OA
ATOM     14  O   UNL     1      20.336 -44.431 -23.223  1.00  0.00    -0.550 OA
ENDBRANCH  11  12
ENDBRANCH  10  11
ENDBRANCH   9  10
ENDBRANCH   8   9
ENDBRANCH   1   8
TORSDOF 9
ENDMDL
