MODEL 1
REMARK VINA RESULT:    -5.525      0.000      0.000
REMARK INTER + INTRA:          -7.088
REMARK INTER:                  -6.656
REMARK INTRA:                  -0.432
REMARK UNBOUND:                -0.432
REMARK SMILES CCCCc1oc(O)c2ccccc12
REMARK SMILES IDX 4 1 5 2 7 3 6 4 9 5 14 6 10 7 13 8 11 9 12 10 8 11 3 13 2 14
REMARK SMILES IDX 1 15
REMARK H PARENT 8 12
REMARK Flexibility Score: inf
ROOT
ATOM      1  C   UNL     1       9.526 -13.410  -5.294  1.00  0.00     0.076 C 
ENDROOT
BRANCH   1   2
ATOM      2  C   UNL     1       8.209 -14.118  -5.364  1.00  0.00     0.116 A 
ATOM      3  C   UNL     1       6.715 -15.533  -5.967  1.00  0.00     0.290 A 
ATOM      4  O   UNL     1       7.953 -15.127  -6.179  1.00  0.00    -0.430 OA
ATOM      5  C   UNL     1       6.138 -14.771  -4.979  1.00  0.00     0.066 A 
ATOM      6  C   UNL     1       7.089 -13.867  -4.589  1.00  0.00     0.027 A 
ATOM      7  C   UNL     1       4.872 -14.809  -4.397  1.00  0.00     0.016 A 
ATOM      8  C   UNL     1       6.847 -12.935  -3.581  1.00  0.00     0.012 A 
ATOM      9  C   UNL     1       4.595 -13.879  -3.377  1.00  0.00     0.001 A 
ATOM     10  C   UNL     1       5.577 -12.947  -2.971  1.00  0.00     0.001 A 
BRANCH   3  11
ATOM     11  O   UNL     1       6.104 -16.579  -6.649  1.00  0.00    -0.480 OA
ATOM     12  H   UNL     1       6.044 -17.499  -6.229  1.00  0.00     0.297 HD
ENDBRANCH   3  11
ENDBRANCH   1   2
BRANCH   1  13
ATOM     13  C   UNL     1      10.590 -14.320  -4.667  1.00  0.00     0.008 C 
BRANCH  13  14
ATOM     14  C   UNL     1      10.036 -15.162  -3.507  1.00  0.00    -0.003 C 
ATOM     15  C   UNL     1      10.083 -14.422  -2.169  1.00  0.00     0.004 C 
ENDBRANCH  13  14
ENDBRANCH   1  13
TORSDOF 4
ENDMDL
MODEL 2
REMARK VINA RESULT:    -5.407      1.415      4.307
REMARK INTER + INTRA:          -6.946
REMARK INTER:                  -6.692
REMARK INTRA:                  -0.254
REMARK UNBOUND:                -0.432
REMARK SMILES CCCCc1oc(O)c2ccccc12
REMARK SMILES IDX 4 1 5 2 7 3 6 4 9 5 14 6 10 7 13 8 11 9 12 10 8 11 3 13 2 14
REMARK SMILES IDX 1 15
REMARK H PARENT 8 12
REMARK Flexibility Score: inf
ROOT
ATOM      1  C   UNL     1       5.328 -13.080  -4.164  1.00  0.00     0.076 C 
ENDROOT
BRANCH   1   2
ATOM      2  C   UNL     1       6.387 -14.089  -4.483  1.00  0.00     0.116 A 
ATOM      3  C   UNL     1       7.369 -15.745  -5.427  1.00  0.00     0.290 A 
ATOM      4  O   UNL     1       6.246 -15.055  -5.374  1.00  0.00    -0.430 OA
ATOM      5  C   UNL     1       8.283 -15.214  -4.547  1.00  0.00     0.066 A 
ATOM      6  C   UNL     1       7.660 -14.155  -3.943  1.00  0.00     0.027 A 
ATOM      7  C   UNL     1       9.595 -15.572  -4.243  1.00  0.00     0.016 A 
ATOM      8  C   UNL     1       8.308 -13.368  -2.991  1.00  0.00     0.012 A 
ATOM      9  C   UNL     1      10.276 -14.798  -3.283  1.00  0.00     0.001 A 
ATOM     10  C   UNL     1       9.636 -13.702  -2.661  1.00  0.00     0.001 A 
BRANCH   3  11
ATOM     11  O   UNL     1       7.582 -16.839  -6.258  1.00  0.00    -0.480 OA
ATOM     12  H   UNL     1       7.682 -16.711  -7.258  1.00  0.00     0.297 HD
ENDBRANCH   3  11
ENDBRANCH   1   2
BRANCH   1  13
ATOM     13  C   UNL     1       4.260 -13.060  -5.265  1.00  0.00     0.008 C 
BRANCH  13  14
ATOM     14  C   UNL     1       2.946 -13.723  -4.822  1.00  0.00    -0.003 C 
ATOM     15  C   UNL     1       2.962 -14.135  -3.350  1.00  0.00     0.004 C 
ENDBRANCH  13  14
ENDBRANCH   1  13
TORSDOF 4
ENDMDL
MODEL 3
REMARK VINA RESULT:    -5.368      1.892      4.624
REMARK INTER + INTRA:          -6.898
REMARK INTER:                  -6.411
REMARK INTRA:                  -0.487
REMARK UNBOUND:                -0.432
REMARK SMILES CCCCc1oc(O)c2ccccc12
REMARK SMILES IDX 4 1 5 2 7 3 6 4 9 5 14 6 10 7 13 8 11 9 12 10 8 11 3 13 2 14
REMARK SMILES IDX 1 15
REMARK H PARENT 8 12
REMARK Flexibility Score: inf
ROOT
ATOM      1  C   UNL     1       6.200 -13.929  -3.447  1.00  0.00     0.076 C 
ENDROOT
BRANCH   1   2
ATOM      2  C   UNL     1       7.494 -14.376  -4.053  1.00  0.00     0.116 A 
ATOM      3  C   UNL     1       9.448 -15.245  -4.210  1.00  0.00     0.290 A 
ATOM      4  O   UNL     1       8.467 -14.957  -3.374  1.00  0.00    -0.430 OA
ATOM      5  C   UNL     1       9.107 -14.845  -5.481  1.00  0.00     0.066 A 
ATOM      6  C   UNL     1       7.859 -14.292  -5.385  1.00  0.00     0.027 A 
ATOM      7  C   UNL     1       9.786 -14.933  -6.695  1.00  0.00     0.016 A 
ATOM      8  C   UNL     1       7.192 -13.788  -6.502  1.00  0.00     0.012 A 
ATOM      9  C   UNL     1       9.140 -14.430  -7.841  1.00  0.00     0.001 A 
ATOM     10  C   UNL     1       7.850 -13.862  -7.745  1.00  0.00     0.001 A 
BRANCH   3  11
ATOM     11  O   UNL     1      10.637 -15.864  -3.843  1.00  0.00    -0.480 OA
ATOM     12  H   UNL     1      11.342 -15.353  -3.325  1.00  0.00     0.297 HD
ENDBRANCH   3  11
ENDBRANCH   1   2
BRANCH   1  13
ATOM     13  C   UNL     1       5.205 -15.096  -3.389  1.00  0.00     0.008 C 
BRANCH  13  14
ATOM     14  C   UNL     1       4.339 -15.195  -4.654  1.00  0.00    -0.003 C 
ATOM     15  C   UNL     1       3.541 -13.919  -4.922  1.00  0.00     0.004 C 
ENDBRANCH  13  14
ENDBRANCH   1  13
TORSDOF 4
ENDMDL
MODEL 4
REMARK VINA RESULT:    -5.161      9.839     11.507
REMARK INTER + INTRA:          -6.649
REMARK INTER:                  -6.281
REMARK INTRA:                  -0.367
REMARK UNBOUND:                -0.432
REMARK SMILES CCCCc1oc(O)c2ccccc12
REMARK SMILES IDX 4 1 5 2 7 3 6 4 9 5 14 6 10 7 13 8 11 9 12 10 8 11 3 13 2 14
REMARK SMILES IDX 1 15
REMARK H PARENT 8 12
REMARK Flexibility Score: inf
ROOT
ATOM      1  C   UNL     1       1.550 -23.795   1.032  1.00  0.00     0.076 C 
ENDROOT
BRANCH   1   2
ATOM      2  C   UNL     1       2.400 -23.168  -0.029  1.00  0.00     0.116 A 
ATOM      3  C   UNL     1       4.103 -22.269  -0.973  1.00  0.00     0.290 A 
ATOM      4  O   UNL     1       3.634 -22.738   0.168  1.00  0.00    -0.430 OA
ATOM      5  C   UNL     1       3.148 -22.397  -1.955  1.00  0.00     0.066 A 
ATOM      6  C   UNL     1       2.060 -22.972  -1.357  1.00  0.00     0.027 A 
ATOM      7  C   UNL     1       3.158 -22.063  -3.309  1.00  0.00     0.016 A 
ATOM      8  C   UNL     1       0.898 -23.264  -2.072  1.00  0.00     0.012 A 
ATOM      9  C   UNL     1       1.999 -22.343  -4.057  1.00  0.00     0.001 A 
ATOM     10  C   UNL     1       0.876 -22.941  -3.442  1.00  0.00     0.001 A 
BRANCH   3  11
ATOM     11  O   UNL     1       5.374 -21.732  -1.140  1.00  0.00    -0.480 OA
ATOM     12  H   UNL     1       6.196 -22.302  -0.978  1.00  0.00     0.297 HD
ENDBRANCH   3  11
ENDBRANCH   1   2
BRANCH   1  13
ATOM     13  C   UNL     1       1.264 -25.262   0.689  1.00  0.00     0.008 C 
BRANCH  13  14
ATOM     14  C   UNL     1       2.540 -26.048   0.349  1.00  0.00    -0.003 C 
ATOM     15  C   UNL     1       2.296 -27.148  -0.684  1.00  0.00     0.004 C 
ENDBRANCH  13  14
ENDBRANCH   1  13
TORSDOF 4
ENDMDL
MODEL 5
REMARK VINA RESULT:    -5.144      2.365      3.819
REMARK INTER + INTRA:          -6.628
REMARK INTER:                  -6.101
REMARK INTRA:                  -0.527
REMARK UNBOUND:                -0.432
REMARK SMILES CCCCc1oc(O)c2ccccc12
REMARK SMILES IDX 4 1 5 2 7 3 6 4 9 5 14 6 10 7 13 8 11 9 12 10 8 11 3 13 2 14
REMARK SMILES IDX 1 15
REMARK H PARENT 8 12
REMARK Flexibility Score: inf
ROOT
ATOM      1  C   UNL     1      10.663 -14.741  -6.497  1.00  0.00     0.076 C 
ENDROOT
BRANCH   1   2
ATOM      2  C   UNL     1       9.922 -14.519  -5.216  1.00  0.00     0.116 A 
ATOM      3  C   UNL     1       9.554 -14.001  -3.168  1.00  0.00     0.290 A 
ATOM      4  O   UNL     1      10.490 -14.123  -4.090  1.00  0.00    -0.430 OA
ATOM      5  C   UNL     1       8.329 -14.321  -3.704  1.00  0.00     0.066 A 
ATOM      6  C   UNL     1       8.559 -14.651  -5.012  1.00  0.00     0.027 A 
ATOM      7  C   UNL     1       7.050 -14.339  -3.150  1.00  0.00     0.016 A 
ATOM      8  C   UNL     1       7.522 -15.018  -5.869  1.00  0.00     0.012 A 
ATOM      9  C   UNL     1       5.982 -14.709  -3.989  1.00  0.00     0.001 A 
ATOM     10  C   UNL     1       6.216 -15.046  -5.342  1.00  0.00     0.001 A 
BRANCH   3  11
ATOM     11  O   UNL     1       9.790 -13.602  -1.857  1.00  0.00    -0.480 OA
ATOM     12  H   UNL     1       9.620 -12.645  -1.574  1.00  0.00     0.297 HD
ENDBRANCH   3  11
ENDBRANCH   1   2
BRANCH   1  13
ATOM     13  C   UNL     1      10.927 -13.404  -7.201  1.00  0.00     0.008 C 
BRANCH  13  14
ATOM     14  C   UNL     1       9.831 -13.046  -8.217  1.00  0.00    -0.003 C 
ATOM     15  C   UNL     1       9.351 -14.258  -9.016  1.00  0.00     0.004 C 
ENDBRANCH  13  14
ENDBRANCH   1  13
TORSDOF 4
ENDMDL
MODEL 6
REMARK VINA RESULT:    -5.035     10.269     12.033
REMARK INTER + INTRA:          -6.498
REMARK INTER:                  -6.327
REMARK INTRA:                  -0.170
REMARK UNBOUND:                -0.432
REMARK SMILES CCCCc1oc(O)c2ccccc12
REMARK SMILES IDX 4 1 5 2 7 3 6 4 9 5 14 6 10 7 13 8 11 9 12 10 8 11 3 13 2 14
REMARK SMILES IDX 1 15
REMARK H PARENT 8 12
REMARK Flexibility Score: inf
ROOT
ATOM      1  C   UNL     1       1.211 -22.305   2.092  1.00  0.00     0.076 C 
ENDROOT
BRANCH   1   2
ATOM      2  C   UNL     1       1.467 -22.585   0.643  1.00  0.00     0.116 A 
ATOM      3  C   UNL     1       1.862 -22.233  -1.435  1.00  0.00     0.290 A 
ATOM      4  O   UNL     1       1.630 -21.648  -0.274  1.00  0.00    -0.430 OA
ATOM      5  C   UNL     1       1.857 -23.599  -1.275  1.00  0.00     0.066 A 
ATOM      6  C   UNL     1       1.606 -23.828   0.050  1.00  0.00     0.027 A 
ATOM      7  C   UNL     1       2.058 -24.640  -2.181  1.00  0.00     0.016 A 
ATOM      8  C   UNL     1       1.544 -25.120   0.573  1.00  0.00     0.012 A 
ATOM      9  C   UNL     1       1.999 -25.956  -1.684  1.00  0.00     0.001 A 
ATOM     10  C   UNL     1       1.744 -26.194  -0.315  1.00  0.00     0.001 A 
BRANCH   3  11
ATOM     11  O   UNL     1       2.081 -21.554  -2.627  1.00  0.00    -0.480 OA
ATOM     12  H   UNL     1       1.308 -21.341  -3.246  1.00  0.00     0.297 HD
ENDBRANCH   3  11
ENDBRANCH   1   2
BRANCH   1  13
ATOM     13  C   UNL     1       0.955 -20.809   2.310  1.00  0.00     0.008 C 
BRANCH  13  14
ATOM     14  C   UNL     1       0.921 -20.428   3.798  1.00  0.00    -0.003 C 
ATOM     15  C   UNL     1       0.878 -18.915   4.017  1.00  0.00     0.004 C 
ENDBRANCH  13  14
ENDBRANCH   1  13
TORSDOF 4
ENDMDL
MODEL 7
REMARK VINA RESULT:    -4.991     10.290     11.946
REMARK INTER + INTRA:          -6.444
REMARK INTER:                  -6.294
REMARK INTRA:                  -0.150
REMARK UNBOUND:                -0.432
REMARK SMILES CCCCc1oc(O)c2ccccc12
REMARK SMILES IDX 4 1 5 2 7 3 6 4 9 5 14 6 10 7 13 8 11 9 12 10 8 11 3 13 2 14
REMARK SMILES IDX 1 15
REMARK H PARENT 8 12
REMARK Flexibility Score: inf
ROOT
ATOM      1  C   UNL     1       2.962 -22.007  -2.175  1.00  0.00     0.076 C 
ENDROOT
BRANCH   1   2
ATOM      2  C   UNL     1       2.955 -22.980  -1.038  1.00  0.00     0.116 A 
ATOM      3  C   UNL     1       3.361 -23.823   0.892  1.00  0.00     0.290 A 
ATOM      4  O   UNL     1       3.597 -22.793   0.102  1.00  0.00    -0.430 OA
ATOM      5  C   UNL     1       2.532 -24.717   0.254  1.00  0.00     0.066 A 
ATOM      6  C   UNL     1       2.269 -24.181  -0.978  1.00  0.00     0.027 A 
ATOM      7  C   UNL     1       1.992 -25.936   0.662  1.00  0.00     0.016 A 
ATOM      8  C   UNL     1       1.438 -24.824  -1.895  1.00  0.00     0.012 A 
ATOM      9  C   UNL     1       1.151 -26.610  -0.244  1.00  0.00     0.001 A 
ATOM     10  C   UNL     1       0.875 -26.057  -1.515  1.00  0.00     0.001 A 
BRANCH   3  11
ATOM     11  O   UNL     1       3.877 -23.966   2.175  1.00  0.00    -0.480 OA
ATOM     12  H   UNL     1       3.259 -23.986   2.977  1.00  0.00     0.297 HD
ENDBRANCH   3  11
ENDBRANCH   1   2
BRANCH   1  13
ATOM     13  C   UNL     1       1.527 -21.672  -2.601  1.00  0.00     0.008 C 
BRANCH  13  14
ATOM     14  C   UNL     1       1.371 -21.585  -4.127  1.00  0.00    -0.003 C 
ATOM     15  C   UNL     1       2.707 -21.694  -4.863  1.00  0.00     0.004 C 
ENDBRANCH  13  14
ENDBRANCH   1  13
TORSDOF 4
ENDMDL
MODEL 8
REMARK VINA RESULT:    -4.986     10.416     12.056
REMARK INTER + INTRA:          -6.439
REMARK INTER:                  -6.203
REMARK INTRA:                  -0.236
REMARK UNBOUND:                -0.432
REMARK SMILES CCCCc1oc(O)c2ccccc12
REMARK SMILES IDX 4 1 5 2 7 3 6 4 9 5 14 6 10 7 13 8 11 9 12 10 8 11 3 13 2 14
REMARK SMILES IDX 1 15
REMARK H PARENT 8 12
REMARK Flexibility Score: inf
ROOT
ATOM      1  C   UNL     1       2.255 -22.636   2.022  1.00  0.00     0.076 C 
ENDROOT
BRANCH   1   2
ATOM      2  C   UNL     1       1.987 -23.555   0.871  1.00  0.00     0.116 A 
ATOM      3  C   UNL     1       1.366 -25.301  -0.207  1.00  0.00     0.290 A 
ATOM      4  O   UNL     1       1.508 -24.780   0.997  1.00  0.00    -0.430 OA
ATOM      5  C   UNL     1       1.759 -24.388  -1.158  1.00  0.00     0.066 A 
ATOM      6  C   UNL     1       2.155 -23.271  -0.474  1.00  0.00     0.027 A 
ATOM      7  C   UNL     1       1.791 -24.453  -2.550  1.00  0.00     0.016 A 
ATOM      8  C   UNL     1       2.607 -22.128  -1.133  1.00  0.00     0.012 A 
ATOM      9  C   UNL     1       2.245 -23.316  -3.245  1.00  0.00     0.001 A 
ATOM     10  C   UNL     1       2.651 -22.160  -2.540  1.00  0.00     0.001 A 
BRANCH   3  11
ATOM     11  O   UNL     1       0.885 -26.581  -0.458  1.00  0.00    -0.480 OA
ATOM     12  H   UNL     1      -0.106 -26.779  -0.392  1.00  0.00     0.297 HD
ENDBRANCH   3  11
ENDBRANCH   1   2
BRANCH   1  13
ATOM     13  C   UNL     1       1.018 -21.782   2.325  1.00  0.00     0.008 C 
BRANCH  13  14
ATOM     14  C   UNL     1       1.060 -21.161   3.729  1.00  0.00    -0.003 C 
ATOM     15  C   UNL     1       1.003 -19.633   3.699  1.00  0.00     0.004 C 
ENDBRANCH  13  14
ENDBRANCH   1  13
TORSDOF 4
ENDMDL
