MODEL 1
REMARK VINA RESULT:    -6.924      0.000      0.000
REMARK INTER + INTRA:         -12.008
REMARK INTER:                 -10.770
REMARK INTRA:                  -1.238
REMARK UNBOUND:                -1.238
REMARK SMILES COc1cc(CNC(=O)CCCCC=CC(C)C)ccc1O
REMARK SMILES IDX 11 1 12 2 13 3 14 4 15 5 16 6 17 7 18 8 10 9 8 10 9 11 7 12
REMARK SMILES IDX 6 14 5 15 4 16 19 17 3 18 20 19 21 20 2 21 1 22 22 23
REMARK H PARENT 7 13 22 24
REMARK Flexibility Score: inf
ROOT
ATOM      1  C   UNL     1     -25.020 -24.222 -14.408  1.00  0.00     0.010 C 
ENDROOT
BRANCH   1   2
ATOM      2  C   UNL     1     -26.081 -23.106 -14.304  1.00  0.00     0.005 C 
BRANCH   2   3
ATOM      3  C   UNL     1     -26.584 -22.890 -12.867  1.00  0.00     0.027 C 
BRANCH   3   4
ATOM      4  C   UNL     1     -26.280 -21.492 -12.405  1.00  0.00    -0.031 C 
ATOM      5  C   UNL     1     -26.799 -21.001 -11.267  1.00  0.00    -0.028 C 
BRANCH   5   6
ATOM      6  C   UNL     1     -26.487 -19.611 -10.762  1.00  0.00     0.005 C 
ATOM      7  C   UNL     1     -25.329 -19.614  -9.755  1.00  0.00     0.012 C 
ATOM      8  C   UNL     1     -27.736 -18.949 -10.169  1.00  0.00     0.012 C 
ENDBRANCH   5   6
ENDBRANCH   3   4
ENDBRANCH   2   3
ENDBRANCH   1   2
BRANCH   1   9
ATOM      9  C   UNL     1     -23.588 -23.717 -14.667  1.00  0.00     0.100 C 
BRANCH   9  10
ATOM     10  C   UNL     1     -23.163 -22.678 -13.667  1.00  0.00     0.220 C 
ATOM     11  O   UNL     1     -23.085 -22.987 -12.444  1.00  0.00    -0.275 OA
ATOM     12  N   UNL     1     -22.861 -21.343 -14.101  1.00  0.00    -0.352 N 
ATOM     13  H   UNL     1     -22.887 -21.122 -15.122  1.00  0.00     0.163 HD
BRANCH  12  14
ATOM     14  C   UNL     1     -22.741 -20.229 -13.164  1.00  0.00     0.151 C 
BRANCH  14  15
ATOM     15  C   UNL     1     -23.485 -19.035 -13.697  1.00  0.00    -0.025 A 
ATOM     16  C   UNL     1     -22.791 -17.855 -14.008  1.00  0.00     0.056 A 
ATOM     17  C   UNL     1     -24.862 -19.110 -13.947  1.00  0.00     0.009 A 
ATOM     18  C   UNL     1     -23.474 -16.744 -14.540  1.00  0.00     0.160 A 
ATOM     19  C   UNL     1     -25.545 -18.013 -14.471  1.00  0.00     0.050 A 
ATOM     20  C   UNL     1     -24.858 -16.826 -14.757  1.00  0.00     0.157 A 
BRANCH  18  21
ATOM     21  O   UNL     1     -22.814 -15.550 -14.874  1.00  0.00    -0.493 OA
ATOM     22  C   UNL     1     -21.858 -14.894 -14.043  1.00  0.00     0.278 C 
ENDBRANCH  18  21
BRANCH  20  23
ATOM     23  O   UNL     1     -25.542 -15.720 -15.259  1.00  0.00    -0.504 OA
ATOM     24  H   UNL     1     -25.932 -15.014 -14.643  1.00  0.00     0.293 HD
ENDBRANCH  20  23
ENDBRANCH  14  15
ENDBRANCH  12  14
ENDBRANCH   9  10
ENDBRANCH   1   9
TORSDOF 10
ENDMDL
MODEL 2
REMARK VINA RESULT:    -6.806      2.674      7.182
REMARK INTER + INTRA:         -11.824
REMARK INTER:                 -11.361
REMARK INTRA:                  -0.464
REMARK UNBOUND:                -1.238
REMARK SMILES COc1cc(CNC(=O)CCCCC=CC(C)C)ccc1O
REMARK SMILES IDX 11 1 12 2 13 3 14 4 15 5 16 6 17 7 18 8 10 9 8 10 9 11 7 12
REMARK SMILES IDX 6 14 5 15 4 16 19 17 3 18 20 19 21 20 2 21 1 22 22 23
REMARK H PARENT 7 13 22 24
REMARK Flexibility Score: inf
ROOT
ATOM      1  C   UNL     1     -22.500 -16.074 -13.805  1.00  0.00     0.010 C 
ENDROOT
BRANCH   1   2
ATOM      2  C   UNL     1     -21.833 -14.704 -13.564  1.00  0.00     0.005 C 
BRANCH   2   3
ATOM      3  C   UNL     1     -21.655 -13.890 -14.856  1.00  0.00     0.027 C 
BRANCH   3   4
ATOM      4  C   UNL     1     -22.711 -14.256 -15.862  1.00  0.00    -0.031 C 
ATOM      5  C   UNL     1     -24.014 -14.042 -15.621  1.00  0.00    -0.028 C 
BRANCH   5   6
ATOM      6  C   UNL     1     -25.095 -14.372 -16.626  1.00  0.00     0.005 C 
ATOM      7  C   UNL     1     -26.125 -15.357 -16.056  1.00  0.00     0.012 C 
ATOM      8  C   UNL     1     -24.489 -14.895 -17.932  1.00  0.00     0.012 C 
ENDBRANCH   5   6
ENDBRANCH   3   4
ENDBRANCH   2   3
ENDBRANCH   1   2
BRANCH   1   9
ATOM      9  C   UNL     1     -23.710 -16.360 -12.896  1.00  0.00     0.100 C 
BRANCH   9  10
ATOM     10  C   UNL     1     -23.860 -17.825 -12.596  1.00  0.00     0.220 C 
ATOM     11  O   UNL     1     -24.789 -18.213 -11.832  1.00  0.00    -0.275 OA
ATOM     12  N   UNL     1     -22.944 -18.774 -13.166  1.00  0.00    -0.352 N 
ATOM     13  H   UNL     1     -22.212 -18.437 -13.832  1.00  0.00     0.163 HD
BRANCH  12  14
ATOM     14  C   UNL     1     -22.846 -20.149 -12.683  1.00  0.00     0.151 C 
BRANCH  14  15
ATOM     15  C   UNL     1     -23.704 -21.048 -13.531  1.00  0.00    -0.025 A 
ATOM     16  C   UNL     1     -23.641 -22.440 -13.366  1.00  0.00     0.056 A 
ATOM     17  C   UNL     1     -24.617 -20.503 -14.445  1.00  0.00     0.009 A 
ATOM     18  C   UNL     1     -24.466 -23.288 -14.132  1.00  0.00     0.160 A 
ATOM     19  C   UNL     1     -25.435 -21.336 -15.208  1.00  0.00     0.050 A 
ATOM     20  C   UNL     1     -25.354 -22.727 -15.062  1.00  0.00     0.157 A 
BRANCH  18  21
ATOM     21  O   UNL     1     -24.441 -24.685 -13.989  1.00  0.00    -0.493 OA
ATOM     22  C   UNL     1     -23.560 -25.554 -14.699  1.00  0.00     0.278 C 
ENDBRANCH  18  21
BRANCH  20  23
ATOM     23  O   UNL     1     -26.153 -23.564 -15.840  1.00  0.00    -0.504 OA
ATOM     24  H   UNL     1     -26.019 -23.643 -16.843  1.00  0.00     0.293 HD
ENDBRANCH  20  23
ENDBRANCH  14  15
ENDBRANCH  12  14
ENDBRANCH   9  10
ENDBRANCH   1   9
TORSDOF 10
ENDMDL
MODEL 3
REMARK VINA RESULT:    -6.563      1.974      6.135
REMARK INTER + INTRA:         -11.445
REMARK INTER:                 -10.527
REMARK INTRA:                  -0.919
REMARK UNBOUND:                -1.238
REMARK SMILES COc1cc(CNC(=O)CCCCC=CC(C)C)ccc1O
REMARK SMILES IDX 11 1 12 2 13 3 14 4 15 5 16 6 17 7 18 8 10 9 8 10 9 11 7 12
REMARK SMILES IDX 6 14 5 15 4 16 19 17 3 18 20 19 21 20 2 21 1 22 22 23
REMARK H PARENT 7 13 22 24
REMARK Flexibility Score: inf
ROOT
ATOM      1  C   UNL     1     -23.857 -17.754 -12.019  1.00  0.00     0.010 C 
ENDROOT
BRANCH   1   2
ATOM      2  C   UNL     1     -23.387 -19.196 -11.740  1.00  0.00     0.005 C 
BRANCH   2   3
ATOM      3  C   UNL     1     -24.212 -19.894 -10.646  1.00  0.00     0.027 C 
BRANCH   3   4
ATOM      4  C   UNL     1     -25.680 -19.832 -10.969  1.00  0.00    -0.031 C 
ATOM      5  C   UNL     1     -26.556 -19.237 -10.144  1.00  0.00    -0.028 C 
BRANCH   5   6
ATOM      6  C   UNL     1     -28.031 -19.132 -10.457  1.00  0.00     0.005 C 
ATOM      7  C   UNL     1     -28.737 -18.114  -9.553  1.00  0.00     0.012 C 
ATOM      8  C   UNL     1     -28.708 -20.505 -10.382  1.00  0.00     0.012 C 
ENDBRANCH   5   6
ENDBRANCH   3   4
ENDBRANCH   2   3
ENDBRANCH   1   2
BRANCH   1   9
ATOM      9  C   UNL     1     -23.854 -17.360 -13.507  1.00  0.00     0.100 C 
BRANCH   9  10
ATOM     10  C   UNL     1     -24.783 -18.216 -14.322  1.00  0.00     0.220 C 
ATOM     11  O   UNL     1     -25.866 -17.726 -14.751  1.00  0.00    -0.275 OA
ATOM     12  N   UNL     1     -24.446 -19.584 -14.597  1.00  0.00    -0.352 N 
ATOM     13  H   UNL     1     -23.524 -19.956 -14.273  1.00  0.00     0.163 HD
BRANCH  12  14
ATOM     14  C   UNL     1     -25.423 -20.540 -15.111  1.00  0.00     0.151 C 
BRANCH  14  15
ATOM     15  C   UNL     1     -24.955 -21.943 -14.839  1.00  0.00    -0.025 A 
ATOM     16  C   UNL     1     -25.663 -23.035 -15.364  1.00  0.00     0.056 A 
ATOM     17  C   UNL     1     -23.776 -22.170 -14.116  1.00  0.00     0.009 A 
ATOM     18  C   UNL     1     -25.212 -24.352 -15.144  1.00  0.00     0.160 A 
ATOM     19  C   UNL     1     -23.325 -23.471 -13.892  1.00  0.00     0.050 A 
ATOM     20  C   UNL     1     -24.046 -24.562 -14.393  1.00  0.00     0.157 A 
BRANCH  18  21
ATOM     21  O   UNL     1     -25.886 -25.470 -15.661  1.00  0.00    -0.493 OA
ATOM     22  C   UNL     1     -27.277 -25.502 -15.975  1.00  0.00     0.278 C 
ENDBRANCH  18  21
BRANCH  20  23
ATOM     23  O   UNL     1     -23.611 -25.865 -14.151  1.00  0.00    -0.504 OA
ATOM     24  H   UNL     1     -23.235 -26.445 -14.894  1.00  0.00     0.293 HD
ENDBRANCH  20  23
ENDBRANCH  14  15
ENDBRANCH  12  14
ENDBRANCH   9  10
ENDBRANCH   1   9
TORSDOF 10
ENDMDL
MODEL 4
REMARK VINA RESULT:    -6.437      1.516      1.946
REMARK INTER + INTRA:         -11.250
REMARK INTER:                 -10.669
REMARK INTRA:                  -0.581
REMARK UNBOUND:                -1.238
REMARK SMILES COc1cc(CNC(=O)CCCCC=CC(C)C)ccc1O
REMARK SMILES IDX 11 1 12 2 13 3 14 4 15 5 16 6 17 7 18 8 10 9 8 10 9 11 7 12
REMARK SMILES IDX 6 14 5 15 4 16 19 17 3 18 20 19 21 20 2 21 1 22 22 23
REMARK H PARENT 7 13 22 24
REMARK Flexibility Score: inf
ROOT
ATOM      1  C   UNL     1     -23.327 -22.733 -12.818  1.00  0.00     0.010 C 
ENDROOT
BRANCH   1   2
ATOM      2  C   UNL     1     -24.515 -23.695 -13.028  1.00  0.00     0.005 C 
BRANCH   2   3
ATOM      3  C   UNL     1     -25.771 -22.987 -13.564  1.00  0.00     0.027 C 
BRANCH   3   4
ATOM      4  C   UNL     1     -26.491 -22.274 -12.453  1.00  0.00    -0.031 C 
ATOM      5  C   UNL     1     -26.146 -21.032 -12.077  1.00  0.00    -0.028 C 
BRANCH   5   6
ATOM      6  C   UNL     1     -26.871 -20.278 -10.985  1.00  0.00     0.005 C 
ATOM      7  C   UNL     1     -25.922 -19.852  -9.857  1.00  0.00     0.012 C 
ATOM      8  C   UNL     1     -28.047 -21.096 -10.442  1.00  0.00     0.012 C 
ENDBRANCH   5   6
ENDBRANCH   3   4
ENDBRANCH   2   3
ENDBRANCH   1   2
BRANCH   1   9
ATOM      9  C   UNL     1     -23.014 -21.835 -14.029  1.00  0.00     0.100 C 
BRANCH   9  10
ATOM     10  C   UNL     1     -22.793 -20.403 -13.631  1.00  0.00     0.220 C 
ATOM     11  O   UNL     1     -21.626 -19.920 -13.665  1.00  0.00    -0.275 OA
ATOM     12  N   UNL     1     -23.901 -19.596 -13.204  1.00  0.00    -0.352 N 
ATOM     13  H   UNL     1     -24.865 -20.001 -13.229  1.00  0.00     0.163 HD
BRANCH  12  14
ATOM     14  C   UNL     1     -23.717 -18.315 -12.527  1.00  0.00     0.151 C 
BRANCH  14  15
ATOM     15  C   UNL     1     -23.998 -17.188 -13.484  1.00  0.00    -0.025 A 
ATOM     16  C   UNL     1     -23.159 -16.064 -13.511  1.00  0.00     0.056 A 
ATOM     17  C   UNL     1     -25.057 -17.280 -14.397  1.00  0.00     0.009 A 
ATOM     18  C   UNL     1     -23.393 -15.020 -14.428  1.00  0.00     0.160 A 
ATOM     19  C   UNL     1     -25.296 -16.250 -15.306  1.00  0.00     0.050 A 
ATOM     20  C   UNL     1     -24.475 -15.115 -15.316  1.00  0.00     0.157 A 
BRANCH  18  21
ATOM     21  O   UNL     1     -22.571 -13.883 -14.494  1.00  0.00    -0.493 OA
ATOM     22  C   UNL     1     -21.176 -13.876 -14.193  1.00  0.00     0.278 C 
ENDBRANCH  18  21
BRANCH  20  23
ATOM     23  O   UNL     1     -24.726 -14.072 -16.207  1.00  0.00    -0.504 OA
ATOM     24  H   UNL     1     -25.263 -13.256 -15.931  1.00  0.00     0.293 HD
ENDBRANCH  20  23
ENDBRANCH  14  15
ENDBRANCH  12  14
ENDBRANCH   9  10
ENDBRANCH   1   9
TORSDOF 10
ENDMDL
MODEL 5
REMARK VINA RESULT:    -6.407      1.653      2.629
REMARK INTER + INTRA:         -11.203
REMARK INTER:                  -9.657
REMARK INTRA:                  -1.546
REMARK UNBOUND:                -1.238
REMARK SMILES COc1cc(CNC(=O)CCCCC=CC(C)C)ccc1O
REMARK SMILES IDX 11 1 12 2 13 3 14 4 15 5 16 6 17 7 18 8 10 9 8 10 9 11 7 12
REMARK SMILES IDX 6 14 5 15 4 16 19 17 3 18 20 19 21 20 2 21 1 22 22 23
REMARK H PARENT 7 13 22 24
REMARK Flexibility Score: inf
ROOT
ATOM      1  C   UNL     1     -23.878 -24.235 -14.942  1.00  0.00     0.010 C 
ENDROOT
BRANCH   1   2
ATOM      2  C   UNL     1     -22.946 -23.396 -14.043  1.00  0.00     0.005 C 
BRANCH   2   3
ATOM      3  C   UNL     1     -23.466 -23.262 -12.602  1.00  0.00     0.027 C 
BRANCH   3   4
ATOM      4  C   UNL     1     -23.461 -21.822 -12.169  1.00  0.00    -0.031 C 
ATOM      5  C   UNL     1     -24.585 -21.208 -11.765  1.00  0.00    -0.028 C 
BRANCH   5   6
ATOM      6  C   UNL     1     -24.605 -19.770 -11.295  1.00  0.00     0.005 C 
ATOM      7  C   UNL     1     -23.218 -19.297 -10.841  1.00  0.00     0.012 C 
ATOM      8  C   UNL     1     -25.650 -19.567 -10.193  1.00  0.00     0.012 C 
ENDBRANCH   5   6
ENDBRANCH   3   4
ENDBRANCH   2   3
ENDBRANCH   1   2
BRANCH   1   9
ATOM      9  C   UNL     1     -24.789 -23.405 -15.865  1.00  0.00     0.100 C 
BRANCH   9  10
ATOM     10  C   UNL     1     -25.438 -22.259 -15.140  1.00  0.00     0.220 C 
ATOM     11  O   UNL     1     -26.396 -22.486 -14.347  1.00  0.00    -0.275 OA
ATOM     12  N   UNL     1     -24.979 -20.917 -15.360  1.00  0.00    -0.352 N 
ATOM     13  H   UNL     1     -24.155 -20.756 -15.983  1.00  0.00     0.163 HD
BRANCH  12  14
ATOM     14  C   UNL     1     -25.747 -19.751 -14.932  1.00  0.00     0.151 C 
BRANCH  14  15
ATOM     15  C   UNL     1     -24.826 -18.578 -14.738  1.00  0.00    -0.025 A 
ATOM     16  C   UNL     1     -25.338 -17.271 -14.756  1.00  0.00     0.056 A 
ATOM     17  C   UNL     1     -23.464 -18.780 -14.473  1.00  0.00     0.009 A 
ATOM     18  C   UNL     1     -24.488 -16.168 -14.540  1.00  0.00     0.160 A 
ATOM     19  C   UNL     1     -22.617 -17.693 -14.261  1.00  0.00     0.050 A 
ATOM     20  C   UNL     1     -23.123 -16.387 -14.305  1.00  0.00     0.157 A 
BRANCH  18  21
ATOM     21  O   UNL     1     -24.964 -14.846 -14.540  1.00  0.00    -0.493 OA
ATOM     22  C   UNL     1     -25.297 -14.107 -15.713  1.00  0.00     0.278 C 
ENDBRANCH  18  21
BRANCH  20  23
ATOM     23  O   UNL     1     -22.274 -15.297 -14.117  1.00  0.00    -0.504 OA
ATOM     24  H   UNL     1     -21.304 -15.322 -14.414  1.00  0.00     0.293 HD
ENDBRANCH  20  23
ENDBRANCH  14  15
ENDBRANCH  12  14
ENDBRANCH   9  10
ENDBRANCH   1   9
TORSDOF 10
ENDMDL
MODEL 6
REMARK VINA RESULT:    -6.349      2.137      7.373
REMARK INTER + INTRA:         -11.113
REMARK INTER:                 -10.593
REMARK INTRA:                  -0.520
REMARK UNBOUND:                -1.238
REMARK SMILES COc1cc(CNC(=O)CCCCC=CC(C)C)ccc1O
REMARK SMILES IDX 11 1 12 2 13 3 14 4 15 5 16 6 17 7 18 8 10 9 8 10 9 11 7 12
REMARK SMILES IDX 6 14 5 15 4 16 19 17 3 18 20 19 21 20 2 21 1 22 22 23
REMARK H PARENT 7 13 22 24
REMARK Flexibility Score: inf
ROOT
ATOM      1  C   UNL     1     -22.376 -16.076 -13.894  1.00  0.00     0.010 C 
ENDROOT
BRANCH   1   2
ATOM      2  C   UNL     1     -21.478 -14.834 -13.712  1.00  0.00     0.005 C 
BRANCH   2   3
ATOM      3  C   UNL     1     -21.533 -13.875 -14.913  1.00  0.00     0.027 C 
BRANCH   3   4
ATOM      4  C   UNL     1     -22.641 -14.265 -15.851  1.00  0.00    -0.031 C 
ATOM      5  C   UNL     1     -23.911 -13.889 -15.631  1.00  0.00    -0.028 C 
BRANCH   5   6
ATOM      6  C   UNL     1     -25.042 -14.240 -16.573  1.00  0.00     0.005 C 
ATOM      7  C   UNL     1     -26.108 -15.106 -15.889  1.00  0.00     0.012 C 
ATOM      8  C   UNL     1     -24.510 -14.913 -17.842  1.00  0.00     0.012 C 
ENDBRANCH   5   6
ENDBRANCH   3   4
ENDBRANCH   2   3
ENDBRANCH   1   2
BRANCH   1   9
ATOM      9  C   UNL     1     -23.567 -16.148 -12.921  1.00  0.00     0.100 C 
BRANCH   9  10
ATOM     10  C   UNL     1     -24.366 -17.409 -13.095  1.00  0.00     0.220 C 
ATOM     11  O   UNL     1     -24.986 -17.609 -14.178  1.00  0.00    -0.275 OA
ATOM     12  N   UNL     1     -24.433 -18.371 -12.031  1.00  0.00    -0.352 N 
ATOM     13  H   UNL     1     -23.875 -18.209 -11.162  1.00  0.00     0.163 HD
BRANCH  12  14
ATOM     14  C   UNL     1     -25.417 -19.450 -12.017  1.00  0.00     0.151 C 
BRANCH  14  15
ATOM     15  C   UNL     1     -24.811 -20.699 -12.597  1.00  0.00    -0.025 A 
ATOM     16  C   UNL     1     -25.639 -21.742 -13.041  1.00  0.00     0.056 A 
ATOM     17  C   UNL     1     -23.423 -20.805 -12.759  1.00  0.00     0.009 A 
ATOM     18  C   UNL     1     -25.082 -22.900 -13.617  1.00  0.00     0.160 A 
ATOM     19  C   UNL     1     -22.864 -21.950 -13.327  1.00  0.00     0.050 A 
ATOM     20  C   UNL     1     -23.688 -23.002 -13.745  1.00  0.00     0.157 A 
BRANCH  18  21
ATOM     21  O   UNL     1     -25.876 -23.961 -14.083  1.00  0.00    -0.493 OA
ATOM     22  C   UNL     1     -26.392 -24.064 -15.409  1.00  0.00     0.278 C 
ENDBRANCH  18  21
BRANCH  20  23
ATOM     23  O   UNL     1     -23.132 -24.158 -14.292  1.00  0.00    -0.504 OA
ATOM     24  H   UNL     1     -23.668 -24.769 -14.898  1.00  0.00     0.293 HD
ENDBRANCH  20  23
ENDBRANCH  14  15
ENDBRANCH  12  14
ENDBRANCH   9  10
ENDBRANCH   1   9
TORSDOF 10
ENDMDL
MODEL 7
REMARK VINA RESULT:    -6.298      1.969      3.130
REMARK INTER + INTRA:         -11.034
REMARK INTER:                 -10.749
REMARK INTRA:                  -0.286
REMARK UNBOUND:                -1.238
REMARK SMILES COc1cc(CNC(=O)CCCCC=CC(C)C)ccc1O
REMARK SMILES IDX 11 1 12 2 13 3 14 4 15 5 16 6 17 7 18 8 10 9 8 10 9 11 7 12
REMARK SMILES IDX 6 14 5 15 4 16 19 17 3 18 20 19 21 20 2 21 1 22 22 23
REMARK H PARENT 7 13 22 24
REMARK Flexibility Score: inf
ROOT
ATOM      1  C   UNL     1     -23.505 -21.462 -12.121  1.00  0.00     0.010 C 
ENDROOT
BRANCH   1   2
ATOM      2  C   UNL     1     -23.651 -20.030 -11.566  1.00  0.00     0.005 C 
BRANCH   2   3
ATOM      3  C   UNL     1     -24.320 -19.990 -10.182  1.00  0.00     0.027 C 
BRANCH   3   4
ATOM      4  C   UNL     1     -25.817 -20.045 -10.316  1.00  0.00    -0.031 C 
ATOM      5  C   UNL     1     -26.570 -18.937 -10.221  1.00  0.00    -0.028 C 
BRANCH   5   6
ATOM      6  C   UNL     1     -28.074 -18.957 -10.382  1.00  0.00     0.005 C 
ATOM      7  C   UNL     1     -28.766 -17.999  -9.404  1.00  0.00     0.012 C 
ATOM      8  C   UNL     1     -28.622 -20.381 -10.247  1.00  0.00     0.012 C 
ENDBRANCH   5   6
ENDBRANCH   3   4
ENDBRANCH   2   3
ENDBRANCH   1   2
BRANCH   1   9
ATOM      9  C   UNL     1     -24.748 -21.985 -12.865  1.00  0.00     0.100 C 
BRANCH   9  10
ATOM     10  C   UNL     1     -25.183 -21.059 -13.966  1.00  0.00     0.220 C 
ATOM     11  O   UNL     1     -25.129 -21.450 -15.166  1.00  0.00    -0.275 OA
ATOM     12  N   UNL     1     -25.642 -19.735 -13.652  1.00  0.00    -0.352 N 
ATOM     13  H   UNL     1     -25.723 -19.448 -12.650  1.00  0.00     0.163 HD
BRANCH  12  14
ATOM     14  C   UNL     1     -25.787 -18.699 -14.672  1.00  0.00     0.151 C 
BRANCH  14  15
ATOM     15  C   UNL     1     -24.920 -17.519 -14.324  1.00  0.00    -0.025 A 
ATOM     16  C   UNL     1     -24.925 -16.379 -15.142  1.00  0.00     0.056 A 
ATOM     17  C   UNL     1     -24.152 -17.523 -13.151  1.00  0.00     0.009 A 
ATOM     18  C   UNL     1     -24.143 -15.256 -14.805  1.00  0.00     0.160 A 
ATOM     19  C   UNL     1     -23.374 -16.417 -12.813  1.00  0.00     0.050 A 
ATOM     20  C   UNL     1     -23.358 -15.288 -13.643  1.00  0.00     0.157 A 
BRANCH  18  21
ATOM     21  O   UNL     1     -24.128 -14.092 -15.591  1.00  0.00    -0.493 OA
ATOM     22  C   UNL     1     -24.734 -13.977 -16.878  1.00  0.00     0.278 C 
ENDBRANCH  18  21
BRANCH  20  23
ATOM     23  O   UNL     1     -22.563 -14.189 -13.321  1.00  0.00    -0.504 OA
ATOM     24  H   UNL     1     -21.822 -14.254 -12.631  1.00  0.00     0.293 HD
ENDBRANCH  20  23
ENDBRANCH  14  15
ENDBRANCH  12  14
ENDBRANCH   9  10
ENDBRANCH   1   9
TORSDOF 10
ENDMDL
MODEL 8
REMARK VINA RESULT:    -6.282      1.533      2.306
REMARK INTER + INTRA:         -11.009
REMARK INTER:                 -10.393
REMARK INTRA:                  -0.617
REMARK UNBOUND:                -1.238
REMARK SMILES COc1cc(CNC(=O)CCCCC=CC(C)C)ccc1O
REMARK SMILES IDX 11 1 12 2 13 3 14 4 15 5 16 6 17 7 18 8 10 9 8 10 9 11 7 12
REMARK SMILES IDX 6 14 5 15 4 16 19 17 3 18 20 19 21 20 2 21 1 22 22 23
REMARK H PARENT 7 13 22 24
REMARK Flexibility Score: inf
ROOT
ATOM      1  C   UNL     1     -23.735 -23.426 -14.012  1.00  0.00     0.010 C 
ENDROOT
BRANCH   1   2
ATOM      2  C   UNL     1     -24.792 -23.469 -12.888  1.00  0.00     0.005 C 
BRANCH   2   3
ATOM      3  C   UNL     1     -26.166 -22.944 -13.339  1.00  0.00     0.027 C 
BRANCH   3   4
ATOM      4  C   UNL     1     -26.948 -22.430 -12.162  1.00  0.00    -0.031 C 
ATOM      5  C   UNL     1     -26.673 -21.241 -11.603  1.00  0.00    -0.028 C 
BRANCH   5   6
ATOM      6  C   UNL     1     -27.462 -20.684 -10.438  1.00  0.00     0.005 C 
ATOM      7  C   UNL     1     -28.921 -21.159 -10.458  1.00  0.00     0.012 C 
ATOM      8  C   UNL     1     -27.375 -19.155 -10.397  1.00  0.00     0.012 C 
ENDBRANCH   5   6
ENDBRANCH   3   4
ENDBRANCH   2   3
ENDBRANCH   1   2
BRANCH   1   9
ATOM      9  C   UNL     1     -22.772 -22.227 -13.933  1.00  0.00     0.100 C 
BRANCH   9  10
ATOM     10  C   UNL     1     -23.438 -20.999 -13.378  1.00  0.00     0.220 C 
ATOM     11  O   UNL     1     -23.438 -20.801 -12.130  1.00  0.00    -0.275 OA
ATOM     12  N   UNL     1     -24.081 -20.067 -14.262  1.00  0.00    -0.352 N 
ATOM     13  H   UNL     1     -24.028 -20.226 -15.294  1.00  0.00     0.163 HD
BRANCH  12  14
ATOM     14  C   UNL     1     -24.992 -19.035 -13.776  1.00  0.00     0.151 C 
BRANCH  14  15
ATOM     15  C   UNL     1     -24.342 -17.683 -13.902  1.00  0.00    -0.025 A 
ATOM     16  C   UNL     1     -24.245 -17.064 -15.157  1.00  0.00     0.056 A 
ATOM     17  C   UNL     1     -23.888 -17.006 -12.762  1.00  0.00     0.009 A 
ATOM     18  C   UNL     1     -23.670 -15.783 -15.279  1.00  0.00     0.160 A 
ATOM     19  C   UNL     1     -23.315 -15.739 -12.875  1.00  0.00     0.050 A 
ATOM     20  C   UNL     1     -23.194 -15.131 -14.131  1.00  0.00     0.157 A 
BRANCH  18  21
ATOM     21  O   UNL     1     -23.564 -15.125 -16.515  1.00  0.00    -0.493 OA
ATOM     22  C   UNL     1     -24.666 -14.842 -17.377  1.00  0.00     0.278 C 
ENDBRANCH  18  21
BRANCH  20  23
ATOM     23  O   UNL     1     -22.601 -13.875 -14.252  1.00  0.00    -0.504 OA
ATOM     24  H   UNL     1     -21.639 -13.714 -13.970  1.00  0.00     0.293 HD
ENDBRANCH  20  23
ENDBRANCH  14  15
ENDBRANCH  12  14
ENDBRANCH   9  10
ENDBRANCH   1   9
TORSDOF 10
ENDMDL
MODEL 9
REMARK VINA RESULT:    -6.174      1.513      3.634
REMARK INTER + INTRA:         -10.841
REMARK INTER:                 -10.045
REMARK INTRA:                  -0.796
REMARK UNBOUND:                -1.238
REMARK SMILES COc1cc(CNC(=O)CCCCC=CC(C)C)ccc1O
REMARK SMILES IDX 11 1 12 2 13 3 14 4 15 5 16 6 17 7 18 8 10 9 8 10 9 11 7 12
REMARK SMILES IDX 6 14 5 15 4 16 19 17 3 18 20 19 21 20 2 21 1 22 22 23
REMARK H PARENT 7 13 22 24
REMARK Flexibility Score: inf
ROOT
ATOM      1  C   UNL     1     -26.429 -19.842 -10.958  1.00  0.00     0.010 C 
ENDROOT
BRANCH   1   2
ATOM      2  C   UNL     1     -27.282 -21.079 -10.608  1.00  0.00     0.005 C 
BRANCH   2   3
ATOM      3  C   UNL     1     -27.372 -22.090 -11.763  1.00  0.00     0.027 C 
BRANCH   3   4
ATOM      4  C   UNL     1     -26.263 -21.864 -12.752  1.00  0.00    -0.031 C 
ATOM      5  C   UNL     1     -25.612 -22.890 -13.324  1.00  0.00    -0.028 C 
BRANCH   5   6
ATOM      6  C   UNL     1     -24.514 -22.694 -14.345  1.00  0.00     0.005 C 
ATOM      7  C   UNL     1     -24.651 -23.663 -15.526  1.00  0.00     0.012 C 
ATOM      8  C   UNL     1     -23.132 -22.805 -13.693  1.00  0.00     0.012 C 
ENDBRANCH   5   6
ENDBRANCH   3   4
ENDBRANCH   2   3
ENDBRANCH   1   2
BRANCH   1   9
ATOM      9  C   UNL     1     -25.053 -19.802 -10.268  1.00  0.00     0.100 C 
BRANCH   9  10
ATOM     10  C   UNL     1     -23.933 -19.589 -11.248  1.00  0.00     0.220 C 
ATOM     11  O   UNL     1     -22.741 -19.534 -10.830  1.00  0.00    -0.275 OA
ATOM     12  N   UNL     1     -24.220 -19.435 -12.647  1.00  0.00    -0.352 N 
ATOM     13  H   UNL     1     -25.207 -19.531 -12.977  1.00  0.00     0.163 HD
BRANCH  12  14
ATOM     14  C   UNL     1     -23.230 -18.931 -13.594  1.00  0.00     0.151 C 
BRANCH  14  15
ATOM     15  C   UNL     1     -23.669 -17.593 -14.125  1.00  0.00    -0.025 A 
ATOM     16  C   UNL     1     -22.758 -16.528 -14.187  1.00  0.00     0.056 A 
ATOM     17  C   UNL     1     -24.969 -17.418 -14.620  1.00  0.00     0.009 A 
ATOM     18  C   UNL     1     -23.151 -15.282 -14.715  1.00  0.00     0.160 A 
ATOM     19  C   UNL     1     -25.366 -16.187 -15.141  1.00  0.00     0.050 A 
ATOM     20  C   UNL     1     -24.464 -15.115 -15.179  1.00  0.00     0.157 A 
BRANCH  18  21
ATOM     21  O   UNL     1     -22.266 -14.195 -14.805  1.00  0.00    -0.493 OA
ATOM     22  C   UNL     1     -21.163 -13.975 -13.927  1.00  0.00     0.278 C 
ENDBRANCH  18  21
BRANCH  20  23
ATOM     23  O   UNL     1     -24.864 -13.876 -15.678  1.00  0.00    -0.504 OA
ATOM     24  H   UNL     1     -25.044 -13.735 -16.667  1.00  0.00     0.293 HD
ENDBRANCH  20  23
ENDBRANCH  14  15
ENDBRANCH  12  14
ENDBRANCH   9  10
ENDBRANCH   1   9
TORSDOF 10
ENDMDL
