MODEL 1
REMARK VINA RESULT:    -3.182      0.000      0.000
REMARK INTER + INTRA:          -4.363
REMARK INTER:                  -4.111
REMARK INTRA:                  -0.251
REMARK UNBOUND:                -0.251
REMARK SMILES CCCCCCC(=O)[O-]
REMARK SMILES IDX 5 1 6 2 7 3 8 4 9 5 4 6 3 7 2 8 1 9
REMARK H PARENT
REMARK Flexibility Score: inf
ROOT
ATOM      1  C   UNL     1    -105.579  31.225   3.648  1.00  0.00     0.006 C 
ENDROOT
BRANCH   1   2
ATOM      2  C   UNL     1    -106.153  32.639   3.810  1.00  0.00     0.053 C 
BRANCH   2   3
ATOM      3  C   UNL     1    -105.441  33.630   2.943  1.00  0.00     0.041 C 
ATOM      4  O   UNL     1    -106.077  34.289   2.079  1.00  0.00    -0.550 OA
ATOM      5  O   UNL     1    -104.079  33.852   3.112  1.00  0.00    -0.550 OA
ENDBRANCH   2   3
ENDBRANCH   1   2
BRANCH   1   6
ATOM      6  C   UNL     1    -106.676  30.151   3.624  1.00  0.00     0.000 C 
BRANCH   6   7
ATOM      7  C   UNL     1    -106.984  29.713   2.184  1.00  0.00    -0.000 C 
BRANCH   7   8
ATOM      8  C   UNL     1    -108.426  30.036   1.764  1.00  0.00    -0.003 C 
ATOM      9  C   UNL     1    -109.309  30.441   2.944  1.00  0.00     0.004 C 
ENDBRANCH   7   8
ENDBRANCH   6   7
ENDBRANCH   1   6
TORSDOF 5
ENDMDL
MODEL 2
REMARK VINA RESULT:    -2.965     11.757     12.900
REMARK INTER + INTRA:          -4.084
REMARK INTER:                  -3.890
REMARK INTRA:                  -0.193
REMARK UNBOUND:                -0.251
REMARK SMILES CCCCCCC(=O)[O-]
REMARK SMILES IDX 5 1 6 2 7 3 8 4 9 5 4 6 3 7 2 8 1 9
REMARK H PARENT
REMARK Flexibility Score: inf
ROOT
ATOM      1  C   UNL     1    -109.888  44.261  -1.517  1.00  0.00     0.006 C 
ENDROOT
BRANCH   1   2
ATOM      2  C   UNL     1    -109.596  42.969  -0.743  1.00  0.00     0.053 C 
BRANCH   2   3
ATOM      3  C   UNL     1    -108.202  42.952  -0.195  1.00  0.00     0.041 C 
ATOM      4  O   UNL     1    -107.388  42.063  -0.560  1.00  0.00    -0.550 OA
ATOM      5  O   UNL     1    -107.791  43.939   0.693  1.00  0.00    -0.550 OA
ENDBRANCH   2   3
ENDBRANCH   1   2
BRANCH   1   6
ATOM      6  C   UNL     1    -111.356  44.358  -1.956  1.00  0.00     0.000 C 
BRANCH   6   7
ATOM      7  C   UNL     1    -112.288  43.765  -0.889  1.00  0.00    -0.000 C 
BRANCH   7   8
ATOM      8  C   UNL     1    -113.368  42.850  -1.489  1.00  0.00    -0.003 C 
ATOM      9  C   UNL     1    -113.776  41.719  -0.546  1.00  0.00     0.004 C 
ENDBRANCH   7   8
ENDBRANCH   6   7
ENDBRANCH   1   6
TORSDOF 5
ENDMDL
MODEL 3
REMARK VINA RESULT:    -2.782      2.828      4.199
REMARK INTER + INTRA:          -3.846
REMARK INTER:                  -3.621
REMARK INTRA:                  -0.225
REMARK UNBOUND:                -0.251
REMARK SMILES CCCCCCC(=O)[O-]
REMARK SMILES IDX 5 1 6 2 7 3 8 4 9 5 4 6 3 7 2 8 1 9
REMARK H PARENT
REMARK Flexibility Score: inf
ROOT
ATOM      1  C   UNL     1    -106.138  29.931   2.718  1.00  0.00     0.006 C 
ENDROOT
BRANCH   1   2
ATOM      2  C   UNL     1    -107.477  29.349   3.188  1.00  0.00     0.053 C 
BRANCH   2   3
ATOM      3  C   UNL     1    -108.638  30.003   2.505  1.00  0.00     0.041 C 
ATOM      4  O   UNL     1    -108.786  29.893   1.259  1.00  0.00    -0.550 OA
ATOM      5  O   UNL     1    -109.578  30.707   3.250  1.00  0.00    -0.550 OA
ENDBRANCH   2   3
ENDBRANCH   1   2
BRANCH   1   6
ATOM      6  C   UNL     1    -105.323  30.525   3.875  1.00  0.00     0.000 C 
BRANCH   6   7
ATOM      7  C   UNL     1    -105.037  32.016   3.637  1.00  0.00    -0.000 C 
BRANCH   7   8
ATOM      8  C   UNL     1    -106.295  32.800   3.232  1.00  0.00    -0.003 C 
ATOM      9  C   UNL     1    -105.979  34.017   2.363  1.00  0.00     0.004 C 
ENDBRANCH   7   8
ENDBRANCH   6   7
ENDBRANCH   1   6
TORSDOF 5
ENDMDL
MODEL 4
REMARK VINA RESULT:    -2.766     12.015     13.604
REMARK INTER + INTRA:          -3.826
REMARK INTER:                  -3.662
REMARK INTRA:                  -0.163
REMARK UNBOUND:                -0.251
REMARK SMILES CCCCCCC(=O)[O-]
REMARK SMILES IDX 5 1 6 2 7 3 8 4 9 5 4 6 3 7 2 8 1 9
REMARK H PARENT
REMARK Flexibility Score: inf
ROOT
ATOM      1  C   UNL     1    -112.232  43.534  -0.910  1.00  0.00     0.006 C 
ENDROOT
BRANCH   1   2
ATOM      2  C   UNL     1    -113.478  43.072  -1.676  1.00  0.00     0.053 C 
BRANCH   2   3
ATOM      3  C   UNL     1    -113.854  41.664  -1.329  1.00  0.00     0.041 C 
ATOM      4  O   UNL     1    -113.716  41.243  -0.150  1.00  0.00    -0.550 OA
ATOM      5  O   UNL     1    -114.388  40.826  -2.301  1.00  0.00    -0.550 OA
ENDBRANCH   2   3
ENDBRANCH   1   2
BRANCH   1   6
ATOM      6  C   UNL     1    -111.246  44.296  -1.807  1.00  0.00     0.000 C 
BRANCH   6   7
ATOM      7  C   UNL     1    -109.806  44.143  -1.293  1.00  0.00    -0.000 C 
BRANCH   7   8
ATOM      8  C   UNL     1    -109.570  42.797  -0.590  1.00  0.00    -0.003 C 
ATOM      9  C   UNL     1    -108.105  42.576  -0.211  1.00  0.00     0.004 C 
ENDBRANCH   7   8
ENDBRANCH   6   7
ENDBRANCH   1   6
TORSDOF 5
ENDMDL
MODEL 5
REMARK VINA RESULT:    -2.728     14.889     15.986
REMARK INTER + INTRA:          -3.776
REMARK INTER:                  -3.403
REMARK INTRA:                  -0.373
REMARK UNBOUND:                -0.251
REMARK SMILES CCCCCCC(=O)[O-]
REMARK SMILES IDX 5 1 6 2 7 3 8 4 9 5 4 6 3 7 2 8 1 9
REMARK H PARENT
REMARK Flexibility Score: inf
ROOT
ATOM      1  C   UNL     1    -114.979  33.805  -8.625  1.00  0.00     0.006 C 
ENDROOT
BRANCH   1   2
ATOM      2  C   UNL     1    -116.145  33.825  -9.621  1.00  0.00     0.053 C 
BRANCH   2   3
ATOM      3  C   UNL     1    -115.739  34.402 -10.942  1.00  0.00     0.041 C 
ATOM      4  O   UNL     1    -115.927  35.624 -11.185  1.00  0.00    -0.550 OA
ATOM      5  O   UNL     1    -115.122  33.599 -11.894  1.00  0.00    -0.550 OA
ENDBRANCH   2   3
ENDBRANCH   1   2
BRANCH   1   6
ATOM      6  C   UNL     1    -115.120  34.884  -7.541  1.00  0.00     0.000 C 
BRANCH   6   7
ATOM      7  C   UNL     1    -116.592  35.281  -7.351  1.00  0.00    -0.000 C 
BRANCH   7   8
ATOM      8  C   UNL     1    -116.781  36.800  -7.214  1.00  0.00    -0.003 C 
ATOM      9  C   UNL     1    -116.037  37.588  -8.292  1.00  0.00     0.004 C 
ENDBRANCH   7   8
ENDBRANCH   6   7
ENDBRANCH   1   6
TORSDOF 5
ENDMDL
MODEL 6
REMARK VINA RESULT:    -2.720     15.458     16.952
REMARK INTER + INTRA:          -3.766
REMARK INTER:                  -3.651
REMARK INTRA:                  -0.115
REMARK UNBOUND:                -0.251
REMARK SMILES CCCCCCC(=O)[O-]
REMARK SMILES IDX 5 1 6 2 7 3 8 4 9 5 4 6 3 7 2 8 1 9
REMARK H PARENT
REMARK Flexibility Score: inf
ROOT
ATOM      1  C   UNL     1    -115.918  33.825 -11.180  1.00  0.00     0.006 C 
ENDROOT
BRANCH   1   2
ATOM      2  C   UNL     1    -115.597  34.560 -12.488  1.00  0.00     0.053 C 
BRANCH   2   3
ATOM      3  C   UNL     1    -114.827  33.696 -13.437  1.00  0.00     0.041 C 
ATOM      4  O   UNL     1    -114.581  32.496 -13.145  1.00  0.00    -0.550 OA
ATOM      5  O   UNL     1    -114.407  34.207 -14.660  1.00  0.00    -0.550 OA
ENDBRANCH   2   3
ENDBRANCH   1   2
BRANCH   1   6
ATOM      6  C   UNL     1    -115.630  34.685  -9.942  1.00  0.00     0.000 C 
BRANCH   6   7
ATOM      7  C   UNL     1    -115.100  33.823  -8.786  1.00  0.00    -0.000 C 
BRANCH   7   8
ATOM      8  C   UNL     1    -114.840  34.640  -7.511  1.00  0.00    -0.003 C 
ATOM      9  C   UNL     1    -116.042  35.489  -7.097  1.00  0.00     0.004 C 
ENDBRANCH   7   8
ENDBRANCH   6   7
ENDBRANCH   1   6
TORSDOF 5
ENDMDL
MODEL 7
REMARK VINA RESULT:    -2.631     14.445     15.875
REMARK INTER + INTRA:          -3.651
REMARK INTER:                  -3.250
REMARK INTRA:                  -0.401
REMARK UNBOUND:                -0.251
REMARK SMILES CCCCCCC(=O)[O-]
REMARK SMILES IDX 5 1 6 2 7 3 8 4 9 5 4 6 3 7 2 8 1 9
REMARK H PARENT
REMARK Flexibility Score: inf
ROOT
ATOM      1  C   UNL     1    -115.023  33.774  -8.995  1.00  0.00     0.006 C 
ENDROOT
BRANCH   1   2
ATOM      2  C   UNL     1    -114.936  34.566  -7.684  1.00  0.00     0.053 C 
BRANCH   2   3
ATOM      3  C   UNL     1    -115.699  35.852  -7.759  1.00  0.00     0.041 C 
ATOM      4  O   UNL     1    -116.563  36.129  -6.886  1.00  0.00    -0.550 OA
ATOM      5  O   UNL     1    -115.432  36.761  -8.776  1.00  0.00    -0.550 OA
ENDBRANCH   2   3
ENDBRANCH   1   2
BRANCH   1   6
ATOM      6  C   UNL     1    -116.471  33.433  -9.374  1.00  0.00     0.000 C 
BRANCH   6   7
ATOM      7  C   UNL     1    -116.745  33.765 -10.849  1.00  0.00    -0.000 C 
BRANCH   7   8
ATOM      8  C   UNL     1    -115.498  34.293 -11.576  1.00  0.00    -0.003 C 
ATOM      9  C   UNL     1    -115.735  35.643 -12.252  1.00  0.00     0.004 C 
ENDBRANCH   7   8
ENDBRANCH   6   7
ENDBRANCH   1   6
TORSDOF 5
ENDMDL
MODEL 8
REMARK VINA RESULT:    -2.619      2.547      4.336
REMARK INTER + INTRA:          -3.636
REMARK INTER:                  -3.389
REMARK INTRA:                  -0.247
REMARK UNBOUND:                -0.251
REMARK SMILES CCCCCCC(=O)[O-]
REMARK SMILES IDX 5 1 6 2 7 3 8 4 9 5 4 6 3 7 2 8 1 9
REMARK H PARENT
REMARK Flexibility Score: inf
ROOT
ATOM      1  C   UNL     1    -107.021  31.557   2.994  1.00  0.00     0.006 C 
ENDROOT
BRANCH   1   2
ATOM      2  C   UNL     1    -107.018  30.142   3.587  1.00  0.00     0.053 C 
BRANCH   2   3
ATOM      3  C   UNL     1    -105.666  29.505   3.498  1.00  0.00     0.041 C 
ATOM      4  O   UNL     1    -104.661  30.191   3.172  1.00  0.00    -0.550 OA
ATOM      5  O   UNL     1    -105.508  28.159   3.809  1.00  0.00    -0.550 OA
ENDBRANCH   2   3
ENDBRANCH   1   2
BRANCH   1   6
ATOM      6  C   UNL     1    -107.454  32.616   4.017  1.00  0.00     0.000 C 
BRANCH   6   7
ATOM      7  C   UNL     1    -106.801  33.973   3.712  1.00  0.00    -0.000 C 
BRANCH   7   8
ATOM      8  C   UNL     1    -105.717  33.876   2.628  1.00  0.00    -0.003 C 
ATOM      9  C   UNL     1    -104.301  33.893   3.204  1.00  0.00     0.004 C 
ENDBRANCH   7   8
ENDBRANCH   6   7
ENDBRANCH   1   6
TORSDOF 5
ENDMDL
MODEL 9
REMARK VINA RESULT:    -2.492     12.597     13.262
REMARK INTER + INTRA:          -3.471
REMARK INTER:                  -3.321
REMARK INTRA:                  -0.150
REMARK UNBOUND:                -0.251
REMARK SMILES CCCCCCC(=O)[O-]
REMARK SMILES IDX 5 1 6 2 7 3 8 4 9 5 4 6 3 7 2 8 1 9
REMARK H PARENT
REMARK Flexibility Score: inf
ROOT
ATOM      1  C   UNL     1    -111.330  44.451  -0.775  1.00  0.00     0.006 C 
ENDROOT
BRANCH   1   2
ATOM      2  C   UNL     1    -110.387  43.243  -0.853  1.00  0.00     0.053 C 
BRANCH   2   3
ATOM      3  C   UNL     1    -108.952  43.650  -0.727  1.00  0.00     0.041 C 
ATOM      4  O   UNL     1    -108.461  44.498  -1.519  1.00  0.00    -0.550 OA
ATOM      5  O   UNL     1    -108.163  43.117   0.286  1.00  0.00    -0.550 OA
ENDBRANCH   2   3
ENDBRANCH   1   2
BRANCH   1   6
ATOM      6  C   UNL     1    -112.767  44.095  -1.184  1.00  0.00     0.000 C 
BRANCH   6   7
ATOM      7  C   UNL     1    -113.015  42.584  -1.059  1.00  0.00    -0.000 C 
BRANCH   7   8
ATOM      8  C   UNL     1    -114.492  42.209  -1.258  1.00  0.00    -0.003 C 
ATOM      9  C   UNL     1    -115.281  42.200   0.051  1.00  0.00     0.004 C 
ENDBRANCH   7   8
ENDBRANCH   6   7
ENDBRANCH   1   6
TORSDOF 5
ENDMDL
