MODEL 1
REMARK VINA RESULT:    -4.305      0.000      0.000
REMARK INTER + INTRA:         -10.425
REMARK INTER:                  -7.828
REMARK INTRA:                  -2.597
REMARK UNBOUND:                -2.597
REMARK SMILES CCCCCCCCCCCCCC[C@H](C)C(=O)[O-]
REMARK SMILES IDX 9 1 10 2 11 3 12 4 13 5 14 6 15 7 16 8 17 9 18 10 19 11 8 12
REMARK SMILES IDX 7 13 6 14 5 15 4 16 3 17 2 18 1 19
REMARK H PARENT
REMARK Flexibility Score: inf
ROOT
ATOM      1  C   UNL     1     -17.145  45.003  30.885  1.00  0.00     0.000 C 
ENDROOT
BRANCH   1   2
ATOM      2  C   UNL     1     -15.842  44.520  30.228  1.00  0.00     0.000 C 
BRANCH   2   3
ATOM      3  C   UNL     1     -16.083  43.661  28.979  1.00  0.00     0.000 C 
BRANCH   3   4
ATOM      4  C   UNL     1     -15.637  42.212  29.214  1.00  0.00     0.000 C 
BRANCH   4   5
ATOM      5  C   UNL     1     -14.781  42.094  30.481  1.00  0.00     0.001 C 
BRANCH   5   6
ATOM      6  C   UNL     1     -15.252  40.914  31.352  1.00  0.00     0.009 C 
BRANCH   6   7
ATOM      7  C   UNL     1     -16.593  40.292  30.894  1.00  0.00     0.032 C 
ATOM      8  C   UNL     1     -17.700  40.486  31.944  1.00  0.00     0.014 C 
BRANCH   7   9
ATOM      9  C   UNL     1     -16.443  38.841  30.493  1.00  0.00     0.044 C 
ATOM     10  O   UNL     1     -17.267  37.982  30.908  1.00  0.00    -0.550 OA
ATOM     11  O   UNL     1     -15.360  38.421  29.726  1.00  0.00    -0.550 OA
ENDBRANCH   7   9
ENDBRANCH   6   7
ENDBRANCH   5   6
ENDBRANCH   4   5
ENDBRANCH   3   4
ENDBRANCH   2   3
ENDBRANCH   1   2
BRANCH   1  12
ATOM     12  C   UNL     1     -17.740  43.968  31.856  1.00  0.00     0.000 C 
BRANCH  12  13
ATOM     13  C   UNL     1     -17.358  44.242  33.319  1.00  0.00    -0.000 C 
BRANCH  13  14
ATOM     14  C   UNL     1     -16.241  43.317  33.849  1.00  0.00    -0.000 C 
BRANCH  14  15
ATOM     15  C   UNL     1     -15.006  44.107  34.315  1.00  0.00    -0.000 C 
BRANCH  15  16
ATOM     16  C   UNL     1     -13.726  43.701  33.569  1.00  0.00    -0.000 C 
BRANCH  16  17
ATOM     17  C   UNL     1     -13.110  44.867  32.777  1.00  0.00    -0.000 C 
BRANCH  17  18
ATOM     18  C   UNL     1     -12.335  44.397  31.539  1.00  0.00    -0.003 C 
ATOM     19  C   UNL     1     -10.876  44.061  31.846  1.00  0.00     0.004 C 
ENDBRANCH  17  18
ENDBRANCH  16  17
ENDBRANCH  15  16
ENDBRANCH  14  15
ENDBRANCH  13  14
ENDBRANCH  12  13
ENDBRANCH   1  12
TORSDOF 14
ENDMDL
MODEL 2
REMARK VINA RESULT:    -4.258      2.764      5.314
REMARK INTER + INTRA:         -10.339
REMARK INTER:                  -7.916
REMARK INTRA:                  -2.424
REMARK UNBOUND:                -2.597
REMARK SMILES CCCCCCCCCCCCCC[C@H](C)C(=O)[O-]
REMARK SMILES IDX 9 1 10 2 11 3 12 4 13 5 14 6 15 7 16 8 17 9 18 10 19 11 8 12
REMARK SMILES IDX 7 13 6 14 5 15 4 16 3 17 2 18 1 19
REMARK H PARENT
REMARK Flexibility Score: inf
ROOT
ATOM      1  C   UNL     1     -16.882  42.216  34.253  1.00  0.00     0.000 C 
ENDROOT
BRANCH   1   2
ATOM      2  C   UNL     1     -15.889  43.106  33.487  1.00  0.00     0.000 C 
BRANCH   2   3
ATOM      3  C   UNL     1     -16.038  44.596  33.824  1.00  0.00     0.000 C 
BRANCH   3   4
ATOM      4  C   UNL     1     -14.727  45.169  34.376  1.00  0.00     0.000 C 
BRANCH   4   5
ATOM      5  C   UNL     1     -13.572  44.175  34.204  1.00  0.00     0.001 C 
BRANCH   5   6
ATOM      6  C   UNL     1     -12.677  44.574  33.016  1.00  0.00     0.009 C 
BRANCH   6   7
ATOM      7  C   UNL     1     -12.190  43.375  32.167  1.00  0.00     0.032 C 
ATOM      8  C   UNL     1     -12.694  42.036  32.729  1.00  0.00     0.014 C 
BRANCH   7   9
ATOM      9  C   UNL     1     -10.689  43.380  31.980  1.00  0.00     0.044 C 
ATOM     10  O   UNL     1     -10.107  44.416  31.563  1.00  0.00    -0.550 OA
ATOM     11  O   UNL     1      -9.939  42.226  32.196  1.00  0.00    -0.550 OA
ENDBRANCH   7   9
ENDBRANCH   6   7
ENDBRANCH   5   6
ENDBRANCH   4   5
ENDBRANCH   3   4
ENDBRANCH   2   3
ENDBRANCH   1   2
BRANCH   1  12
ATOM     12  C   UNL     1     -17.645  41.249  33.331  1.00  0.00     0.000 C 
BRANCH  12  13
ATOM     13  C   UNL     1     -17.525  41.630  31.846  1.00  0.00    -0.000 C 
BRANCH  13  14
ATOM     14  C   UNL     1     -16.737  40.600  31.007  1.00  0.00    -0.000 C 
BRANCH  14  15
ATOM     15  C   UNL     1     -15.445  41.195  30.422  1.00  0.00    -0.000 C 
BRANCH  15  16
ATOM     16  C   UNL     1     -15.714  42.349  29.445  1.00  0.00    -0.000 C 
BRANCH  16  17
ATOM     17  C   UNL     1     -14.679  43.480  29.569  1.00  0.00    -0.000 C 
BRANCH  17  18
ATOM     18  C   UNL     1     -15.246  44.728  30.259  1.00  0.00    -0.003 C 
ATOM     19  C   UNL     1     -16.763  44.847  30.114  1.00  0.00     0.004 C 
ENDBRANCH  17  18
ENDBRANCH  16  17
ENDBRANCH  15  16
ENDBRANCH  14  15
ENDBRANCH  13  14
ENDBRANCH  12  13
ENDBRANCH   1  12
TORSDOF 14
ENDMDL
MODEL 3
REMARK VINA RESULT:    -4.189      2.775      5.179
REMARK INTER + INTRA:         -10.215
REMARK INTER:                  -7.650
REMARK INTRA:                  -2.565
REMARK UNBOUND:                -2.597
REMARK SMILES CCCCCCCCCCCCCC[C@H](C)C(=O)[O-]
REMARK SMILES IDX 9 1 10 2 11 3 12 4 13 5 14 6 15 7 16 8 17 9 18 10 19 11 8 12
REMARK SMILES IDX 7 13 6 14 5 15 4 16 3 17 2 18 1 19
REMARK H PARENT
REMARK Flexibility Score: inf
ROOT
ATOM      1  C   UNL     1     -16.006  44.015  29.434  1.00  0.00     0.000 C 
ENDROOT
BRANCH   1   2
ATOM      2  C   UNL     1     -15.839  42.515  29.730  1.00  0.00     0.000 C 
BRANCH   2   3
ATOM      3  C   UNL     1     -14.379  42.112  29.980  1.00  0.00     0.000 C 
BRANCH   3   4
ATOM      4  C   UNL     1     -14.252  41.269  31.254  1.00  0.00     0.000 C 
BRANCH   4   5
ATOM      5  C   UNL     1     -13.750  42.114  32.431  1.00  0.00     0.001 C 
BRANCH   5   6
ATOM      6  C   UNL     1     -12.289  42.546  32.211  1.00  0.00     0.009 C 
BRANCH   6   7
ATOM      7  C   UNL     1     -12.076  44.079  32.245  1.00  0.00     0.032 C 
ATOM      8  C   UNL     1     -13.376  44.828  32.580  1.00  0.00     0.014 C 
BRANCH   7   9
ATOM      9  C   UNL     1     -11.437  44.596  30.975  1.00  0.00     0.044 C 
ATOM     10  O   UNL     1     -10.220  44.920  30.966  1.00  0.00    -0.550 OA
ATOM     11  O   UNL     1     -12.195  44.790  29.824  1.00  0.00    -0.550 OA
ENDBRANCH   7   9
ENDBRANCH   6   7
ENDBRANCH   5   6
ENDBRANCH   4   5
ENDBRANCH   3   4
ENDBRANCH   2   3
ENDBRANCH   1   2
BRANCH   1  12
ATOM     12  C   UNL     1     -16.841  44.742  30.502  1.00  0.00     0.000 C 
BRANCH  12  13
ATOM     13  C   UNL     1     -16.903  43.970  31.830  1.00  0.00    -0.000 C 
BRANCH  13  14
ATOM     14  C   UNL     1     -18.282  44.043  32.523  1.00  0.00    -0.000 C 
BRANCH  14  15
ATOM     15  C   UNL     1     -18.508  42.867  33.488  1.00  0.00    -0.000 C 
BRANCH  15  16
ATOM     16  C   UNL     1     -17.203  42.153  33.869  1.00  0.00    -0.000 C 
BRANCH  16  17
ATOM     17  C   UNL     1     -17.243  40.646  33.563  1.00  0.00    -0.000 C 
BRANCH  17  18
ATOM     18  C   UNL     1     -17.918  40.332  32.221  1.00  0.00    -0.003 C 
ATOM     19  C   UNL     1     -17.236  39.191  31.467  1.00  0.00     0.004 C 
ENDBRANCH  17  18
ENDBRANCH  16  17
ENDBRANCH  15  16
ENDBRANCH  14  15
ENDBRANCH  13  14
ENDBRANCH  12  13
ENDBRANCH   1  12
TORSDOF 14
ENDMDL
MODEL 4
REMARK VINA RESULT:    -4.159      2.606      5.069
REMARK INTER + INTRA:         -10.160
REMARK INTER:                  -7.883
REMARK INTRA:                  -2.277
REMARK UNBOUND:                -2.597
REMARK SMILES CCCCCCCCCCCCCC[C@H](C)C(=O)[O-]
REMARK SMILES IDX 9 1 10 2 11 3 12 4 13 5 14 6 15 7 16 8 17 9 18 10 19 11 8 12
REMARK SMILES IDX 7 13 6 14 5 15 4 16 3 17 2 18 1 19
REMARK H PARENT
REMARK Flexibility Score: inf
ROOT
ATOM      1  C   UNL     1     -13.408  44.454  30.881  1.00  0.00     0.000 C 
ENDROOT
BRANCH   1   2
ATOM      2  C   UNL     1     -13.052  44.832  32.328  1.00  0.00     0.000 C 
BRANCH   2   3
ATOM      3  C   UNL     1     -14.263  44.802  33.271  1.00  0.00     0.000 C 
BRANCH   3   4
ATOM      4  C   UNL     1     -14.584  43.368  33.709  1.00  0.00     0.000 C 
BRANCH   4   5
ATOM      5  C   UNL     1     -16.079  43.201  34.007  1.00  0.00     0.001 C 
BRANCH   5   6
ATOM      6  C   UNL     1     -16.881  44.405  33.482  1.00  0.00     0.009 C 
BRANCH   6   7
ATOM      7  C   UNL     1     -17.900  44.046  32.373  1.00  0.00     0.032 C 
ATOM      8  C   UNL     1     -18.619  42.719  32.669  1.00  0.00     0.014 C 
BRANCH   7   9
ATOM      9  C   UNL     1     -17.273  44.053  30.997  1.00  0.00     0.044 C 
ATOM     10  O   UNL     1     -16.800  42.991  30.512  1.00  0.00    -0.550 OA
ATOM     11  O   UNL     1     -17.145  45.238  30.277  1.00  0.00    -0.550 OA
ENDBRANCH   7   9
ENDBRANCH   6   7
ENDBRANCH   5   6
ENDBRANCH   4   5
ENDBRANCH   3   4
ENDBRANCH   2   3
ENDBRANCH   1   2
BRANCH   1  12
ATOM     12  C   UNL     1     -12.179  44.419  29.957  1.00  0.00     0.000 C 
BRANCH  12  13
ATOM     13  C   UNL     1     -10.938  45.058  30.600  1.00  0.00    -0.000 C 
BRANCH  13  14
ATOM     14  C   UNL     1      -9.773  44.066  30.811  1.00  0.00    -0.000 C 
BRANCH  14  15
ATOM     15  C   UNL     1      -9.882  42.840  29.889  1.00  0.00    -0.000 C 
BRANCH  15  16
ATOM     16  C   UNL     1      -9.922  41.516  30.667  1.00  0.00    -0.000 C 
BRANCH  16  17
ATOM     17  C   UNL     1     -10.287  41.711  32.148  1.00  0.00    -0.000 C 
BRANCH  17  18
ATOM     18  C   UNL     1     -11.765  41.414  32.437  1.00  0.00    -0.003 C 
ATOM     19  C   UNL     1     -12.461  40.697  31.282  1.00  0.00     0.004 C 
ENDBRANCH  17  18
ENDBRANCH  16  17
ENDBRANCH  15  16
ENDBRANCH  14  15
ENDBRANCH  13  14
ENDBRANCH  12  13
ENDBRANCH   1  12
TORSDOF 14
ENDMDL
MODEL 5
REMARK VINA RESULT:    -4.142      3.061      5.165
REMARK INTER + INTRA:         -10.128
REMARK INTER:                  -8.082
REMARK INTRA:                  -2.047
REMARK UNBOUND:                -2.597
REMARK SMILES CCCCCCCCCCCCCC[C@H](C)C(=O)[O-]
REMARK SMILES IDX 9 1 10 2 11 3 12 4 13 5 14 6 15 7 16 8 17 9 18 10 19 11 8 12
REMARK SMILES IDX 7 13 6 14 5 15 4 16 3 17 2 18 1 19
REMARK H PARENT
REMARK Flexibility Score: inf
ROOT
ATOM      1  C   UNL     1     -15.551  44.366  29.943  1.00  0.00     0.000 C 
ENDROOT
BRANCH   1   2
ATOM      2  C   UNL     1     -14.307  44.615  30.813  1.00  0.00     0.000 C 
BRANCH   2   3
ATOM      3  C   UNL     1     -13.923  43.401  31.670  1.00  0.00     0.000 C 
BRANCH   3   4
ATOM      4  C   UNL     1     -14.289  42.091  30.962  1.00  0.00     0.000 C 
BRANCH   4   5
ATOM      5  C   UNL     1     -13.203  41.027  31.167  1.00  0.00     0.001 C 
BRANCH   5   6
ATOM      6  C   UNL     1     -12.156  41.504  32.191  1.00  0.00     0.009 C 
BRANCH   6   7
ATOM      7  C   UNL     1     -10.709  41.531  31.642  1.00  0.00     0.032 C 
ATOM      8  C   UNL     1      -9.735  40.778  32.564  1.00  0.00     0.014 C 
BRANCH   7   9
ATOM      9  C   UNL     1     -10.234  42.937  31.348  1.00  0.00     0.044 C 
ATOM     10  O   UNL     1      -9.639  43.190  30.267  1.00  0.00    -0.550 OA
ATOM     11  O   UNL     1     -10.382  43.951  32.290  1.00  0.00    -0.550 OA
ENDBRANCH   7   9
ENDBRANCH   6   7
ENDBRANCH   5   6
ENDBRANCH   4   5
ENDBRANCH   3   4
ENDBRANCH   2   3
ENDBRANCH   1   2
BRANCH   1  12
ATOM     12  C   UNL     1     -16.840  44.909  30.582  1.00  0.00     0.000 C 
BRANCH  12  13
ATOM     13  C   UNL     1     -17.732  43.793  31.152  1.00  0.00    -0.000 C 
BRANCH  13  14
ATOM     14  C   UNL     1     -18.231  44.074  32.586  1.00  0.00    -0.000 C 
BRANCH  14  15
ATOM     15  C   UNL     1     -17.073  44.156  33.596  1.00  0.00    -0.000 C 
BRANCH  15  16
ATOM     16  C   UNL     1     -16.477  42.780  33.926  1.00  0.00    -0.000 C 
BRANCH  16  17
ATOM     17  C   UNL     1     -17.553  41.735  34.269  1.00  0.00    -0.000 C 
BRANCH  17  18
ATOM     18  C   UNL     1     -17.248  40.354  33.674  1.00  0.00    -0.003 C 
ATOM     19  C   UNL     1     -17.598  40.258  32.189  1.00  0.00     0.004 C 
ENDBRANCH  17  18
ENDBRANCH  16  17
ENDBRANCH  15  16
ENDBRANCH  14  15
ENDBRANCH  13  14
ENDBRANCH  12  13
ENDBRANCH   1  12
TORSDOF 14
ENDMDL
MODEL 6
REMARK VINA RESULT:    -4.138      1.342      3.402
REMARK INTER + INTRA:         -10.121
REMARK INTER:                  -7.900
REMARK INTRA:                  -2.221
REMARK UNBOUND:                -2.597
REMARK SMILES CCCCCCCCCCCCCC[C@H](C)C(=O)[O-]
REMARK SMILES IDX 9 1 10 2 11 3 12 4 13 5 14 6 15 7 16 8 17 9 18 10 19 11 8 12
REMARK SMILES IDX 7 13 6 14 5 15 4 16 3 17 2 18 1 19
REMARK H PARENT
REMARK Flexibility Score: inf
ROOT
ATOM      1  C   UNL     1     -12.866  44.869  31.106  1.00  0.00     0.000 C 
ENDROOT
BRANCH   1   2
ATOM      2  C   UNL     1     -13.173  43.805  30.040  1.00  0.00     0.000 C 
BRANCH   2   3
ATOM      3  C   UNL     1     -13.917  42.587  30.606  1.00  0.00     0.000 C 
BRANCH   3   4
ATOM      4  C   UNL     1     -13.643  41.336  29.763  1.00  0.00     0.000 C 
BRANCH   4   5
ATOM      5  C   UNL     1     -14.909  40.872  29.032  1.00  0.00     0.001 C 
BRANCH   5   6
ATOM      6  C   UNL     1     -16.059  40.629  30.027  1.00  0.00     0.009 C 
BRANCH   6   7
ATOM      7  C   UNL     1     -16.161  39.167  30.525  1.00  0.00     0.032 C 
ATOM      8  C   UNL     1     -16.186  38.168  29.356  1.00  0.00     0.014 C 
BRANCH   7   9
ATOM      9  C   UNL     1     -17.326  38.963  31.467  1.00  0.00     0.044 C 
ATOM     10  O   UNL     1     -18.196  38.087  31.216  1.00  0.00    -0.550 OA
ATOM     11  O   UNL     1     -17.496  39.782  32.580  1.00  0.00    -0.550 OA
ENDBRANCH   7   9
ENDBRANCH   6   7
ENDBRANCH   5   6
ENDBRANCH   4   5
ENDBRANCH   3   4
ENDBRANCH   2   3
ENDBRANCH   1   2
BRANCH   1  12
ATOM     12  C   UNL     1     -12.821  44.288  32.530  1.00  0.00     0.000 C 
BRANCH  12  13
ATOM     13  C   UNL     1     -13.811  44.979  33.482  1.00  0.00    -0.000 C 
BRANCH  13  14
ATOM     14  C   UNL     1     -14.901  44.033  34.031  1.00  0.00    -0.000 C 
BRANCH  14  15
ATOM     15  C   UNL     1     -16.300  44.391  33.502  1.00  0.00    -0.000 C 
BRANCH  15  16
ATOM     16  C   UNL     1     -16.869  43.320  32.560  1.00  0.00    -0.000 C 
BRANCH  16  17
ATOM     17  C   UNL     1     -17.718  43.922  31.426  1.00  0.00    -0.000 C 
BRANCH  17  18
ATOM     18  C   UNL     1     -16.989  45.044  30.674  1.00  0.00    -0.003 C 
ATOM     19  C   UNL     1     -16.651  44.668  29.232  1.00  0.00     0.004 C 
ENDBRANCH  17  18
ENDBRANCH  16  17
ENDBRANCH  15  16
ENDBRANCH  14  15
ENDBRANCH  13  14
ENDBRANCH  12  13
ENDBRANCH   1  12
TORSDOF 14
ENDMDL
MODEL 7
REMARK VINA RESULT:    -4.108      1.889      4.383
REMARK INTER + INTRA:         -10.067
REMARK INTER:                  -7.485
REMARK INTRA:                  -2.582
REMARK UNBOUND:                -2.597
REMARK SMILES CCCCCCCCCCCCCC[C@H](C)C(=O)[O-]
REMARK SMILES IDX 9 1 10 2 11 3 12 4 13 5 14 6 15 7 16 8 17 9 18 10 19 11 8 12
REMARK SMILES IDX 7 13 6 14 5 15 4 16 3 17 2 18 1 19
REMARK H PARENT
REMARK Flexibility Score: inf
ROOT
ATOM      1  C   UNL     1     -14.166  43.293  33.301  1.00  0.00     0.000 C 
ENDROOT
BRANCH   1   2
ATOM      2  C   UNL     1     -12.794  43.783  32.809  1.00  0.00     0.000 C 
BRANCH   2   3
ATOM      3  C   UNL     1     -12.843  44.384  31.397  1.00  0.00     0.000 C 
BRANCH   3   4
ATOM      4  C   UNL     1     -12.071  43.509  30.401  1.00  0.00     0.000 C 
BRANCH   4   5
ATOM      5  C   UNL     1     -13.001  42.950  29.317  1.00  0.00     0.001 C 
BRANCH   5   6
ATOM      6  C   UNL     1     -14.440  43.463  29.512  1.00  0.00     0.009 C 
BRANCH   6   7
ATOM      7  C   UNL     1     -15.524  42.371  29.340  1.00  0.00     0.032 C 
ATOM      8  C   UNL     1     -15.435  41.301  30.441  1.00  0.00     0.014 C 
BRANCH   7   9
ATOM      9  C   UNL     1     -15.505  41.760  27.956  1.00  0.00     0.044 C 
ATOM     10  O   UNL     1     -15.528  42.501  26.938  1.00  0.00    -0.550 OA
ATOM     11  O   UNL     1     -15.535  40.379  27.786  1.00  0.00    -0.550 OA
ENDBRANCH   7   9
ENDBRANCH   6   7
ENDBRANCH   5   6
ENDBRANCH   4   5
ENDBRANCH   3   4
ENDBRANCH   2   3
ENDBRANCH   1   2
BRANCH   1  12
ATOM     12  C   UNL     1     -14.855  44.300  34.238  1.00  0.00     0.000 C 
BRANCH  12  13
ATOM     13  C   UNL     1     -16.303  44.602  33.819  1.00  0.00    -0.000 C 
BRANCH  13  14
ATOM     14  C   UNL     1     -16.538  44.503  32.296  1.00  0.00    -0.000 C 
BRANCH  14  15
ATOM     15  C   UNL     1     -17.913  43.901  31.959  1.00  0.00    -0.000 C 
BRANCH  15  16
ATOM     16  C   UNL     1     -18.802  43.724  33.199  1.00  0.00    -0.000 C 
BRANCH  16  17
ATOM     17  C   UNL     1     -19.213  42.259  33.427  1.00  0.00    -0.000 C 
BRANCH  17  18
ATOM     18  C   UNL     1     -18.117  41.267  33.016  1.00  0.00    -0.003 C 
ATOM     19  C   UNL     1     -17.157  40.938  34.159  1.00  0.00     0.004 C 
ENDBRANCH  17  18
ENDBRANCH  16  17
ENDBRANCH  15  16
ENDBRANCH  14  15
ENDBRANCH  13  14
ENDBRANCH  12  13
ENDBRANCH   1  12
TORSDOF 14
ENDMDL
MODEL 8
REMARK VINA RESULT:    -4.108      2.642      4.639
REMARK INTER + INTRA:         -10.066
REMARK INTER:                  -7.631
REMARK INTRA:                  -2.435
REMARK UNBOUND:                -2.597
REMARK SMILES CCCCCCCCCCCCCC[C@H](C)C(=O)[O-]
REMARK SMILES IDX 9 1 10 2 11 3 12 4 13 5 14 6 15 7 16 8 17 9 18 10 19 11 8 12
REMARK SMILES IDX 7 13 6 14 5 15 4 16 3 17 2 18 1 19
REMARK H PARENT
REMARK Flexibility Score: inf
ROOT
ATOM      1  C   UNL     1     -13.887  44.849  31.615  1.00  0.00     0.000 C 
ENDROOT
BRANCH   1   2
ATOM      2  C   UNL     1     -13.029  44.580  32.862  1.00  0.00     0.000 C 
BRANCH   2   3
ATOM      3  C   UNL     1     -13.865  44.232  34.101  1.00  0.00     0.000 C 
BRANCH   3   4
ATOM      4  C   UNL     1     -15.362  44.417  33.824  1.00  0.00     0.000 C 
BRANCH   4   5
ATOM      5  C   UNL     1     -16.135  43.113  34.059  1.00  0.00     0.001 C 
BRANCH   5   6
ATOM      6  C   UNL     1     -16.529  42.460  32.722  1.00  0.00     0.009 C 
BRANCH   6   7
ATOM      7  C   UNL     1     -17.902  42.924  32.177  1.00  0.00     0.032 C 
ATOM      8  C   UNL     1     -17.768  44.161  31.273  1.00  0.00     0.014 C 
BRANCH   7   9
ATOM      9  C   UNL     1     -18.912  43.140  33.282  1.00  0.00     0.044 C 
ATOM     10  O   UNL     1     -19.448  42.151  33.850  1.00  0.00    -0.550 OA
ATOM     11  O   UNL     1     -19.316  44.423  33.639  1.00  0.00    -0.550 OA
ENDBRANCH   7   9
ENDBRANCH   6   7
ENDBRANCH   5   6
ENDBRANCH   4   5
ENDBRANCH   3   4
ENDBRANCH   2   3
ENDBRANCH   1   2
BRANCH   1  12
ATOM     12  C   UNL     1     -13.366  44.118  30.366  1.00  0.00     0.000 C 
BRANCH  12  13
ATOM     13  C   UNL     1     -14.475  43.362  29.617  1.00  0.00    -0.000 C 
BRANCH  13  14
ATOM     14  C   UNL     1     -14.419  41.831  29.812  1.00  0.00    -0.000 C 
BRANCH  14  15
ATOM     15  C   UNL     1     -12.979  41.292  29.760  1.00  0.00    -0.000 C 
BRANCH  15  16
ATOM     16  C   UNL     1     -12.651  40.362  30.938  1.00  0.00    -0.000 C 
BRANCH  16  17
ATOM     17  C   UNL     1     -12.258  41.135  32.209  1.00  0.00    -0.000 C 
BRANCH  17  18
ATOM     18  C   UNL     1     -10.739  41.213  32.408  1.00  0.00    -0.003 C 
ATOM     19  C   UNL     1     -10.162  42.577  32.031  1.00  0.00     0.004 C 
ENDBRANCH  17  18
ENDBRANCH  16  17
ENDBRANCH  15  16
ENDBRANCH  14  15
ENDBRANCH  13  14
ENDBRANCH  12  13
ENDBRANCH   1  12
TORSDOF 14
ENDMDL
MODEL 9
REMARK VINA RESULT:    -4.047      2.892      5.257
REMARK INTER + INTRA:          -9.955
REMARK INTER:                  -7.156
REMARK INTRA:                  -2.799
REMARK UNBOUND:                -2.597
REMARK SMILES CCCCCCCCCCCCCC[C@H](C)C(=O)[O-]
REMARK SMILES IDX 9 1 10 2 11 3 12 4 13 5 14 6 15 7 16 8 17 9 18 10 19 11 8 12
REMARK SMILES IDX 7 13 6 14 5 15 4 16 3 17 2 18 1 19
REMARK H PARENT
REMARK Flexibility Score: inf
ROOT
ATOM      1  C   UNL     1     -14.130  43.118  29.430  1.00  0.00     0.000 C 
ENDROOT
BRANCH   1   2
ATOM      2  C   UNL     1     -13.996  41.821  30.246  1.00  0.00     0.000 C 
BRANCH   2   3
ATOM      3  C   UNL     1     -13.917  42.071  31.759  1.00  0.00     0.000 C 
BRANCH   3   4
ATOM      4  C   UNL     1     -12.497  41.825  32.283  1.00  0.00     0.000 C 
BRANCH   4   5
ATOM      5  C   UNL     1     -11.625  43.077  32.132  1.00  0.00     0.001 C 
BRANCH   5   6
ATOM      6  C   UNL     1     -10.445  42.811  31.179  1.00  0.00     0.009 C 
BRANCH   6   7
ATOM      7  C   UNL     1     -10.222  43.928  30.130  1.00  0.00     0.032 C 
ATOM      8  C   UNL     1     -11.026  45.195  30.466  1.00  0.00     0.014 C 
BRANCH   7   9
ATOM      9  C   UNL     1     -10.486  43.449  28.720  1.00  0.00     0.044 C 
ATOM     10  O   UNL     1     -10.738  42.234  28.502  1.00  0.00    -0.550 OA
ATOM     11  O   UNL     1     -10.386  44.321  27.640  1.00  0.00    -0.550 OA
ENDBRANCH   7   9
ENDBRANCH   6   7
ENDBRANCH   5   6
ENDBRANCH   4   5
ENDBRANCH   3   4
ENDBRANCH   2   3
ENDBRANCH   1   2
BRANCH   1  12
ATOM     12  C   UNL     1     -14.649  44.297  30.271  1.00  0.00     0.000 C 
BRANCH  12  13
ATOM     13  C   UNL     1     -15.999  44.833  29.768  1.00  0.00    -0.000 C 
BRANCH  13  14
ATOM     14  C   UNL     1     -17.091  44.878  30.859  1.00  0.00    -0.000 C 
BRANCH  14  15
ATOM     15  C   UNL     1     -17.473  43.472  31.354  1.00  0.00    -0.000 C 
BRANCH  15  16
ATOM     16  C   UNL     1     -17.153  43.261  32.841  1.00  0.00    -0.000 C 
BRANCH  16  17
ATOM     17  C   UNL     1     -16.575  44.522  33.507  1.00  0.00    -0.000 C 
BRANCH  17  18
ATOM     18  C   UNL     1     -15.253  44.250  34.239  1.00  0.00    -0.003 C 
ATOM     19  C   UNL     1     -14.147  45.229  33.847  1.00  0.00     0.004 C 
ENDBRANCH  17  18
ENDBRANCH  16  17
ENDBRANCH  15  16
ENDBRANCH  14  15
ENDBRANCH  13  14
ENDBRANCH  12  13
ENDBRANCH   1  12
TORSDOF 14
ENDMDL
