MODEL 1
REMARK VINA RESULT:    -3.340      0.000      0.000
REMARK INTER + INTRA:          -4.204
REMARK INTER:                  -4.023
REMARK INTRA:                  -0.181
REMARK UNBOUND:                -0.181
REMARK SMILES C=CCc1ccc(O)c(OC)c1
REMARK SMILES IDX 9 1 7 2 6 3 5 4 4 5 12 6 10 7 11 8 8 9 3 11 2 12 1 13
REMARK H PARENT 8 10
REMARK Flexibility Score: inf
ROOT
ATOM      1  C   UNL     1     239.805 236.880 233.718  1.00  0.00     0.160 A 
ATOM      2  C   UNL     1     241.204 236.798 233.654  1.00  0.00     0.157 A 
ATOM      3  C   UNL     1     241.996 237.714 234.358  1.00  0.00     0.050 A 
ATOM      4  C   UNL     1     241.398 238.713 235.131  1.00  0.00     0.008 A 
ATOM      5  C   UNL     1     240.001 238.802 235.213  1.00  0.00    -0.040 A 
ATOM      6  C   UNL     1     239.208 237.889 234.498  1.00  0.00     0.054 A 
ENDROOT
BRANCH   1   7
ATOM      7  O   UNL     1     239.047 235.947 232.993  1.00  0.00    -0.493 OA
ATOM      8  C   UNL     1     237.706 236.158 232.565  1.00  0.00     0.278 C 
ENDBRANCH   1   7
BRANCH   2   9
ATOM      9  O   UNL     1     241.801 235.801 232.884  1.00  0.00    -0.504 OA
ATOM     10  H   UNL     1     242.044 235.955 231.912  1.00  0.00     0.293 HD
ENDBRANCH   2   9
BRANCH   5  11
ATOM     11  C   UNL     1     239.354 239.894 236.021  1.00  0.00     0.062 C 
BRANCH  11  12
ATOM     12  C   UNL     1     238.212 239.352 236.834  1.00  0.00    -0.030 C 
ATOM     13  C   UNL     1     237.306 240.158 237.397  1.00  0.00     0.004 C 
ENDBRANCH  11  12
ENDBRANCH   5  11
TORSDOF 4
ENDMDL
MODEL 2
REMARK VINA RESULT:    -3.331      8.154      9.829
REMARK INTER + INTRA:          -4.193
REMARK INTER:                  -4.010
REMARK INTRA:                  -0.183
REMARK UNBOUND:                -0.181
REMARK SMILES C=CCc1ccc(O)c(OC)c1
REMARK SMILES IDX 9 1 7 2 6 3 5 4 4 5 12 6 10 7 11 8 8 9 3 11 2 12 1 13
REMARK H PARENT 8 10
REMARK Flexibility Score: inf
ROOT
ATOM      1  C   UNL     1     236.886 228.652 233.801  1.00  0.00     0.160 A 
ATOM      2  C   UNL     1     236.828 227.257 233.657  1.00  0.00     0.157 A 
ATOM      3  C   UNL     1     237.781 226.445 234.284  1.00  0.00     0.050 A 
ATOM      4  C   UNL     1     238.794 227.016 235.059  1.00  0.00     0.008 A 
ATOM      5  C   UNL     1     238.860 228.408 235.220  1.00  0.00    -0.040 A 
ATOM      6  C   UNL     1     237.910 229.223 234.583  1.00  0.00     0.054 A 
ENDROOT
BRANCH   1   7
ATOM      7  O   UNL     1     235.916 229.432 233.152  1.00  0.00    -0.493 OA
ATOM      8  C   UNL     1     236.164 230.710 232.577  1.00  0.00     0.278 C 
ENDBRANCH   1   7
BRANCH   2   9
ATOM      9  O   UNL     1     235.818 226.686 232.886  1.00  0.00    -0.504 OA
ATOM     10  H   UNL     1     236.008 226.280 231.978  1.00  0.00     0.293 HD
ENDBRANCH   2   9
BRANCH   5  11
ATOM     11  C   UNL     1     239.967 229.028 236.030  1.00  0.00     0.062 C 
BRANCH  11  12
ATOM     12  C   UNL     1     239.480 230.258 236.745  1.00  0.00    -0.030 C 
ATOM     13  C   UNL     1     240.306 231.025 237.463  1.00  0.00     0.004 C 
ENDBRANCH  11  12
ENDBRANCH   5  11
TORSDOF 4
ENDMDL
MODEL 3
REMARK VINA RESULT:    -3.329     11.278     13.881
REMARK INTER + INTRA:          -4.191
REMARK INTER:                  -4.009
REMARK INTRA:                  -0.182
REMARK UNBOUND:                -0.181
REMARK SMILES C=CCc1ccc(O)c(OC)c1
REMARK SMILES IDX 9 1 7 2 6 3 5 4 4 5 12 6 10 7 11 8 8 9 3 11 2 12 1 13
REMARK H PARENT 8 10
REMARK Flexibility Score: inf
ROOT
ATOM      1  C   UNL     1     228.674 231.650 233.758  1.00  0.00     0.160 A 
ATOM      2  C   UNL     1     227.283 231.782 233.638  1.00  0.00     0.157 A 
ATOM      3  C   UNL     1     226.431 230.882 234.291  1.00  0.00     0.050 A 
ATOM      4  C   UNL     1     226.961 229.849 235.068  1.00  0.00     0.008 A 
ATOM      5  C   UNL     1     228.350 229.709 235.205  1.00  0.00    -0.040 A 
ATOM      6  C   UNL     1     229.203 230.606 234.542  1.00  0.00     0.054 A 
ENDROOT
BRANCH   1   7
ATOM      7  O   UNL     1     229.493 232.568 233.083  1.00  0.00    -0.493 OA
ATOM      8  C   UNL     1     230.781 232.263 232.556  1.00  0.00     0.278 C 
ENDBRANCH   1   7
BRANCH   2   9
ATOM      9  O   UNL     1     226.753 232.813 232.864  1.00  0.00    -0.504 OA
ATOM     10  H   UNL     1     226.062 232.636 232.145  1.00  0.00     0.293 HD
ENDBRANCH   2   9
BRANCH   5  11
ATOM     11  C   UNL     1     228.924 228.579 236.018  1.00  0.00     0.062 C 
BRANCH  11  12
ATOM     12  C   UNL     1     230.201 229.000 236.690  1.00  0.00    -0.030 C 
ATOM     13  C   UNL     1     230.928 228.144 237.413  1.00  0.00     0.004 C 
ENDBRANCH  11  12
ENDBRANCH   5  11
TORSDOF 4
ENDMDL
MODEL 4
REMARK VINA RESULT:    -3.261      7.746      9.188
REMARK INTER + INTRA:          -4.109
REMARK INTER:                  -3.912
REMARK INTRA:                  -0.197
REMARK UNBOUND:                -0.181
REMARK SMILES C=CCc1ccc(O)c(OC)c1
REMARK SMILES IDX 9 1 7 2 6 3 5 4 4 5 12 6 10 7 11 8 8 9 3 11 2 12 1 13
REMARK H PARENT 8 10
REMARK Flexibility Score: inf
ROOT
ATOM      1  C   UNL     1     232.188 239.640 233.366  1.00  0.00     0.160 A 
ATOM      2  C   UNL     1     232.135 241.029 233.553  1.00  0.00     0.157 A 
ATOM      3  C   UNL     1     231.450 241.565 234.651  1.00  0.00     0.050 A 
ATOM      4  C   UNL     1     230.818 240.721 235.568  1.00  0.00     0.008 A 
ATOM      5  C   UNL     1     230.871 239.330 235.399  1.00  0.00    -0.040 A 
ATOM      6  C   UNL     1     231.549 238.793 234.293  1.00  0.00     0.054 A 
ENDROOT
BRANCH   1   7
ATOM      7  O   UNL     1     232.880 239.142 232.250  1.00  0.00    -0.493 OA
ATOM      8  C   UNL     1     232.921 237.769 231.875  1.00  0.00     0.278 C 
ENDBRANCH   1   7
BRANCH   2   9
ATOM      9  O   UNL     1     232.766 241.872 232.640  1.00  0.00    -0.504 OA
ATOM     10  H   UNL     1     233.678 242.272 232.829  1.00  0.00     0.293 HD
ENDBRANCH   2   9
BRANCH   5  11
ATOM     11  C   UNL     1     230.166 238.419 236.369  1.00  0.00     0.062 C 
BRANCH  11  12
ATOM     12  C   UNL     1     228.733 238.837 236.549  1.00  0.00    -0.030 C 
ATOM     13  C   UNL     1     227.940 238.255 237.453  1.00  0.00     0.004 C 
ENDBRANCH  11  12
ENDBRANCH   5  11
TORSDOF 4
ENDMDL
MODEL 5
REMARK VINA RESULT:    -3.237     12.243     14.702
REMARK INTER + INTRA:          -4.081
REMARK INTER:                  -3.855
REMARK INTRA:                  -0.225
REMARK UNBOUND:                -0.181
REMARK SMILES C=CCc1ccc(O)c(OC)c1
REMARK SMILES IDX 9 1 7 2 6 3 5 4 4 5 12 6 10 7 11 8 8 9 3 11 2 12 1 13
REMARK H PARENT 8 10
REMARK Flexibility Score: inf
ROOT
ATOM      1  C   UNL     1     226.254 229.813 234.120  1.00  0.00     0.160 A 
ATOM      2  C   UNL     1     226.929 228.853 234.888  1.00  0.00     0.157 A 
ATOM      3  C   UNL     1     228.261 229.064 235.267  1.00  0.00     0.050 A 
ATOM      4  C   UNL     1     228.924 230.233 234.886  1.00  0.00     0.008 A 
ATOM      5  C   UNL     1     228.260 231.207 234.126  1.00  0.00    -0.040 A 
ATOM      6  C   UNL     1     226.928 230.990 233.737  1.00  0.00     0.054 A 
ENDROOT
BRANCH   1   7
ATOM      7  O   UNL     1     224.922 229.561 233.755  1.00  0.00    -0.493 OA
ATOM      8  C   UNL     1     224.508 229.137 232.460  1.00  0.00     0.278 C 
ENDBRANCH   1   7
BRANCH   2   9
ATOM      9  O   UNL     1     226.268 227.687 235.270  1.00  0.00    -0.504 OA
ATOM     10  H   UNL     1     225.953 227.007 234.588  1.00  0.00     0.293 HD
ENDBRANCH   2   9
BRANCH   5  11
ATOM     11  C   UNL     1     228.982 232.454 233.689  1.00  0.00     0.062 C 
BRANCH  11  12
ATOM     12  C   UNL     1     230.256 232.108 232.971  1.00  0.00    -0.030 C 
ATOM     13  C   UNL     1     230.686 232.818 231.923  1.00  0.00     0.004 C 
ENDBRANCH  11  12
ENDBRANCH   5  11
TORSDOF 4
ENDMDL
MODEL 6
REMARK VINA RESULT:    -3.236      8.791     11.055
REMARK INTER + INTRA:          -4.079
REMARK INTER:                  -3.854
REMARK INTRA:                  -0.226
REMARK UNBOUND:                -0.181
REMARK SMILES C=CCc1ccc(O)c(OC)c1
REMARK SMILES IDX 9 1 7 2 6 3 5 4 4 5 12 6 10 7 11 8 8 9 3 11 2 12 1 13
REMARK H PARENT 8 10
REMARK Flexibility Score: inf
ROOT
ATOM      1  C   UNL     1     229.778 242.261 234.111  1.00  0.00     0.160 A 
ATOM      2  C   UNL     1     228.793 241.587 234.849  1.00  0.00     0.157 A 
ATOM      3  C   UNL     1     228.994 240.258 235.243  1.00  0.00     0.050 A 
ATOM      4  C   UNL     1     230.177 239.596 234.907  1.00  0.00     0.008 A 
ATOM      5  C   UNL     1     231.176 240.259 234.178  1.00  0.00    -0.040 A 
ATOM      6  C   UNL     1     230.969 241.587 233.774  1.00  0.00     0.054 A 
ENDROOT
BRANCH   1   7
ATOM      7  O   UNL     1     229.535 243.590 233.730  1.00  0.00    -0.493 OA
ATOM      8  C   UNL     1     229.175 243.997 232.413  1.00  0.00     0.278 C 
ENDBRANCH   1   7
BRANCH   2   9
ATOM      9  O   UNL     1     227.613 242.248 235.186  1.00  0.00    -0.504 OA
ATOM     10  H   UNL     1     227.565 242.879 235.977  1.00  0.00     0.293 HD
ENDBRANCH   2   9
BRANCH   5  11
ATOM     11  C   UNL     1     232.439 239.538 233.789  1.00  0.00     0.062 C 
BRANCH  11  12
ATOM     12  C   UNL     1     232.124 238.302 232.993  1.00  0.00    -0.030 C 
ATOM     13  C   UNL     1     232.846 237.953 231.924  1.00  0.00     0.004 C 
ENDBRANCH  11  12
ENDBRANCH   5  11
TORSDOF 4
ENDMDL
MODEL 7
REMARK VINA RESULT:    -3.228      2.308      4.510
REMARK INTER + INTRA:          -4.069
REMARK INTER:                  -3.846
REMARK INTRA:                  -0.223
REMARK UNBOUND:                -0.181
REMARK SMILES C=CCc1ccc(O)c(OC)c1
REMARK SMILES IDX 9 1 7 2 6 3 5 4 4 5 12 6 10 7 11 8 8 9 3 11 2 12 1 13
REMARK H PARENT 8 10
REMARK Flexibility Score: inf
ROOT
ATOM      1  C   UNL     1     242.061 238.605 234.193  1.00  0.00     0.160 A 
ATOM      2  C   UNL     1     241.342 239.539 234.952  1.00  0.00     0.157 A 
ATOM      3  C   UNL     1     239.996 239.306 235.264  1.00  0.00     0.050 A 
ATOM      4  C   UNL     1     239.363 238.141 234.822  1.00  0.00     0.008 A 
ATOM      5  C   UNL     1     240.072 237.193 234.070  1.00  0.00    -0.040 A 
ATOM      6  C   UNL     1     241.418 237.432 233.750  1.00  0.00     0.054 A 
ENDROOT
BRANCH   1   7
ATOM      7  O   UNL     1     243.406 238.878 233.897  1.00  0.00    -0.493 OA
ATOM      8  C   UNL     1     243.882 239.293 232.621  1.00  0.00     0.278 C 
ENDBRANCH   1   7
BRANCH   2   9
ATOM      9  O   UNL     1     241.972 240.700 235.394  1.00  0.00    -0.504 OA
ATOM     10  H   UNL     1     242.534 241.269 234.772  1.00  0.00     0.293 HD
ENDBRANCH   2   9
BRANCH   5  11
ATOM     11  C   UNL     1     239.384 235.951 233.569  1.00  0.00     0.062 C 
BRANCH  11  12
ATOM     12  C   UNL     1     238.097 236.298 232.874  1.00  0.00    -0.030 C 
ATOM     13  C   UNL     1     237.615 235.552 231.875  1.00  0.00     0.004 C 
ENDBRANCH  11  12
ENDBRANCH   5  11
TORSDOF 4
ENDMDL
MODEL 8
REMARK VINA RESULT:    -3.217      2.767      4.372
REMARK INTER + INTRA:          -4.056
REMARK INTER:                  -3.802
REMARK INTRA:                  -0.254
REMARK UNBOUND:                -0.181
REMARK SMILES C=CCc1ccc(O)c(OC)c1
REMARK SMILES IDX 9 1 7 2 6 3 5 4 4 5 12 6 10 7 11 8 8 9 3 11 2 12 1 13
REMARK H PARENT 8 10
REMARK Flexibility Score: inf
ROOT
ATOM      1  C   UNL     1     241.047 236.741 234.469  1.00  0.00     0.160 A 
ATOM      2  C   UNL     1     241.090 235.907 235.596  1.00  0.00     0.157 A 
ATOM      3  C   UNL     1     239.944 235.209 236.000  1.00  0.00     0.050 A 
ATOM      4  C   UNL     1     238.752 235.338 235.282  1.00  0.00     0.008 A 
ATOM      5  C   UNL     1     238.696 236.160 234.147  1.00  0.00    -0.040 A 
ATOM      6  C   UNL     1     239.843 236.867 233.749  1.00  0.00     0.054 A 
ENDROOT
BRANCH   1   7
ATOM      7  O   UNL     1     242.215 237.427 234.101  1.00  0.00    -0.493 OA
ATOM      8  C   UNL     1     242.262 238.806 233.749  1.00  0.00     0.278 C 
ENDBRANCH   1   7
BRANCH   2   9
ATOM      9  O   UNL     1     242.278 235.777 236.313  1.00  0.00    -0.504 OA
ATOM     10  H   UNL     1     242.385 236.170 237.241  1.00  0.00     0.293 HD
ENDBRANCH   2   9
BRANCH   5  11
ATOM     11  C   UNL     1     237.406 236.323 233.389  1.00  0.00     0.062 C 
BRANCH  11  12
ATOM     12  C   UNL     1     237.494 235.665 232.040  1.00  0.00    -0.030 C 
ATOM     13  C   UNL     1     237.235 234.365 231.875  1.00  0.00     0.004 C 
ENDBRANCH  11  12
ENDBRANCH   5  11
TORSDOF 4
ENDMDL
MODEL 9
REMARK VINA RESULT:    -3.199      9.249     10.751
REMARK INTER + INTRA:          -4.035
REMARK INTER:                  -3.815
REMARK INTRA:                  -0.220
REMARK UNBOUND:                -0.181
REMARK SMILES C=CCc1ccc(O)c(OC)c1
REMARK SMILES IDX 9 1 7 2 6 3 5 4 4 5 12 6 10 7 11 8 8 9 3 11 2 12 1 13
REMARK H PARENT 8 10
REMARK Flexibility Score: inf
ROOT
ATOM      1  C   UNL     1     238.680 226.171 234.161  1.00  0.00     0.160 A 
ATOM      2  C   UNL     1     239.648 226.831 234.934  1.00  0.00     0.157 A 
ATOM      3  C   UNL     1     239.467 228.173 235.292  1.00  0.00     0.050 A 
ATOM      4  C   UNL     1     238.321 228.862 234.886  1.00  0.00     0.008 A 
ATOM      5  C   UNL     1     237.341 228.213 234.121  1.00  0.00    -0.040 A 
ATOM      6  C   UNL     1     237.528 226.871 233.753  1.00  0.00     0.054 A 
ENDROOT
BRANCH   1   7
ATOM      7  O   UNL     1     238.902 224.828 233.817  1.00  0.00    -0.493 OA
ATOM      8  C   UNL     1     239.235 224.376 232.508  1.00  0.00     0.278 C 
ENDBRANCH   1   7
BRANCH   2   9
ATOM      9  O   UNL     1     240.790 226.144 235.341  1.00  0.00    -0.504 OA
ATOM     10  H   UNL     1     241.717 226.449 235.070  1.00  0.00     0.293 HD
ENDBRANCH   2   9
BRANCH   5  11
ATOM     11  C   UNL     1     236.120 228.962 233.657  1.00  0.00     0.062 C 
BRANCH  11  12
ATOM     12  C   UNL     1     236.505 230.273 233.029  1.00  0.00    -0.030 C 
ATOM     13  C   UNL     1     235.721 230.877 232.131  1.00  0.00     0.004 C 
ENDBRANCH  11  12
ENDBRANCH   5  11
TORSDOF 4
ENDMDL
