MODEL 1
REMARK VINA RESULT:    -0.164      0.000      0.000
REMARK INTER + INTRA:           1.914
REMARK INTER:                  -0.433
REMARK INTRA:                   2.348
REMARK UNBOUND:                 2.348
REMARK SMILES CCCCCCCCCCCCCCCCCCCCCCCCCCCCCC(=O)[O-]
REMARK SMILES IDX 16 1 17 2 18 3 19 4 20 5 21 6 22 7 23 8 24 9 25 10 26 11
REMARK SMILES IDX 27 12 28 13 29 14 30 15 31 16 32 17 15 18 14 19 13 20 12 21
REMARK SMILES IDX 11 22 10 23 9 24 8 25 7 26 6 27 5 28 4 29 3 30 2 31 1 32
REMARK H PARENT
REMARK Flexibility Score: inf
ROOT
ATOM      1  C   UNL     1      18.605   9.059 -15.453  1.00  0.00     0.000 C 
ENDROOT
BRANCH   1   2
ATOM      2  C   UNL     1      17.437   8.257 -16.066  1.00  0.00     0.000 C 
BRANCH   2   3
ATOM      3  C   UNL     1      16.058   8.930 -15.913  1.00  0.00     0.000 C 
BRANCH   3   4
ATOM      4  C   UNL     1      14.971   7.958 -15.429  1.00  0.00     0.000 C 
BRANCH   4   5
ATOM      5  C   UNL     1      13.590   8.628 -15.434  1.00  0.00     0.000 C 
BRANCH   5   6
ATOM      6  C   UNL     1      13.647  10.088 -15.923  1.00  0.00     0.000 C 
BRANCH   6   7
ATOM      7  C   UNL     1      14.015  11.107 -14.822  1.00  0.00     0.000 C 
BRANCH   7   8
ATOM      8  C   UNL     1      14.405  12.496 -15.362  1.00  0.00     0.000 C 
BRANCH   8   9
ATOM      9  C   UNL     1      15.791  12.514 -16.050  1.00  0.00     0.000 C 
BRANCH   9  10
ATOM     10  C   UNL     1      16.942  12.678 -15.045  1.00  0.00     0.000 C 
BRANCH  10  11
ATOM     11  C   UNL     1      18.183  13.303 -15.706  1.00  0.00     0.000 C 
BRANCH  11  12
ATOM     12  C   UNL     1      19.389  13.394 -14.757  1.00  0.00     0.000 C 
BRANCH  12  13
ATOM     13  C   UNL     1      19.553  12.196 -13.796  1.00  0.00     0.006 C 
BRANCH  13  14
ATOM     14  C   UNL     1      18.333  11.911 -12.903  1.00  0.00     0.053 C 
BRANCH  14  15
ATOM     15  C   UNL     1      17.954  10.460 -12.909  1.00  0.00     0.041 C 
ATOM     16  O   UNL     1      18.791   9.586 -12.560  1.00  0.00    -0.550 OA
ATOM     17  O   UNL     1      16.677  10.074 -13.297  1.00  0.00    -0.550 OA
ENDBRANCH  14  15
ENDBRANCH  13  14
ENDBRANCH  12  13
ENDBRANCH  11  12
ENDBRANCH  10  11
ENDBRANCH   9  10
ENDBRANCH   8   9
ENDBRANCH   7   8
ENDBRANCH   6   7
ENDBRANCH   5   6
ENDBRANCH   4   5
ENDBRANCH   3   4
ENDBRANCH   2   3
ENDBRANCH   1   2
BRANCH   1  18
ATOM     18  C   UNL     1      19.980   8.368 -15.488  1.00  0.00     0.000 C 
BRANCH  18  19
ATOM     19  C   UNL     1      21.148   9.215 -16.031  1.00  0.00     0.000 C 
BRANCH  19  20
ATOM     20  C   UNL     1      21.798  10.157 -14.995  1.00  0.00     0.000 C 
BRANCH  20  21
ATOM     21  C   UNL     1      22.685  11.241 -15.639  1.00  0.00     0.000 C 
BRANCH  21  22
ATOM     22  C   UNL     1      23.017  12.382 -14.658  1.00  0.00     0.000 C 
BRANCH  22  23
ATOM     23  C   UNL     1      23.123  13.762 -15.332  1.00  0.00     0.000 C 
BRANCH  23  24
ATOM     24  C   UNL     1      21.827  14.150 -16.067  1.00  0.00    -0.000 C 
BRANCH  24  25
ATOM     25  C   UNL     1      20.984  15.174 -15.290  1.00  0.00    -0.000 C 
BRANCH  25  26
ATOM     26  C   UNL     1      21.041  16.578 -15.915  1.00  0.00    -0.000 C 
BRANCH  26  27
ATOM     27  C   UNL     1      22.479  17.076 -16.121  1.00  0.00    -0.000 C 
BRANCH  27  28
ATOM     28  C   UNL     1      22.618  18.595 -15.911  1.00  0.00    -0.000 C 
BRANCH  28  29
ATOM     29  C   UNL     1      22.431  19.015 -14.445  1.00  0.00    -0.000 C 
BRANCH  29  30
ATOM     30  C   UNL     1      23.124  20.350 -14.120  1.00  0.00    -0.000 C 
BRANCH  30  31
ATOM     31  C   UNL     1      22.396  21.553 -14.740  1.00  0.00    -0.003 C 
ATOM     32  C   UNL     1      23.053  22.040 -16.032  1.00  0.00     0.004 C 
ENDBRANCH  30  31
ENDBRANCH  29  30
ENDBRANCH  28  29
ENDBRANCH  27  28
ENDBRANCH  26  27
ENDBRANCH  25  26
ENDBRANCH  24  25
ENDBRANCH  23  24
ENDBRANCH  22  23
ENDBRANCH  21  22
ENDBRANCH  20  21
ENDBRANCH  19  20
ENDBRANCH  18  19
ENDBRANCH   1  18
TORSDOF 28
ENDMDL
MODEL 2
REMARK VINA RESULT:     1.897      1.678      2.280
REMARK INTER + INTRA:           7.351
REMARK INTER:                   1.633
REMARK INTRA:                   5.718
REMARK UNBOUND:                 2.348
REMARK SMILES CCCCCCCCCCCCCCCCCCCCCCCCCCCCCC(=O)[O-]
REMARK SMILES IDX 16 1 17 2 18 3 19 4 20 5 21 6 22 7 23 8 24 9 25 10 26 11
REMARK SMILES IDX 27 12 28 13 29 14 30 15 31 16 32 17 15 18 14 19 13 20 12 21
REMARK SMILES IDX 11 22 10 23 9 24 8 25 7 26 6 27 5 28 4 29 3 30 2 31 1 32
REMARK H PARENT
REMARK Flexibility Score: inf
ROOT
ATOM      1  C   UNL     1      18.602   9.050 -15.437  1.00  0.00     0.000 C 
ENDROOT
BRANCH   1   2
ATOM      2  C   UNL     1      17.421   8.237 -16.006  1.00  0.00     0.000 C 
BRANCH   2   3
ATOM      3  C   UNL     1      16.042   8.903 -15.818  1.00  0.00     0.000 C 
BRANCH   3   4
ATOM      4  C   UNL     1      14.977   7.931 -15.290  1.00  0.00     0.000 C 
BRANCH   4   5
ATOM      5  C   UNL     1      13.594   8.596 -15.252  1.00  0.00     0.000 C 
BRANCH   5   6
ATOM      6  C   UNL     1      13.625  10.047 -15.769  1.00  0.00     0.000 C 
BRANCH   6   7
ATOM      7  C   UNL     1      14.054  11.083 -14.708  1.00  0.00     0.000 C 
BRANCH   7   8
ATOM      8  C   UNL     1      14.399  12.467 -15.291  1.00  0.00     0.000 C 
BRANCH   8   9
ATOM      9  C   UNL     1      15.726  12.479 -16.085  1.00  0.00     0.000 C 
BRANCH   9  10
ATOM     10  C   UNL     1      16.953  12.635 -15.173  1.00  0.00     0.000 C 
BRANCH  10  11
ATOM     11  C   UNL     1      18.185  13.113 -15.961  1.00  0.00     0.000 C 
BRANCH  11  12
ATOM     12  C   UNL     1      19.462  13.168 -15.107  1.00  0.00     0.000 C 
BRANCH  12  13
ATOM     13  C   UNL     1      19.616  12.013 -14.092  1.00  0.00     0.006 C 
BRANCH  13  14
ATOM     14  C   UNL     1      19.987  12.453 -12.665  1.00  0.00     0.053 C 
BRANCH  14  15
ATOM     15  C   UNL     1      21.404  12.933 -12.571  1.00  0.00     0.041 C 
ATOM     16  O   UNL     1      22.350  12.105 -12.509  1.00  0.00    -0.550 OA
ATOM     17  O   UNL     1      21.679  14.295 -12.555  1.00  0.00    -0.550 OA
ENDBRANCH  14  15
ENDBRANCH  13  14
ENDBRANCH  12  13
ENDBRANCH  11  12
ENDBRANCH  10  11
ENDBRANCH   9  10
ENDBRANCH   8   9
ENDBRANCH   7   8
ENDBRANCH   6   7
ENDBRANCH   5   6
ENDBRANCH   4   5
ENDBRANCH   3   4
ENDBRANCH   2   3
ENDBRANCH   1   2
BRANCH   1  18
ATOM     18  C   UNL     1      19.983   8.377 -15.531  1.00  0.00     0.000 C 
BRANCH  18  19
ATOM     19  C   UNL     1      21.115   9.240 -16.125  1.00  0.00     0.000 C 
BRANCH  19  20
ATOM     20  C   UNL     1      21.803  10.183 -15.116  1.00  0.00     0.000 C 
BRANCH  20  21
ATOM     21  C   UNL     1      22.632  11.291 -15.796  1.00  0.00     0.000 C 
BRANCH  21  22
ATOM     22  C   UNL     1      23.002  12.425 -14.821  1.00  0.00     0.000 C 
BRANCH  22  23
ATOM     23  C   UNL     1      23.023  13.818 -15.477  1.00  0.00     0.000 C 
BRANCH  23  24
ATOM     24  C   UNL     1      21.671  14.176 -16.122  1.00  0.00    -0.000 C 
BRANCH  24  25
ATOM     25  C   UNL     1      20.833  15.132 -15.258  1.00  0.00    -0.000 C 
BRANCH  25  26
ATOM     26  C   UNL     1      20.803  16.563 -15.822  1.00  0.00    -0.000 C 
BRANCH  26  27
ATOM     27  C   UNL     1      22.209  17.125 -16.083  1.00  0.00    -0.000 C 
BRANCH  27  28
ATOM     28  C   UNL     1      22.314  18.630 -15.774  1.00  0.00    -0.000 C 
BRANCH  28  29
ATOM     29  C   UNL     1      21.764  18.996 -14.387  1.00  0.00    -0.000 C 
BRANCH  29  30
ATOM     30  C   UNL     1      21.660  17.778 -13.453  1.00  0.00    -0.000 C 
BRANCH  30  31
ATOM     31  C   UNL     1      23.035  17.290 -12.970  1.00  0.00    -0.003 C 
ATOM     32  C   UNL     1      23.053  15.796 -12.650  1.00  0.00     0.004 C 
ENDBRANCH  30  31
ENDBRANCH  29  30
ENDBRANCH  28  29
ENDBRANCH  27  28
ENDBRANCH  26  27
ENDBRANCH  25  26
ENDBRANCH  24  25
ENDBRANCH  23  24
ENDBRANCH  22  23
ENDBRANCH  21  22
ENDBRANCH  20  21
ENDBRANCH  19  20
ENDBRANCH  18  19
ENDBRANCH   1  18
TORSDOF 28
ENDMDL
MODEL 3
REMARK VINA RESULT:     2.598      1.921      4.931
REMARK INTER + INTRA:           9.199
REMARK INTER:                   2.051
REMARK INTRA:                   7.148
REMARK UNBOUND:                 2.348
REMARK SMILES CCCCCCCCCCCCCCCCCCCCCCCCCCCCCC(=O)[O-]
REMARK SMILES IDX 16 1 17 2 18 3 19 4 20 5 21 6 22 7 23 8 24 9 25 10 26 11
REMARK SMILES IDX 27 12 28 13 29 14 30 15 31 16 32 17 15 18 14 19 13 20 12 21
REMARK SMILES IDX 11 22 10 23 9 24 8 25 7 26 6 27 5 28 4 29 3 30 2 31 1 32
REMARK H PARENT
REMARK Flexibility Score: inf
ROOT
ATOM      1  C   UNL     1      17.603  13.428 -15.276  1.00  0.00     0.000 C 
ENDROOT
BRANCH   1   2
ATOM      2  C   UNL     1      18.345  12.596 -14.208  1.00  0.00     0.000 C 
BRANCH   2   3
ATOM      3  C   UNL     1      17.418  11.874 -13.209  1.00  0.00     0.000 C 
BRANCH   3   4
ATOM      4  C   UNL     1      15.930  12.165 -13.460  1.00  0.00     0.000 C 
BRANCH   4   5
ATOM      5  C   UNL     1      15.450  11.501 -14.758  1.00  0.00     0.000 C 
BRANCH   5   6
ATOM      6  C   UNL     1      13.938  11.206 -14.742  1.00  0.00     0.000 C 
BRANCH   6   7
ATOM      7  C   UNL     1      13.589   9.704 -14.810  1.00  0.00     0.000 C 
BRANCH   7   8
ATOM      8  C   UNL     1      14.776   8.773 -14.494  1.00  0.00     0.000 C 
BRANCH   8   9
ATOM      9  C   UNL     1      16.148   9.399 -14.838  1.00  0.00     0.000 C 
BRANCH   9  10
ATOM     10  C   UNL     1      16.877   8.634 -15.955  1.00  0.00     0.000 C 
BRANCH  10  11
ATOM     11  C   UNL     1      18.350   9.064 -16.064  1.00  0.00     0.000 C 
BRANCH  11  12
ATOM     12  C   UNL     1      18.536  10.589 -16.024  1.00  0.00     0.000 C 
BRANCH  12  13
ATOM     13  C   UNL     1      20.001  11.062 -15.881  1.00  0.00     0.006 C 
BRANCH  13  14
ATOM     14  C   UNL     1      20.853  10.236 -14.901  1.00  0.00     0.053 C 
BRANCH  14  15
ATOM     15  C   UNL     1      21.847   9.366 -15.610  1.00  0.00     0.041 C 
ATOM     16  O   UNL     1      22.879   9.873 -16.125  1.00  0.00    -0.550 OA
ATOM     17  O   UNL     1      21.635   7.996 -15.700  1.00  0.00    -0.550 OA
ENDBRANCH  14  15
ENDBRANCH  13  14
ENDBRANCH  12  13
ENDBRANCH  11  12
ENDBRANCH  10  11
ENDBRANCH   9  10
ENDBRANCH   8   9
ENDBRANCH   7   8
ENDBRANCH   6   7
ENDBRANCH   5   6
ENDBRANCH   4   5
ENDBRANCH   3   4
ENDBRANCH   2   3
ENDBRANCH   1   2
BRANCH   1  18
ATOM     18  C   UNL     1      18.414  14.568 -15.916  1.00  0.00     0.000 C 
BRANCH  18  19
ATOM     19  C   UNL     1      19.929  14.321 -16.060  1.00  0.00     0.000 C 
BRANCH  19  20
ATOM     20  C   UNL     1      20.808  15.575 -15.865  1.00  0.00     0.000 C 
BRANCH  20  21
ATOM     21  C   UNL     1      20.046  16.891 -16.118  1.00  0.00     0.000 C 
BRANCH  21  22
ATOM     22  C   UNL     1      19.730  17.643 -14.812  1.00  0.00     0.000 C 
BRANCH  22  23
ATOM     23  C   UNL     1      20.802  18.678 -14.423  1.00  0.00     0.000 C 
BRANCH  23  24
ATOM     24  C   UNL     1      20.763  19.922 -15.329  1.00  0.00    -0.000 C 
BRANCH  24  25
ATOM     25  C   UNL     1      22.124  20.238 -15.968  1.00  0.00    -0.000 C 
BRANCH  25  26
ATOM     26  C   UNL     1      23.059  19.017 -15.997  1.00  0.00    -0.000 C 
BRANCH  26  27
ATOM     27  C   UNL     1      22.997  18.195 -14.701  1.00  0.00    -0.000 C 
BRANCH  27  28
ATOM     28  C   UNL     1      23.125  16.680 -14.952  1.00  0.00    -0.000 C 
BRANCH  28  29
ATOM     29  C   UNL     1      23.065  15.853 -13.660  1.00  0.00    -0.000 C 
BRANCH  29  30
ATOM     30  C   UNL     1      22.023  14.723 -13.729  1.00  0.00    -0.000 C 
BRANCH  30  31
ATOM     31  C   UNL     1      22.637  13.342 -13.450  1.00  0.00    -0.003 C 
ATOM     32  C   UNL     1      22.781  13.050 -11.957  1.00  0.00     0.004 C 
ENDBRANCH  30  31
ENDBRANCH  29  30
ENDBRANCH  28  29
ENDBRANCH  27  28
ENDBRANCH  26  27
ENDBRANCH  25  26
ENDBRANCH  24  25
ENDBRANCH  23  24
ENDBRANCH  22  23
ENDBRANCH  21  22
ENDBRANCH  20  21
ENDBRANCH  19  20
ENDBRANCH  18  19
ENDBRANCH   1  18
TORSDOF 28
ENDMDL
