MODEL 1
REMARK VINA RESULT:    -3.411      0.000      0.000
REMARK INTER + INTRA:          -7.252
REMARK INTER:                  -5.804
REMARK INTRA:                  -1.448
REMARK UNBOUND:                -1.448
REMARK SMILES CCCCCCCCCCCCCC(=O)[O-]
REMARK SMILES IDX 8 1 9 2 10 3 11 4 12 5 13 6 14 7 15 8 16 9 7 10 6 11 5 12
REMARK SMILES IDX 4 13 3 14 2 15 1 16
REMARK H PARENT
REMARK Flexibility Score: inf
ROOT
ATOM      1  C   UNL     1      26.934  42.092   4.173  1.00  0.00     0.000 C 
ENDROOT
BRANCH   1   2
ATOM      2  C   UNL     1      26.011  40.877   3.989  1.00  0.00     0.000 C 
BRANCH   2   3
ATOM      3  C   UNL     1      24.578  41.278   3.599  1.00  0.00     0.000 C 
BRANCH   3   4
ATOM      4  C   UNL     1      24.180  40.765   2.205  1.00  0.00     0.000 C 
BRANCH   4   5
ATOM      5  C   UNL     1      25.377  40.207   1.414  1.00  0.00     0.006 C 
BRANCH   5   6
ATOM      6  C   UNL     1      24.956  39.637   0.053  1.00  0.00     0.053 C 
BRANCH   6   7
ATOM      7  C   UNL     1      26.040  39.794  -0.970  1.00  0.00     0.041 C 
ATOM      8  O   UNL     1      25.821  40.432  -2.034  1.00  0.00    -0.550 OA
ATOM      9  O   UNL     1      27.302  39.264  -0.733  1.00  0.00    -0.550 OA
ENDBRANCH   6   7
ENDBRANCH   5   6
ENDBRANCH   4   5
ENDBRANCH   3   4
ENDBRANCH   2   3
ENDBRANCH   1   2
BRANCH   1  10
ATOM     10  C   UNL     1      26.181  43.429   4.080  1.00  0.00     0.000 C 
BRANCH  10  11
ATOM     11  C   UNL     1      26.734  44.441   5.091  1.00  0.00    -0.000 C 
BRANCH  11  12
ATOM     12  C   UNL     1      25.624  44.949   6.024  1.00  0.00    -0.000 C 
BRANCH  12  13
ATOM     13  C   UNL     1      24.336  44.118   5.922  1.00  0.00    -0.000 C 
BRANCH  13  14
ATOM     14  C   UNL     1      24.036  43.330   7.206  1.00  0.00    -0.000 C 
BRANCH  14  15
ATOM     15  C   UNL     1      25.260  42.522   7.651  1.00  0.00    -0.003 C 
ATOM     16  C   UNL     1      24.969  41.024   7.632  1.00  0.00     0.004 C 
ENDBRANCH  14  15
ENDBRANCH  13  14
ENDBRANCH  12  13
ENDBRANCH  11  12
ENDBRANCH  10  11
ENDBRANCH   1  10
TORSDOF 12
ENDMDL
MODEL 2
REMARK VINA RESULT:    -3.338      1.910      3.378
REMARK INTER + INTRA:          -7.127
REMARK INTER:                  -5.266
REMARK INTRA:                  -1.862
REMARK UNBOUND:                -1.448
REMARK SMILES CCCCCCCCCCCCCC(=O)[O-]
REMARK SMILES IDX 8 1 9 2 10 3 11 4 12 5 13 6 14 7 15 8 16 9 7 10 6 11 5 12
REMARK SMILES IDX 4 13 3 14 2 15 1 16
REMARK H PARENT
REMARK Flexibility Score: inf
ROOT
ATOM      1  C   UNL     1      24.542  42.168   4.551  1.00  0.00     0.000 C 
ENDROOT
BRANCH   1   2
ATOM      2  C   UNL     1      24.158  40.822   3.915  1.00  0.00     0.000 C 
BRANCH   2   3
ATOM      3  C   UNL     1      24.116  40.886   2.378  1.00  0.00     0.000 C 
BRANCH   3   4
ATOM      4  C   UNL     1      24.245  39.500   1.727  1.00  0.00     0.000 C 
BRANCH   4   5
ATOM      5  C   UNL     1      24.605  39.577   0.233  1.00  0.00     0.006 C 
BRANCH   5   6
ATOM      6  C   UNL     1      26.049  39.133  -0.039  1.00  0.00     0.053 C 
BRANCH   6   7
ATOM      7  C   UNL     1      26.548  39.650  -1.354  1.00  0.00     0.041 C 
ATOM      8  O   UNL     1      25.844  40.445  -2.032  1.00  0.00    -0.550 OA
ATOM      9  O   UNL     1      27.804  39.279  -1.816  1.00  0.00    -0.550 OA
ENDBRANCH   6   7
ENDBRANCH   5   6
ENDBRANCH   4   5
ENDBRANCH   3   4
ENDBRANCH   2   3
ENDBRANCH   1   2
BRANCH   1  10
ATOM     10  C   UNL     1      25.832  42.757   3.959  1.00  0.00     0.000 C 
BRANCH  10  11
ATOM     11  C   UNL     1      27.060  42.304   4.758  1.00  0.00    -0.000 C 
BRANCH  11  12
ATOM     12  C   UNL     1      28.176  41.814   3.822  1.00  0.00    -0.000 C 
BRANCH  12  13
ATOM     13  C   UNL     1      27.703  40.712   2.862  1.00  0.00    -0.000 C 
BRANCH  13  14
ATOM     14  C   UNL     1      28.314  39.341   3.189  1.00  0.00    -0.000 C 
BRANCH  14  15
ATOM     15  C   UNL     1      27.223  38.330   3.561  1.00  0.00    -0.003 C 
ATOM     16  C   UNL     1      26.779  38.507   5.011  1.00  0.00     0.004 C 
ENDBRANCH  14  15
ENDBRANCH  13  14
ENDBRANCH  12  13
ENDBRANCH  11  12
ENDBRANCH  10  11
ENDBRANCH   1  10
TORSDOF 12
ENDMDL
MODEL 3
REMARK VINA RESULT:    -3.286      1.179      2.647
REMARK INTER + INTRA:          -7.039
REMARK INTER:                  -5.428
REMARK INTRA:                  -1.611
REMARK UNBOUND:                -1.448
REMARK SMILES CCCCCCCCCCCCCC(=O)[O-]
REMARK SMILES IDX 8 1 9 2 10 3 11 4 12 5 13 6 14 7 15 8 16 9 7 10 6 11 5 12
REMARK SMILES IDX 4 13 3 14 2 15 1 16
REMARK H PARENT
REMARK Flexibility Score: inf
ROOT
ATOM      1  C   UNL     1      24.019  41.826   6.248  1.00  0.00     0.000 C 
ENDROOT
BRANCH   1   2
ATOM      2  C   UNL     1      24.724  40.517   5.860  1.00  0.00     0.000 C 
BRANCH   2   3
ATOM      3  C   UNL     1      24.270  39.985   4.489  1.00  0.00     0.000 C 
BRANCH   3   4
ATOM      4  C   UNL     1      24.237  41.083   3.413  1.00  0.00     0.000 C 
BRANCH   4   5
ATOM      5  C   UNL     1      25.208  40.806   2.252  1.00  0.00     0.006 C 
BRANCH   5   6
ATOM      6  C   UNL     1      24.539  40.029   1.110  1.00  0.00     0.053 C 
BRANCH   6   7
ATOM      7  C   UNL     1      25.524  39.659   0.043  1.00  0.00     0.041 C 
ATOM      8  O   UNL     1      25.122  39.319  -1.102  1.00  0.00    -0.550 OA
ATOM      9  O   UNL     1      26.887  39.720   0.303  1.00  0.00    -0.550 OA
ENDBRANCH   6   7
ENDBRANCH   5   6
ENDBRANCH   4   5
ENDBRANCH   3   4
ENDBRANCH   2   3
ENDBRANCH   1   2
BRANCH   1  10
ATOM     10  C   UNL     1      24.491  42.375   7.603  1.00  0.00     0.000 C 
BRANCH  10  11
ATOM     11  C   UNL     1      25.099  43.774   7.447  1.00  0.00    -0.000 C 
BRANCH  11  12
ATOM     12  C   UNL     1      24.800  44.352   6.055  1.00  0.00    -0.000 C 
BRANCH  12  13
ATOM     13  C   UNL     1      26.065  44.830   5.326  1.00  0.00    -0.000 C 
BRANCH  13  14
ATOM     14  C   UNL     1      26.594  43.799   4.318  1.00  0.00    -0.000 C 
BRANCH  14  15
ATOM     15  C   UNL     1      27.633  42.878   4.969  1.00  0.00    -0.003 C 
ATOM     16  C   UNL     1      28.132  41.825   3.984  1.00  0.00     0.004 C 
ENDBRANCH  14  15
ENDBRANCH  13  14
ENDBRANCH  12  13
ENDBRANCH  11  12
ENDBRANCH  10  11
ENDBRANCH   1  10
TORSDOF 12
ENDMDL
MODEL 4
REMARK VINA RESULT:    -3.191     19.280     21.130
REMARK INTER + INTRA:          -6.877
REMARK INTER:                  -5.922
REMARK INTRA:                  -0.955
REMARK UNBOUND:                -1.448
REMARK SMILES CCCCCCCCCCCCCC(=O)[O-]
REMARK SMILES IDX 8 1 9 2 10 3 11 4 12 5 13 6 14 7 15 8 16 9 7 10 6 11 5 12
REMARK SMILES IDX 4 13 3 14 2 15 1 16
REMARK H PARENT
REMARK Flexibility Score: inf
ROOT
ATOM      1  C   UNL     1      41.037  31.092   3.868  1.00  0.00     0.000 C 
ENDROOT
BRANCH   1   2
ATOM      2  C   UNL     1      40.540  29.716   4.338  1.00  0.00     0.000 C 
BRANCH   2   3
ATOM      3  C   UNL     1      40.786  29.479   5.838  1.00  0.00     0.000 C 
BRANCH   3   4
ATOM      4  C   UNL     1      41.932  28.488   6.098  1.00  0.00     0.000 C 
BRANCH   4   5
ATOM      5  C   UNL     1      43.224  29.182   6.565  1.00  0.00     0.006 C 
BRANCH   5   6
ATOM      6  C   UNL     1      42.960  30.596   7.102  1.00  0.00     0.053 C 
BRANCH   6   7
ATOM      7  C   UNL     1      43.106  30.657   8.592  1.00  0.00     0.041 C 
ATOM      8  O   UNL     1      43.289  29.602   9.256  1.00  0.00    -0.550 OA
ATOM      9  O   UNL     1      43.072  31.883   9.244  1.00  0.00    -0.550 OA
ENDBRANCH   6   7
ENDBRANCH   5   6
ENDBRANCH   4   5
ENDBRANCH   3   4
ENDBRANCH   2   3
ENDBRANCH   1   2
BRANCH   1  10
ATOM     10  C   UNL     1      42.494  31.062   3.380  1.00  0.00     0.000 C 
BRANCH  10  11
ATOM     11  C   UNL     1      42.838  32.339   2.603  1.00  0.00    -0.000 C 
BRANCH  11  12
ATOM     12  C   UNL     1      44.036  32.108   1.668  1.00  0.00    -0.000 C 
BRANCH  12  13
ATOM     13  C   UNL     1      44.025  33.044   0.450  1.00  0.00    -0.000 C 
BRANCH  13  14
ATOM     14  C   UNL     1      42.605  33.379  -0.028  1.00  0.00    -0.000 C 
BRANCH  14  15
ATOM     15  C   UNL     1      42.160  32.420  -1.139  1.00  0.00    -0.003 C 
ATOM     16  C   UNL     1      40.745  32.742  -1.612  1.00  0.00     0.004 C 
ENDBRANCH  14  15
ENDBRANCH  13  14
ENDBRANCH  12  13
ENDBRANCH  11  12
ENDBRANCH  10  11
ENDBRANCH   1  10
TORSDOF 12
ENDMDL
MODEL 5
REMARK VINA RESULT:    -3.191      3.767      7.171
REMARK INTER + INTRA:          -6.877
REMARK INTER:                  -5.923
REMARK INTRA:                  -0.954
REMARK UNBOUND:                -1.448
REMARK SMILES CCCCCCCCCCCCCC(=O)[O-]
REMARK SMILES IDX 8 1 9 2 10 3 11 4 12 5 13 6 14 7 15 8 16 9 7 10 6 11 5 12
REMARK SMILES IDX 4 13 3 14 2 15 1 16
REMARK H PARENT
REMARK Flexibility Score: inf
ROOT
ATOM      1  C   UNL     1      24.994  40.340   2.305  1.00  0.00     0.000 C 
ENDROOT
BRANCH   1   2
ATOM      2  C   UNL     1      24.389  40.587   3.695  1.00  0.00     0.000 C 
BRANCH   2   3
ATOM      3  C   UNL     1      24.529  42.051   4.148  1.00  0.00     0.000 C 
BRANCH   3   4
ATOM      4  C   UNL     1      25.887  42.660   3.764  1.00  0.00     0.000 C 
BRANCH   4   5
ATOM      5  C   UNL     1      26.539  43.436   4.922  1.00  0.00     0.006 C 
BRANCH   5   6
ATOM      6  C   UNL     1      25.569  44.433   5.571  1.00  0.00     0.053 C 
BRANCH   6   7
ATOM      7  C   UNL     1      26.182  45.794   5.704  1.00  0.00     0.041 C 
ATOM      8  O   UNL     1      27.350  45.922   6.156  1.00  0.00    -0.550 OA
ATOM      9  O   UNL     1      25.475  46.918   5.296  1.00  0.00    -0.550 OA
ENDBRANCH   6   7
ENDBRANCH   5   6
ENDBRANCH   4   5
ENDBRANCH   3   4
ENDBRANCH   2   3
ENDBRANCH   1   2
BRANCH   1  10
ATOM     10  C   UNL     1      23.930  40.021   1.243  1.00  0.00     0.000 C 
BRANCH  10  11
ATOM     11  C   UNL     1      24.519  39.160   0.118  1.00  0.00    -0.000 C 
BRANCH  11  12
ATOM     12  C   UNL     1      25.495  39.975  -0.745  1.00  0.00    -0.000 C 
BRANCH  12  13
ATOM     13  C   UNL     1      26.768  39.191  -1.101  1.00  0.00    -0.000 C 
BRANCH  13  14
ATOM     14  C   UNL     1      27.792  39.171   0.044  1.00  0.00    -0.000 C 
BRANCH  14  15
ATOM     15  C   UNL     1      27.958  37.754   0.605  1.00  0.00    -0.003 C 
ATOM     16  C   UNL     1      27.657  37.714   2.101  1.00  0.00     0.004 C 
ENDBRANCH  14  15
ENDBRANCH  13  14
ENDBRANCH  12  13
ENDBRANCH  11  12
ENDBRANCH  10  11
ENDBRANCH   1  10
TORSDOF 12
ENDMDL
MODEL 6
REMARK VINA RESULT:    -3.182      3.851      7.449
REMARK INTER + INTRA:          -6.862
REMARK INTER:                  -6.097
REMARK INTRA:                  -0.765
REMARK UNBOUND:                -1.448
REMARK SMILES CCCCCCCCCCCCCC(=O)[O-]
REMARK SMILES IDX 8 1 9 2 10 3 11 4 12 5 13 6 14 7 15 8 16 9 7 10 6 11 5 12
REMARK SMILES IDX 4 13 3 14 2 15 1 16
REMARK H PARENT
REMARK Flexibility Score: inf
ROOT
ATOM      1  C   UNL     1      24.010  41.315   4.089  1.00  0.00     0.000 C 
ENDROOT
BRANCH   1   2
ATOM      2  C   UNL     1      23.875  42.312   5.251  1.00  0.00     0.000 C 
BRANCH   2   3
ATOM      3  C   UNL     1      24.866  42.026   6.393  1.00  0.00     0.000 C 
BRANCH   3   4
ATOM      4  C   UNL     1      25.903  43.147   6.568  1.00  0.00     0.000 C 
BRANCH   4   5
ATOM      5  C   UNL     1      25.283  44.552   6.461  1.00  0.00     0.006 C 
BRANCH   5   6
ATOM      6  C   UNL     1      26.194  45.531   5.709  1.00  0.00     0.053 C 
BRANCH   6   7
ATOM      7  C   UNL     1      27.353  45.967   6.553  1.00  0.00     0.041 C 
ATOM      8  O   UNL     1      27.160  46.648   7.594  1.00  0.00    -0.550 OA
ATOM      9  O   UNL     1      28.645  45.593   6.206  1.00  0.00    -0.550 OA
ENDBRANCH   6   7
ENDBRANCH   5   6
ENDBRANCH   4   5
ENDBRANCH   3   4
ENDBRANCH   2   3
ENDBRANCH   1   2
BRANCH   1  10
ATOM     10  C   UNL     1      25.195  41.637   3.165  1.00  0.00     0.000 C 
BRANCH  10  11
ATOM     11  C   UNL     1      25.688  40.375   2.445  1.00  0.00    -0.000 C 
BRANCH  11  12
ATOM     12  C   UNL     1      24.822  40.071   1.213  1.00  0.00    -0.000 C 
BRANCH  12  13
ATOM     13  C   UNL     1      25.519  39.135   0.215  1.00  0.00    -0.000 C 
BRANCH  13  14
ATOM     14  C   UNL     1      25.673  39.762  -1.179  1.00  0.00    -0.000 C 
BRANCH  14  15
ATOM     15  C   UNL     1      27.106  39.596  -1.699  1.00  0.00    -0.003 C 
ATOM     16  C   UNL     1      28.033  39.073  -0.606  1.00  0.00     0.004 C 
ENDBRANCH  14  15
ENDBRANCH  13  14
ENDBRANCH  12  13
ENDBRANCH  11  12
ENDBRANCH  10  11
ENDBRANCH   1  10
TORSDOF 12
ENDMDL
MODEL 7
REMARK VINA RESULT:    -3.141      3.320      7.094
REMARK INTER + INTRA:          -6.792
REMARK INTER:                  -5.781
REMARK INTRA:                  -1.011
REMARK UNBOUND:                -1.448
REMARK SMILES CCCCCCCCCCCCCC(=O)[O-]
REMARK SMILES IDX 8 1 9 2 10 3 11 4 12 5 13 6 14 7 15 8 16 9 7 10 6 11 5 12
REMARK SMILES IDX 4 13 3 14 2 15 1 16
REMARK H PARENT
REMARK Flexibility Score: inf
ROOT
ATOM      1  C   UNL     1      26.430  41.665   3.806  1.00  0.00     0.000 C 
ENDROOT
BRANCH   1   2
ATOM      2  C   UNL     1      25.494  42.808   4.229  1.00  0.00     0.000 C 
BRANCH   2   3
ATOM      3  C   UNL     1      26.260  44.058   4.695  1.00  0.00     0.000 C 
BRANCH   3   4
ATOM      4  C   UNL     1      25.497  44.852   5.768  1.00  0.00     0.000 C 
BRANCH   4   5
ATOM      5  C   UNL     1      24.493  43.984   6.547  1.00  0.00     0.006 C 
BRANCH   5   6
ATOM      6  C   UNL     1      25.046  43.537   7.907  1.00  0.00     0.053 C 
BRANCH   6   7
ATOM      7  C   UNL     1      25.419  42.085   7.902  1.00  0.00     0.041 C 
ATOM      8  O   UNL     1      24.601  41.219   8.310  1.00  0.00    -0.550 OA
ATOM      9  O   UNL     1      26.657  41.687   7.415  1.00  0.00    -0.550 OA
ENDBRANCH   6   7
ENDBRANCH   5   6
ENDBRANCH   4   5
ENDBRANCH   3   4
ENDBRANCH   2   3
ENDBRANCH   1   2
BRANCH   1  10
ATOM     10  C   UNL     1      25.672  40.456   3.237  1.00  0.00     0.000 C 
BRANCH  10  11
ATOM     11  C   UNL     1      24.276  40.864   2.749  1.00  0.00    -0.000 C 
BRANCH  11  12
ATOM     12  C   UNL     1      23.924  40.154   1.433  1.00  0.00    -0.000 C 
BRANCH  12  13
ATOM     13  C   UNL     1      25.150  39.529   0.750  1.00  0.00    -0.000 C 
BRANCH  13  14
ATOM     14  C   UNL     1      25.097  39.644  -0.781  1.00  0.00    -0.000 C 
BRANCH  14  15
ATOM     15  C   UNL     1      26.508  39.608  -1.381  1.00  0.00    -0.003 C 
ATOM     16  C   UNL     1      27.542  39.196  -0.337  1.00  0.00     0.004 C 
ENDBRANCH  14  15
ENDBRANCH  13  14
ENDBRANCH  12  13
ENDBRANCH  11  12
ENDBRANCH  10  11
ENDBRANCH   1  10
TORSDOF 12
ENDMDL
MODEL 8
REMARK VINA RESULT:    -3.097     18.425     19.824
REMARK INTER + INTRA:          -6.717
REMARK INTER:                  -4.833
REMARK INTRA:                  -1.884
REMARK UNBOUND:                -1.448
REMARK SMILES CCCCCCCCCCCCCC(=O)[O-]
REMARK SMILES IDX 8 1 9 2 10 3 11 4 12 5 13 6 14 7 15 8 16 9 7 10 6 11 5 12
REMARK SMILES IDX 4 13 3 14 2 15 1 16
REMARK H PARENT
REMARK Flexibility Score: inf
ROOT
ATOM      1  C   UNL     1      42.265  32.755   6.208  1.00  0.00     0.000 C 
ENDROOT
BRANCH   1   2
ATOM      2  C   UNL     1      43.410  33.091   5.238  1.00  0.00     0.000 C 
BRANCH   2   3
ATOM      3  C   UNL     1      44.125  31.834   4.711  1.00  0.00     0.000 C 
BRANCH   3   4
ATOM      4  C   UNL     1      43.748  31.509   3.256  1.00  0.00     0.000 C 
BRANCH   4   5
ATOM      5  C   UNL     1      43.469  32.769   2.418  1.00  0.00     0.006 C 
BRANCH   5   6
ATOM      6  C   UNL     1      43.602  32.504   0.912  1.00  0.00     0.053 C 
BRANCH   6   7
ATOM      7  C   UNL     1      42.282  32.620   0.213  1.00  0.00     0.041 C 
ATOM      8  O   UNL     1      41.237  32.878   0.867  1.00  0.00    -0.550 OA
ATOM      9  O   UNL     1      42.211  32.477  -1.167  1.00  0.00    -0.550 OA
ENDBRANCH   6   7
ENDBRANCH   5   6
ENDBRANCH   4   5
ENDBRANCH   3   4
ENDBRANCH   2   3
ENDBRANCH   1   2
BRANCH   1  10
ATOM     10  C   UNL     1      40.881  33.084   5.628  1.00  0.00     0.000 C 
BRANCH  10  11
ATOM     11  C   UNL     1      39.979  31.844   5.624  1.00  0.00    -0.000 C 
BRANCH  11  12
ATOM     12  C   UNL     1      39.994  31.157   4.250  1.00  0.00    -0.000 C 
BRANCH  12  13
ATOM     13  C   UNL     1      40.802  29.850   4.250  1.00  0.00    -0.000 C 
BRANCH  13  14
ATOM     14  C   UNL     1      40.918  29.225   5.648  1.00  0.00    -0.000 C 
BRANCH  14  15
ATOM     15  C   UNL     1      42.258  28.498   5.814  1.00  0.00    -0.003 C 
ATOM     16  C   UNL     1      43.092  29.124   6.928  1.00  0.00     0.004 C 
ENDBRANCH  14  15
ENDBRANCH  13  14
ENDBRANCH  12  13
ENDBRANCH  11  12
ENDBRANCH  10  11
ENDBRANCH   1  10
TORSDOF 12
ENDMDL
MODEL 9
REMARK VINA RESULT:    -3.078      3.335      6.725
REMARK INTER + INTRA:          -6.686
REMARK INTER:                  -4.947
REMARK INTRA:                  -1.738
REMARK UNBOUND:                -1.448
REMARK SMILES CCCCCCCCCCCCCC(=O)[O-]
REMARK SMILES IDX 8 1 9 2 10 3 11 4 12 5 13 6 14 7 15 8 16 9 7 10 6 11 5 12
REMARK SMILES IDX 4 13 3 14 2 15 1 16
REMARK H PARENT
REMARK Flexibility Score: inf
ROOT
ATOM      1  C   UNL     1      29.034  38.129   0.710  1.00  0.00     0.000 C 
ENDROOT
BRANCH   1   2
ATOM      2  C   UNL     1      28.173  38.302   1.972  1.00  0.00     0.000 C 
BRANCH   2   3
ATOM      3  C   UNL     1      28.360  39.680   2.630  1.00  0.00     0.000 C 
BRANCH   3   4
ATOM      4  C   UNL     1      27.206  40.040   3.580  1.00  0.00     0.000 C 
BRANCH   4   5
ATOM      5  C   UNL     1      26.512  41.360   3.197  1.00  0.00     0.006 C 
BRANCH   5   6
ATOM      6  C   UNL     1      25.102  41.467   3.794  1.00  0.00     0.053 C 
BRANCH   6   7
ATOM      7  C   UNL     1      24.960  42.680   4.662  1.00  0.00     0.041 C 
ATOM      8  O   UNL     1      25.806  43.611   4.596  1.00  0.00    -0.550 OA
ATOM      9  O   UNL     1      23.875  42.796   5.522  1.00  0.00    -0.550 OA
ENDBRANCH   6   7
ENDBRANCH   5   6
ENDBRANCH   4   5
ENDBRANCH   3   4
ENDBRANCH   2   3
ENDBRANCH   1   2
BRANCH   1  10
ATOM     10  C   UNL     1      28.197  37.825  -0.542  1.00  0.00     0.000 C 
BRANCH  10  11
ATOM     11  C   UNL     1      28.333  38.948  -1.578  1.00  0.00    -0.000 C 
BRANCH  11  12
ATOM     12  C   UNL     1      27.001  39.691  -1.762  1.00  0.00    -0.000 C 
BRANCH  12  13
ATOM     13  C   UNL     1      25.851  39.054  -0.968  1.00  0.00    -0.000 C 
BRANCH  13  14
ATOM     14  C   UNL     1      25.267  39.999   0.092  1.00  0.00    -0.000 C 
BRANCH  14  15
ATOM     15  C   UNL     1      24.113  39.329   0.848  1.00  0.00    -0.003 C 
ATOM     16  C   UNL     1      24.604  38.128   1.650  1.00  0.00     0.004 C 
ENDBRANCH  14  15
ENDBRANCH  13  14
ENDBRANCH  12  13
ENDBRANCH  11  12
ENDBRANCH  10  11
ENDBRANCH   1  10
TORSDOF 12
ENDMDL
