MODEL 1
REMARK VINA RESULT:    -3.450      0.000      0.000
REMARK INTER + INTRA:          -3.862
REMARK INTER:                  -3.853
REMARK INTRA:                  -0.008
REMARK UNBOUND:                -0.008
REMARK SMILES CCCC(=O)[O-]
REMARK SMILES IDX 3 1 4 2 5 3 6 4 2 5 1 6
REMARK H PARENT
REMARK Flexibility Score: inf
ROOT
ATOM      1  C   UNL     1     113.721 178.303 115.324  1.00  0.00     0.052 C 
ENDROOT
BRANCH   1   2
ATOM      2  C   UNL     1     115.146 178.025 115.695  1.00  0.00     0.041 C 
ATOM      3  O   UNL     1     115.671 176.917 115.408  1.00  0.00    -0.550 OA
ATOM      4  O   UNL     1     115.904 179.002 116.327  1.00  0.00    -0.550 OA
ENDBRANCH   1   2
BRANCH   1   5
ATOM      5  C   UNL     1     113.621 179.225 114.102  1.00  0.00     0.003 C 
ATOM      6  C   UNL     1     112.350 180.074 114.118  1.00  0.00     0.004 C 
ENDBRANCH   1   5
TORSDOF 2
ENDMDL
MODEL 2
REMARK VINA RESULT:    -3.191     13.030     13.982
REMARK INTER + INTRA:          -3.572
REMARK INTER:                  -3.512
REMARK INTRA:                  -0.060
REMARK UNBOUND:                -0.008
REMARK SMILES CCCC(=O)[O-]
REMARK SMILES IDX 3 1 4 2 5 3 6 4 2 5 1 6
REMARK H PARENT
REMARK Flexibility Score: inf
ROOT
ATOM      1  C   UNL     1     116.975 164.707 119.012  1.00  0.00     0.052 C 
ENDROOT
BRANCH   1   2
ATOM      2  C   UNL     1     117.320 165.395 120.298  1.00  0.00     0.041 C 
ATOM      3  O   UNL     1     118.525 165.585 120.611  1.00  0.00    -0.550 OA
ATOM      4  O   UNL     1     116.311 165.857 121.133  1.00  0.00    -0.550 OA
ENDBRANCH   1   2
BRANCH   1   5
ATOM      5  C   UNL     1     115.940 165.500 118.203  1.00  0.00     0.003 C 
ATOM      6  C   UNL     1     116.565 166.680 117.459  1.00  0.00     0.004 C 
ENDBRANCH   1   5
TORSDOF 2
ENDMDL
MODEL 3
REMARK VINA RESULT:    -3.052     14.408     15.069
REMARK INTER + INTRA:          -3.418
REMARK INTER:                  -3.398
REMARK INTRA:                  -0.019
REMARK UNBOUND:                -0.008
REMARK SMILES CCCC(=O)[O-]
REMARK SMILES IDX 3 1 4 2 5 3 6 4 2 5 1 6
REMARK H PARENT
REMARK Flexibility Score: inf
ROOT
ATOM      1  C   UNL     1     117.186 165.466 121.786  1.00  0.00     0.052 C 
ENDROOT
BRANCH   1   2
ATOM      2  C   UNL     1     115.820 165.742 122.337  1.00  0.00     0.041 C 
ATOM      3  O   UNL     1     115.504 165.332 123.485  1.00  0.00    -0.550 OA
ATOM      4  O   UNL     1     114.908 166.484 121.596  1.00  0.00    -0.550 OA
ENDBRANCH   1   2
BRANCH   1   5
ATOM      5  C   UNL     1     117.166 165.330 120.258  1.00  0.00     0.003 C 
ATOM      6  C   UNL     1     117.512 163.914 119.796  1.00  0.00     0.004 C 
ENDBRANCH   1   5
TORSDOF 2
ENDMDL
MODEL 4
REMARK VINA RESULT:    -3.045     13.112     13.669
REMARK INTER + INTRA:          -3.409
REMARK INTER:                  -3.397
REMARK INTRA:                  -0.012
REMARK UNBOUND:                -0.008
REMARK SMILES CCCC(=O)[O-]
REMARK SMILES IDX 3 1 4 2 5 3 6 4 2 5 1 6
REMARK H PARENT
REMARK Flexibility Score: inf
ROOT
ATOM      1  C   UNL     1     115.111 166.696 120.183  1.00  0.00     0.052 C 
ENDROOT
BRANCH   1   2
ATOM      2  C   UNL     1     115.182 166.593 121.677  1.00  0.00     0.041 C 
ATOM      3  O   UNL     1     115.607 165.539 122.219  1.00  0.00    -0.550 OA
ATOM      4  O   UNL     1     114.811 167.673 122.468  1.00  0.00    -0.550 OA
ENDBRANCH   1   2
BRANCH   1   5
ATOM      5  C   UNL     1     116.216 165.879 119.503  1.00  0.00     0.003 C 
ATOM      6  C   UNL     1     115.918 165.613 118.027  1.00  0.00     0.004 C 
ENDBRANCH   1   5
TORSDOF 2
ENDMDL
MODEL 5
REMARK VINA RESULT:    -3.035      9.548     10.319
REMARK INTER + INTRA:          -3.399
REMARK INTER:                  -3.377
REMARK INTRA:                  -0.021
REMARK UNBOUND:                -0.008
REMARK SMILES CCCC(=O)[O-]
REMARK SMILES IDX 3 1 4 2 5 3 6 4 2 5 1 6
REMARK H PARENT
REMARK Flexibility Score: inf
ROOT
ATOM      1  C   UNL     1     115.896 178.467 125.872  1.00  0.00     0.052 C 
ENDROOT
BRANCH   1   2
ATOM      2  C   UNL     1     116.663 178.415 124.585  1.00  0.00     0.041 C 
ATOM      3  O   UNL     1     116.097 178.697 123.497  1.00  0.00    -0.550 OA
ATOM      4  O   UNL     1     118.013 178.088 124.593  1.00  0.00    -0.550 OA
ENDBRANCH   1   2
BRANCH   1   5
ATOM      5  C   UNL     1     114.553 179.188 125.704  1.00  0.00     0.003 C 
ATOM      6  C   UNL     1     114.348 180.286 126.748  1.00  0.00     0.004 C 
ENDBRANCH   1   5
TORSDOF 2
ENDMDL
MODEL 6
REMARK VINA RESULT:    -2.981     13.392     14.292
REMARK INTER + INTRA:          -3.338
REMARK INTER:                  -3.308
REMARK INTRA:                  -0.030
REMARK UNBOUND:                -0.008
REMARK SMILES CCCC(=O)[O-]
REMARK SMILES IDX 3 1 4 2 5 3 6 4 2 5 1 6
REMARK H PARENT
REMARK Flexibility Score: inf
ROOT
ATOM      1  C   UNL     1     117.086 164.813 119.334  1.00  0.00     0.052 C 
ENDROOT
BRANCH   1   2
ATOM      2  C   UNL     1     116.047 165.694 118.709  1.00  0.00     0.041 C 
ATOM      3  O   UNL     1     115.775 165.584 117.485  1.00  0.00    -0.550 OA
ATOM      4  O   UNL     1     115.355 166.614 119.487  1.00  0.00    -0.550 OA
ENDBRANCH   1   2
BRANCH   1   5
ATOM      5  C   UNL     1     117.261 165.113 120.828  1.00  0.00     0.003 C 
ATOM      6  C   UNL     1     118.679 165.573 121.166  1.00  0.00     0.004 C 
ENDBRANCH   1   5
TORSDOF 2
ENDMDL
MODEL 7
REMARK VINA RESULT:    -2.905     14.276     14.831
REMARK INTER + INTRA:          -3.253
REMARK INTER:                  -3.220
REMARK INTRA:                  -0.033
REMARK UNBOUND:                -0.008
REMARK SMILES CCCC(=O)[O-]
REMARK SMILES IDX 3 1 4 2 5 3 6 4 2 5 1 6
REMARK H PARENT
REMARK Flexibility Score: inf
ROOT
ATOM      1  C   UNL     1     115.845 165.355 122.736  1.00  0.00     0.052 C 
ENDROOT
BRANCH   1   2
ATOM      2  C   UNL     1     115.068 166.537 123.230  1.00  0.00     0.041 C 
ATOM      3  O   UNL     1     114.758 167.467 122.439  1.00  0.00    -0.550 OA
ATOM      4  O   UNL     1     114.656 166.595 124.555  1.00  0.00    -0.550 OA
ENDBRANCH   1   2
BRANCH   1   5
ATOM      5  C   UNL     1     117.071 165.781 121.917  1.00  0.00     0.003 C 
ATOM      6  C   UNL     1     117.105 165.123 120.538  1.00  0.00     0.004 C 
ENDBRANCH   1   5
TORSDOF 2
ENDMDL
MODEL 8
REMARK VINA RESULT:    -2.890     13.559     14.527
REMARK INTER + INTRA:          -3.236
REMARK INTER:                  -3.168
REMARK INTRA:                  -0.068
REMARK UNBOUND:                -0.008
REMARK SMILES CCCC(=O)[O-]
REMARK SMILES IDX 3 1 4 2 5 3 6 4 2 5 1 6
REMARK H PARENT
REMARK Flexibility Score: inf
ROOT
ATOM      1  C   UNL     1     115.836 165.383 122.613  1.00  0.00     0.052 C 
ENDROOT
BRANCH   1   2
ATOM      2  C   UNL     1     117.122 165.514 121.855  1.00  0.00     0.041 C 
ATOM      3  O   UNL     1     118.107 166.100 122.375  1.00  0.00    -0.550 OA
ATOM      4  O   UNL     1     117.242 164.958 120.588  1.00  0.00    -0.550 OA
ENDBRANCH   1   2
BRANCH   1   5
ATOM      5  C   UNL     1     115.123 166.733 122.761  1.00  0.00     0.003 C 
ATOM      6  C   UNL     1     114.710 167.323 121.413  1.00  0.00     0.004 C 
ENDBRANCH   1   5
TORSDOF 2
ENDMDL
MODEL 9
REMARK VINA RESULT:    -2.873     10.834     11.494
REMARK INTER + INTRA:          -3.217
REMARK INTER:                  -3.181
REMARK INTRA:                  -0.036
REMARK UNBOUND:                -0.008
REMARK SMILES CCCC(=O)[O-]
REMARK SMILES IDX 3 1 4 2 5 3 6 4 2 5 1 6
REMARK H PARENT
REMARK Flexibility Score: inf
ROOT
ATOM      1  C   UNL     1     124.365 176.961 119.430  1.00  0.00     0.052 C 
ENDROOT
BRANCH   1   2
ATOM      2  C   UNL     1     125.165 177.924 118.607  1.00  0.00     0.041 C 
ATOM      3  O   UNL     1     124.855 178.142 117.407  1.00  0.00    -0.550 OA
ATOM      4  O   UNL     1     126.232 178.607 119.177  1.00  0.00    -0.550 OA
ENDBRANCH   1   2
BRANCH   1   5
ATOM      5  C   UNL     1     123.552 177.678 120.516  1.00  0.00     0.003 C 
ATOM      6  C   UNL     1     124.027 177.326 121.925  1.00  0.00     0.004 C 
ENDBRANCH   1   5
TORSDOF 2
ENDMDL
