MODEL 1
REMARK VINA RESULT:    -4.503      0.000      0.000
REMARK INTER + INTRA:          -5.160
REMARK INTER:                  -5.030
REMARK INTRA:                  -0.131
REMARK UNBOUND:                -0.131
REMARK SMILES O=C([O-])C=Cc1ccccc1
REMARK SMILES IDX 4 1 5 2 2 3 1 4 3 5 6 6 7 7 11 8 8 9 10 10 9 11
REMARK H PARENT
REMARK Flexibility Score: inf
ROOT
ATOM      1  C   UNL     1       2.036  -2.095  18.430  1.00  0.00     0.025 C 
ATOM      2  C   UNL     1       1.406  -0.925  18.253  1.00  0.00     0.010 C 
ENDROOT
BRANCH   1   3
ATOM      3  C   UNL     1       1.347  -3.270  18.989  1.00  0.00     0.064 C 
ATOM      4  O   UNL     1       0.875  -3.216  20.155  1.00  0.00    -0.545 OA
ATOM      5  O   UNL     1       1.209  -4.441  18.251  1.00  0.00    -0.545 OA
ENDBRANCH   1   3
BRANCH   2   6
ATOM      6  C   UNL     1       2.034   0.302  17.694  1.00  0.00    -0.026 A 
ATOM      7  C   UNL     1       2.952   1.003  18.498  1.00  0.00     0.008 A 
ATOM      8  C   UNL     1       1.756   0.797  16.400  1.00  0.00     0.008 A 
ATOM      9  C   UNL     1       3.575   2.163  18.028  1.00  0.00     0.001 A 
ATOM     10  C   UNL     1       2.383   1.958  15.936  1.00  0.00     0.001 A 
ATOM     11  C   UNL     1       3.291   2.639  16.747  1.00  0.00     0.000 A 
ENDBRANCH   2   6
TORSDOF 2
ENDMDL
MODEL 2
REMARK VINA RESULT:    -4.480     12.309     14.315
REMARK INTER + INTRA:          -5.135
REMARK INTER:                  -4.997
REMARK INTRA:                  -0.138
REMARK UNBOUND:                -0.131
REMARK SMILES O=C([O-])C=Cc1ccccc1
REMARK SMILES IDX 4 1 5 2 2 3 1 4 3 5 6 6 7 7 11 8 8 9 10 10 9 11
REMARK H PARENT
REMARK Flexibility Score: inf
ROOT
ATOM      1  C   UNL     1       9.743  -5.866  25.732  1.00  0.00     0.025 C 
ATOM      2  C   UNL     1       9.879  -7.107  25.242  1.00  0.00     0.010 C 
ENDROOT
BRANCH   1   3
ATOM      3  C   UNL     1       9.186  -4.770  24.923  1.00  0.00     0.064 C 
ATOM      4  O   UNL     1       9.758  -3.648  24.920  1.00  0.00    -0.545 OA
ATOM      5  O   UNL     1       8.037  -4.951  24.160  1.00  0.00    -0.545 OA
ENDBRANCH   1   3
BRANCH   2   6
ATOM      6  C   UNL     1      10.431  -8.263  25.998  1.00  0.00    -0.026 A 
ATOM      7  C   UNL     1       9.990  -8.464  27.319  1.00  0.00     0.008 A 
ATOM      8  C   UNL     1      11.372  -9.168  25.455  1.00  0.00     0.008 A 
ATOM      9  C   UNL     1      10.473  -9.534  28.079  1.00  0.00     0.001 A 
ATOM     10  C   UNL     1      11.851 -10.235  26.222  1.00  0.00     0.001 A 
ATOM     11  C   UNL     1      11.403 -10.418  27.531  1.00  0.00     0.000 A 
ENDBRANCH   2   6
TORSDOF 2
ENDMDL
MODEL 3
REMARK VINA RESULT:    -4.471     13.713     15.972
REMARK INTER + INTRA:          -5.125
REMARK INTER:                  -4.980
REMARK INTRA:                  -0.145
REMARK UNBOUND:                -0.131
REMARK SMILES O=C([O-])C=Cc1ccccc1
REMARK SMILES IDX 4 1 5 2 2 3 1 4 3 5 6 6 7 7 11 8 8 9 10 10 9 11
REMARK H PARENT
REMARK Flexibility Score: inf
ROOT
ATOM      1  C   UNL     1      10.577 -10.633  21.761  1.00  0.00     0.025 C 
ATOM      2  C   UNL     1      10.739 -11.883  22.219  1.00  0.00     0.010 C 
ENDROOT
BRANCH   1   3
ATOM      3  C   UNL     1       9.908 -10.357  20.479  1.00  0.00     0.064 C 
ATOM      4  O   UNL     1      10.586 -10.334  19.418  1.00  0.00    -0.545 OA
ATOM      5  O   UNL     1       8.539 -10.122  20.419  1.00  0.00    -0.545 OA
ENDBRANCH   1   3
BRANCH   2   6
ATOM      6  C   UNL     1      11.402 -12.239  23.502  1.00  0.00    -0.026 A 
ATOM      7  C   UNL     1      11.745 -11.197  24.383  1.00  0.00     0.008 A 
ATOM      8  C   UNL     1      11.701 -13.568  23.880  1.00  0.00     0.008 A 
ATOM      9  C   UNL     1      12.370 -11.468  25.604  1.00  0.00     0.001 A 
ATOM     10  C   UNL     1      12.327 -13.832  25.103  1.00  0.00     0.001 A 
ATOM     11  C   UNL     1      12.660 -12.786  25.963  1.00  0.00     0.000 A 
ENDBRANCH   2   6
TORSDOF 2
ENDMDL
MODEL 4
REMARK VINA RESULT:    -4.462     12.565     13.677
REMARK INTER + INTRA:          -5.114
REMARK INTER:                  -4.974
REMARK INTRA:                  -0.140
REMARK UNBOUND:                -0.131
REMARK SMILES O=C([O-])C=Cc1ccccc1
REMARK SMILES IDX 4 1 5 2 2 3 1 4 3 5 6 6 7 7 11 8 8 9 10 10 9 11
REMARK H PARENT
REMARK Flexibility Score: inf
ROOT
ATOM      1  C   UNL     1      10.584  -8.481  26.704  1.00  0.00     0.025 C 
ATOM      2  C   UNL     1      11.008  -7.245  27.005  1.00  0.00     0.010 C 
ENDROOT
BRANCH   1   3
ATOM      3  C   UNL     1      10.964  -9.650  27.513  1.00  0.00     0.064 C 
ATOM      4  O   UNL     1      10.264  -9.970  28.509  1.00  0.00    -0.545 OA
ATOM      5  O   UNL     1      12.085 -10.410  27.196  1.00  0.00    -0.545 OA
ENDBRANCH   1   3
BRANCH   2   6
ATOM      6  C   UNL     1      10.666  -6.018  26.237  1.00  0.00    -0.026 A 
ATOM      7  C   UNL     1       9.377  -5.922  25.678  1.00  0.00     0.008 A 
ATOM      8  C   UNL     1      11.566  -4.946  26.042  1.00  0.00     0.008 A 
ATOM      9  C   UNL     1       8.996  -4.794  24.946  1.00  0.00     0.001 A 
ATOM     10  C   UNL     1      11.179  -3.821  25.308  1.00  0.00     0.001 A 
ATOM     11  C   UNL     1       9.897  -3.744  24.762  1.00  0.00     0.000 A 
ENDBRANCH   2   6
TORSDOF 2
ENDMDL
MODEL 5
REMARK VINA RESULT:    -4.427     12.709     14.744
REMARK INTER + INTRA:          -5.075
REMARK INTER:                  -4.942
REMARK INTRA:                  -0.133
REMARK UNBOUND:                -0.131
REMARK SMILES O=C([O-])C=Cc1ccccc1
REMARK SMILES IDX 4 1 5 2 2 3 1 4 3 5 6 6 7 7 11 8 8 9 10 10 9 11
REMARK H PARENT
REMARK Flexibility Score: inf
ROOT
ATOM      1  C   UNL     1      10.535  -5.930  25.761  1.00  0.00     0.025 C 
ATOM      2  C   UNL     1       9.907  -7.114  25.792  1.00  0.00     0.010 C 
ENDROOT
BRANCH   1   3
ATOM      3  C   UNL     1       9.919  -4.740  25.153  1.00  0.00     0.064 C 
ATOM      4  O   UNL     1       8.750  -4.814  24.690  1.00  0.00    -0.545 OA
ATOM      5  O   UNL     1      10.604  -3.532  25.081  1.00  0.00    -0.545 OA
ENDBRANCH   1   3
BRANCH   2   6
ATOM      6  C   UNL     1      10.465  -8.358  26.388  1.00  0.00    -0.026 A 
ATOM      7  C   UNL     1      11.452  -9.054  25.667  1.00  0.00     0.008 A 
ATOM      8  C   UNL     1      10.055  -8.871  27.639  1.00  0.00     0.008 A 
ATOM      9  C   UNL     1      12.015 -10.229  26.175  1.00  0.00     0.001 A 
ATOM     10  C   UNL     1      10.622 -10.047  28.142  1.00  0.00     0.001 A 
ATOM     11  C   UNL     1      11.600 -10.724  27.412  1.00  0.00     0.000 A 
ENDBRANCH   2   6
TORSDOF 2
ENDMDL
MODEL 6
REMARK VINA RESULT:    -4.418     10.478     11.698
REMARK INTER + INTRA:          -5.065
REMARK INTER:                  -4.935
REMARK INTRA:                  -0.130
REMARK UNBOUND:                -0.131
REMARK SMILES O=C([O-])C=Cc1ccccc1
REMARK SMILES IDX 4 1 5 2 2 3 1 4 3 5 6 6 7 7 11 8 8 9 10 10 9 11
REMARK H PARENT
REMARK Flexibility Score: inf
ROOT
ATOM      1  C   UNL     1       8.037  -5.739  24.053  1.00  0.00     0.025 C 
ATOM      2  C   UNL     1       8.786  -4.719  24.498  1.00  0.00     0.010 C 
ENDROOT
BRANCH   1   3
ATOM      3  C   UNL     1       6.780  -5.516  23.319  1.00  0.00     0.064 C 
ATOM      4  O   UNL     1       5.691  -5.897  23.824  1.00  0.00    -0.545 OA
ATOM      5  O   UNL     1       6.773  -4.891  22.077  1.00  0.00    -0.545 OA
ENDBRANCH   1   3
BRANCH   2   6
ATOM      6  C   UNL     1      10.064  -4.867  25.244  1.00  0.00    -0.026 A 
ATOM      7  C   UNL     1      11.011  -3.829  25.150  1.00  0.00     0.008 A 
ATOM      8  C   UNL     1      10.374  -5.992  26.040  1.00  0.00     0.008 A 
ATOM      9  C   UNL     1      12.230  -3.909  25.828  1.00  0.00     0.001 A 
ATOM     10  C   UNL     1      11.597  -6.066  26.716  1.00  0.00     0.001 A 
ATOM     11  C   UNL     1      12.523  -5.027  26.611  1.00  0.00     0.000 A 
ENDBRANCH   2   6
TORSDOF 2
ENDMDL
MODEL 7
REMARK VINA RESULT:    -4.384      3.383      5.200
REMARK INTER + INTRA:          -5.027
REMARK INTER:                  -4.884
REMARK INTRA:                  -0.144
REMARK UNBOUND:                -0.131
REMARK SMILES O=C([O-])C=Cc1ccccc1
REMARK SMILES IDX 4 1 5 2 2 3 1 4 3 5 6 6 7 7 11 8 8 9 10 10 9 11
REMARK H PARENT
REMARK Flexibility Score: inf
ROOT
ATOM      1  C   UNL     1       3.100   1.083  18.129  1.00  0.00     0.025 C 
ATOM      2  C   UNL     1       2.465   0.426  17.147  1.00  0.00     0.010 C 
ENDROOT
BRANCH   1   3
ATOM      3  C   UNL     1       3.529   2.482  17.974  1.00  0.00     0.064 C 
ATOM      4  O   UNL     1       3.230   3.111  16.925  1.00  0.00    -0.545 OA
ATOM      5  O   UNL     1       4.261   3.124  18.968  1.00  0.00    -0.545 OA
ENDBRANCH   1   3
BRANCH   2   6
ATOM      6  C   UNL     1       2.001  -0.985  17.230  1.00  0.00    -0.026 A 
ATOM      7  C   UNL     1       1.556  -1.465  18.475  1.00  0.00     0.008 A 
ATOM      8  C   UNL     1       1.984  -1.863  16.123  1.00  0.00     0.008 A 
ATOM      9  C   UNL     1       1.108  -2.782  18.616  1.00  0.00     0.001 A 
ATOM     10  C   UNL     1       1.535  -3.180  16.271  1.00  0.00     0.001 A 
ATOM     11  C   UNL     1       1.097  -3.638  17.514  1.00  0.00     0.000 A 
ENDBRANCH   2   6
TORSDOF 2
ENDMDL
MODEL 8
REMARK VINA RESULT:    -4.336     14.586     16.116
REMARK INTER + INTRA:          -4.973
REMARK INTER:                  -4.844
REMARK INTRA:                  -0.130
REMARK UNBOUND:                -0.131
REMARK SMILES O=C([O-])C=Cc1ccccc1
REMARK SMILES IDX 4 1 5 2 2 3 1 4 3 5 6 6 7 7 11 8 8 9 10 10 9 11
REMARK H PARENT
REMARK Flexibility Score: inf
ROOT
ATOM      1  C   UNL     1       9.875  -8.633  29.578  1.00  0.00     0.025 C 
ATOM      2  C   UNL     1      10.263  -9.635  28.776  1.00  0.00     0.010 C 
ENDROOT
BRANCH   1   3
ATOM      3  C   UNL     1       9.393  -8.877  30.947  1.00  0.00     0.064 C 
ATOM      4  O   UNL     1      10.032  -8.404  31.924  1.00  0.00    -0.545 OA
ATOM      5  O   UNL     1       8.242  -9.623  31.183  1.00  0.00    -0.545 OA
ENDBRANCH   1   3
BRANCH   2   6
ATOM      6  C   UNL     1      10.761  -9.466  27.385  1.00  0.00    -0.026 A 
ATOM      7  C   UNL     1      11.768 -10.338  26.929  1.00  0.00     0.008 A 
ATOM      8  C   UNL     1      10.273  -8.479  26.499  1.00  0.00     0.008 A 
ATOM      9  C   UNL     1      12.275 -10.229  25.631  1.00  0.00     0.001 A 
ATOM     10  C   UNL     1      10.786  -8.375  25.202  1.00  0.00     0.001 A 
ATOM     11  C   UNL     1      11.784  -9.248  24.769  1.00  0.00     0.000 A 
ENDBRANCH   2   6
TORSDOF 2
ENDMDL
MODEL 9
REMARK VINA RESULT:    -4.332     15.701     17.826
REMARK INTER + INTRA:          -4.970
REMARK INTER:                  -4.828
REMARK INTRA:                  -0.141
REMARK UNBOUND:                -0.131
REMARK SMILES O=C([O-])C=Cc1ccccc1
REMARK SMILES IDX 4 1 5 2 2 3 1 4 3 5 6 6 7 7 11 8 8 9 10 10 9 11
REMARK H PARENT
REMARK Flexibility Score: inf
ROOT
ATOM      1  C   UNL     1       9.907  -9.151  28.814  1.00  0.00     0.025 C 
ATOM      2  C   UNL     1       9.570  -8.581  29.980  1.00  0.00     0.010 C 
ENDROOT
BRANCH   1   3
ATOM      3  C   UNL     1       9.633  -8.498  27.523  1.00  0.00     0.064 C 
ATOM      4  O   UNL     1       8.732  -7.621  27.451  1.00  0.00    -0.545 OA
ATOM      5  O   UNL     1      10.352  -8.833  26.381  1.00  0.00    -0.545 OA
ENDBRANCH   1   3
BRANCH   2   6
ATOM      6  C   UNL     1       9.815  -9.178  31.320  1.00  0.00    -0.026 A 
ATOM      7  C   UNL     1       9.573 -10.554  31.488  1.00  0.00     0.008 A 
ATOM      8  C   UNL     1      10.280  -8.435  32.429  1.00  0.00     0.008 A 
ATOM      9  C   UNL     1       9.786 -11.173  32.724  1.00  0.00     0.001 A 
ATOM     10  C   UNL     1      10.490  -9.060  33.662  1.00  0.00     0.001 A 
ATOM     11  C   UNL     1      10.244 -10.426  33.810  1.00  0.00     0.000 A 
ENDBRANCH   2   6
TORSDOF 2
ENDMDL
