MODEL 1
REMARK VINA RESULT:    -1.875      0.000      0.000
REMARK INTER + INTRA:          -1.875
REMARK INTER:                  -1.875
REMARK INTRA:                   0.000
REMARK UNBOUND:                 0.000
REMARK SMILES CC1=CC[C@@]2(C)CCCC(C)(C)[C@]23C[C@H]13
REMARK SMILES IDX 1 1 2 2 3 3 4 4 5 5 7 6 8 7 9 8 10 9 13 10 15 11 14 12 11 13
REMARK SMILES IDX 12 14 6 15
REMARK H PARENT
REMARK Flexibility Score: inf
ROOT
ATOM      1  C   UNL     1     141.739 137.130 124.925  1.00  0.00     0.039 C 
ATOM      2  C   UNL     1     140.343 136.574 124.837  1.00  0.00    -0.074 C 
ATOM      3  C   UNL     1     139.706 136.255 125.971  1.00  0.00    -0.027 C 
ATOM      4  C   UNL     1     138.388 135.553 125.966  1.00  0.00     0.034 C 
ATOM      5  C   UNL     1     137.421 136.002 124.828  1.00  0.00    -0.022 C 
ATOM      6  C   UNL     1     136.750 137.333 125.257  1.00  0.00     0.008 C 
ATOM      7  C   UNL     1     135.865 137.954 124.167  1.00  0.00     0.001 C 
ATOM      8  C   UNL     1     136.649 138.221 122.878  1.00  0.00     0.007 C 
ATOM      9  C   UNL     1     137.357 136.972 122.281  1.00  0.00    -0.029 C 
ATOM     10  C   UNL     1     138.151 136.227 123.441  1.00  0.00    -0.012 C 
ATOM     11  C   UNL     1     139.674 136.496 123.484  1.00  0.00     0.022 C 
ATOM     12  C   UNL     1     139.153 135.127 123.049  1.00  0.00     0.017 C 
ATOM     13  C   UNL     1     138.250 137.500 121.118  1.00  0.00     0.012 C 
ATOM     14  C   UNL     1     136.321 136.020 121.628  1.00  0.00     0.012 C 
ATOM     15  C   UNL     1     136.355 134.876 124.725  1.00  0.00     0.012 C 
ENDROOT
TORSDOF 0
ENDMDL
MODEL 2
REMARK VINA RESULT:    -1.854     14.623     16.355
REMARK INTER + INTRA:          -1.854
REMARK INTER:                  -1.854
REMARK INTRA:                   0.000
REMARK UNBOUND:                 0.000
REMARK SMILES CC1=CC[C@@]2(C)CCCC(C)(C)[C@]23C[C@H]13
REMARK SMILES IDX 1 1 2 2 3 3 4 4 5 5 7 6 8 7 9 8 10 9 13 10 15 11 14 12 11 13
REMARK SMILES IDX 12 14 6 15
REMARK H PARENT
REMARK Flexibility Score: inf
ROOT
ATOM      1  C   UNL     1     137.210 149.026 124.949  1.00  0.00     0.039 C 
ATOM      2  C   UNL     1     136.633 150.414 124.858  1.00  0.00    -0.074 C 
ATOM      3  C   UNL     1     136.313 151.053 125.990  1.00  0.00    -0.027 C 
ATOM      4  C   UNL     1     135.592 152.360 125.985  1.00  0.00     0.034 C 
ATOM      5  C   UNL     1     136.019 153.327 124.837  1.00  0.00    -0.022 C 
ATOM      6  C   UNL     1     137.342 154.020 125.252  1.00  0.00     0.008 C 
ATOM      7  C   UNL     1     137.942 154.908 124.153  1.00  0.00     0.001 C 
ATOM      8  C   UNL     1     138.211 154.121 122.867  1.00  0.00     0.007 C 
ATOM      9  C   UNL     1     136.968 153.391 122.283  1.00  0.00    -0.029 C 
ATOM     10  C   UNL     1     136.243 152.593 123.452  1.00  0.00    -0.012 C 
ATOM     11  C   UNL     1     136.535 151.075 123.502  1.00  0.00     0.022 C 
ATOM     12  C   UNL     1     135.155 151.573 123.075  1.00  0.00     0.017 C 
ATOM     13  C   UNL     1     137.500 152.500 121.120  1.00  0.00     0.012 C 
ATOM     14  C   UNL     1     135.996 154.410 121.632  1.00  0.00     0.012 C 
ATOM     15  C   UNL     1     134.875 154.376 124.738  1.00  0.00     0.012 C 
ENDROOT
TORSDOF 0
ENDMDL
MODEL 3
REMARK VINA RESULT:    -1.827      1.275      3.996
REMARK INTER + INTRA:          -1.827
REMARK INTER:                  -1.827
REMARK INTRA:                   0.000
REMARK UNBOUND:                 0.000
REMARK SMILES CC1=CC[C@@]2(C)CCCC(C)(C)[C@]23C[C@H]13
REMARK SMILES IDX 1 1 2 2 3 3 4 4 5 5 7 6 8 7 9 8 10 9 13 10 15 11 14 12 11 13
REMARK SMILES IDX 12 14 6 15
REMARK H PARENT
REMARK Flexibility Score: inf
ROOT
ATOM      1  C   UNL     1     135.990 140.371 124.876  1.00  0.00     0.039 C 
ATOM      2  C   UNL     1     136.120 138.956 124.380  1.00  0.00    -0.074 C 
ATOM      3  C   UNL     1     135.281 138.528 123.428  1.00  0.00    -0.027 C 
ATOM      4  C   UNL     1     135.237 137.100 122.995  1.00  0.00     0.034 C 
ATOM      5  C   UNL     1     136.630 136.399 122.942  1.00  0.00    -0.022 C 
ATOM      6  C   UNL     1     137.333 136.813 121.624  1.00  0.00     0.008 C 
ATOM      7  C   UNL     1     138.771 136.290 121.503  1.00  0.00     0.001 C 
ATOM      8  C   UNL     1     139.649 136.762 122.667  1.00  0.00     0.007 C 
ATOM      9  C   UNL     1     139.109 136.389 124.077  1.00  0.00    -0.029 C 
ATOM     10  C   UNL     1     137.569 136.781 124.159  1.00  0.00    -0.012 C 
ATOM     11  C   UNL     1     137.258 138.105 124.897  1.00  0.00     0.022 C 
ATOM     12  C   UNL     1     136.884 136.768 125.537  1.00  0.00     0.017 C 
ATOM     13  C   UNL     1     140.023 137.132 125.098  1.00  0.00     0.012 C 
ATOM     14  C   UNL     1     139.303 134.875 124.350  1.00  0.00     0.012 C 
ATOM     15  C   UNL     1     136.323 134.875 122.928  1.00  0.00     0.012 C 
ENDROOT
TORSDOF 0
ENDMDL
MODEL 4
REMARK VINA RESULT:    -1.525      1.428      3.022
REMARK INTER + INTRA:          -1.525
REMARK INTER:                  -1.525
REMARK INTRA:                   0.000
REMARK UNBOUND:                 0.000
REMARK SMILES CC1=CC[C@@]2(C)CCCC(C)(C)[C@]23C[C@H]13
REMARK SMILES IDX 1 1 2 2 3 3 4 4 5 5 7 6 8 7 9 8 10 9 13 10 15 11 14 12 11 13
REMARK SMILES IDX 12 14 6 15
REMARK H PARENT
REMARK Flexibility Score: inf
ROOT
ATOM      1  C   UNL     1     140.119 134.964 126.038  1.00  0.00     0.039 C 
ATOM      2  C   UNL     1     139.602 135.535 124.745  1.00  0.00    -0.074 C 
ATOM      3  C   UNL     1     139.851 134.877 123.606  1.00  0.00    -0.027 C 
ATOM      4  C   UNL     1     139.514 135.451 122.270  1.00  0.00     0.034 C 
ATOM      5  C   UNL     1     138.177 136.254 122.231  1.00  0.00    -0.022 C 
ATOM      6  C   UNL     1     137.006 135.243 122.130  1.00  0.00     0.008 C 
ATOM      7  C   UNL     1     135.620 135.898 122.211  1.00  0.00     0.001 C 
ATOM      8  C   UNL     1     135.439 136.693 123.508  1.00  0.00     0.007 C 
ATOM      9  C   UNL     1     136.514 137.790 123.749  1.00  0.00    -0.029 C 
ATOM     10  C   UNL     1     137.956 137.160 123.510  1.00  0.00    -0.012 C 
ATOM     11  C   UNL     1     138.732 136.771 124.790  1.00  0.00     0.022 C 
ATOM     12  C   UNL     1     139.188 137.967 123.956  1.00  0.00     0.017 C 
ATOM     13  C   UNL     1     136.269 138.321 125.194  1.00  0.00     0.012 C 
ATOM     14  C   UNL     1     136.281 138.997 122.803  1.00  0.00     0.012 C 
ATOM     15  C   UNL     1     138.252 137.115 120.939  1.00  0.00     0.012 C 
ENDROOT
TORSDOF 0
ENDMDL
MODEL 5
REMARK VINA RESULT:    -1.009      1.466      3.531
REMARK INTER + INTRA:          -1.009
REMARK INTER:                  -1.009
REMARK INTRA:                   0.000
REMARK UNBOUND:                 0.000
REMARK SMILES CC1=CC[C@@]2(C)CCCC(C)(C)[C@]23C[C@H]13
REMARK SMILES IDX 1 1 2 2 3 3 4 4 5 5 7 6 8 7 9 8 10 9 13 10 15 11 14 12 11 13
REMARK SMILES IDX 12 14 6 15
REMARK H PARENT
REMARK Flexibility Score: inf
ROOT
ATOM      1  C   UNL     1     134.997 140.496 123.927  1.00  0.00     0.039 C 
ATOM      2  C   UNL     1     135.927 139.332 124.145  1.00  0.00    -0.074 C 
ATOM      3  C   UNL     1     135.774 138.585 125.245  1.00  0.00    -0.027 C 
ATOM      4  C   UNL     1     136.748 137.515 125.616  1.00  0.00     0.034 C 
ATOM      5  C   UNL     1     137.315 136.712 124.405  1.00  0.00    -0.022 C 
ATOM      6  C   UNL     1     136.261 135.655 123.986  1.00  0.00     0.008 C 
ATOM      7  C   UNL     1     136.642 134.875 122.720  1.00  0.00     0.001 C 
ATOM      8  C   UNL     1     136.871 135.806 121.524  1.00  0.00     0.007 C 
ATOM      9  C   UNL     1     137.940 136.910 121.759  1.00  0.00    -0.029 C 
ATOM     10  C   UNL     1     137.648 137.621 123.153  1.00  0.00    -0.012 C 
ATOM     11  C   UNL     1     136.926 138.986 123.064  1.00  0.00     0.022 C 
ATOM     12  C   UNL     1     138.396 138.926 123.478  1.00  0.00     0.017 C 
ATOM     13  C   UNL     1     137.863 137.853 120.521  1.00  0.00     0.012 C 
ATOM     14  C   UNL     1     139.365 136.299 121.746  1.00  0.00     0.012 C 
ATOM     15  C   UNL     1     138.593 136.008 124.943  1.00  0.00     0.012 C 
ENDROOT
TORSDOF 0
ENDMDL
MODEL 6
REMARK VINA RESULT:    -0.759     14.595     16.392
REMARK INTER + INTRA:          -0.759
REMARK INTER:                  -0.759
REMARK INTRA:                   0.000
REMARK UNBOUND:                 0.000
REMARK SMILES CC1=CC[C@@]2(C)CCCC(C)(C)[C@]23C[C@H]13
REMARK SMILES IDX 1 1 2 2 3 3 4 4 5 5 7 6 8 7 9 8 10 9 13 10 15 11 14 12 11 13
REMARK SMILES IDX 12 14 6 15
REMARK H PARENT
REMARK Flexibility Score: inf
ROOT
ATOM      1  C   UNL     1     137.459 149.161 125.197  1.00  0.00     0.039 C 
ATOM      2  C   UNL     1     136.997 150.275 124.296  1.00  0.00    -0.074 C 
ATOM      3  C   UNL     1     135.770 150.205 123.765  1.00  0.00    -0.027 C 
ATOM      4  C   UNL     1     135.294 151.181 122.740  1.00  0.00     0.034 C 
ATOM      5  C   UNL     1     135.778 152.646 122.972  1.00  0.00    -0.022 C 
ATOM      6  C   UNL     1     134.875 153.291 124.054  1.00  0.00     0.008 C 
ATOM      7  C   UNL     1     135.324 154.699 124.470  1.00  0.00     0.001 C 
ATOM      8  C   UNL     1     136.763 154.707 124.996  1.00  0.00     0.007 C 
ATOM      9  C   UNL     1     137.816 154.129 124.010  1.00  0.00    -0.029 C 
ATOM     10  C   UNL     1     137.285 152.739 123.447  1.00  0.00    -0.012 C 
ATOM     11  C   UNL     1     137.892 151.479 124.108  1.00  0.00     0.022 C 
ATOM     12  C   UNL     1     138.267 151.842 122.672  1.00  0.00     0.017 C 
ATOM     13  C   UNL     1     139.150 154.039 124.810  1.00  0.00     0.012 C 
ATOM     14  C   UNL     1     138.078 155.124 122.850  1.00  0.00     0.012 C 
ATOM     15  C   UNL     1     135.574 153.366 121.609  1.00  0.00     0.012 C 
ENDROOT
TORSDOF 0
ENDMDL
MODEL 7
REMARK VINA RESULT:    -0.210     13.541     15.928
REMARK INTER + INTRA:          -0.210
REMARK INTER:                  -0.210
REMARK INTRA:                   0.000
REMARK UNBOUND:                 0.000
REMARK SMILES CC1=CC[C@@]2(C)CCCC(C)(C)[C@]23C[C@H]13
REMARK SMILES IDX 1 1 2 2 3 3 4 4 5 5 7 6 8 7 9 8 10 9 13 10 15 11 14 12 11 13
REMARK SMILES IDX 12 14 6 15
REMARK H PARENT
REMARK Flexibility Score: inf
ROOT
ATOM      1  C   UNL     1     154.806 140.559 125.527  1.00  0.00     0.039 C 
ATOM      2  C   UNL     1     154.390 139.736 124.337  1.00  0.00    -0.074 C 
ATOM      3  C   UNL     1     155.113 139.819 123.213  1.00  0.00    -0.027 C 
ATOM      4  C   UNL     1     154.681 139.163 121.943  1.00  0.00     0.034 C 
ATOM      5  C   UNL     1     154.008 137.768 122.135  1.00  0.00    -0.022 C 
ATOM      6  C   UNL     1     155.125 136.713 122.340  1.00  0.00     0.008 C 
ATOM      7  C   UNL     1     154.594 135.311 122.667  1.00  0.00     0.001 C 
ATOM      8  C   UNL     1     153.716 135.312 123.923  1.00  0.00     0.007 C 
ATOM      9  C   UNL     1     152.510 136.292 123.869  1.00  0.00    -0.029 C 
ATOM     10  C   UNL     1     153.025 137.714 123.375  1.00  0.00    -0.012 C 
ATOM     11  C   UNL     1     153.239 138.768 124.487  1.00  0.00     0.022 C 
ATOM     12  C   UNL     1     152.077 138.919 123.505  1.00  0.00     0.017 C 
ATOM     13  C   UNL     1     151.888 136.287 125.298  1.00  0.00     0.012 C 
ATOM     14  C   UNL     1     151.410 135.749 122.921  1.00  0.00     0.012 C 
ATOM     15  C   UNL     1     153.250 137.492 120.806  1.00  0.00     0.012 C 
ENDROOT
TORSDOF 0
ENDMDL
MODEL 8
REMARK VINA RESULT:     0.068      1.341      3.964
REMARK INTER + INTRA:           0.068
REMARK INTER:                   0.068
REMARK INTRA:                   0.000
REMARK UNBOUND:                 0.000
REMARK SMILES CC1=CC[C@@]2(C)CCCC(C)(C)[C@]23C[C@H]13
REMARK SMILES IDX 1 1 2 2 3 3 4 4 5 5 7 6 8 7 9 8 10 9 13 10 15 11 14 12 11 13
REMARK SMILES IDX 12 14 6 15
REMARK H PARENT
REMARK Flexibility Score: inf
ROOT
ATOM      1  C   UNL     1     137.855 138.263 119.612  1.00  0.00     0.039 C 
ATOM      2  C   UNL     1     137.500 138.233 121.075  1.00  0.00    -0.074 C 
ATOM      3  C   UNL     1     136.276 138.626 121.449  1.00  0.00    -0.027 C 
ATOM      4  C   UNL     1     135.898 138.778 122.885  1.00  0.00     0.034 C 
ATOM      5  C   UNL     1     136.507 137.696 123.830  1.00  0.00    -0.022 C 
ATOM      6  C   UNL     1     135.655 136.406 123.706  1.00  0.00     0.008 C 
ATOM      7  C   UNL     1     136.222 135.216 124.492  1.00  0.00     0.001 C 
ATOM      8  C   UNL     1     137.652 134.875 124.058  1.00  0.00     0.007 C 
ATOM      9  C   UNL     1     138.659 136.055 124.162  1.00  0.00    -0.029 C 
ATOM     10  C   UNL     1     138.013 137.344 123.488  1.00  0.00    -0.012 C 
ATOM     11  C   UNL     1     138.499 137.660 122.055  1.00  0.00     0.022 C 
ATOM     12  C   UNL     1     138.918 138.558 123.218  1.00  0.00     0.017 C 
ATOM     13  C   UNL     1     139.973 135.560 123.486  1.00  0.00     0.012 C 
ATOM     14  C   UNL     1     139.018 136.335 125.644  1.00  0.00     0.012 C 
ATOM     15  C   UNL     1     136.380 138.284 125.263  1.00  0.00     0.012 C 
ENDROOT
TORSDOF 0
ENDMDL
