MODEL 1
REMARK VINA RESULT:    -3.045      0.000      0.000
REMARK INTER + INTRA:          -5.133
REMARK INTER:                  -4.647
REMARK INTRA:                  -0.485
REMARK UNBOUND:                -0.485
REMARK SMILES O=C([O-])CCCCCCCCC(=O)[O-]
REMARK SMILES IDX 7 1 6 2 5 3 4 4 2 5 1 6 3 7 8 8 9 9 10 10 11 11 12 12 13 13
REMARK SMILES IDX 14 14
REMARK H PARENT
REMARK Flexibility Score: inf
ROOT
ATOM      1  C   UNL     1      -9.806 -20.925  19.201  1.00  0.00     0.000 C 
ENDROOT
BRANCH   1   2
ATOM      2  C   UNL     1     -10.157 -21.954  18.115  1.00  0.00     0.000 C 
BRANCH   2   3
ATOM      3  C   UNL     1      -8.982 -22.893  17.788  1.00  0.00     0.006 C 
BRANCH   3   4
ATOM      4  C   UNL     1      -7.798 -22.143  17.164  1.00  0.00     0.053 C 
BRANCH   4   5
ATOM      5  C   UNL     1      -6.510 -22.452  17.864  1.00  0.00     0.041 C 
ATOM      6  O   UNL     1      -5.424 -22.434  17.230  1.00  0.00    -0.550 OA
ATOM      7  O   UNL     1      -6.508 -22.730  19.226  1.00  0.00    -0.550 OA
ENDBRANCH   4   5
ENDBRANCH   3   4
ENDBRANCH   2   3
ENDBRANCH   1   2
BRANCH   1   8
ATOM      8  C   UNL     1     -11.048 -20.267  19.820  1.00  0.00     0.000 C 
BRANCH   8   9
ATOM      9  C   UNL     1     -11.125 -18.780  19.441  1.00  0.00     0.000 C 
BRANCH   9  10
ATOM     10  C   UNL     1     -10.602 -17.857  20.554  1.00  0.00     0.006 C 
BRANCH  10  11
ATOM     11  C   UNL     1     -10.969 -18.357  21.957  1.00  0.00     0.053 C 
BRANCH  11  12
ATOM     12  C   UNL     1      -9.738 -18.521  22.792  1.00  0.00     0.041 C 
ATOM     13  O   UNL     1      -9.331 -19.671  23.101  1.00  0.00    -0.550 OA
ATOM     14  O   UNL     1      -9.012 -17.404  23.186  1.00  0.00    -0.550 OA
ENDBRANCH  11  12
ENDBRANCH  10  11
ENDBRANCH   9  10
ENDBRANCH   8   9
ENDBRANCH   1   8
TORSDOF 9
ENDMDL
MODEL 2
REMARK VINA RESULT:    -2.974      2.670      6.031
REMARK INTER + INTRA:          -5.024
REMARK INTER:                  -4.488
REMARK INTRA:                  -0.536
REMARK UNBOUND:                -0.485
REMARK SMILES O=C([O-])CCCCCCCCC(=O)[O-]
REMARK SMILES IDX 7 1 6 2 5 3 4 4 2 5 1 6 3 7 8 8 9 9 10 10 11 11 12 12 13 13
REMARK SMILES IDX 14 14
REMARK H PARENT
REMARK Flexibility Score: inf
ROOT
ATOM      1  C   UNL     1      -8.774 -21.644  23.005  1.00  0.00     0.000 C 
ENDROOT
BRANCH   1   2
ATOM      2  C   UNL     1     -10.174 -21.232  23.487  1.00  0.00     0.000 C 
BRANCH   2   3
ATOM      3  C   UNL     1     -10.848 -20.218  22.546  1.00  0.00     0.006 C 
BRANCH   3   4
ATOM      4  C   UNL     1     -10.849 -18.799  23.128  1.00  0.00     0.053 C 
BRANCH   4   5
ATOM      5  C   UNL     1      -9.824 -17.926  22.472  1.00  0.00     0.041 C 
ATOM      6  O   UNL     1      -9.812 -17.794  21.220  1.00  0.00    -0.550 OA
ATOM      7  O   UNL     1      -8.901 -17.233  23.245  1.00  0.00    -0.550 OA
ENDBRANCH   4   5
ENDBRANCH   3   4
ENDBRANCH   2   3
ENDBRANCH   1   2
BRANCH   1   8
ATOM      8  C   UNL     1      -8.740 -23.064  22.421  1.00  0.00     0.000 C 
BRANCH   8   9
ATOM      9  C   UNL     1      -7.954 -23.096  21.102  1.00  0.00     0.000 C 
BRANCH   9  10
ATOM     10  C   UNL     1      -8.868 -23.120  19.867  1.00  0.00     0.006 C 
BRANCH  10  11
ATOM     11  C   UNL     1      -8.388 -22.175  18.759  1.00  0.00     0.053 C 
BRANCH  11  12
ATOM     12  C   UNL     1      -9.537 -21.391  18.206  1.00  0.00     0.041 C 
ATOM     13  O   UNL     1      -9.871 -21.521  17.000  1.00  0.00    -0.550 OA
ATOM     14  O   UNL     1     -10.270 -20.554  19.037  1.00  0.00    -0.550 OA
ENDBRANCH  11  12
ENDBRANCH  10  11
ENDBRANCH   9  10
ENDBRANCH   8   9
ENDBRANCH   1   8
TORSDOF 9
ENDMDL
MODEL 3
REMARK VINA RESULT:    -2.941      2.442      5.545
REMARK INTER + INTRA:          -4.974
REMARK INTER:                  -4.098
REMARK INTRA:                  -0.876
REMARK UNBOUND:                -0.485
REMARK SMILES O=C([O-])CCCCCCCCC(=O)[O-]
REMARK SMILES IDX 7 1 6 2 5 3 4 4 2 5 1 6 3 7 8 8 9 9 10 10 11 11 12 12 13 13
REMARK SMILES IDX 14 14
REMARK H PARENT
REMARK Flexibility Score: inf
ROOT
ATOM      1  C   UNL     1      -9.745 -17.717  21.234  1.00  0.00     0.000 C 
ENDROOT
BRANCH   1   2
ATOM      2  C   UNL     1      -9.679 -18.104  22.720  1.00  0.00     0.000 C 
BRANCH   2   3
ATOM      3  C   UNL     1     -10.475 -19.382  23.035  1.00  0.00     0.006 C 
BRANCH   3   4
ATOM      4  C   UNL     1      -9.647 -20.652  22.799  1.00  0.00     0.053 C 
BRANCH   4   5
ATOM      5  C   UNL     1     -10.467 -21.893  22.976  1.00  0.00     0.041 C 
ATOM      6  O   UNL     1     -10.811 -22.573  21.974  1.00  0.00    -0.550 OA
ATOM      7  O   UNL     1     -10.826 -22.315  24.250  1.00  0.00    -0.550 OA
ENDBRANCH   4   5
ENDBRANCH   3   4
ENDBRANCH   2   3
ENDBRANCH   1   2
BRANCH   1   8
ATOM      8  C   UNL     1     -11.124 -17.978  20.613  1.00  0.00     0.000 C 
BRANCH   8   9
ATOM      9  C   UNL     1     -10.987 -18.584  19.208  1.00  0.00     0.000 C 
BRANCH   9  10
ATOM     10  C   UNL     1     -11.098 -20.117  19.210  1.00  0.00     0.006 C 
BRANCH  10  11
ATOM     11  C   UNL     1      -9.737 -20.807  19.055  1.00  0.00     0.053 C 
BRANCH  11  12
ATOM     12  C   UNL     1      -9.824 -21.916  18.054  1.00  0.00     0.041 C 
ATOM     13  O   UNL     1      -8.949 -22.031  17.157  1.00  0.00    -0.550 OA
ATOM     14  O   UNL     1     -10.845 -22.853  18.143  1.00  0.00    -0.550 OA
ENDBRANCH  11  12
ENDBRANCH  10  11
ENDBRANCH   9  10
ENDBRANCH   8   9
ENDBRANCH   1   8
TORSDOF 9
ENDMDL
MODEL 4
REMARK VINA RESULT:    -2.932      1.202      6.426
REMARK INTER + INTRA:          -4.959
REMARK INTER:                  -4.510
REMARK INTRA:                  -0.449
REMARK UNBOUND:                -0.485
REMARK SMILES O=C([O-])CCCCCCCCC(=O)[O-]
REMARK SMILES IDX 7 1 6 2 5 3 4 4 2 5 1 6 3 7 8 8 9 9 10 10 11 11 12 12 13 13
REMARK SMILES IDX 14 14
REMARK H PARENT
REMARK Flexibility Score: inf
ROOT
ATOM      1  C   UNL     1      -9.873 -20.186  19.329  1.00  0.00     0.000 C 
ENDROOT
BRANCH   1   2
ATOM      2  C   UNL     1     -11.125 -19.717  20.089  1.00  0.00     0.000 C 
BRANCH   2   3
ATOM      3  C   UNL     1     -11.078 -18.220  20.439  1.00  0.00     0.006 C 
BRANCH   3   4
ATOM      4  C   UNL     1      -9.948 -17.890  21.423  1.00  0.00     0.053 C 
BRANCH   4   5
ATOM      5  C   UNL     1     -10.127 -18.594  22.734  1.00  0.00     0.041 C 
ATOM      6  O   UNL     1     -11.075 -18.278  23.498  1.00  0.00    -0.550 OA
ATOM      7  O   UNL     1      -9.263 -19.619  23.097  1.00  0.00    -0.550 OA
ENDBRANCH   4   5
ENDBRANCH   3   4
ENDBRANCH   2   3
ENDBRANCH   1   2
BRANCH   1   8
ATOM      8  C   UNL     1      -9.758 -21.716  19.260  1.00  0.00     0.000 C 
BRANCH   8   9
ATOM      9  C   UNL     1      -9.698 -22.195  17.802  1.00  0.00     0.000 C 
BRANCH   9  10
ATOM     10  C   UNL     1      -8.505 -23.125  17.531  1.00  0.00     0.006 C 
BRANCH  10  11
ATOM     11  C   UNL     1      -7.164 -22.499  17.937  1.00  0.00     0.053 C 
BRANCH  11  12
ATOM     12  C   UNL     1      -6.309 -22.267  16.730  1.00  0.00     0.041 C 
ATOM     13  O   UNL     1      -6.829 -21.883  15.650  1.00  0.00    -0.550 OA
ATOM     14  O   UNL     1      -4.933 -22.428  16.814  1.00  0.00    -0.550 OA
ENDBRANCH  11  12
ENDBRANCH  10  11
ENDBRANCH   9  10
ENDBRANCH   8   9
ENDBRANCH   1   8
TORSDOF 9
ENDMDL
MODEL 5
REMARK VINA RESULT:    -2.880      2.114      2.661
REMARK INTER + INTRA:          -4.881
REMARK INTER:                  -4.418
REMARK INTRA:                  -0.463
REMARK UNBOUND:                -0.485
REMARK SMILES O=C([O-])CCCCCCCCC(=O)[O-]
REMARK SMILES IDX 7 1 6 2 5 3 4 4 2 5 1 6 3 7 8 8 9 9 10 10 11 11 12 12 13 13
REMARK SMILES IDX 14 14
REMARK H PARENT
REMARK Flexibility Score: inf
ROOT
ATOM      1  C   UNL     1      -7.910 -23.008  21.172  1.00  0.00     0.000 C 
ENDROOT
BRANCH   1   2
ATOM      2  C   UNL     1      -8.818 -22.812  19.948  1.00  0.00     0.000 C 
BRANCH   2   3
ATOM      3  C   UNL     1      -8.089 -23.085  18.621  1.00  0.00     0.006 C 
BRANCH   3   4
ATOM      4  C   UNL     1      -6.635 -22.594  18.647  1.00  0.00     0.053 C 
BRANCH   4   5
ATOM      5  C   UNL     1      -6.077 -22.427  17.267  1.00  0.00     0.041 C 
ATOM      6  O   UNL     1      -4.878 -22.726  17.028  1.00  0.00    -0.550 OA
ATOM      7  O   UNL     1      -6.891 -21.970  16.238  1.00  0.00    -0.550 OA
ENDBRANCH   4   5
ENDBRANCH   3   4
ENDBRANCH   2   3
ENDBRANCH   1   2
BRANCH   1   8
ATOM      8  C   UNL     1      -8.658 -22.834  22.502  1.00  0.00     0.000 C 
BRANCH   8   9
ATOM      9  C   UNL     1      -9.958 -22.040  22.299  1.00  0.00     0.000 C 
BRANCH   9  10
ATOM     10  C   UNL     1      -9.849 -20.589  22.792  1.00  0.00     0.006 C 
BRANCH  10  11
ATOM     11  C   UNL     1     -10.610 -19.602  21.897  1.00  0.00     0.053 C 
BRANCH  11  12
ATOM     12  C   UNL     1      -9.961 -18.254  21.934  1.00  0.00     0.041 C 
ATOM     13  O   UNL     1     -10.111 -17.452  20.976  1.00  0.00    -0.550 OA
ATOM     14  O   UNL     1      -9.232 -17.865  23.050  1.00  0.00    -0.550 OA
ENDBRANCH  11  12
ENDBRANCH  10  11
ENDBRANCH   9  10
ENDBRANCH   8   9
ENDBRANCH   1   8
TORSDOF 9
ENDMDL
MODEL 6
REMARK VINA RESULT:    -2.845      1.629      5.931
REMARK INTER + INTRA:          -4.827
REMARK INTER:                  -4.276
REMARK INTRA:                  -0.551
REMARK UNBOUND:                -0.485
REMARK SMILES O=C([O-])CCCCCCCCC(=O)[O-]
REMARK SMILES IDX 7 1 6 2 5 3 4 4 2 5 1 6 3 7 8 8 9 9 10 10 11 11 12 12 13 13
REMARK SMILES IDX 14 14
REMARK H PARENT
REMARK Flexibility Score: inf
ROOT
ATOM      1  C   UNL     1     -10.102 -18.850  20.203  1.00  0.00     0.000 C 
ENDROOT
BRANCH   1   2
ATOM      2  C   UNL     1     -10.910 -18.405  21.432  1.00  0.00     0.000 C 
BRANCH   2   3
ATOM      3  C   UNL     1     -10.362 -18.991  22.745  1.00  0.00     0.006 C 
BRANCH   3   4
ATOM      4  C   UNL     1     -11.035 -20.320  23.111  1.00  0.00     0.053 C 
BRANCH   4   5
ATOM      5  C   UNL     1     -10.031 -21.386  23.425  1.00  0.00     0.041 C 
ATOM      6  O   UNL     1      -8.810 -21.197  23.185  1.00  0.00    -0.550 OA
ATOM      7  O   UNL     1     -10.441 -22.577  24.012  1.00  0.00    -0.550 OA
ENDBRANCH   4   5
ENDBRANCH   3   4
ENDBRANCH   2   3
ENDBRANCH   1   2
BRANCH   1   8
ATOM      8  C   UNL     1     -10.766 -20.006  19.441  1.00  0.00     0.000 C 
BRANCH   8   9
ATOM      9  C   UNL     1      -9.918 -21.283  19.537  1.00  0.00     0.000 C 
BRANCH   9  10
ATOM     10  C   UNL     1      -9.181 -21.605  18.227  1.00  0.00     0.006 C 
BRANCH  10  11
ATOM     11  C   UNL     1      -8.041 -22.613  18.423  1.00  0.00     0.053 C 
BRANCH  11  12
ATOM     12  C   UNL     1      -6.933 -22.344  17.454  1.00  0.00     0.041 C 
ATOM     13  O   UNL     1      -7.193 -22.114  16.244  1.00  0.00    -0.550 OA
ATOM     14  O   UNL     1      -5.618 -22.299  17.896  1.00  0.00    -0.550 OA
ENDBRANCH  11  12
ENDBRANCH  10  11
ENDBRANCH   9  10
ENDBRANCH   8   9
ENDBRANCH   1   8
TORSDOF 9
ENDMDL
MODEL 7
REMARK VINA RESULT:    -2.815     16.117     19.455
REMARK INTER + INTRA:          -4.781
REMARK INTER:                  -4.248
REMARK INTRA:                  -0.533
REMARK UNBOUND:                -0.485
REMARK SMILES O=C([O-])CCCCCCCCC(=O)[O-]
REMARK SMILES IDX 7 1 6 2 5 3 4 4 2 5 1 6 3 7 8 8 9 9 10 10 11 11 12 12 13 13
REMARK SMILES IDX 14 14
REMARK H PARENT
REMARK Flexibility Score: inf
ROOT
ATOM      1  C   UNL     1       8.711 -20.142  14.160  1.00  0.00     0.000 C 
ENDROOT
BRANCH   1   2
ATOM      2  C   UNL     1       9.114 -21.622  14.074  1.00  0.00     0.000 C 
BRANCH   2   3
ATOM      3  C   UNL     1       8.636 -22.438  15.288  1.00  0.00     0.006 C 
BRANCH   3   4
ATOM      4  C   UNL     1       7.932 -21.562  16.333  1.00  0.00     0.053 C 
BRANCH   4   5
ATOM      5  C   UNL     1       6.506 -21.973  16.537  1.00  0.00     0.041 C 
ATOM      6  O   UNL     1       5.887 -21.619  17.573  1.00  0.00    -0.550 OA
ATOM      7  O   UNL     1       5.853 -22.723  15.566  1.00  0.00    -0.550 OA
ENDBRANCH   4   5
ENDBRANCH   3   4
ENDBRANCH   2   3
ENDBRANCH   1   2
BRANCH   1   8
ATOM      8  C   UNL     1       8.596 -19.475  12.782  1.00  0.00     0.000 C 
BRANCH   8   9
ATOM      9  C   UNL     1       8.048 -20.462  11.740  1.00  0.00     0.000 C 
BRANCH   9  10
ATOM     10  C   UNL     1       9.048 -20.745  10.607  1.00  0.00     0.006 C 
BRANCH  10  11
ATOM     11  C   UNL     1       9.015 -22.206  10.142  1.00  0.00     0.053 C 
BRANCH  11  12
ATOM     12  C   UNL     1       8.257 -22.329   8.857  1.00  0.00     0.041 C 
ATOM     13  O   UNL     1       6.999 -22.281   8.857  1.00  0.00    -0.550 OA
ATOM     14  O   UNL     1       8.941 -22.446   7.655  1.00  0.00    -0.550 OA
ENDBRANCH  11  12
ENDBRANCH  10  11
ENDBRANCH   9  10
ENDBRANCH   8   9
ENDBRANCH   1   8
TORSDOF 9
ENDMDL
MODEL 8
REMARK VINA RESULT:    -2.696     12.651     16.617
REMARK INTER + INTRA:          -4.600
REMARK INTER:                  -4.078
REMARK INTRA:                  -0.523
REMARK UNBOUND:                -0.485
REMARK SMILES O=C([O-])CCCCCCCCC(=O)[O-]
REMARK SMILES IDX 7 1 6 2 5 3 4 4 2 5 1 6 3 7 8 8 9 9 10 10 11 11 12 12 13 13
REMARK SMILES IDX 14 14
REMARK H PARENT
REMARK Flexibility Score: inf
ROOT
ATOM      1  C   UNL     1       5.824 -21.853  16.562  1.00  0.00     0.000 C 
ENDROOT
BRANCH   1   2
ATOM      2  C   UNL     1       5.712 -23.018  15.566  1.00  0.00     0.000 C 
BRANCH   2   3
ATOM      3  C   UNL     1       4.452 -22.926  14.687  1.00  0.00     0.006 C 
BRANCH   3   4
ATOM      4  C   UNL     1       3.175 -22.756  15.521  1.00  0.00     0.053 C 
BRANCH   4   5
ATOM      5  C   UNL     1       1.940 -22.901  14.686  1.00  0.00     0.041 C 
ATOM      6  O   UNL     1       0.829 -23.124  15.232  1.00  0.00    -0.550 OA
ATOM      7  O   UNL     1       2.013 -22.759  13.305  1.00  0.00    -0.550 OA
ENDBRANCH   4   5
ENDBRANCH   3   4
ENDBRANCH   2   3
ENDBRANCH   1   2
BRANCH   1   8
ATOM      8  C   UNL     1       7.240 -21.694  17.135  1.00  0.00     0.000 C 
BRANCH   8   9
ATOM      9  C   UNL     1       8.300 -21.975  16.059  1.00  0.00     0.000 C 
BRANCH   9  10
ATOM     10  C   UNL     1       8.345 -20.889  14.973  1.00  0.00     0.006 C 
BRANCH  10  11
ATOM     11  C   UNL     1       8.632 -21.461  13.578  1.00  0.00     0.053 C 
BRANCH  11  12
ATOM     12  C   UNL     1       7.655 -20.922  12.581  1.00  0.00     0.041 C 
ATOM     13  O   UNL     1       6.666 -21.614  12.225  1.00  0.00    -0.550 OA
ATOM     14  O   UNL     1       7.810 -19.635  12.083  1.00  0.00    -0.550 OA
ENDBRANCH  11  12
ENDBRANCH  10  11
ENDBRANCH   9  10
ENDBRANCH   8   9
ENDBRANCH   1   8
TORSDOF 9
ENDMDL
