MODEL 1
REMARK VINA RESULT:    -4.888      0.000      0.000
REMARK INTER + INTRA:          -6.729
REMARK INTER:                  -6.317
REMARK INTRA:                  -0.413
REMARK UNBOUND:                -0.413
REMARK SMILES C=CC(=O)CCCCC
REMARK SMILES IDX 6 1 7 2 8 3 9 4 5 5 3 6 4 7 2 8 1 9
REMARK H PARENT
REMARK Flexibility Score: inf
ROOT
ATOM      1  C   UNL     1      83.499   4.469  26.271  1.00  0.00     0.008 C 
ENDROOT
BRANCH   1   2
ATOM      2  C   UNL     1      82.462   5.574  26.011  1.00  0.00     0.000 C 
BRANCH   2   3
ATOM      3  C   UNL     1      81.432   5.696  27.143  1.00  0.00    -0.003 C 
ATOM      4  C   UNL     1      80.409   6.788  26.838  1.00  0.00     0.004 C 
ENDBRANCH   2   3
ENDBRANCH   1   2
BRANCH   1   5
ATOM      5  C   UNL     1      84.272   4.682  27.581  1.00  0.00     0.080 C 
BRANCH   5   6
ATOM      6  C   UNL     1      84.414   3.385  28.322  1.00  0.00     0.155 C 
ATOM      7  O   UNL     1      85.557   3.018  28.709  1.00  0.00    -0.295 OA
BRANCH   6   8
ATOM      8  C   UNL     1      83.220   2.576  28.633  1.00  0.00     0.039 C 
ATOM      9  C   UNL     1      82.323   2.946  29.544  1.00  0.00     0.012 C 
ENDBRANCH   6   8
ENDBRANCH   5   6
ENDBRANCH   1   5
TORSDOF 5
ENDMDL
MODEL 2
REMARK VINA RESULT:    -4.796      1.880      2.615
REMARK INTER + INTRA:          -6.610
REMARK INTER:                  -6.055
REMARK INTRA:                  -0.555
REMARK UNBOUND:                -0.413
REMARK SMILES C=CC(=O)CCCCC
REMARK SMILES IDX 6 1 7 2 8 3 9 4 5 5 3 6 4 7 2 8 1 9
REMARK H PARENT
REMARK Flexibility Score: inf
ROOT
ATOM      1  C   UNL     1      82.657   5.620  28.408  1.00  0.00     0.008 C 
ENDROOT
BRANCH   1   2
ATOM      2  C   UNL     1      81.411   6.062  27.625  1.00  0.00     0.000 C 
BRANCH   2   3
ATOM      3  C   UNL     1      81.454   5.628  26.152  1.00  0.00    -0.003 C 
ATOM      4  C   UNL     1      82.832   5.085  25.781  1.00  0.00     0.004 C 
ENDBRANCH   2   3
ENDBRANCH   1   2
BRANCH   1   5
ATOM      5  C   UNL     1      82.313   5.036  29.785  1.00  0.00     0.080 C 
BRANCH   5   6
ATOM      6  C   UNL     1      82.206   3.541  29.709  1.00  0.00     0.155 C 
ATOM      7  O   UNL     1      81.372   2.944  30.443  1.00  0.00    -0.295 OA
BRANCH   6   8
ATOM      8  C   UNL     1      83.038   2.788  28.751  1.00  0.00     0.039 C 
ATOM      9  C   UNL     1      82.520   1.936  27.870  1.00  0.00     0.012 C 
ENDBRANCH   6   8
ENDBRANCH   5   6
ENDBRANCH   1   5
TORSDOF 5
ENDMDL
MODEL 3
REMARK VINA RESULT:    -4.713      2.267      4.213
REMARK INTER + INTRA:          -6.503
REMARK INTER:                  -5.890
REMARK INTRA:                  -0.613
REMARK UNBOUND:                -0.413
REMARK SMILES C=CC(=O)CCCCC
REMARK SMILES IDX 6 1 7 2 8 3 9 4 5 5 3 6 4 7 2 8 1 9
REMARK H PARENT
REMARK Flexibility Score: inf
ROOT
ATOM      1  C   UNL     1      82.629   5.150  29.071  1.00  0.00     0.008 C 
ENDROOT
BRANCH   1   2
ATOM      2  C   UNL     1      82.250   3.721  29.492  1.00  0.00     0.000 C 
BRANCH   2   3
ATOM      3  C   UNL     1      83.168   2.660  28.870  1.00  0.00    -0.003 C 
ATOM      4  C   UNL     1      82.452   1.900  27.756  1.00  0.00     0.004 C 
ENDBRANCH   2   3
ENDBRANCH   1   2
BRANCH   1   5
ATOM      5  C   UNL     1      81.608   5.772  28.108  1.00  0.00     0.080 C 
BRANCH   5   6
ATOM      6  C   UNL     1      82.076   5.637  26.689  1.00  0.00     0.155 C 
ATOM      7  O   UNL     1      81.230   5.671  25.754  1.00  0.00    -0.295 OA
BRANCH   6   8
ATOM      8  C   UNL     1      83.517   5.513  26.394  1.00  0.00     0.039 C 
ATOM      9  C   UNL     1      84.006   4.558  25.606  1.00  0.00     0.012 C 
ENDBRANCH   6   8
ENDBRANCH   5   6
ENDBRANCH   1   5
TORSDOF 5
ENDMDL
MODEL 4
REMARK VINA RESULT:    -4.704      1.489      3.648
REMARK INTER + INTRA:          -6.492
REMARK INTER:                  -6.053
REMARK INTRA:                  -0.439
REMARK UNBOUND:                -0.413
REMARK SMILES C=CC(=O)CCCCC
REMARK SMILES IDX 6 1 7 2 8 3 9 4 5 5 3 6 4 7 2 8 1 9
REMARK H PARENT
REMARK Flexibility Score: inf
ROOT
ATOM      1  C   UNL     1      84.449   3.805  28.012  1.00  0.00     0.008 C 
ENDROOT
BRANCH   1   2
ATOM      2  C   UNL     1      83.341   2.938  28.631  1.00  0.00     0.000 C 
BRANCH   2   3
ATOM      3  C   UNL     1      82.352   3.756  29.473  1.00  0.00    -0.003 C 
ATOM      4  C   UNL     1      81.505   2.848  30.361  1.00  0.00     0.004 C 
ENDBRANCH   2   3
ENDBRANCH   1   2
BRANCH   1   5
ATOM      5  C   UNL     1      83.932   5.168  27.532  1.00  0.00     0.080 C 
BRANCH   5   6
ATOM      6  C   UNL     1      83.425   5.070  26.123  1.00  0.00     0.155 C 
ATOM      7  O   UNL     1      84.142   4.515  25.246  1.00  0.00    -0.295 OA
BRANCH   6   8
ATOM      8  C   UNL     1      82.081   5.577  25.783  1.00  0.00     0.039 C 
ATOM      9  C   UNL     1      81.178   5.887  26.711  1.00  0.00     0.012 C 
ENDBRANCH   6   8
ENDBRANCH   5   6
ENDBRANCH   1   5
TORSDOF 5
ENDMDL
MODEL 5
REMARK VINA RESULT:    -4.696      1.721      3.828
REMARK INTER + INTRA:          -6.481
REMARK INTER:                  -6.158
REMARK INTRA:                  -0.323
REMARK UNBOUND:                -0.413
REMARK SMILES C=CC(=O)CCCCC
REMARK SMILES IDX 6 1 7 2 8 3 9 4 5 5 3 6 4 7 2 8 1 9
REMARK H PARENT
REMARK Flexibility Score: inf
ROOT
ATOM      1  C   UNL     1      83.817   4.116  27.252  1.00  0.00     0.008 C 
ENDROOT
BRANCH   1   2
ATOM      2  C   UNL     1      83.914   3.174  28.463  1.00  0.00     0.000 C 
BRANCH   2   3
ATOM      3  C   UNL     1      82.690   2.258  28.598  1.00  0.00    -0.003 C 
ATOM      4  C   UNL     1      81.934   2.539  29.894  1.00  0.00     0.004 C 
ENDBRANCH   2   3
ENDBRANCH   1   2
BRANCH   1   5
ATOM      5  C   UNL     1      83.735   5.594  27.660  1.00  0.00     0.080 C 
BRANCH   5   6
ATOM      6  C   UNL     1      82.416   5.884  28.316  1.00  0.00     0.155 C 
ATOM      7  O   UNL     1      82.364   6.005  29.571  1.00  0.00    -0.295 OA
BRANCH   6   8
ATOM      8  C   UNL     1      81.206   6.071  27.493  1.00  0.00     0.039 C 
ATOM      9  C   UNL     1      81.249   6.142  26.164  1.00  0.00     0.012 C 
ENDBRANCH   6   8
ENDBRANCH   5   6
ENDBRANCH   1   5
TORSDOF 5
ENDMDL
MODEL 6
REMARK VINA RESULT:    -4.556      1.221      1.903
REMARK INTER + INTRA:          -6.301
REMARK INTER:                  -6.002
REMARK INTRA:                  -0.298
REMARK UNBOUND:                -0.413
REMARK SMILES C=CC(=O)CCCCC
REMARK SMILES IDX 6 1 7 2 8 3 9 4 5 5 3 6 4 7 2 8 1 9
REMARK H PARENT
REMARK Flexibility Score: inf
ROOT
ATOM      1  C   UNL     1      83.342   4.318  26.060  1.00  0.00     0.008 C 
ENDROOT
BRANCH   1   2
ATOM      2  C   UNL     1      82.621   5.671  25.937  1.00  0.00     0.000 C 
BRANCH   2   3
ATOM      3  C   UNL     1      81.108   5.557  26.171  1.00  0.00    -0.003 C 
ATOM      4  C   UNL     1      80.574   6.781  26.911  1.00  0.00     0.004 C 
ENDBRANCH   2   3
ENDBRANCH   1   2
BRANCH   1   5
ATOM      5  C   UNL     1      82.717   3.412  27.130  1.00  0.00     0.080 C 
BRANCH   5   6
ATOM      6  C   UNL     1      83.659   3.241  28.286  1.00  0.00     0.155 C 
ATOM      7  O   UNL     1      83.310   2.526  29.266  1.00  0.00    -0.295 OA
BRANCH   6   8
ATOM      8  C   UNL     1      84.995   3.866  28.251  1.00  0.00     0.039 C 
ATOM      9  C   UNL     1      86.118   3.155  28.313  1.00  0.00     0.012 C 
ENDBRANCH   6   8
ENDBRANCH   5   6
ENDBRANCH   1   5
TORSDOF 5
ENDMDL
MODEL 7
REMARK VINA RESULT:    -4.429      2.084      4.331
REMARK INTER + INTRA:          -6.136
REMARK INTER:                  -5.872
REMARK INTRA:                  -0.263
REMARK UNBOUND:                -0.413
REMARK SMILES C=CC(=O)CCCCC
REMARK SMILES IDX 6 1 7 2 8 3 9 4 5 5 3 6 4 7 2 8 1 9
REMARK H PARENT
REMARK Flexibility Score: inf
ROOT
ATOM      1  C   UNL     1      83.472   4.516  26.019  1.00  0.00     0.008 C 
ENDROOT
BRANCH   1   2
ATOM      2  C   UNL     1      84.808   4.620  26.772  1.00  0.00     0.000 C 
BRANCH   2   3
ATOM      3  C   UNL     1      84.863   3.706  28.005  1.00  0.00    -0.003 C 
ATOM      4  C   UNL     1      86.299   3.289  28.315  1.00  0.00     0.004 C 
ENDBRANCH   2   3
ENDBRANCH   1   2
BRANCH   1   5
ATOM      5  C   UNL     1      82.288   4.232  26.954  1.00  0.00     0.080 C 
BRANCH   5   6
ATOM      6  C   UNL     1      81.645   5.515  27.391  1.00  0.00     0.155 C 
ATOM      7  O   UNL     1      81.882   5.962  28.546  1.00  0.00    -0.295 OA
BRANCH   6   8
ATOM      8  C   UNL     1      80.783   6.266  26.458  1.00  0.00     0.039 C 
ATOM      9  C   UNL     1      80.199   7.415  26.791  1.00  0.00     0.012 C 
ENDBRANCH   6   8
ENDBRANCH   5   6
ENDBRANCH   1   5
TORSDOF 5
ENDMDL
MODEL 8
REMARK VINA RESULT:    -4.414      1.951      2.301
REMARK INTER + INTRA:          -6.117
REMARK INTER:                  -5.591
REMARK INTRA:                  -0.526
REMARK UNBOUND:                -0.413
REMARK SMILES C=CC(=O)CCCCC
REMARK SMILES IDX 6 1 7 2 8 3 9 4 5 5 3 6 4 7 2 8 1 9
REMARK H PARENT
REMARK Flexibility Score: inf
ROOT
ATOM      1  C   UNL     1      83.972   4.244  27.225  1.00  0.00     0.008 C 
ENDROOT
BRANCH   1   2
ATOM      2  C   UNL     1      83.734   5.710  27.621  1.00  0.00     0.000 C 
BRANCH   2   3
ATOM      3  C   UNL     1      82.318   5.953  28.162  1.00  0.00    -0.003 C 
ATOM      4  C   UNL     1      82.322   6.048  29.685  1.00  0.00     0.004 C 
ENDBRANCH   2   3
ENDBRANCH   1   2
BRANCH   1   5
ATOM      5  C   UNL     1      82.674   3.517  26.846  1.00  0.00     0.080 C 
BRANCH   5   6
ATOM      6  C   UNL     1      82.515   2.269  27.664  1.00  0.00     0.155 C 
ATOM      7  O   UNL     1      82.218   1.186  27.086  1.00  0.00    -0.295 OA
BRANCH   6   8
ATOM      8  C   UNL     1      82.750   2.303  29.120  1.00  0.00     0.039 C 
ATOM      9  C   UNL     1      81.780   2.561  29.995  1.00  0.00     0.012 C 
ENDBRANCH   6   8
ENDBRANCH   5   6
ENDBRANCH   1   5
TORSDOF 5
ENDMDL
MODEL 9
REMARK VINA RESULT:    -4.388      1.620      2.533
REMARK INTER + INTRA:          -6.084
REMARK INTER:                  -5.653
REMARK INTRA:                  -0.430
REMARK UNBOUND:                -0.413
REMARK SMILES C=CC(=O)CCCCC
REMARK SMILES IDX 6 1 7 2 8 3 9 4 5 5 3 6 4 7 2 8 1 9
REMARK H PARENT
REMARK Flexibility Score: inf
ROOT
ATOM      1  C   UNL     1      82.424   5.054  29.622  1.00  0.00     0.008 C 
ENDROOT
BRANCH   1   2
ATOM      2  C   UNL     1      82.470   5.946  28.371  1.00  0.00     0.000 C 
BRANCH   2   3
ATOM      3  C   UNL     1      81.153   5.925  27.582  1.00  0.00    -0.003 C 
ATOM      4  C   UNL     1      81.409   5.711  26.092  1.00  0.00     0.004 C 
ENDBRANCH   2   3
ENDBRANCH   1   2
BRANCH   1   5
ATOM      5  C   UNL     1      82.080   3.595  29.294  1.00  0.00     0.080 C 
BRANCH   5   6
ATOM      6  C   UNL     1      83.074   3.027  28.324  1.00  0.00     0.155 C 
ATOM      7  O   UNL     1      82.670   2.589  27.211  1.00  0.00    -0.295 OA
BRANCH   6   8
ATOM      8  C   UNL     1      84.512   3.027  28.653  1.00  0.00     0.039 C 
ATOM      9  C   UNL     1      85.419   3.640  27.896  1.00  0.00     0.012 C 
ENDBRANCH   6   8
ENDBRANCH   5   6
ENDBRANCH   1   5
TORSDOF 5
ENDMDL
