MODEL 1
REMARK VINA RESULT:    -5.778      0.000      0.000
REMARK INTER + INTRA:          -9.162
REMARK INTER:                  -7.973
REMARK INTRA:                  -1.188
REMARK UNBOUND:                -1.188
REMARK SMILES O=C([O-])[C@@H]1O[C@H](Oc2cc3oc(-c4ccccc4)cc(=O)c3c(O)c2O)[C@H](O)[C@H](O)[C@H]1O
REMARK SMILES IDX 7 1 6 2 4 3 31 4 5 5 29 6 27 7 2 8 1 9 3 10 32 11 30 13
REMARK SMILES IDX 28 15 8 17 25 18 9 19 23 20 10 21 22 22 11 23 20 24 12 25
REMARK SMILES IDX 19 26 21 27 26 28 24 30 13 32 14 33 18 34 15 35 17 36 16 37
REMARK H PARENT 32 12 30 14 28 16 26 29 24 31
REMARK Flexibility Score: inf
ROOT
ATOM      1  O   UNL     1       3.766  -7.875  -4.453  1.00  0.00    -0.458 OA
ENDROOT
BRANCH   1   2
ATOM      2  C   UNL     1       3.056  -8.189  -5.673  1.00  0.00     0.339 C 
ATOM      3  C   UNL     1       0.870  -8.865  -6.348  1.00  0.00     0.199 C 
ATOM      4  C   UNL     1       0.739  -7.676  -7.327  1.00  0.00     0.180 C 
ATOM      5  O   UNL     1       1.716  -8.517  -5.262  1.00  0.00    -0.328 OA
ATOM      6  C   UNL     1       2.121  -7.339  -7.874  1.00  0.00     0.181 C 
ATOM      7  C   UNL     1       3.037  -6.995  -6.670  1.00  0.00     0.214 C 
BRANCH   3   8
ATOM      8  C   UNL     1      -0.514  -9.203  -5.808  1.00  0.00     0.073 C 
ATOM      9  O   UNL     1      -1.256  -9.938  -6.499  1.00  0.00    -0.547 OA
ATOM     10  O   UNL     1      -1.389 -10.074  -6.438  1.00  0.00    -0.547 OA
ENDBRANCH   3   8
BRANCH   4  11
ATOM     11  O   UNL     1      -0.150  -7.941  -8.368  1.00  0.00    -0.387 OA
ATOM     12  H   UNL     1       0.074  -7.279  -9.092  1.00  0.00     0.211 HD
ENDBRANCH   4  11
BRANCH   6  13
ATOM     13  O   UNL     1       2.038  -6.288  -8.840  1.00  0.00    -0.387 OA
ATOM     14  H   UNL     1       2.472  -5.462  -8.509  1.00  0.00     0.211 HD
ENDBRANCH   6  13
BRANCH   7  15
ATOM     15  O   UNL     1       2.562  -5.854  -6.002  1.00  0.00    -0.384 OA
ATOM     16  H   UNL     1       2.546  -5.103  -6.685  1.00  0.00     0.211 HD
ENDBRANCH   7  15
ENDBRANCH   1   2
BRANCH   1  17
ATOM     17  C   UNL     1       5.165  -7.675  -4.289  1.00  0.00     0.172 A 
ATOM     18  C   UNL     1       5.942  -8.853  -4.120  1.00  0.00     0.201 A 
ATOM     19  C   UNL     1       5.750  -6.410  -4.092  1.00  0.00     0.098 A 
ATOM     20  C   UNL     1       7.302  -8.745  -3.718  1.00  0.00     0.176 A 
ATOM     21  C   UNL     1       7.030  -6.333  -3.528  1.00  0.00     0.146 A 
ATOM     22  C   UNL     1       7.859  -7.484  -3.490  1.00  0.00     0.111 A 
ATOM     23  O   UNL     1       7.430  -5.216  -2.980  1.00  0.00    -0.456 OA
ATOM     24  C   UNL     1       9.189  -7.325  -3.067  1.00  0.00     0.197 A 
ATOM     25  C   UNL     1       8.602  -5.133  -2.326  1.00  0.00     0.138 A 
ATOM     26  C   UNL     1       9.550  -6.165  -2.407  1.00  0.00     0.100 A 
ATOM     27  O   UNL     1      10.053  -8.187  -3.369  1.00  0.00    -0.289 OA
BRANCH  18  28
ATOM     28  O   UNL     1       5.258 -10.067  -4.119  1.00  0.00    -0.502 OA
ATOM     29  H   UNL     1       4.435 -10.188  -3.569  1.00  0.00     0.293 HD
ENDBRANCH  18  28
BRANCH  20  30
ATOM     30  O   UNL     1       8.009  -9.925  -3.382  1.00  0.00    -0.504 OA
ATOM     31  H   UNL     1       9.018  -9.910  -3.374  1.00  0.00     0.293 HD
ENDBRANCH  20  30
BRANCH  25  32
ATOM     32  C   UNL     1       8.811  -4.047  -1.371  1.00  0.00     0.017 A 
ATOM     33  C   UNL     1       7.880  -2.991  -1.383  1.00  0.00     0.012 A 
ATOM     34  C   UNL     1       9.876  -4.043  -0.446  1.00  0.00     0.012 A 
ATOM     35  C   UNL     1       7.995  -1.922  -0.468  1.00  0.00     0.001 A 
ATOM     36  C   UNL     1      10.014  -2.946   0.444  1.00  0.00     0.001 A 
ATOM     37  C   UNL     1       9.081  -1.890   0.416  1.00  0.00     0.000 A 
ENDBRANCH  25  32
ENDBRANCH   1  17
TORSDOF 9
ENDMDL
MODEL 2
REMARK VINA RESULT:    -5.741      1.021      1.284
REMARK INTER + INTRA:          -9.111
REMARK INTER:                  -8.541
REMARK INTRA:                  -0.570
REMARK UNBOUND:                -1.188
REMARK SMILES O=C([O-])[C@@H]1O[C@H](Oc2cc3oc(-c4ccccc4)cc(=O)c3c(O)c2O)[C@H](O)[C@H](O)[C@H]1O
REMARK SMILES IDX 7 1 6 2 4 3 31 4 5 5 29 6 27 7 2 8 1 9 3 10 32 11 30 13
REMARK SMILES IDX 28 15 8 17 25 18 9 19 23 20 10 21 22 22 11 23 20 24 12 25
REMARK SMILES IDX 19 26 21 27 26 28 24 30 13 32 14 33 18 34 15 35 17 36 16 37
REMARK H PARENT 32 12 30 14 28 16 26 29 24 31
REMARK Flexibility Score: inf
ROOT
ATOM      1  O   UNL     1       3.202  -6.589  -5.658  1.00  0.00    -0.458 OA
ENDROOT
BRANCH   1   2
ATOM      2  C   UNL     1       2.385  -7.485  -6.446  1.00  0.00     0.339 C 
ATOM      3  C   UNL     1       0.354  -8.718  -6.221  1.00  0.00     0.199 C 
ATOM      4  C   UNL     1      -0.248  -8.073  -7.489  1.00  0.00     0.180 C 
ATOM      5  O   UNL     1       1.269  -7.825  -5.602  1.00  0.00    -0.328 OA
ATOM      6  C   UNL     1       0.880  -7.774  -8.469  1.00  0.00     0.181 C 
ATOM      7  C   UNL     1       1.884  -6.825  -7.762  1.00  0.00     0.214 C 
BRANCH   3   8
ATOM      8  C   UNL     1      -0.778  -9.020  -5.247  1.00  0.00     0.073 C 
ATOM      9  O   UNL     1      -1.519 -10.001  -5.487  1.00  0.00    -0.547 OA
ATOM     10  O   UNL     1      -1.607 -10.125  -5.358  1.00  0.00    -0.547 OA
ENDBRANCH   3   8
BRANCH   4  11
ATOM     11  O   UNL     1      -1.215  -8.880  -8.087  1.00  0.00    -0.387 OA
ATOM     12  H   UNL     1      -1.253  -9.718  -7.529  1.00  0.00     0.211 HD
ENDBRANCH   4  11
BRANCH   6  13
ATOM     13  O   UNL     1       0.361  -7.240  -9.690  1.00  0.00    -0.387 OA
ATOM     14  H   UNL     1       0.229  -7.952 -10.364  1.00  0.00     0.211 HD
ENDBRANCH   6  13
BRANCH   7  15
ATOM     15  O   UNL     1       1.267  -5.603  -7.450  1.00  0.00    -0.384 OA
ATOM     16  H   UNL     1       0.307  -5.671  -7.774  1.00  0.00     0.211 HD
ENDBRANCH   7  15
ENDBRANCH   1   2
BRANCH   1  17
ATOM     17  C   UNL     1       4.484  -6.849  -5.098  1.00  0.00     0.172 A 
ATOM     18  C   UNL     1       4.720  -8.191  -4.693  1.00  0.00     0.201 A 
ATOM     19  C   UNL     1       5.403  -5.838  -4.759  1.00  0.00     0.098 A 
ATOM     20  C   UNL     1       5.871  -8.497  -3.914  1.00  0.00     0.176 A 
ATOM     21  C   UNL     1       6.427  -6.128  -3.850  1.00  0.00     0.146 A 
ATOM     22  C   UNL     1       6.755  -7.477  -3.554  1.00  0.00     0.111 A 
ATOM     23  O   UNL     1       7.035  -5.152  -3.227  1.00  0.00    -0.456 OA
ATOM     24  C   UNL     1       7.891  -7.722  -2.765  1.00  0.00     0.197 A 
ATOM     25  C   UNL     1       7.941  -5.389  -2.262  1.00  0.00     0.138 A 
ATOM     26  C   UNL     1       8.449  -6.680  -2.047  1.00  0.00     0.100 A 
ATOM     27  O   UNL     1       8.443  -8.852  -2.790  1.00  0.00    -0.289 OA
BRANCH  18  28
ATOM     28  O   UNL     1       3.677  -9.098  -4.871  1.00  0.00    -0.502 OA
ATOM     29  H   UNL     1       3.804 -10.067  -4.676  1.00  0.00     0.293 HD
ENDBRANCH  18  28
BRANCH  20  30
ATOM     30  O   UNL     1       5.999  -9.797  -3.369  1.00  0.00    -0.504 OA
ATOM     31  H   UNL     1       5.556 -10.574  -3.837  1.00  0.00     0.293 HD
ENDBRANCH  20  30
BRANCH  25  32
ATOM     32  C   UNL     1       8.258  -4.331  -1.304  1.00  0.00     0.017 A 
ATOM     33  C   UNL     1       7.874  -3.019  -1.644  1.00  0.00     0.012 A 
ATOM     34  C   UNL     1       8.895  -4.588  -0.071  1.00  0.00     0.012 A 
ATOM     35  C   UNL     1       8.115  -1.949  -0.756  1.00  0.00     0.001 A 
ATOM     36  C   UNL     1       9.174  -3.503   0.800  1.00  0.00     0.001 A 
ATOM     37  C   UNL     1       8.794  -2.193   0.445  1.00  0.00     0.000 A 
ENDBRANCH  25  32
ENDBRANCH   1  17
TORSDOF 9
ENDMDL
MODEL 3
REMARK VINA RESULT:    -5.544      2.473      9.422
REMARK INTER + INTRA:          -8.838
REMARK INTER:                  -7.716
REMARK INTRA:                  -1.122
REMARK UNBOUND:                -1.188
REMARK SMILES O=C([O-])[C@@H]1O[C@H](Oc2cc3oc(-c4ccccc4)cc(=O)c3c(O)c2O)[C@H](O)[C@H](O)[C@H]1O
REMARK SMILES IDX 7 1 6 2 4 3 31 4 5 5 29 6 27 7 2 8 1 9 3 10 32 11 30 13
REMARK SMILES IDX 28 15 8 17 25 18 9 19 23 20 10 21 22 22 11 23 20 24 12 25
REMARK SMILES IDX 19 26 21 27 26 28 24 30 13 32 14 33 18 34 15 35 17 36 16 37
REMARK H PARENT 32 12 30 14 28 16 26 29 24 31
REMARK Flexibility Score: inf
ROOT
ATOM      1  O   UNL     1       6.671  -4.797  -3.220  1.00  0.00    -0.458 OA
ENDROOT
BRANCH   1   2
ATOM      2  C   UNL     1       7.869  -5.029  -2.445  1.00  0.00     0.339 C 
ATOM      3  C   UNL     1       8.829  -4.318  -0.379  1.00  0.00     0.199 C 
ATOM      4  C   UNL     1       8.990  -5.773   0.116  1.00  0.00     0.180 C 
ATOM      5  O   UNL     1       7.723  -4.219  -1.264  1.00  0.00    -0.328 OA
ATOM      6  C   UNL     1       9.245  -6.674  -1.087  1.00  0.00     0.181 C 
ATOM      7  C   UNL     1       8.041  -6.525  -2.055  1.00  0.00     0.214 C 
BRANCH   3   8
ATOM      8  C   UNL     1       8.581  -3.421   0.827  1.00  0.00     0.073 C 
ATOM      9  O   UNL     1       9.568  -3.044   1.498  1.00  0.00    -0.547 OA
ATOM     10  O   UNL     1       9.596  -2.871   1.593  1.00  0.00    -0.547 OA
ENDBRANCH   3   8
BRANCH   4  11
ATOM     11  O   UNL     1      10.014  -5.905   1.053  1.00  0.00    -0.387 OA
ATOM     12  H   UNL     1      10.631  -5.125   0.894  1.00  0.00     0.211 HD
ENDBRANCH   4  11
BRANCH   6  13
ATOM     13  O   UNL     1       9.471  -8.023  -0.668  1.00  0.00    -0.387 OA
ATOM     14  H   UNL     1      10.130  -8.063   0.069  1.00  0.00     0.211 HD
ENDBRANCH   6  13
BRANCH   7  15
ATOM     15  O   UNL     1       6.860  -6.972  -1.441  1.00  0.00    -0.384 OA
ATOM     16  H   UNL     1       6.095  -6.701  -2.050  1.00  0.00     0.211 HD
ENDBRANCH   7  15
ENDBRANCH   1   2
BRANCH   1  17
ATOM     17  C   UNL     1       6.268  -5.459  -4.413  1.00  0.00     0.172 A 
ATOM     18  C   UNL     1       6.755  -4.898  -5.626  1.00  0.00     0.201 A 
ATOM     19  C   UNL     1       5.289  -6.470  -4.448  1.00  0.00     0.098 A 
ATOM     20  C   UNL     1       6.222  -5.341  -6.868  1.00  0.00     0.176 A 
ATOM     21  C   UNL     1       4.656  -6.763  -5.662  1.00  0.00     0.146 A 
ATOM     22  C   UNL     1       5.224  -6.319  -6.885  1.00  0.00     0.111 A 
ATOM     23  O   UNL     1       3.508  -7.388  -5.660  1.00  0.00    -0.456 OA
ATOM     24  C   UNL     1       4.648  -6.772  -8.083  1.00  0.00     0.197 A 
ATOM     25  C   UNL     1       2.811  -7.584  -6.793  1.00  0.00     0.138 A 
ATOM     26  C   UNL     1       3.389  -7.344  -8.049  1.00  0.00     0.100 A 
ATOM     27  O   UNL     1       5.309  -6.739  -9.152  1.00  0.00    -0.289 OA
BRANCH  18  28
ATOM     28  O   UNL     1       7.556  -3.763  -5.519  1.00  0.00    -0.502 OA
ATOM     29  H   UNL     1       7.169  -2.890  -5.235  1.00  0.00     0.293 HD
ENDBRANCH  18  28
BRANCH  20  30
ATOM     30  O   UNL     1       6.585  -4.651  -8.050  1.00  0.00    -0.504 OA
ATOM     31  H   UNL     1       7.436  -4.907  -8.528  1.00  0.00     0.293 HD
ENDBRANCH  20  30
BRANCH  25  32
ATOM     32  C   UNL     1       1.380  -7.869  -6.711  1.00  0.00     0.017 A 
ATOM     33  C   UNL     1       0.538  -7.204  -7.623  1.00  0.00     0.012 A 
ATOM     34  C   UNL     1       0.839  -8.788  -5.787  1.00  0.00     0.012 A 
ATOM     35  C   UNL     1      -0.852  -7.451  -7.629  1.00  0.00     0.001 A 
ATOM     36  C   UNL     1      -0.563  -9.003  -5.767  1.00  0.00     0.001 A 
ATOM     37  C   UNL     1      -1.397  -8.324  -6.678  1.00  0.00     0.000 A 
ENDBRANCH  25  32
ENDBRANCH   1  17
TORSDOF 9
ENDMDL
MODEL 4
REMARK VINA RESULT:    -5.446      2.207      9.451
REMARK INTER + INTRA:          -8.704
REMARK INTER:                  -7.952
REMARK INTRA:                  -0.752
REMARK UNBOUND:                -1.188
REMARK SMILES O=C([O-])[C@@H]1O[C@H](Oc2cc3oc(-c4ccccc4)cc(=O)c3c(O)c2O)[C@H](O)[C@H](O)[C@H]1O
REMARK SMILES IDX 7 1 6 2 4 3 31 4 5 5 29 6 27 7 2 8 1 9 3 10 32 11 30 13
REMARK SMILES IDX 28 15 8 17 25 18 9 19 23 20 10 21 22 22 11 23 20 24 12 25
REMARK SMILES IDX 19 26 21 27 26 28 24 30 13 32 14 33 18 34 15 35 17 36 16 37
REMARK H PARENT 32 12 30 14 28 16 26 29 24 31
REMARK Flexibility Score: inf
ROOT
ATOM      1  O   UNL     1       5.846  -4.351  -4.009  1.00  0.00    -0.458 OA
ENDROOT
BRANCH   1   2
ATOM      2  C   UNL     1       7.194  -4.444  -3.495  1.00  0.00     0.339 C 
ATOM      3  C   UNL     1       8.445  -3.695  -1.607  1.00  0.00     0.199 C 
ATOM      4  C   UNL     1       8.888  -5.132  -1.254  1.00  0.00     0.180 C 
ATOM      5  O   UNL     1       7.181  -3.715  -2.255  1.00  0.00    -0.328 OA
ATOM      6  C   UNL     1       9.014  -5.936  -2.543  1.00  0.00     0.181 C 
ATOM      7  C   UNL     1       7.633  -5.917  -3.251  1.00  0.00     0.214 C 
BRANCH   3   8
ATOM      8  C   UNL     1       8.327  -2.894  -0.316  1.00  0.00     0.073 C 
ATOM      9  O   UNL     1       7.802  -3.447   0.678  1.00  0.00    -0.547 OA
ATOM     10  O   UNL     1       7.846  -3.424   0.871  1.00  0.00    -0.547 OA
ENDBRANCH   3   8
BRANCH   4  11
ATOM     11  O   UNL     1      10.087  -5.159  -0.542  1.00  0.00    -0.387 OA
ATOM     12  H   UNL     1       9.862  -4.827   0.382  1.00  0.00     0.211 HD
ENDBRANCH   4  11
BRANCH   6  13
ATOM     13  O   UNL     1       9.492  -7.256  -2.271  1.00  0.00    -0.387 OA
ATOM     14  H   UNL     1       8.767  -7.835  -1.926  1.00  0.00     0.211 HD
ENDBRANCH   6  13
BRANCH   7  15
ATOM     15  O   UNL     1       6.665  -6.552  -2.455  1.00  0.00    -0.384 OA
ATOM     16  H   UNL     1       5.975  -6.940  -3.090  1.00  0.00     0.211 HD
ENDBRANCH   7  15
ENDBRANCH   1   2
BRANCH   1  17
ATOM     17  C   UNL     1       5.313  -4.981  -5.168  1.00  0.00     0.172 A 
ATOM     18  C   UNL     1       5.453  -4.258  -6.384  1.00  0.00     0.201 A 
ATOM     19  C   UNL     1       4.512  -6.138  -5.124  1.00  0.00     0.098 A 
ATOM     20  C   UNL     1       4.751  -4.691  -7.543  1.00  0.00     0.176 A 
ATOM     21  C   UNL     1       3.697  -6.442  -6.221  1.00  0.00     0.146 A 
ATOM     22  C   UNL     1       3.931  -5.820  -7.475  1.00  0.00     0.111 A 
ATOM     23  O   UNL     1       2.681  -7.251  -6.069  1.00  0.00    -0.456 OA
ATOM     24  C   UNL     1       3.198  -6.274  -8.584  1.00  0.00     0.197 A 
ATOM     25  C   UNL     1       1.806  -7.478  -7.064  1.00  0.00     0.138 A 
ATOM     26  C   UNL     1       2.074  -7.051  -8.374  1.00  0.00     0.100 A 
ATOM     27  O   UNL     1       3.615  -6.051  -9.749  1.00  0.00    -0.289 OA
BRANCH  18  28
ATOM     28  O   UNL     1       6.078  -3.015  -6.312  1.00  0.00    -0.502 OA
ATOM     29  H   UNL     1       7.023  -2.936  -6.006  1.00  0.00     0.293 HD
ENDBRANCH  18  28
BRANCH  20  30
ATOM     30  O   UNL     1       4.758  -3.864  -8.693  1.00  0.00    -0.504 OA
ATOM     31  H   UNL     1       4.054  -3.148  -8.789  1.00  0.00     0.293 HD
ENDBRANCH  20  30
BRANCH  25  32
ATOM     32  C   UNL     1       0.481  -8.006  -6.743  1.00  0.00     0.017 A 
ATOM     33  C   UNL     1      -0.583  -7.626  -7.583  1.00  0.00     0.012 A 
ATOM     34  C   UNL     1       0.254  -8.884  -5.663  1.00  0.00     0.012 A 
ATOM     35  C   UNL     1      -1.886  -8.121  -7.360  1.00  0.00     0.001 A 
ATOM     36  C   UNL     1      -1.065  -9.347  -5.415  1.00  0.00     0.001 A 
ATOM     37  C   UNL     1      -2.124  -8.952  -6.257  1.00  0.00     0.000 A 
ENDBRANCH  25  32
ENDBRANCH   1  17
TORSDOF 9
ENDMDL
MODEL 5
REMARK VINA RESULT:    -5.434      1.894      3.352
REMARK INTER + INTRA:          -8.688
REMARK INTER:                  -7.386
REMARK INTRA:                  -1.301
REMARK UNBOUND:                -1.188
REMARK SMILES O=C([O-])[C@@H]1O[C@H](Oc2cc3oc(-c4ccccc4)cc(=O)c3c(O)c2O)[C@H](O)[C@H](O)[C@H]1O
REMARK SMILES IDX 7 1 6 2 4 3 31 4 5 5 29 6 27 7 2 8 1 9 3 10 32 11 30 13
REMARK SMILES IDX 28 15 8 17 25 18 9 19 23 20 10 21 22 22 11 23 20 24 12 25
REMARK SMILES IDX 19 26 21 27 26 28 24 30 13 32 14 33 18 34 15 35 17 36 16 37
REMARK H PARENT 32 12 30 14 28 16 26 29 24 31
REMARK Flexibility Score: inf
ROOT
ATOM      1  O   UNL     1       3.775  -5.327  -4.824  1.00  0.00    -0.458 OA
ENDROOT
BRANCH   1   2
ATOM      2  C   UNL     1       3.312  -5.251  -6.191  1.00  0.00     0.339 C 
ATOM      3  C   UNL     1       4.066  -5.858  -8.372  1.00  0.00     0.199 C 
ATOM      4  C   UNL     1       2.786  -6.677  -8.653  1.00  0.00     0.180 C 
ATOM      5  O   UNL     1       4.353  -5.855  -6.981  1.00  0.00    -0.328 OA
ATOM      6  C   UNL     1       1.619  -6.029  -7.916  1.00  0.00     0.181 C 
ATOM      7  C   UNL     1       1.968  -6.005  -6.404  1.00  0.00     0.214 C 
BRANCH   3   8
ATOM      8  C   UNL     1       5.227  -6.506  -9.115  1.00  0.00     0.073 C 
ATOM      9  O   UNL     1       5.828  -5.829  -9.981  1.00  0.00    -0.547 OA
ATOM     10  O   UNL     1       6.021  -5.832 -10.029  1.00  0.00    -0.547 OA
ENDBRANCH   3   8
BRANCH   4  11
ATOM     11  O   UNL     1       2.509  -6.779 -10.015  1.00  0.00    -0.387 OA
ATOM     12  H   UNL     1       1.906  -6.001 -10.230  1.00  0.00     0.211 HD
ENDBRANCH   4  11
BRANCH   6  13
ATOM     13  O   UNL     1       0.397  -6.713  -8.204  1.00  0.00    -0.387 OA
ATOM     14  H   UNL     1       0.058  -6.476  -9.103  1.00  0.00     0.211 HD
ENDBRANCH   6  13
BRANCH   7  15
ATOM     15  O   UNL     1       2.099  -7.313  -5.910  1.00  0.00    -0.384 OA
ATOM     16  H   UNL     1       3.078  -7.564  -6.007  1.00  0.00     0.211 HD
ENDBRANCH   7  15
ENDBRANCH   1   2
BRANCH   1  17
ATOM     17  C   UNL     1       5.079  -5.665  -4.366  1.00  0.00     0.172 A 
ATOM     18  C   UNL     1       5.273  -7.026  -4.004  1.00  0.00     0.201 A 
ATOM     19  C   UNL     1       6.072  -4.711  -4.079  1.00  0.00     0.098 A 
ATOM     20  C   UNL     1       6.460  -7.408  -3.320  1.00  0.00     0.176 A 
ATOM     21  C   UNL     1       7.145  -5.073  -3.254  1.00  0.00     0.146 A 
ATOM     22  C   UNL     1       7.421  -6.443  -3.008  1.00  0.00     0.111 A 
ATOM     23  O   UNL     1       7.847  -4.144  -2.661  1.00  0.00    -0.456 OA
ATOM     24  C   UNL     1       8.598  -6.764  -2.312  1.00  0.00     0.197 A 
ATOM     25  C   UNL     1       8.808  -4.449  -1.771  1.00  0.00     0.138 A 
ATOM     26  C   UNL     1       9.262  -5.769  -1.619  1.00  0.00     0.100 A 
ATOM     27  O   UNL     1       9.086  -7.920  -2.399  1.00  0.00    -0.289 OA
BRANCH  18  28
ATOM     28  O   UNL     1       4.174  -7.874  -4.121  1.00  0.00    -0.502 OA
ATOM     29  H   UNL     1       4.059  -8.455  -4.923  1.00  0.00     0.293 HD
ENDBRANCH  18  28
BRANCH  20  30
ATOM     30  O   UNL     1       6.559  -8.725  -2.810  1.00  0.00    -0.504 OA
ATOM     31  H   UNL     1       7.471  -9.140  -2.689  1.00  0.00     0.293 HD
ENDBRANCH  20  30
BRANCH  25  32
ATOM     32  C   UNL     1       9.251  -3.430  -0.821  1.00  0.00     0.017 A 
ATOM     33  C   UNL     1       9.554  -3.857   0.487  1.00  0.00     0.012 A 
ATOM     34  C   UNL     1       9.405  -2.074  -1.177  1.00  0.00     0.012 A 
ATOM     35  C   UNL     1      10.020  -2.939   1.452  1.00  0.00     0.001 A 
ATOM     36  C   UNL     1       9.833  -1.145  -0.193  1.00  0.00     0.001 A 
ATOM     37  C   UNL     1      10.125  -1.583   1.114  1.00  0.00     0.000 A 
ENDBRANCH  25  32
ENDBRANCH   1  17
TORSDOF 9
ENDMDL
MODEL 6
REMARK VINA RESULT:    -5.360      2.250      3.227
REMARK INTER + INTRA:          -8.585
REMARK INTER:                  -7.406
REMARK INTRA:                  -1.178
REMARK UNBOUND:                -1.188
REMARK SMILES O=C([O-])[C@@H]1O[C@H](Oc2cc3oc(-c4ccccc4)cc(=O)c3c(O)c2O)[C@H](O)[C@H](O)[C@H]1O
REMARK SMILES IDX 7 1 6 2 4 3 31 4 5 5 29 6 27 7 2 8 1 9 3 10 32 11 30 13
REMARK SMILES IDX 28 15 8 17 25 18 9 19 23 20 10 21 22 22 11 23 20 24 12 25
REMARK SMILES IDX 19 26 21 27 26 28 24 30 13 32 14 33 18 34 15 35 17 36 16 37
REMARK H PARENT 32 12 30 14 28 16 26 29 24 31
REMARK Flexibility Score: inf
ROOT
ATOM      1  O   UNL     1       4.119  -7.520  -6.229  1.00  0.00    -0.458 OA
ENDROOT
BRANCH   1   2
ATOM      2  C   UNL     1       2.694  -7.367  -6.034  1.00  0.00     0.339 C 
ATOM      3  C   UNL     1       0.843  -6.317  -7.115  1.00  0.00     0.199 C 
ATOM      4  C   UNL     1       0.051  -7.642  -7.177  1.00  0.00     0.180 C 
ATOM      5  O   UNL     1       2.239  -6.576  -7.148  1.00  0.00    -0.328 OA
ATOM      6  C   UNL     1       0.419  -8.490  -5.965  1.00  0.00     0.181 C 
ATOM      7  C   UNL     1       1.951  -8.733  -6.003  1.00  0.00     0.214 C 
BRANCH   3   8
ATOM      8  C   UNL     1       0.468  -5.471  -8.325  1.00  0.00     0.073 C 
ATOM      9  O   UNL     1      -0.608  -4.831  -8.289  1.00  0.00    -0.547 OA
ATOM     10  O   UNL     1      -0.650  -4.653  -8.368  1.00  0.00    -0.547 OA
ENDBRANCH   3   8
BRANCH   4  11
ATOM     11  O   UNL     1      -1.327  -7.434  -7.230  1.00  0.00    -0.387 OA
ATOM     12  H   UNL     1      -1.745  -8.332  -7.046  1.00  0.00     0.211 HD
ENDBRANCH   4  11
BRANCH   6  13
ATOM     13  O   UNL     1      -0.346  -9.698  -5.943  1.00  0.00    -0.387 OA
ATOM     14  H   UNL     1       0.242 -10.493  -5.967  1.00  0.00     0.211 HD
ENDBRANCH   6  13
BRANCH   7  15
ATOM     15  O   UNL     1       2.303  -9.466  -7.148  1.00  0.00    -0.384 OA
ATOM     16  H   UNL     1       2.741  -8.812  -7.789  1.00  0.00     0.211 HD
ENDBRANCH   7  15
ENDBRANCH   1   2
BRANCH   1  17
ATOM     17  C   UNL     1       5.133  -6.544  -6.024  1.00  0.00     0.172 A 
ATOM     18  C   UNL     1       6.229  -6.592  -6.929  1.00  0.00     0.201 A 
ATOM     19  C   UNL     1       5.189  -5.708  -4.893  1.00  0.00     0.098 A 
ATOM     20  C   UNL     1       7.393  -5.818  -6.663  1.00  0.00     0.176 A 
ATOM     21  C   UNL     1       6.403  -5.096  -4.559  1.00  0.00     0.146 A 
ATOM     22  C   UNL     1       7.448  -5.022  -5.517  1.00  0.00     0.111 A 
ATOM     23  O   UNL     1       6.593  -4.652  -3.344  1.00  0.00    -0.456 OA
ATOM     24  C   UNL     1       8.584  -4.259  -5.197  1.00  0.00     0.197 A 
ATOM     25  C   UNL     1       7.782  -4.165  -2.950  1.00  0.00     0.138 A 
ATOM     26  C   UNL     1       8.796  -3.889  -3.881  1.00  0.00     0.100 A 
ATOM     27  O   UNL     1       9.341  -3.843  -6.110  1.00  0.00    -0.289 OA
BRANCH  18  28
ATOM     28  O   UNL     1       6.202  -7.589  -7.902  1.00  0.00    -0.502 OA
ATOM     29  H   UNL     1       6.076  -8.545  -7.649  1.00  0.00     0.293 HD
ENDBRANCH  18  28
BRANCH  20  30
ATOM     30  O   UNL     1       8.539  -6.012  -7.472  1.00  0.00    -0.504 OA
ATOM     31  H   UNL     1       8.542  -5.657  -8.416  1.00  0.00     0.293 HD
ENDBRANCH  20  30
BRANCH  25  32
ATOM     32  C   UNL     1       8.090  -4.101  -1.523  1.00  0.00     0.017 A 
ATOM     33  C   UNL     1       8.224  -2.822  -0.950  1.00  0.00     0.012 A 
ATOM     34  C   UNL     1       8.224  -5.255  -0.721  1.00  0.00     0.012 A 
ATOM     35  C   UNL     1       8.488  -2.677   0.429  1.00  0.00     0.001 A 
ATOM     36  C   UNL     1       8.531  -5.106   0.656  1.00  0.00     0.001 A 
ATOM     37  C   UNL     1       8.672  -3.821   1.216  1.00  0.00     0.000 A 
ENDBRANCH  25  32
ENDBRANCH   1  17
TORSDOF 9
ENDMDL
MODEL 7
REMARK VINA RESULT:    -5.145      2.299      3.154
REMARK INTER + INTRA:          -8.289
REMARK INTER:                  -6.940
REMARK INTRA:                  -1.349
REMARK UNBOUND:                -1.188
REMARK SMILES O=C([O-])[C@@H]1O[C@H](Oc2cc3oc(-c4ccccc4)cc(=O)c3c(O)c2O)[C@H](O)[C@H](O)[C@H]1O
REMARK SMILES IDX 7 1 6 2 4 3 31 4 5 5 29 6 27 7 2 8 1 9 3 10 32 11 30 13
REMARK SMILES IDX 28 15 8 17 25 18 9 19 23 20 10 21 22 22 11 23 20 24 12 25
REMARK SMILES IDX 19 26 21 27 26 28 24 30 13 32 14 33 18 34 15 35 17 36 16 37
REMARK H PARENT 32 12 30 14 28 16 26 29 24 31
REMARK Flexibility Score: inf
ROOT
ATOM      1  O   UNL     1       7.340  -7.997  -7.159  1.00  0.00    -0.458 OA
ENDROOT
BRANCH   1   2
ATOM      2  C   UNL     1       6.195  -7.376  -7.789  1.00  0.00     0.339 C 
ATOM      3  C   UNL     1       4.045  -6.545  -7.172  1.00  0.00     0.199 C 
ATOM      4  C   UNL     1       4.337  -5.159  -7.788  1.00  0.00     0.180 C 
ATOM      5  O   UNL     1       5.251  -7.150  -6.727  1.00  0.00    -0.328 OA
ATOM      6  C   UNL     1       5.263  -5.341  -8.985  1.00  0.00     0.181 C 
ATOM      7  C   UNL     1       6.559  -6.032  -8.483  1.00  0.00     0.214 C 
BRANCH   3   8
ATOM      8  C   UNL     1       3.115  -6.359  -5.980  1.00  0.00     0.073 C 
ATOM      9  O   UNL     1       1.883  -6.297  -6.194  1.00  0.00    -0.547 OA
ATOM     10  O   UNL     1       1.733  -6.363  -6.080  1.00  0.00    -0.547 OA
ENDBRANCH   3   8
BRANCH   4  11
ATOM     11  O   UNL     1       3.174  -4.490  -8.166  1.00  0.00    -0.387 OA
ATOM     12  H   UNL     1       3.289  -4.273  -9.142  1.00  0.00     0.211 HD
ENDBRANCH   4  11
BRANCH   6  13
ATOM     13  O   UNL     1       5.505  -4.088  -9.632  1.00  0.00    -0.387 OA
ATOM     14  H   UNL     1       5.910  -4.219 -10.525  1.00  0.00     0.211 HD
ENDBRANCH   6  13
BRANCH   7  15
ATOM     15  O   UNL     1       7.226  -5.211  -7.560  1.00  0.00    -0.384 OA
ATOM     16  H   UNL     1       7.917  -4.684  -8.085  1.00  0.00     0.211 HD
ENDBRANCH   7  15
ENDBRANCH   1   2
BRANCH   1  17
ATOM     17  C   UNL     1       7.593  -8.138  -5.767  1.00  0.00     0.172 A 
ATOM     18  C   UNL     1       6.856  -9.158  -5.105  1.00  0.00     0.201 A 
ATOM     19  C   UNL     1       8.354  -7.220  -5.018  1.00  0.00     0.098 A 
ATOM     20  C   UNL     1       6.865  -9.221  -3.684  1.00  0.00     0.176 A 
ATOM     21  C   UNL     1       8.208  -7.191  -3.626  1.00  0.00     0.146 A 
ATOM     22  C   UNL     1       7.594  -8.280  -2.953  1.00  0.00     0.111 A 
ATOM     23  O   UNL     1       8.578  -6.130  -2.958  1.00  0.00    -0.456 OA
ATOM     24  C   UNL     1       7.615  -8.283  -1.548  1.00  0.00     0.197 A 
ATOM     25  C   UNL     1       8.348  -6.013  -1.639  1.00  0.00     0.138 A 
ATOM     26  C   UNL     1       7.921  -7.113  -0.878  1.00  0.00     0.100 A 
ATOM     27  O   UNL     1       7.449  -9.359  -0.919  1.00  0.00    -0.289 OA
BRANCH  18  28
ATOM     28  O   UNL     1       5.961  -9.894  -5.879  1.00  0.00    -0.502 OA
ATOM     29  H   UNL     1       5.004  -9.626  -5.946  1.00  0.00     0.293 HD
ENDBRANCH  18  28
BRANCH  20  30
ATOM     30  O   UNL     1       5.988 -10.125  -3.036  1.00  0.00    -0.504 OA
ATOM     31  H   UNL     1       5.123  -9.780  -2.649  1.00  0.00     0.293 HD
ENDBRANCH  20  30
BRANCH  25  32
ATOM     32  C   UNL     1       8.359  -4.686  -1.027  1.00  0.00     0.017 A 
ATOM     33  C   UNL     1       7.982  -3.599  -1.839  1.00  0.00     0.012 A 
ATOM     34  C   UNL     1       8.700  -4.476   0.326  1.00  0.00     0.012 A 
ATOM     35  C   UNL     1       7.935  -2.291  -1.311  1.00  0.00     0.001 A 
ATOM     36  C   UNL     1       8.693  -3.154   0.843  1.00  0.00     0.001 A 
ATOM     37  C   UNL     1       8.324  -2.073   0.018  1.00  0.00     0.000 A 
ENDBRANCH  25  32
ENDBRANCH   1  17
TORSDOF 9
ENDMDL
MODEL 8
REMARK VINA RESULT:    -4.983      3.150      9.458
REMARK INTER + INTRA:          -8.065
REMARK INTER:                  -7.295
REMARK INTRA:                  -0.770
REMARK UNBOUND:                -1.188
REMARK SMILES O=C([O-])[C@@H]1O[C@H](Oc2cc3oc(-c4ccccc4)cc(=O)c3c(O)c2O)[C@H](O)[C@H](O)[C@H]1O
REMARK SMILES IDX 7 1 6 2 4 3 31 4 5 5 29 6 27 7 2 8 1 9 3 10 32 11 30 13
REMARK SMILES IDX 28 15 8 17 25 18 9 19 23 20 10 21 22 22 11 23 20 24 12 25
REMARK SMILES IDX 19 26 21 27 26 28 24 30 13 32 14 33 18 34 15 35 17 36 16 37
REMARK H PARENT 32 12 30 14 28 16 26 29 24 31
REMARK Flexibility Score: inf
ROOT
ATOM      1  O   UNL     1       6.839  -4.752  -3.143  1.00  0.00    -0.458 OA
ENDROOT
BRANCH   1   2
ATOM      2  C   UNL     1       8.027  -5.010  -2.361  1.00  0.00     0.339 C 
ATOM      3  C   UNL     1       8.924  -4.434  -0.226  1.00  0.00     0.199 C 
ATOM      4  C   UNL     1       9.117  -5.918   0.160  1.00  0.00     0.180 C 
ATOM      5  O   UNL     1       7.833  -4.298  -1.126  1.00  0.00    -0.328 OA
ATOM      6  C   UNL     1       9.422  -6.717  -1.102  1.00  0.00     0.181 C 
ATOM      7  C   UNL     1       8.234  -6.526  -2.083  1.00  0.00     0.214 C 
BRANCH   3   8
ATOM      8  C   UNL     1       8.625  -3.640   1.039  1.00  0.00     0.073 C 
ATOM      9  O   UNL     1       9.586  -3.306   1.769  1.00  0.00    -0.547 OA
ATOM     10  O   UNL     1       9.608  -3.140   1.878  1.00  0.00    -0.547 OA
ENDBRANCH   3   8
BRANCH   4  11
ATOM     11  O   UNL     1      10.125  -6.093   1.107  1.00  0.00    -0.387 OA
ATOM     12  H   UNL     1      10.639  -5.228   1.120  1.00  0.00     0.211 HD
ENDBRANCH   4  11
BRANCH   6  13
ATOM     13  O   UNL     1       9.678  -8.087  -0.783  1.00  0.00    -0.387 OA
ATOM     14  H   UNL     1      10.147  -8.545  -1.524  1.00  0.00     0.211 HD
ENDBRANCH   6  13
BRANCH   7  15
ATOM     15  O   UNL     1       7.054  -7.051  -1.532  1.00  0.00    -0.384 OA
ATOM     16  H   UNL     1       6.370  -6.302  -1.542  1.00  0.00     0.211 HD
ENDBRANCH   7  15
ENDBRANCH   1   2
BRANCH   1  17
ATOM     17  C   UNL     1       6.651  -4.973  -4.536  1.00  0.00     0.172 A 
ATOM     18  C   UNL     1       7.612  -4.371  -5.393  1.00  0.00     0.201 A 
ATOM     19  C   UNL     1       5.494  -5.563  -5.080  1.00  0.00     0.098 A 
ATOM     20  C   UNL     1       7.379  -4.337  -6.796  1.00  0.00     0.176 A 
ATOM     21  C   UNL     1       5.201  -5.365  -6.434  1.00  0.00     0.146 A 
ATOM     22  C   UNL     1       6.208  -4.894  -7.317  1.00  0.00     0.111 A 
ATOM     23  O   UNL     1       3.982  -5.551  -6.868  1.00  0.00    -0.456 OA
ATOM     24  C   UNL     1       5.920  -4.865  -8.692  1.00  0.00     0.197 A 
ATOM     25  C   UNL     1       3.633  -5.259  -8.133  1.00  0.00     0.138 A 
ATOM     26  C   UNL     1       4.604  -4.972  -9.104  1.00  0.00     0.100 A 
ATOM     27  O   UNL     1       6.855  -4.835  -9.531  1.00  0.00    -0.289 OA
BRANCH  18  28
ATOM     28  O   UNL     1       8.618  -3.622  -4.786  1.00  0.00    -0.502 OA
ATOM     29  H   UNL     1       9.138  -2.949  -5.305  1.00  0.00     0.293 HD
ENDBRANCH  18  28
BRANCH  20  30
ATOM     30  O   UNL     1       8.252  -3.580  -7.614  1.00  0.00    -0.504 OA
ATOM     31  H   UNL     1       8.222  -3.705  -8.614  1.00  0.00     0.293 HD
ENDBRANCH  20  30
BRANCH  25  32
ATOM     32  C   UNL     1       2.222  -5.053  -8.454  1.00  0.00     0.017 A 
ATOM     33  C   UNL     1       1.273  -5.612  -7.577  1.00  0.00     0.012 A 
ATOM     34  C   UNL     1       1.798  -4.305  -9.574  1.00  0.00     0.012 A 
ATOM     35  C   UNL     1      -0.108  -5.429  -7.801  1.00  0.00     0.001 A 
ATOM     36  C   UNL     1       0.409  -4.158  -9.820  1.00  0.00     0.001 A 
ATOM     37  C   UNL     1      -0.531  -4.731  -8.940  1.00  0.00     0.000 A 
ENDBRANCH  25  32
ENDBRANCH   1  17
TORSDOF 9
ENDMDL
