MODEL 1
REMARK VINA RESULT:    -6.563      0.000      0.000
REMARK INTER + INTRA:          -9.536
REMARK INTER:                  -9.058
REMARK INTRA:                  -0.478
REMARK UNBOUND:                -0.478
REMARK SMILES CCCCc1cccc(O)c1CCCC
REMARK SMILES IDX 5 1 11 2 9 3 8 4 7 5 6 6 4 7 3 8 2 9 1 10 12 11 13 12 14 13
REMARK SMILES IDX 15 14 10 15
REMARK H PARENT 10 16
REMARK Flexibility Score: inf
ROOT
ATOM      1  C   UNL     1     -29.792  18.814  56.167  1.00  0.00    -0.041 A 
ATOM      2  C   UNL     1     -28.602  18.035  56.014  1.00  0.00    -0.003 A 
ATOM      3  C   UNL     1     -27.758  18.273  54.895  1.00  0.00     0.119 A 
ATOM      4  C   UNL     1     -28.131  19.199  53.922  1.00  0.00     0.046 A 
ATOM      5  C   UNL     1     -29.322  19.905  54.035  1.00  0.00     0.004 A 
ATOM      6  C   UNL     1     -30.147  19.715  55.139  1.00  0.00     0.004 A 
ENDROOT
BRANCH   1   7
ATOM      7  C   UNL     1     -30.711  18.616  57.370  1.00  0.00     0.036 C 
BRANCH   7   8
ATOM      8  C   UNL     1     -30.325  19.411  58.630  1.00  0.00     0.004 C 
BRANCH   8   9
ATOM      9  C   UNL     1     -29.468  20.632  58.273  1.00  0.00    -0.003 C 
ATOM     10  C   UNL     1     -30.307  21.906  58.247  1.00  0.00     0.004 C 
ENDBRANCH   8   9
ENDBRANCH   7   8
ENDBRANCH   1   7
BRANCH   2  11
ATOM     11  C   UNL     1     -28.227  16.970  57.031  1.00  0.00     0.040 C 
BRANCH  11  12
ATOM     12  C   UNL     1     -26.801  17.189  57.556  1.00  0.00     0.005 C 
BRANCH  12  13
ATOM     13  C   UNL     1     -26.810  18.042  58.829  1.00  0.00    -0.003 C 
ATOM     14  C   UNL     1     -25.505  17.887  59.605  1.00  0.00     0.004 C 
ENDBRANCH  12  13
ENDBRANCH  11  12
ENDBRANCH   2  11
BRANCH   3  15
ATOM     15  O   UNL     1     -26.538  17.613  54.715  1.00  0.00    -0.508 OA
ATOM     16  H   UNL     1     -25.785  17.959  54.135  1.00  0.00     0.293 HD
ENDBRANCH   3  15
TORSDOF 7
ENDMDL
MODEL 2
REMARK VINA RESULT:    -6.394      1.827      4.670
REMARK INTER + INTRA:          -9.301
REMARK INTER:                  -8.450
REMARK INTRA:                  -0.852
REMARK UNBOUND:                -0.478
REMARK SMILES CCCCc1cccc(O)c1CCCC
REMARK SMILES IDX 5 1 11 2 9 3 8 4 7 5 6 6 4 7 3 8 2 9 1 10 12 11 13 12 14 13
REMARK SMILES IDX 15 14 10 15
REMARK H PARENT 10 16
REMARK Flexibility Score: inf
ROOT
ATOM      1  C   UNL     1     -28.238  17.950  56.854  1.00  0.00    -0.041 A 
ATOM      2  C   UNL     1     -28.660  18.615  58.048  1.00  0.00    -0.003 A 
ATOM      3  C   UNL     1     -27.813  18.592  59.190  1.00  0.00     0.119 A 
ATOM      4  C   UNL     1     -26.625  17.861  59.164  1.00  0.00     0.046 A 
ATOM      5  C   UNL     1     -26.251  17.156  58.027  1.00  0.00     0.004 A 
ATOM      6  C   UNL     1     -27.046  17.194  56.886  1.00  0.00     0.004 A 
ENDROOT
BRANCH   1   7
ATOM      7  C   UNL     1     -29.099  17.977  55.593  1.00  0.00     0.036 C 
BRANCH   7   8
ATOM      8  C   UNL     1     -28.362  18.369  54.300  1.00  0.00     0.004 C 
BRANCH   8   9
ATOM      9  C   UNL     1     -28.659  19.823  53.913  1.00  0.00    -0.003 C 
ATOM     10  C   UNL     1     -30.006  20.277  54.466  1.00  0.00     0.004 C 
ENDBRANCH   8   9
ENDBRANCH   7   8
ENDBRANCH   1   7
BRANCH   2  11
ATOM     11  C   UNL     1     -29.988  19.351  58.108  1.00  0.00     0.040 C 
BRANCH  11  12
ATOM     12  C   UNL     1     -29.791  20.860  57.907  1.00  0.00     0.005 C 
BRANCH  12  13
ATOM     13  C   UNL     1     -30.343  21.649  59.100  1.00  0.00    -0.003 C 
ATOM     14  C   UNL     1     -30.672  23.086  58.705  1.00  0.00     0.004 C 
ENDBRANCH  12  13
ENDBRANCH  11  12
ENDBRANCH   2  11
BRANCH   3  15
ATOM     15  O   UNL     1     -28.112  19.283  60.367  1.00  0.00    -0.508 OA
ATOM     16  H   UNL     1     -27.870  18.960  61.294  1.00  0.00     0.293 HD
ENDBRANCH   3  15
TORSDOF 7
ENDMDL
MODEL 3
REMARK VINA RESULT:    -6.392      1.548      3.999
REMARK INTER + INTRA:          -9.299
REMARK INTER:                  -8.457
REMARK INTRA:                  -0.842
REMARK UNBOUND:                -0.478
REMARK SMILES CCCCc1cccc(O)c1CCCC
REMARK SMILES IDX 5 1 11 2 9 3 8 4 7 5 6 6 4 7 3 8 2 9 1 10 12 11 13 12 14 13
REMARK SMILES IDX 15 14 10 15
REMARK H PARENT 10 16
REMARK Flexibility Score: inf
ROOT
ATOM      1  C   UNL     1     -28.611  18.284  55.996  1.00  0.00    -0.041 A 
ATOM      2  C   UNL     1     -29.537  19.351  56.220  1.00  0.00    -0.003 A 
ATOM      3  C   UNL     1     -29.784  20.285  55.176  1.00  0.00     0.119 A 
ATOM      4  C   UNL     1     -29.068  20.202  53.981  1.00  0.00     0.046 A 
ATOM      5  C   UNL     1     -28.118  19.208  53.791  1.00  0.00     0.004 A 
ATOM      6  C   UNL     1     -27.886  18.261  54.785  1.00  0.00     0.004 A 
ENDROOT
BRANCH   1   7
ATOM      7  C   UNL     1     -28.341  17.239  57.076  1.00  0.00     0.036 C 
BRANCH   7   8
ATOM      8  C   UNL     1     -26.894  17.192  57.599  1.00  0.00     0.004 C 
BRANCH   8   9
ATOM      9  C   UNL     1     -26.759  17.965  58.917  1.00  0.00    -0.003 C 
ATOM     10  C   UNL     1     -25.389  17.740  59.551  1.00  0.00     0.004 C 
ENDBRANCH   8   9
ENDBRANCH   7   8
ENDBRANCH   1   7
BRANCH   2  11
ATOM     11  C   UNL     1     -30.265  19.492  57.547  1.00  0.00     0.040 C 
BRANCH  11  12
ATOM     12  C   UNL     1     -29.452  20.343  58.532  1.00  0.00     0.005 C 
BRANCH  12  13
ATOM     13  C   UNL     1     -30.355  21.330  59.279  1.00  0.00    -0.003 C 
ATOM     14  C   UNL     1     -30.508  22.634  58.501  1.00  0.00     0.004 C 
ENDBRANCH  12  13
ENDBRANCH  11  12
ENDBRANCH   2  11
BRANCH   3  15
ATOM     15  O   UNL     1     -30.731  21.306  55.284  1.00  0.00    -0.508 OA
ATOM     16  H   UNL     1     -31.279  21.489  56.113  1.00  0.00     0.293 HD
ENDBRANCH   3  15
TORSDOF 7
ENDMDL
MODEL 4
REMARK VINA RESULT:    -6.360      2.055      4.780
REMARK INTER + INTRA:          -9.255
REMARK INTER:                  -8.333
REMARK INTRA:                  -0.922
REMARK UNBOUND:                -0.478
REMARK SMILES CCCCc1cccc(O)c1CCCC
REMARK SMILES IDX 5 1 11 2 9 3 8 4 7 5 6 6 4 7 3 8 2 9 1 10 12 11 13 12 14 13
REMARK SMILES IDX 15 14 10 15
REMARK H PARENT 10 16
REMARK Flexibility Score: inf
ROOT
ATOM      1  C   UNL     1     -28.227  19.851  58.154  1.00  0.00    -0.041 A 
ATOM      2  C   UNL     1     -28.657  20.463  56.935  1.00  0.00    -0.003 A 
ATOM      3  C   UNL     1     -29.898  21.158  56.910  1.00  0.00     0.119 A 
ATOM      4  C   UNL     1     -30.716  21.170  58.040  1.00  0.00     0.046 A 
ATOM      5  C   UNL     1     -30.329  20.515  59.202  1.00  0.00     0.004 A 
ATOM      6  C   UNL     1     -29.103  19.859  59.261  1.00  0.00     0.004 A 
ENDROOT
BRANCH   1   7
ATOM      7  C   UNL     1     -26.887  19.123  58.237  1.00  0.00     0.036 C 
BRANCH   7   8
ATOM      8  C   UNL     1     -26.975  17.611  58.507  1.00  0.00     0.004 C 
BRANCH   8   9
ATOM      9  C   UNL     1     -27.479  16.857  57.270  1.00  0.00    -0.003 C 
ATOM     10  C   UNL     1     -29.001  16.760  57.265  1.00  0.00     0.004 C 
ENDBRANCH   8   9
ENDBRANCH   7   8
ENDBRANCH   1   7
BRANCH   2  11
ATOM     11  C   UNL     1     -27.807  20.391  55.678  1.00  0.00     0.040 C 
BRANCH  11  12
ATOM     12  C   UNL     1     -28.319  19.298  54.730  1.00  0.00     0.005 C 
BRANCH  12  13
ATOM     13  C   UNL     1     -28.745  19.895  53.384  1.00  0.00    -0.003 C 
ATOM     14  C   UNL     1     -27.585  19.896  52.391  1.00  0.00     0.004 C 
ENDBRANCH  12  13
ENDBRANCH  11  12
ENDBRANCH   2  11
BRANCH   3  15
ATOM     15  O   UNL     1     -30.353  21.852  55.785  1.00  0.00    -0.508 OA
ATOM     16  H   UNL     1     -30.500  21.431  54.878  1.00  0.00     0.293 HD
ENDBRANCH   3  15
TORSDOF 7
ENDMDL
MODEL 5
REMARK VINA RESULT:    -6.332      2.614      4.370
REMARK INTER + INTRA:          -9.216
REMARK INTER:                  -8.398
REMARK INTRA:                  -0.819
REMARK UNBOUND:                -0.478
REMARK SMILES CCCCc1cccc(O)c1CCCC
REMARK SMILES IDX 5 1 11 2 9 3 8 4 7 5 6 6 4 7 3 8 2 9 1 10 12 11 13 12 14 13
REMARK SMILES IDX 15 14 10 15
REMARK H PARENT 10 16
REMARK Flexibility Score: inf
ROOT
ATOM      1  C   UNL     1     -28.546  18.279  56.845  1.00  0.00    -0.041 A 
ATOM      2  C   UNL     1     -28.764  19.663  56.554  1.00  0.00    -0.003 A 
ATOM      3  C   UNL     1     -30.032  20.239  56.839  1.00  0.00     0.119 A 
ATOM      4  C   UNL     1     -31.070  19.441  57.320  1.00  0.00     0.046 A 
ATOM      5  C   UNL     1     -30.879  18.082  57.535  1.00  0.00     0.004 A 
ATOM      6  C   UNL     1     -29.635  17.504  57.298  1.00  0.00     0.004 A 
ENDROOT
BRANCH   1   7
ATOM      7  C   UNL     1     -27.189  17.627  56.588  1.00  0.00     0.036 C 
BRANCH   7   8
ATOM      8  C   UNL     1     -26.530  16.974  57.816  1.00  0.00     0.004 C 
BRANCH   8   9
ATOM      9  C   UNL     1     -26.384  17.980  58.965  1.00  0.00    -0.003 C 
ATOM     10  C   UNL     1     -25.089  17.750  59.738  1.00  0.00     0.004 C 
ENDBRANCH   8   9
ENDBRANCH   7   8
ENDBRANCH   1   7
BRANCH   2  11
ATOM     11  C   UNL     1     -27.661  20.522  55.959  1.00  0.00     0.040 C 
BRANCH  11  12
ATOM     12  C   UNL     1     -26.819  21.179  57.062  1.00  0.00     0.005 C 
BRANCH  12  13
ATOM     13  C   UNL     1     -25.741  22.088  56.461  1.00  0.00    -0.003 C 
ATOM     14  C   UNL     1     -25.484  23.300  57.352  1.00  0.00     0.004 C 
ENDBRANCH  12  13
ENDBRANCH  11  12
ENDBRANCH   2  11
BRANCH   3  15
ATOM     15  O   UNL     1     -30.302  21.599  56.661  1.00  0.00    -0.508 OA
ATOM     16  H   UNL     1     -30.719  21.992  55.828  1.00  0.00     0.293 HD
ENDBRANCH   3  15
TORSDOF 7
ENDMDL
MODEL 6
REMARK VINA RESULT:    -6.246      6.995      8.653
REMARK INTER + INTRA:          -9.097
REMARK INTER:                  -8.186
REMARK INTRA:                  -0.911
REMARK UNBOUND:                -0.478
REMARK SMILES CCCCc1cccc(O)c1CCCC
REMARK SMILES IDX 5 1 11 2 9 3 8 4 7 5 6 6 4 7 3 8 2 9 1 10 12 11 13 12 14 13
REMARK SMILES IDX 15 14 10 15
REMARK H PARENT 10 16
REMARK Flexibility Score: inf
ROOT
ATOM      1  C   UNL     1     -33.560  13.374  57.987  1.00  0.00    -0.041 A 
ATOM      2  C   UNL     1     -32.899  12.660  56.939  1.00  0.00    -0.003 A 
ATOM      3  C   UNL     1     -31.869  13.307  56.203  1.00  0.00     0.119 A 
ATOM      4  C   UNL     1     -31.567  14.646  56.452  1.00  0.00     0.046 A 
ATOM      5  C   UNL     1     -32.258  15.359  57.423  1.00  0.00     0.004 A 
ATOM      6  C   UNL     1     -33.245  14.736  58.180  1.00  0.00     0.004 A 
ENDROOT
BRANCH   1   7
ATOM      7  C   UNL     1     -34.649  12.708  58.826  1.00  0.00     0.036 C 
BRANCH   7   8
ATOM      8  C   UNL     1     -35.850  13.605  59.177  1.00  0.00     0.004 C 
BRANCH   8   9
ATOM      9  C   UNL     1     -37.091  13.208  58.368  1.00  0.00    -0.003 C 
ATOM     10  C   UNL     1     -37.120  11.706  58.104  1.00  0.00     0.004 C 
ENDBRANCH   8   9
ENDBRANCH   7   8
ENDBRANCH   1   7
BRANCH   2  11
ATOM     11  C   UNL     1     -33.275  11.224  56.610  1.00  0.00     0.040 C 
BRANCH  11  12
ATOM     12  C   UNL     1     -34.521  11.173  55.717  1.00  0.00     0.005 C 
BRANCH  12  13
ATOM     13  C   UNL     1     -34.821  12.549  55.113  1.00  0.00    -0.003 C 
ATOM     14  C   UNL     1     -36.236  12.604  54.544  1.00  0.00     0.004 C 
ENDBRANCH  12  13
ENDBRANCH  11  12
ENDBRANCH   2  11
BRANCH   3  15
ATOM     15  O   UNL     1     -31.119  12.656  55.219  1.00  0.00    -0.508 OA
ATOM     16  H   UNL     1     -31.168  11.664  55.029  1.00  0.00     0.293 HD
ENDBRANCH   3  15
TORSDOF 7
ENDMDL
MODEL 7
REMARK VINA RESULT:    -6.231      7.290      8.938
REMARK INTER + INTRA:          -9.078
REMARK INTER:                  -7.845
REMARK INTRA:                  -1.233
REMARK UNBOUND:                -0.478
REMARK SMILES CCCCc1cccc(O)c1CCCC
REMARK SMILES IDX 5 1 11 2 9 3 8 4 7 5 6 6 4 7 3 8 2 9 1 10 12 11 13 12 14 13
REMARK SMILES IDX 15 14 10 15
REMARK H PARENT 10 16
REMARK Flexibility Score: inf
ROOT
ATOM      1  C   UNL     1     -35.279  13.857  58.031  1.00  0.00    -0.041 A 
ATOM      2  C   UNL     1     -35.425  12.916  56.962  1.00  0.00    -0.003 A 
ATOM      3  C   UNL     1     -36.340  11.838  57.108  1.00  0.00     0.119 A 
ATOM      4  C   UNL     1     -37.025  11.661  58.311  1.00  0.00     0.046 A 
ATOM      5  C   UNL     1     -36.830  12.534  59.373  1.00  0.00     0.004 A 
ATOM      6  C   UNL     1     -35.967  13.617  59.240  1.00  0.00     0.004 A 
ENDROOT
BRANCH   1   7
ATOM      7  C   UNL     1     -34.333  15.048  57.905  1.00  0.00     0.036 C 
BRANCH   7   8
ATOM      8  C   UNL     1     -32.948  14.860  58.549  1.00  0.00     0.004 C 
BRANCH   8   9
ATOM      9  C   UNL     1     -31.854  15.540  57.717  1.00  0.00    -0.003 C 
ATOM     10  C   UNL     1     -32.380  15.954  56.346  1.00  0.00     0.004 C 
ENDBRANCH   8   9
ENDBRANCH   7   8
ENDBRANCH   1   7
BRANCH   2  11
ATOM     11  C   UNL     1     -34.626  13.060  55.677  1.00  0.00     0.040 C 
BRANCH  11  12
ATOM     12  C   UNL     1     -33.626  11.906  55.520  1.00  0.00     0.005 C 
BRANCH  12  13
ATOM     13  C   UNL     1     -32.503  12.007  56.558  1.00  0.00    -0.003 C 
ATOM     14  C   UNL     1     -31.167  12.329  55.895  1.00  0.00     0.004 C 
ENDBRANCH  12  13
ENDBRANCH  11  12
ENDBRANCH   2  11
BRANCH   3  15
ATOM     15  O   UNL     1     -36.602  10.924  56.084  1.00  0.00    -0.508 OA
ATOM     16  H   UNL     1     -36.861   9.959  56.235  1.00  0.00     0.293 HD
ENDBRANCH   3  15
TORSDOF 7
ENDMDL
MODEL 8
REMARK VINA RESULT:    -6.179      6.315      8.152
REMARK INTER + INTRA:          -9.006
REMARK INTER:                  -8.166
REMARK INTRA:                  -0.840
REMARK UNBOUND:                -0.478
REMARK SMILES CCCCc1cccc(O)c1CCCC
REMARK SMILES IDX 5 1 11 2 9 3 8 4 7 5 6 6 4 7 3 8 2 9 1 10 12 11 13 12 14 13
REMARK SMILES IDX 15 14 10 15
REMARK H PARENT 10 16
REMARK Flexibility Score: inf
ROOT
ATOM      1  C   UNL     1     -32.969  14.216  56.916  1.00  0.00    -0.041 A 
ATOM      2  C   UNL     1     -33.924  13.300  57.459  1.00  0.00    -0.003 A 
ATOM      3  C   UNL     1     -33.663  11.904  57.387  1.00  0.00     0.119 A 
ATOM      4  C   UNL     1     -32.528  11.438  56.723  1.00  0.00     0.046 A 
ATOM      5  C   UNL     1     -31.637  12.326  56.134  1.00  0.00     0.004 A 
ATOM      6  C   UNL     1     -31.853  13.698  56.223  1.00  0.00     0.004 A 
ENDROOT
BRANCH   1   7
ATOM      7  C   UNL     1     -33.191  15.724  57.001  1.00  0.00     0.036 C 
BRANCH   7   8
ATOM      8  C   UNL     1     -32.065  16.590  56.407  1.00  0.00     0.004 C 
BRANCH   8   9
ATOM      9  C   UNL     1     -31.266  17.292  57.513  1.00  0.00    -0.003 C 
ATOM     10  C   UNL     1     -29.776  16.987  57.395  1.00  0.00     0.004 C 
ENDBRANCH   8   9
ENDBRANCH   7   8
ENDBRANCH   1   7
BRANCH   2  11
ATOM     11  C   UNL     1     -35.200  13.797  58.118  1.00  0.00     0.040 C 
BRANCH  11  12
ATOM     12  C   UNL     1     -36.428  13.457  57.263  1.00  0.00     0.005 C 
BRANCH  12  13
ATOM     13  C   UNL     1     -36.268  13.990  55.835  1.00  0.00    -0.003 C 
ATOM     14  C   UNL     1     -36.310  12.855  54.815  1.00  0.00     0.004 C 
ENDBRANCH  12  13
ENDBRANCH  11  12
ENDBRANCH   2  11
BRANCH   3  15
ATOM     15  O   UNL     1     -34.502  10.947  57.964  1.00  0.00    -0.508 OA
ATOM     16  H   UNL     1     -35.281  11.165  58.570  1.00  0.00     0.293 HD
ENDBRANCH   3  15
TORSDOF 7
ENDMDL
MODEL 9
REMARK VINA RESULT:    -6.172      2.248      4.726
REMARK INTER + INTRA:          -8.995
REMARK INTER:                  -8.367
REMARK INTRA:                  -0.628
REMARK UNBOUND:                -0.478
REMARK SMILES CCCCc1cccc(O)c1CCCC
REMARK SMILES IDX 5 1 11 2 9 3 8 4 7 5 6 6 4 7 3 8 2 9 1 10 12 11 13 12 14 13
REMARK SMILES IDX 15 14 10 15
REMARK H PARENT 10 16
REMARK Flexibility Score: inf
ROOT
ATOM      1  C   UNL     1     -29.282  17.765  57.006  1.00  0.00    -0.041 A 
ATOM      2  C   UNL     1     -29.133  19.169  57.237  1.00  0.00    -0.003 A 
ATOM      3  C   UNL     1     -27.929  19.651  57.819  1.00  0.00     0.119 A 
ATOM      4  C   UNL     1     -26.943  18.753  58.230  1.00  0.00     0.046 A 
ATOM      5  C   UNL     1     -27.119  17.385  58.070  1.00  0.00     0.004 A 
ATOM      6  C   UNL     1     -28.274  16.893  57.470  1.00  0.00     0.004 A 
ENDROOT
BRANCH   1   7
ATOM      7  C   UNL     1     -30.544  17.206  56.353  1.00  0.00     0.036 C 
BRANCH   7   8
ATOM      8  C   UNL     1     -31.614  16.684  57.328  1.00  0.00     0.004 C 
BRANCH   8   9
ATOM      9  C   UNL     1     -32.825  16.124  56.571  1.00  0.00    -0.003 C 
ATOM     10  C   UNL     1     -32.499  14.783  55.923  1.00  0.00     0.004 C 
ENDBRANCH   8   9
ENDBRANCH   7   8
ENDBRANCH   1   7
BRANCH   2  11
ATOM     11  C   UNL     1     -30.234  20.146  56.861  1.00  0.00     0.040 C 
BRANCH  11  12
ATOM     12  C   UNL     1     -29.905  20.866  55.546  1.00  0.00     0.005 C 
BRANCH  12  13
ATOM     13  C   UNL     1     -29.956  19.895  54.361  1.00  0.00    -0.003 C 
ATOM     14  C   UNL     1     -28.576  19.719  53.734  1.00  0.00     0.004 C 
ENDBRANCH  12  13
ENDBRANCH  11  12
ENDBRANCH   2  11
BRANCH   3  15
ATOM     15  O   UNL     1     -27.670  21.012  58.003  1.00  0.00    -0.508 OA
ATOM     16  H   UNL     1     -28.385  21.717  58.114  1.00  0.00     0.293 HD
ENDBRANCH   3  15
TORSDOF 7
ENDMDL
