MODEL 1
REMARK VINA RESULT:    -0.708      0.000      0.000
REMARK INTER + INTRA:          -0.923
REMARK INTER:                  -0.853
REMARK INTRA:                  -0.070
REMARK UNBOUND:                -0.070
REMARK SMILES CC[C@@H](C)[C@H]([NH3+])C(=O)[O-]
REMARK SMILES IDX 3 1 4 2 5 3 6 4 7 8 8 9 9 10 2 11 1 12
REMARK H PARENT 6 5 6 6 6 7
REMARK Flexibility Score: inf
ROOT
ATOM      1  C   UNL     1      -1.528  -3.336 -14.105  1.00  0.00     0.050 C 
ATOM      2  C   UNL     1      -1.763  -1.895 -13.610  1.00  0.00     0.014 C 
ENDROOT
BRANCH   1   3
ATOM      3  C   UNL     1      -1.104  -3.400 -15.608  1.00  0.00     0.230 C 
BRANCH   3   4
ATOM      4  N   UNL     1       0.256  -2.890 -15.847  1.00  0.00    -0.350 N 
ATOM      5  H   UNL     1       0.862  -3.666 -16.202  1.00  0.00     0.345 HD
ATOM      6  H   UNL     1       0.679  -2.548 -14.956  1.00  0.00     0.345 HD
ATOM      7  H   UNL     1       0.257  -2.120 -16.553  1.00  0.00     0.345 HD
ENDBRANCH   3   4
BRANCH   3   8
ATOM      8  C   UNL     1      -2.109  -2.695 -16.486  1.00  0.00     0.099 C 
ATOM      9  O   UNL     1      -1.826  -1.600 -17.044  1.00  0.00    -0.544 OA
ATOM     10  O   UNL     1      -3.381  -3.231 -16.644  1.00  0.00    -0.544 OA
ENDBRANCH   3   8
ENDBRANCH   1   3
BRANCH   1  11
ATOM     11  C   UNL     1      -0.542  -4.050 -13.147  1.00  0.00     0.006 C 
ATOM     12  C   UNL     1      -0.940  -3.944 -11.674  1.00  0.00     0.004 C 
ENDBRANCH   1  11
TORSDOF 4
ENDMDL
MODEL 2
REMARK VINA RESULT:    -0.567      1.697      2.472
REMARK INTER + INTRA:          -0.752
REMARK INTER:                  -0.689
REMARK INTRA:                  -0.063
REMARK UNBOUND:                -0.070
REMARK SMILES CC[C@@H](C)[C@H]([NH3+])C(=O)[O-]
REMARK SMILES IDX 3 1 4 2 5 3 6 4 7 8 8 9 9 10 2 11 1 12
REMARK H PARENT 6 5 6 6 6 7
REMARK Flexibility Score: inf
ROOT
ATOM      1  C   UNL     1      -0.590  -3.716 -14.809  1.00  0.00     0.050 C 
ATOM      2  C   UNL     1      -0.578  -4.074 -13.310  1.00  0.00     0.014 C 
ENDROOT
BRANCH   1   3
ATOM      3  C   UNL     1      -1.284  -2.345 -15.100  1.00  0.00     0.230 C 
BRANCH   3   4
ATOM      4  N   UNL     1      -2.065  -1.840 -13.960  1.00  0.00    -0.350 N 
ATOM      5  H   UNL     1      -1.534  -1.073 -13.486  1.00  0.00     0.345 HD
ATOM      6  H   UNL     1      -2.215  -2.596 -13.256  1.00  0.00     0.345 HD
ATOM      7  H   UNL     1      -2.989  -1.461 -14.268  1.00  0.00     0.345 HD
ENDBRANCH   3   4
BRANCH   3   8
ATOM      8  C   UNL     1      -2.130  -2.420 -16.347  1.00  0.00     0.099 C 
ATOM      9  O   UNL     1      -2.933  -3.375 -16.528  1.00  0.00    -0.544 OA
ATOM     10  O   UNL     1      -1.990  -1.452 -17.334  1.00  0.00    -0.544 OA
ENDBRANCH   3   8
ENDBRANCH   1   3
BRANCH   1  11
ATOM     11  C   UNL     1       0.849  -3.820 -15.371  1.00  0.00     0.006 C 
ATOM     12  C   UNL     1       1.567  -5.111 -14.974  1.00  0.00     0.004 C 
ENDBRANCH   1  11
TORSDOF 4
ENDMDL
MODEL 3
REMARK VINA RESULT:    -0.096      2.904      4.144
REMARK INTER + INTRA:          -0.185
REMARK INTER:                  -0.517
REMARK INTRA:                   0.332
REMARK UNBOUND:                -0.070
REMARK SMILES CC[C@@H](C)[C@H]([NH3+])C(=O)[O-]
REMARK SMILES IDX 3 1 4 2 5 3 6 4 7 8 8 9 9 10 2 11 1 12
REMARK H PARENT 6 5 6 6 6 7
REMARK Flexibility Score: inf
ROOT
ATOM      1  C   UNL     1      -0.929  -3.378 -15.187  1.00  0.00     0.050 C 
ATOM      2  C   UNL     1       0.540  -3.787 -14.960  1.00  0.00     0.014 C 
ENDROOT
BRANCH   1   3
ATOM      3  C   UNL     1      -1.726  -3.210 -13.853  1.00  0.00     0.230 C 
BRANCH   3   4
ATOM      4  N   UNL     1      -1.940  -1.802 -13.483  1.00  0.00    -0.350 N 
ATOM      5  H   UNL     1      -2.953  -1.562 -13.595  1.00  0.00     0.345 HD
ATOM      6  H   UNL     1      -1.400  -1.171 -14.115  1.00  0.00     0.345 HD
ATOM      7  H   UNL     1      -1.666  -1.621 -12.491  1.00  0.00     0.345 HD
ENDBRANCH   3   4
BRANCH   3   8
ATOM      8  C   UNL     1      -1.068  -3.972 -12.728  1.00  0.00     0.099 C 
ATOM      9  O   UNL     1      -0.872  -5.214 -12.816  1.00  0.00    -0.544 OA
ATOM     10  O   UNL     1      -0.715  -3.308 -11.560  1.00  0.00    -0.544 OA
ENDBRANCH   3   8
ENDBRANCH   1   3
BRANCH   1  11
ATOM     11  C   UNL     1      -0.976  -2.132 -16.105  1.00  0.00     0.006 C 
ATOM     12  C   UNL     1      -2.269  -2.019 -16.913  1.00  0.00     0.004 C 
ENDBRANCH   1  11
TORSDOF 4
ENDMDL
MODEL 4
REMARK VINA RESULT:     0.101      1.552      1.991
REMARK INTER + INTRA:           0.052
REMARK INTER:                   0.019
REMARK INTRA:                   0.033
REMARK UNBOUND:                -0.070
REMARK SMILES CC[C@@H](C)[C@H]([NH3+])C(=O)[O-]
REMARK SMILES IDX 3 1 4 2 5 3 6 4 7 8 8 9 9 10 2 11 1 12
REMARK H PARENT 6 5 6 6 6 7
REMARK Flexibility Score: inf
ROOT
ATOM      1  C   UNL     1      -0.495  -3.357 -14.149  1.00  0.00     0.050 C 
ATOM      2  C   UNL     1       0.385  -4.093 -15.178  1.00  0.00     0.014 C 
ENDROOT
BRANCH   1   3
ATOM      3  C   UNL     1      -1.692  -2.596 -14.807  1.00  0.00     0.230 C 
BRANCH   3   4
ATOM      4  N   UNL     1      -2.794  -3.487 -15.204  1.00  0.00    -0.350 N 
ATOM      5  H   UNL     1      -3.665  -3.213 -14.692  1.00  0.00     0.345 HD
ATOM      6  H   UNL     1      -2.577  -4.474 -14.943  1.00  0.00     0.345 HD
ATOM      7  H   UNL     1      -2.981  -3.429 -16.230  1.00  0.00     0.345 HD
ENDBRANCH   3   4
BRANCH   3   8
ATOM      8  C   UNL     1      -1.226  -1.757 -15.972  1.00  0.00     0.099 C 
ATOM      9  O   UNL     1      -0.218  -1.007 -15.868  1.00  0.00    -0.544 OA
ATOM     10  O   UNL     1      -1.943  -1.773 -17.162  1.00  0.00    -0.544 OA
ENDBRANCH   3   8
ENDBRANCH   1   3
BRANCH   1  11
ATOM     11  C   UNL     1      -0.920  -4.349 -13.038  1.00  0.00     0.006 C 
ATOM     12  C   UNL     1      -0.911  -3.736 -11.637  1.00  0.00     0.004 C 
ENDBRANCH   1  11
TORSDOF 4
ENDMDL
MODEL 5
REMARK VINA RESULT:     0.230      1.224      1.799
REMARK INTER + INTRA:           0.207
REMARK INTER:                   0.035
REMARK INTRA:                   0.172
REMARK UNBOUND:                -0.070
REMARK SMILES CC[C@@H](C)[C@H]([NH3+])C(=O)[O-]
REMARK SMILES IDX 3 1 4 2 5 3 6 4 7 8 8 9 9 10 2 11 1 12
REMARK H PARENT 6 5 6 6 6 7
REMARK Flexibility Score: inf
ROOT
ATOM      1  C   UNL     1      -0.191  -4.149 -13.647  1.00  0.00     0.050 C 
ATOM      2  C   UNL     1      -0.523  -5.588 -13.207  1.00  0.00     0.014 C 
ENDROOT
BRANCH   1   3
ATOM      3  C   UNL     1      -0.201  -3.970 -15.200  1.00  0.00     0.230 C 
BRANCH   3   4
ATOM      4  N   UNL     1       1.145  -3.789 -15.768  1.00  0.00    -0.350 N 
ATOM      5  H   UNL     1       1.855  -4.202 -15.121  1.00  0.00     0.345 HD
ATOM      6  H   UNL     1       1.366  -2.774 -15.865  1.00  0.00     0.345 HD
ATOM      7  H   UNL     1       1.232  -4.257 -16.699  1.00  0.00     0.345 HD
ENDBRANCH   3   4
BRANCH   3   8
ATOM      8  C   UNL     1      -1.119  -2.846 -15.611  1.00  0.00     0.099 C 
ATOM      9  O   UNL     1      -0.721  -1.650 -15.604  1.00  0.00    -0.544 OA
ATOM     10  O   UNL     1      -2.436  -3.123 -15.956  1.00  0.00    -0.544 OA
ENDBRANCH   3   8
ENDBRANCH   1   3
BRANCH   1  11
ATOM     11  C   UNL     1      -1.119  -3.160 -12.899  1.00  0.00     0.006 C 
ATOM     12  C   UNL     1      -0.998  -3.243 -11.376  1.00  0.00     0.004 C 
ENDBRANCH   1  11
TORSDOF 4
ENDMDL
MODEL 6
REMARK VINA RESULT:     0.547      3.136      4.121
REMARK INTER + INTRA:           0.589
REMARK INTER:                   0.609
REMARK INTRA:                  -0.020
REMARK UNBOUND:                -0.070
REMARK SMILES CC[C@@H](C)[C@H]([NH3+])C(=O)[O-]
REMARK SMILES IDX 3 1 4 2 5 3 6 4 7 8 8 9 9 10 2 11 1 12
REMARK H PARENT 6 5 6 6 6 7
REMARK Flexibility Score: inf
ROOT
ATOM      1  C   UNL     1      -0.859  -2.942 -14.081  1.00  0.00     0.050 C 
ATOM      2  C   UNL     1      -2.373  -2.701 -13.915  1.00  0.00     0.014 C 
ENDROOT
BRANCH   1   3
ATOM      3  C   UNL     1      -0.319  -4.074 -13.147  1.00  0.00     0.230 C 
BRANCH   3   4
ATOM      4  N   UNL     1      -0.518  -5.423 -13.700  1.00  0.00    -0.350 N 
ATOM      5  H   UNL     1       0.017  -6.117 -13.129  1.00  0.00     0.345 HD
ATOM      6  H   UNL     1      -0.152  -5.475 -14.676  1.00  0.00     0.345 HD
ATOM      7  H   UNL     1      -1.528  -5.694 -13.691  1.00  0.00     0.345 HD
ENDBRANCH   3   4
BRANCH   3   8
ATOM      8  C   UNL     1      -0.911  -3.963 -11.762  1.00  0.00     0.099 C 
ATOM      9  O   UNL     1      -0.724  -2.933 -11.060  1.00  0.00    -0.544 OA
ATOM     10  O   UNL     1      -1.630  -5.028 -11.234  1.00  0.00    -0.544 OA
ENDBRANCH   3   8
ENDBRANCH   1   3
BRANCH   1  11
ATOM     11  C   UNL     1      -0.538  -3.163 -15.579  1.00  0.00     0.006 C 
ATOM     12  C   UNL     1      -1.554  -2.517 -16.522  1.00  0.00     0.004 C 
ENDBRANCH   1  11
TORSDOF 4
ENDMDL
MODEL 7
REMARK VINA RESULT:     0.787      2.969      3.789
REMARK INTER + INTRA:           0.878
REMARK INTER:                   0.639
REMARK INTRA:                   0.239
REMARK UNBOUND:                -0.070
REMARK SMILES CC[C@@H](C)[C@H]([NH3+])C(=O)[O-]
REMARK SMILES IDX 3 1 4 2 5 3 6 4 7 8 8 9 9 10 2 11 1 12
REMARK H PARENT 6 5 6 6 6 7
REMARK Flexibility Score: inf
ROOT
ATOM      1  C   UNL     1      -0.656  -2.763 -15.167  1.00  0.00     0.050 C 
ATOM      2  C   UNL     1      -1.228  -1.858 -16.276  1.00  0.00     0.014 C 
ENDROOT
BRANCH   1   3
ATOM      3  C   UNL     1      -1.680  -3.034 -14.017  1.00  0.00     0.230 C 
BRANCH   3   4
ATOM      4  N   UNL     1      -2.331  -1.811 -13.523  1.00  0.00    -0.350 N 
ATOM      5  H   UNL     1      -1.631  -1.223 -13.015  1.00  0.00     0.345 HD
ATOM      6  H   UNL     1      -3.088  -2.049 -12.845  1.00  0.00     0.345 HD
ATOM      7  H   UNL     1      -2.729  -1.247 -14.308  1.00  0.00     0.345 HD
ENDBRANCH   3   4
BRANCH   3   8
ATOM      8  C   UNL     1      -1.035  -3.800 -12.887  1.00  0.00     0.099 C 
ATOM      9  O   UNL     1      -0.776  -5.028 -13.002  1.00  0.00    -0.544 OA
ATOM     10  O   UNL     1      -0.767  -3.157 -11.685  1.00  0.00    -0.544 OA
ENDBRANCH   3   8
ENDBRANCH   1   3
BRANCH   1  11
ATOM     11  C   UNL     1      -0.077  -4.049 -15.806  1.00  0.00     0.006 C 
ATOM     12  C   UNL     1       1.402  -4.275 -15.488  1.00  0.00     0.004 C 
ENDBRANCH   1  11
TORSDOF 4
ENDMDL
MODEL 8
REMARK VINA RESULT:     0.879      3.459      4.617
REMARK INTER + INTRA:           0.989
REMARK INTER:                   0.768
REMARK INTRA:                   0.221
REMARK UNBOUND:                -0.070
REMARK SMILES CC[C@@H](C)[C@H]([NH3+])C(=O)[O-]
REMARK SMILES IDX 3 1 4 2 5 3 6 4 7 8 8 9 9 10 2 11 1 12
REMARK H PARENT 6 5 6 6 6 7
REMARK Flexibility Score: inf
ROOT
ATOM      1  C   UNL     1      -1.030  -3.924 -13.732  1.00  0.00     0.050 C 
ATOM      2  C   UNL     1       0.467  -4.126 -14.041  1.00  0.00     0.014 C 
ENDROOT
BRANCH   1   3
ATOM      3  C   UNL     1      -1.349  -4.006 -12.203  1.00  0.00     0.230 C 
BRANCH   3   4
ATOM      4  N   UNL     1      -0.513  -3.109 -11.390  1.00  0.00    -0.350 N 
ATOM      5  H   UNL     1      -0.771  -2.115 -11.590  1.00  0.00     0.345 HD
ATOM      6  H   UNL     1       0.494  -3.225 -11.637  1.00  0.00     0.345 HD
ATOM      7  H   UNL     1      -0.645  -3.286 -10.368  1.00  0.00     0.345 HD
ENDBRANCH   3   4
BRANCH   3   8
ATOM      8  C   UNL     1      -1.262  -5.429 -11.706  1.00  0.00     0.099 C 
ATOM      9  O   UNL     1      -1.498  -5.708 -10.500  1.00  0.00    -0.544 OA
ATOM     10  O   UNL     1      -0.868  -6.438 -12.575  1.00  0.00    -0.544 OA
ENDBRANCH   3   8
ENDBRANCH   1   3
BRANCH   1  11
ATOM     11  C   UNL     1      -1.519  -2.617 -14.403  1.00  0.00     0.006 C 
ATOM     12  C   UNL     1      -1.226  -2.556 -15.903  1.00  0.00     0.004 C 
ENDBRANCH   1  11
TORSDOF 4
ENDMDL
MODEL 9
REMARK VINA RESULT:     1.854      2.909      3.630
REMARK INTER + INTRA:           2.163
REMARK INTER:                   1.917
REMARK INTRA:                   0.246
REMARK UNBOUND:                -0.070
REMARK SMILES CC[C@@H](C)[C@H]([NH3+])C(=O)[O-]
REMARK SMILES IDX 3 1 4 2 5 3 6 4 7 8 8 9 9 10 2 11 1 12
REMARK H PARENT 6 5 6 6 6 7
REMARK Flexibility Score: inf
ROOT
ATOM      1  C   UNL     1      -0.650  -3.429 -13.226  1.00  0.00     0.050 C 
ATOM      2  C   UNL     1      -0.947  -3.663 -11.732  1.00  0.00     0.014 C 
ENDROOT
BRANCH   1   3
ATOM      3  C   UNL     1      -0.421  -4.759 -14.015  1.00  0.00     0.230 C 
BRANCH   3   4
ATOM      4  N   UNL     1      -0.442  -5.952 -13.154  1.00  0.00    -0.350 N 
ATOM      5  H   UNL     1       0.113  -6.717 -13.604  1.00  0.00     0.345 HD
ATOM      6  H   UNL     1      -1.418  -6.302 -13.040  1.00  0.00     0.345 HD
ATOM      7  H   UNL     1      -0.029  -5.752 -12.215  1.00  0.00     0.345 HD
ENDBRANCH   3   4
BRANCH   3   8
ATOM      8  C   UNL     1       0.852  -4.697 -14.825  1.00  0.00     0.099 C 
ATOM      9  O   UNL     1       1.050  -3.762 -15.647  1.00  0.00    -0.544 OA
ATOM     10  O   UNL     1       1.796  -5.707 -14.702  1.00  0.00    -0.544 OA
ENDBRANCH   3   8
ENDBRANCH   1   3
BRANCH   1  11
ATOM     11  C   UNL     1      -1.752  -2.525 -13.831  1.00  0.00     0.006 C 
ATOM     12  C   UNL     1      -1.719  -2.463 -15.359  1.00  0.00     0.004 C 
ENDBRANCH   1  11
TORSDOF 4
ENDMDL
