MODEL 1
REMARK VINA RESULT:    -3.103      0.000      0.000
REMARK INTER + INTRA:          -4.653
REMARK INTER:                  -4.191
REMARK INTRA:                  -0.462
REMARK UNBOUND:                -0.462
REMARK SMILES [NH3+]CCCC[C@H]([NH3+])C(=O)[O-]
REMARK SMILES IDX 4 1 3 2 2 3 1 4 5 8 6 9 7 10 8 14 9 15 10 16
REMARK H PARENT 1 5 1 6 1 7 7 11 7 12 7 13
REMARK Flexibility Score: inf
ROOT
ATOM      1  C   UNL     1     108.182 116.540  99.768  1.00  0.00     0.012 C 
ENDROOT
BRANCH   1   2
ATOM      2  C   UNL     1     108.267 118.069  99.840  1.00  0.00     0.061 C 
BRANCH   2   3
ATOM      3  C   UNL     1     108.998 118.639  98.616  1.00  0.00     0.258 C 
BRANCH   3   4
ATOM      4  N   UNL     1     108.313 118.266  97.379  1.00  0.00    -0.358 N 
ATOM      5  H   UNL     1     109.011 117.966  96.659  1.00  0.00     0.344 HD
ATOM      6  H   UNL     1     107.787 119.093  97.015  1.00  0.00     0.344 HD
ATOM      7  H   UNL     1     107.637 117.489  97.562  1.00  0.00     0.344 HD
ENDBRANCH   3   4
ENDBRANCH   2   3
ENDBRANCH   1   2
BRANCH   1   8
ATOM      8  C   UNL     1     106.720 116.068  99.780  1.00  0.00     0.072 C 
BRANCH   8   9
ATOM      9  C   UNL     1     105.748 117.185 100.217  1.00  0.00     0.227 C 
BRANCH   9  10
ATOM     10  N   UNL     1     104.908 116.728 101.330  1.00  0.00    -0.350 N 
ATOM     11  H   UNL     1     103.919 116.586 101.015  1.00  0.00     0.345 HD
ATOM     12  H   UNL     1     105.278 115.825 101.706  1.00  0.00     0.345 HD
ATOM     13  H   UNL     1     104.925 117.433 102.102  1.00  0.00     0.345 HD
ENDBRANCH   9  10
BRANCH   9  14
ATOM     14  C   UNL     1     104.884 117.637  99.067  1.00  0.00     0.099 C 
ATOM     15  O   UNL     1     103.705 118.030  99.269  1.00  0.00    -0.544 OA
ATOM     16  O   UNL     1     105.386 117.611  97.772  1.00  0.00    -0.544 OA
ENDBRANCH   9  14
ENDBRANCH   8   9
ENDBRANCH   1   8
TORSDOF 7
ENDMDL
MODEL 2
REMARK VINA RESULT:    -3.094     17.124     17.983
REMARK INTER + INTRA:          -4.641
REMARK INTER:                  -4.132
REMARK INTRA:                  -0.509
REMARK UNBOUND:                -0.462
REMARK SMILES [NH3+]CCCC[C@H]([NH3+])C(=O)[O-]
REMARK SMILES IDX 4 1 3 2 2 3 1 4 5 8 6 9 7 10 8 14 9 15 10 16
REMARK H PARENT 1 5 1 6 1 7 7 11 7 12 7 13
REMARK Flexibility Score: inf
ROOT
ATOM      1  C   UNL     1     110.084 101.496 100.191  1.00  0.00     0.012 C 
ENDROOT
BRANCH   1   2
ATOM      2  C   UNL     1     109.219 101.178  98.966  1.00  0.00     0.061 C 
BRANCH   2   3
ATOM      3  C   UNL     1     109.332  99.698  98.580  1.00  0.00     0.258 C 
BRANCH   3   4
ATOM      4  N   UNL     1     110.065  99.540  97.323  1.00  0.00    -0.358 N 
ATOM      5  H   UNL     1     109.649 100.155  96.586  1.00  0.00     0.344 HD
ATOM      6  H   UNL     1     109.997  98.545  97.010  1.00  0.00     0.344 HD
ATOM      7  H   UNL     1     111.072  99.784  97.461  1.00  0.00     0.344 HD
ENDBRANCH   3   4
ENDBRANCH   2   3
ENDBRANCH   1   2
BRANCH   1   8
ATOM      8  C   UNL     1     111.499 101.923  99.770  1.00  0.00     0.072 C 
BRANCH   8   9
ATOM      9  C   UNL     1     112.569 100.889 100.184  1.00  0.00     0.227 C 
BRANCH   9  10
ATOM     10  N   UNL     1     113.457 101.451 101.209  1.00  0.00    -0.350 N 
ATOM     11  H   UNL     1     113.238 102.461 101.376  1.00  0.00     0.345 HD
ATOM     12  H   UNL     1     113.342 100.925 102.105  1.00  0.00     0.345 HD
ATOM     13  H   UNL     1     114.454 101.361 100.904  1.00  0.00     0.345 HD
ENDBRANCH   9  10
BRANCH   9  14
ATOM     14  C   UNL     1     113.374 100.432  98.994  1.00  0.00     0.099 C 
ATOM     15  O   UNL     1     112.897 100.509  97.832  1.00  0.00    -0.544 OA
ATOM     16  O   UNL     1     114.648  99.910  99.179  1.00  0.00    -0.544 OA
ENDBRANCH   9  14
ENDBRANCH   8   9
ENDBRANCH   1   8
TORSDOF 7
ENDMDL
MODEL 3
REMARK VINA RESULT:    -3.065     17.203     18.084
REMARK INTER + INTRA:          -4.602
REMARK INTER:                  -4.123
REMARK INTRA:                  -0.479
REMARK UNBOUND:                -0.462
REMARK SMILES [NH3+]CCCC[C@H]([NH3+])C(=O)[O-]
REMARK SMILES IDX 4 1 3 2 2 3 1 4 5 8 6 9 7 10 8 14 9 15 10 16
REMARK H PARENT 1 5 1 6 1 7 7 11 7 12 7 13
REMARK Flexibility Score: inf
ROOT
ATOM      1  C   UNL     1     110.886 102.292  99.729  1.00  0.00     0.012 C 
ENDROOT
BRANCH   1   2
ATOM      2  C   UNL     1     109.550 101.599  99.436  1.00  0.00     0.061 C 
BRANCH   2   3
ATOM      3  C   UNL     1     109.727 100.473  98.409  1.00  0.00     0.258 C 
BRANCH   3   4
ATOM      4  N   UNL     1     109.241  99.200  98.940  1.00  0.00    -0.358 N 
ATOM      5  H   UNL     1     108.242  99.054  98.665  1.00  0.00     0.344 HD
ATOM      6  H   UNL     1     109.305  99.217  99.984  1.00  0.00     0.344 HD
ATOM      7  H   UNL     1     109.826  98.412  98.579  1.00  0.00     0.344 HD
ENDBRANCH   3   4
ENDBRANCH   2   3
ENDBRANCH   1   2
BRANCH   1   8
ATOM      8  C   UNL     1     112.064 101.322  99.542  1.00  0.00     0.072 C 
BRANCH   8   9
ATOM      9  C   UNL     1     112.829 101.071 100.860  1.00  0.00     0.227 C 
BRANCH   9  10
ATOM     10  N   UNL     1     114.247 100.809 100.588  1.00  0.00    -0.350 N 
ATOM     11  H   UNL     1     114.360  99.936 100.022  1.00  0.00     0.345 HD
ATOM     12  H   UNL     1     114.661 101.613 100.062  1.00  0.00     0.345 HD
ATOM     13  H   UNL     1     114.769 100.706 101.489  1.00  0.00     0.345 HD
ENDBRANCH   9  10
BRANCH   9  14
ATOM     14  C   UNL     1     112.227  99.923 101.629  1.00  0.00     0.099 C 
ATOM     15  O   UNL     1     111.568  99.030 101.034  1.00  0.00    -0.544 OA
ATOM     16  O   UNL     1     112.390  99.851 103.007  1.00  0.00    -0.544 OA
ENDBRANCH   9  14
ENDBRANCH   8   9
ENDBRANCH   1   8
TORSDOF 7
ENDMDL
MODEL 4
REMARK VINA RESULT:    -3.019     16.648     17.438
REMARK INTER + INTRA:          -4.540
REMARK INTER:                  -4.049
REMARK INTRA:                  -0.491
REMARK UNBOUND:                -0.462
REMARK SMILES [NH3+]CCCC[C@H]([NH3+])C(=O)[O-]
REMARK SMILES IDX 4 1 3 2 2 3 1 4 5 8 6 9 7 10 8 14 9 15 10 16
REMARK H PARENT 1 5 1 6 1 7 7 11 7 12 7 13
REMARK Flexibility Score: inf
ROOT
ATOM      1  C   UNL     1     109.901 101.610  99.377  1.00  0.00     0.012 C 
ENDROOT
BRANCH   1   2
ATOM      2  C   UNL     1     111.241 102.184  99.854  1.00  0.00     0.061 C 
BRANCH   2   3
ATOM      3  C   UNL     1     112.177 101.068 100.337  1.00  0.00     0.258 C 
BRANCH   3   4
ATOM      4  N   UNL     1     113.475 101.150  99.669  1.00  0.00    -0.358 N 
ATOM      5  H   UNL     1     114.032 100.285  99.860  1.00  0.00     0.344 HD
ATOM      6  H   UNL     1     113.999 101.976 100.036  1.00  0.00     0.344 HD
ATOM      7  H   UNL     1     113.342 101.264  98.638  1.00  0.00     0.344 HD
ENDBRANCH   3   4
ENDBRANCH   2   3
ENDBRANCH   1   2
BRANCH   1   8
ATOM      8  C   UNL     1     110.113 100.356  98.514  1.00  0.00     0.072 C 
BRANCH   8   9
ATOM      9  C   UNL     1     109.942 100.647  97.007  1.00  0.00     0.227 C 
BRANCH   9  10
ATOM     10  N   UNL     1     109.366  99.484  96.322  1.00  0.00    -0.350 N 
ATOM     11  H   UNL     1     108.926  99.769  95.416  1.00  0.00     0.345 HD
ATOM     12  H   UNL     1     110.113  98.778  96.132  1.00  0.00     0.345 HD
ATOM     13  H   UNL     1     108.641  99.036  96.930  1.00  0.00     0.345 HD
ENDBRANCH   9  10
BRANCH   9  14
ATOM     14  C   UNL     1     111.256 101.024  96.372  1.00  0.00     0.099 C 
ATOM     15  O   UNL     1     111.290 101.815  95.393  1.00  0.00    -0.544 OA
ATOM     16  O   UNL     1     112.441 100.488  96.861  1.00  0.00    -0.544 OA
ENDBRANCH   9  14
ENDBRANCH   8   9
ENDBRANCH   1   8
TORSDOF 7
ENDMDL
MODEL 5
REMARK VINA RESULT:    -3.017      1.787      3.842
REMARK INTER + INTRA:          -4.537
REMARK INTER:                  -4.044
REMARK INTRA:                  -0.494
REMARK UNBOUND:                -0.462
REMARK SMILES [NH3+]CCCC[C@H]([NH3+])C(=O)[O-]
REMARK SMILES IDX 4 1 3 2 2 3 1 4 5 8 6 9 7 10 8 14 9 15 10 16
REMARK H PARENT 1 5 1 6 1 7 7 11 7 12 7 13
REMARK Flexibility Score: inf
ROOT
ATOM      1  C   UNL     1     108.154 116.540  99.459  1.00  0.00     0.012 C 
ENDROOT
BRANCH   1   2
ATOM      2  C   UNL     1     106.800 115.982  99.911  1.00  0.00     0.061 C 
BRANCH   2   3
ATOM      3  C   UNL     1     105.860 117.109 100.359  1.00  0.00     0.258 C 
BRANCH   3   4
ATOM      4  N   UNL     1     104.591 117.050  99.635  1.00  0.00    -0.358 N 
ATOM      5  H   UNL     1     104.685 116.434  98.794  1.00  0.00     0.344 HD
ATOM      6  H   UNL     1     104.330 118.012  99.320  1.00  0.00     0.344 HD
ATOM      7  H   UNL     1     103.837 116.683 100.260  1.00  0.00     0.344 HD
ENDBRANCH   3   4
ENDBRANCH   2   3
ENDBRANCH   1   2
BRANCH   1   8
ATOM      8  C   UNL     1     107.974 117.814  98.619  1.00  0.00     0.072 C 
BRANCH   8   9
ATOM      9  C   UNL     1     108.221 117.564  97.115  1.00  0.00     0.227 C 
BRANCH   9  10
ATOM     10  N   UNL     1     108.794 118.758  96.484  1.00  0.00    -0.350 N 
ATOM     11  H   UNL     1     108.889 119.536  97.178  1.00  0.00     0.345 HD
ATOM     12  H   UNL     1     109.738 118.534  96.092  1.00  0.00     0.345 HD
ATOM     13  H   UNL     1     108.182 119.073  95.696  1.00  0.00     0.345 HD
ENDBRANCH   9  10
BRANCH   9  14
ATOM     14  C   UNL     1     106.949 117.165  96.412  1.00  0.00     0.099 C 
ATOM     15  O   UNL     1     106.984 116.401  95.412  1.00  0.00    -0.544 OA
ATOM     16  O   UNL     1     105.727 117.651  96.861  1.00  0.00    -0.544 OA
ENDBRANCH   9  14
ENDBRANCH   8   9
ENDBRANCH   1   8
TORSDOF 7
ENDMDL
MODEL 6
REMARK VINA RESULT:    -2.951     13.474     14.066
REMARK INTER + INTRA:          -4.448
REMARK INTER:                  -4.333
REMARK INTRA:                  -0.115
REMARK UNBOUND:                -0.462
REMARK SMILES [NH3+]CCCC[C@H]([NH3+])C(=O)[O-]
REMARK SMILES IDX 4 1 3 2 2 3 1 4 5 8 6 9 7 10 8 14 9 15 10 16
REMARK H PARENT 1 5 1 6 1 7 7 11 7 12 7 13
REMARK Flexibility Score: inf
ROOT
ATOM      1  C   UNL     1     103.371 107.191  92.051  1.00  0.00     0.012 C 
ENDROOT
BRANCH   1   2
ATOM      2  C   UNL     1     104.845 107.091  91.645  1.00  0.00     0.061 C 
BRANCH   2   3
ATOM      3  C   UNL     1     105.767 107.343  92.846  1.00  0.00     0.258 C 
BRANCH   3   4
ATOM      4  N   UNL     1     104.994 107.458  94.082  1.00  0.00    -0.358 N 
ATOM      5  H   UNL     1     103.988 107.240  93.898  1.00  0.00     0.344 HD
ATOM      6  H   UNL     1     105.067 108.437  94.442  1.00  0.00     0.344 HD
ATOM      7  H   UNL     1     105.373 106.804  94.805  1.00  0.00     0.344 HD
ENDBRANCH   3   4
ENDBRANCH   2   3
ENDBRANCH   1   2
BRANCH   1   8
ATOM      8  C   UNL     1     102.612 105.902  91.697  1.00  0.00     0.072 C 
BRANCH   8   9
ATOM      9  C   UNL     1     101.088 106.045  91.903  1.00  0.00     0.227 C 
BRANCH   9  10
ATOM     10  N   UNL     1     100.797 107.134  92.842  1.00  0.00    -0.350 N 
ATOM     11  H   UNL     1     100.558 108.014  92.327  1.00  0.00     0.345 HD
ATOM     12  H   UNL     1      99.992 106.869  93.455  1.00  0.00     0.345 HD
ATOM     13  H   UNL     1     101.628 107.309  93.454  1.00  0.00     0.345 HD
ENDBRANCH   9  10
BRANCH   9  14
ATOM     14  C   UNL     1     100.482 104.757  92.399  1.00  0.00     0.099 C 
ATOM     15  O   UNL     1     101.218 103.794  92.741  1.00  0.00    -0.544 OA
ATOM     16  O   UNL     1      99.101 104.624  92.471  1.00  0.00    -0.544 OA
ENDBRANCH   9  14
ENDBRANCH   8   9
ENDBRANCH   1   8
TORSDOF 7
ENDMDL
MODEL 7
REMARK VINA RESULT:    -2.948     17.026     17.823
REMARK INTER + INTRA:          -4.444
REMARK INTER:                  -3.933
REMARK INTRA:                  -0.510
REMARK UNBOUND:                -0.462
REMARK SMILES [NH3+]CCCC[C@H]([NH3+])C(=O)[O-]
REMARK SMILES IDX 4 1 3 2 2 3 1 4 5 8 6 9 7 10 8 14 9 15 10 16
REMARK H PARENT 1 5 1 6 1 7 7 11 7 12 7 13
REMARK Flexibility Score: inf
ROOT
ATOM      1  C   UNL     1     111.469  99.482 101.890  1.00  0.00     0.012 C 
ENDROOT
BRANCH   1   2
ATOM      2  C   UNL     1     112.855 100.105 102.094  1.00  0.00     0.061 C 
BRANCH   2   3
ATOM      3  C   UNL     1     113.757  99.850 100.879  1.00  0.00     0.258 C 
BRANCH   3   4
ATOM      4  N   UNL     1     114.206 101.111 100.287  1.00  0.00    -0.358 N 
ATOM      5  H   UNL     1     114.399 101.812 101.040  1.00  0.00     0.344 HD
ATOM      6  H   UNL     1     113.454 101.483  99.664  1.00  0.00     0.344 HD
ATOM      7  H   UNL     1     115.070 100.954  99.719  1.00  0.00     0.344 HD
ENDBRANCH   3   4
ENDBRANCH   2   3
ENDBRANCH   1   2
BRANCH   1   8
ATOM      8  C   UNL     1     111.149  99.324 100.396  1.00  0.00     0.072 C 
BRANCH   8   9
ATOM      9  C   UNL     1     110.100 100.348  99.911  1.00  0.00     0.227 C 
BRANCH   9  10
ATOM     10  N   UNL     1     109.104  99.696  99.052  1.00  0.00    -0.350 N 
ATOM     11  H   UNL     1     108.217 100.251  99.027  1.00  0.00     0.345 HD
ATOM     12  H   UNL     1     109.478  99.607  98.080  1.00  0.00     0.345 HD
ATOM     13  H   UNL     1     108.899  98.736  99.412  1.00  0.00     0.345 HD
ENDBRANCH   9  10
BRANCH   9  14
ATOM     14  C   UNL     1     110.753 101.489  99.173  1.00  0.00     0.099 C 
ATOM     15  O   UNL     1     110.712 101.545  97.915  1.00  0.00    -0.544 OA
ATOM     16  O   UNL     1     111.416 102.484  99.881  1.00  0.00    -0.544 OA
ENDBRANCH   9  14
ENDBRANCH   8   9
ENDBRANCH   1   8
TORSDOF 7
ENDMDL
MODEL 8
REMARK VINA RESULT:    -2.932     16.693     17.436
REMARK INTER + INTRA:          -4.422
REMARK INTER:                  -4.338
REMARK INTRA:                  -0.084
REMARK UNBOUND:                -0.462
REMARK SMILES [NH3+]CCCC[C@H]([NH3+])C(=O)[O-]
REMARK SMILES IDX 4 1 3 2 2 3 1 4 5 8 6 9 7 10 8 14 9 15 10 16
REMARK H PARENT 1 5 1 6 1 7 7 11 7 12 7 13
REMARK Flexibility Score: inf
ROOT
ATOM      1  C   UNL     1     112.231 101.549 100.189  1.00  0.00     0.012 C 
ENDROOT
BRANCH   1   2
ATOM      2  C   UNL     1     113.056 101.058 101.385  1.00  0.00     0.061 C 
BRANCH   2   3
ATOM      3  C   UNL     1     114.139 100.067 100.938  1.00  0.00     0.258 C 
BRANCH   3   4
ATOM      4  N   UNL     1     115.124 100.723 100.078  1.00  0.00    -0.358 N 
ATOM      5  H   UNL     1     115.225 100.195  99.180  1.00  0.00     0.344 HD
ATOM      6  H   UNL     1     116.049 100.739 100.565  1.00  0.00     0.344 HD
ATOM      7  H   UNL     1     114.829 101.706  99.879  1.00  0.00     0.344 HD
ENDBRANCH   3   4
ENDBRANCH   2   3
ENDBRANCH   1   2
BRANCH   1   8
ATOM      8  C   UNL     1     110.780 101.051 100.278  1.00  0.00     0.072 C 
BRANCH   8   9
ATOM      9  C   UNL     1     109.917 101.550  99.099  1.00  0.00     0.227 C 
BRANCH   9  10
ATOM     10  N   UNL     1     108.635 102.072  99.586  1.00  0.00    -0.350 N 
ATOM     11  H   UNL     1     108.532 103.086  99.345  1.00  0.00     0.345 HD
ATOM     12  H   UNL     1     107.847 101.537  99.153  1.00  0.00     0.345 HD
ATOM     13  H   UNL     1     108.576 101.958 100.624  1.00  0.00     0.345 HD
ENDBRANCH   9  10
BRANCH   9  14
ATOM     14  C   UNL     1     109.682 100.453  98.092  1.00  0.00     0.099 C 
ATOM     15  O   UNL     1     109.121  99.379  98.436  1.00  0.00    -0.544 OA
ATOM     16  O   UNL     1     110.095 100.620  96.776  1.00  0.00    -0.544 OA
ENDBRANCH   9  14
ENDBRANCH   8   9
ENDBRANCH   1   8
TORSDOF 7
ENDMDL
MODEL 9
REMARK VINA RESULT:    -2.911     12.217     13.423
REMARK INTER + INTRA:          -4.393
REMARK INTER:                  -3.989
REMARK INTRA:                  -0.404
REMARK UNBOUND:                -0.462
REMARK SMILES [NH3+]CCCC[C@H]([NH3+])C(=O)[O-]
REMARK SMILES IDX 4 1 3 2 2 3 1 4 5 8 6 9 7 10 8 14 9 15 10 16
REMARK H PARENT 1 5 1 6 1 7 7 11 7 12 7 13
REMARK Flexibility Score: inf
ROOT
ATOM      1  C   UNL     1     117.408 113.880  92.311  1.00  0.00     0.012 C 
ENDROOT
BRANCH   1   2
ATOM      2  C   UNL     1     118.772 113.180  92.321  1.00  0.00     0.061 C 
BRANCH   2   3
ATOM      3  C   UNL     1     118.632 111.694  91.965  1.00  0.00     0.258 C 
BRANCH   3   4
ATOM      4  N   UNL     1     117.795 110.998  92.943  1.00  0.00    -0.358 N 
ATOM      5  H   UNL     1     117.216 110.269  92.466  1.00  0.00     0.344 HD
ATOM      6  H   UNL     1     117.158 111.689  93.401  1.00  0.00     0.344 HD
ATOM      7  H   UNL     1     118.394 110.553  93.676  1.00  0.00     0.344 HD
ENDBRANCH   3   4
ENDBRANCH   2   3
ENDBRANCH   1   2
BRANCH   1   8
ATOM      8  C   UNL     1     116.747 113.779  90.928  1.00  0.00     0.072 C 
BRANCH   8   9
ATOM      9  C   UNL     1     115.206 113.843  91.011  1.00  0.00     0.227 C 
BRANCH   9  10
ATOM     10  N   UNL     1     114.786 114.713  92.115  1.00  0.00    -0.350 N 
ATOM     11  H   UNL     1     115.364 114.532  92.969  1.00  0.00     0.345 HD
ATOM     12  H   UNL     1     114.894 115.716  91.837  1.00  0.00     0.345 HD
ATOM     13  H   UNL     1     113.779 114.543  92.339  1.00  0.00     0.345 HD
ENDBRANCH   9  10
BRANCH   9  14
ATOM     14  C   UNL     1     114.612 112.467  91.180  1.00  0.00     0.099 C 
ATOM     15  O   UNL     1     115.321 111.440  91.014  1.00  0.00    -0.544 OA
ATOM     16  O   UNL     1     113.270 112.328  91.510  1.00  0.00    -0.544 OA
ENDBRANCH   9  14
ENDBRANCH   8   9
ENDBRANCH   1   8
TORSDOF 7
ENDMDL
