MODEL 1
REMARK VINA RESULT:    -3.754      0.000      0.000
REMARK INTER + INTRA:          -4.784
REMARK INTER:                  -5.290
REMARK INTRA:                   0.506
REMARK UNBOUND:                 0.506
REMARK SMILES CC1=CCC(=C(C)C)C(=O)CC(C)=CCC1
REMARK SMILES IDX 12 1 14 2 13 3 15 4 16 5 2 6 1 7 3 8 11 10 9 11 10 12 5 13
REMARK SMILES IDX 6 14 7 15 8 16 4 17
REMARK H PARENT
REMARK Flexibility Score: 60.00
ROOT
ATOM      1  C   UNL     1      18.331  21.695  35.000  1.00  0.00    -0.070 C 
ATOM      2  C   UNL     1      17.372  22.635  34.813  1.00  0.00    -0.027 C 
ATOM      3  C   UNL     1      19.057  21.191  33.776  1.00  0.00     0.039 C 
ENDROOT
BRANCH   2   4
ATOM      4  C   UNL     1      16.600  23.349  35.895  1.00  0.00     0.032 C 
BRANCH   4   5
ATOM      5  C   UNL     1      15.245  22.680  36.196  1.00  0.00     0.034 C 
BRANCH   5   6
ATOM      6  C   UNL     1      15.049  22.429  37.679  1.00  0.00    -0.077 C 
ATOM      7  C   UNL     1      14.653  23.590  38.556  1.00  0.00     0.039 C 
ATOM      8  C   UNL     1      15.234  21.225  38.266  1.00  0.00    -0.023 CG0
ATOM      9  G   UNL     1      15.664  19.958  37.566  1.00  0.00     0.000 G0
ENDBRANCH   5   6
ENDBRANCH   4   5
ENDBRANCH   2   4
BRANCH   1  10
ATOM     10  C   UNL     1      18.752  21.178  36.365  1.00  0.00     0.111 C 
BRANCH  10  11
ATOM     11  C   UNL     1      18.086  19.863  36.690  1.00  0.00     0.163 C 
ATOM     12  O   UNL     1      18.300  18.885  35.925  1.00  0.00    -0.294 OA
BRANCH  11  13
ATOM     13  C   UNL     1      17.153  19.714  37.850  1.00  0.00    -0.002 C 
ATOM     14  C   UNL     1      17.611  19.445  39.111  1.00  0.00    -0.069 C 
ATOM     15  C   UNL     1      19.089  19.357  39.415  1.00  0.00     0.039 C 
ATOM     16  C   UNL     1      16.658  19.258  40.271  1.00  0.00     0.039 C 
BRANCH  13  17
ATOM     17  C   UNL     1      15.678  19.948  37.583  1.00  0.00     0.066 CG0
ATOM     18  G   UNL     1      15.227  21.215  38.270  1.00  0.00     0.000 G0
ENDBRANCH  13  17
ENDBRANCH  11  13
ENDBRANCH  10  11
ENDBRANCH   1  10
TORSDOF 0
ENDMDL
MODEL 2
REMARK VINA RESULT:    -3.544      1.877      4.521
REMARK INTER + INTRA:          -4.488
REMARK INTER:                  -5.139
REMARK INTRA:                   0.652
REMARK UNBOUND:                 0.506
REMARK SMILES CC1=CCC(=C(C)C)C(=O)CC(C)=CCC1
REMARK SMILES IDX 12 1 14 2 13 3 15 4 16 5 2 6 1 7 3 8 11 10 9 11 10 12 5 13
REMARK SMILES IDX 6 14 7 15 8 16 4 17
REMARK H PARENT
REMARK Flexibility Score: 60.00
ROOT
ATOM      1  C   UNL     1      14.521  23.486  38.703  1.00  0.00    -0.070 C 
ATOM      2  C   UNL     1      14.539  22.643  39.764  1.00  0.00    -0.027 C 
ATOM      3  C   UNL     1      13.241  24.241  38.439  1.00  0.00     0.039 C 
ENDROOT
BRANCH   2   4
ATOM      4  C   UNL     1      15.735  21.873  40.272  1.00  0.00     0.032 C 
BRANCH   4   5
ATOM      5  C   UNL     1      15.567  20.349  40.119  1.00  0.00     0.034 C 
BRANCH   5   6
ATOM      6  C   UNL     1      14.886  19.977  38.817  1.00  0.00    -0.077 C 
ATOM      7  C   UNL     1      13.501  19.386  38.876  1.00  0.00     0.039 C 
ATOM      8  C   UNL     1      15.463  20.120  37.601  1.00  0.00    -0.023 CG0
ATOM      9  G   UNL     1      16.850  20.656  37.340  1.00  0.00     0.000 G0
ENDBRANCH   5   6
ENDBRANCH   4   5
ENDBRANCH   2   4
BRANCH   1  10
ATOM     10  C   UNL     1      15.725  23.758  37.819  1.00  0.00     0.111 C 
BRANCH  10  11
ATOM     11  C   UNL     1      15.738  22.859  36.606  1.00  0.00     0.163 C 
ATOM     12  O   UNL     1      14.783  22.952  35.789  1.00  0.00    -0.294 OA
BRANCH  11  13
ATOM     13  C   UNL     1      16.813  21.841  36.386  1.00  0.00    -0.002 C 
ATOM     14  C   UNL     1      17.757  21.993  35.408  1.00  0.00    -0.069 C 
ATOM     15  C   UNL     1      17.811  23.233  34.544  1.00  0.00     0.039 C 
ATOM     16  C   UNL     1      18.817  20.942  35.167  1.00  0.00     0.039 C 
BRANCH  13  17
ATOM     17  C   UNL     1      16.857  20.666  37.345  1.00  0.00     0.066 CG0
ATOM     18  G   UNL     1      15.458  20.150  37.588  1.00  0.00     0.000 G0
ENDBRANCH  13  17
ENDBRANCH  11  13
ENDBRANCH  10  11
ENDBRANCH   1  10
TORSDOF 0
ENDMDL
MODEL 3
REMARK VINA RESULT:    -3.540     13.104     15.430
REMARK INTER + INTRA:          -4.482
REMARK INTER:                  -5.045
REMARK INTRA:                   0.563
REMARK UNBOUND:                 0.506
REMARK SMILES CC1=CCC(=C(C)C)C(=O)CC(C)=CCC1
REMARK SMILES IDX 12 1 14 2 13 3 15 4 16 5 2 6 1 7 3 8 11 10 9 11 10 12 5 13
REMARK SMILES IDX 6 14 7 15 8 16 4 17
REMARK H PARENT
REMARK Flexibility Score: 60.00
ROOT
ATOM      1  C   UNL     1      15.131  10.050  47.931  1.00  0.00    -0.070 C 
ATOM      2  C   UNL     1      15.254  10.952  46.928  1.00  0.00    -0.027 C 
ATOM      3  C   UNL     1      13.916   9.154  47.915  1.00  0.00     0.039 C 
ENDROOT
BRANCH   2   4
ATOM      4  C   UNL     1      16.430  11.868  46.690  1.00  0.00     0.032 C 
BRANCH   4   5
ATOM      5  C   UNL     1      16.048  13.358  46.782  1.00  0.00     0.034 C 
BRANCH   5   6
ATOM      6  C   UNL     1      15.188  13.655  47.995  1.00  0.00    -0.077 C 
ATOM      7  C   UNL     1      13.790  14.173  47.772  1.00  0.00     0.039 C 
ATOM      8  C   UNL     1      15.613  13.505  49.270  1.00  0.00    -0.023 CG0
ATOM      9  G   UNL     1      16.984  13.035  49.694  1.00  0.00     0.000 G0
ENDBRANCH   5   6
ENDBRANCH   4   5
ENDBRANCH   2   4
BRANCH   1  10
ATOM     10  C   UNL     1      16.172   9.851  49.020  1.00  0.00     0.111 C 
BRANCH  10  11
ATOM     11  C   UNL     1      15.918  10.754  50.202  1.00  0.00     0.163 C 
ATOM     12  O   UNL     1      14.831  10.623  50.827  1.00  0.00    -0.294 OA
BRANCH  11  13
ATOM     13  C   UNL     1      16.889  11.819  50.608  1.00  0.00    -0.002 C 
ATOM     14  C   UNL     1      17.697  11.675  51.702  1.00  0.00    -0.069 C 
ATOM     15  C   UNL     1      17.707  10.402  52.518  1.00  0.00     0.039 C 
ATOM     16  C   UNL     1      18.648  12.772  52.127  1.00  0.00     0.039 C 
BRANCH  13  17
ATOM     17  C   UNL     1      16.992  13.037  49.709  1.00  0.00     0.066 CG0
ATOM     18  G   UNL     1      15.612  13.477  49.282  1.00  0.00     0.000 G0
ENDBRANCH  13  17
ENDBRANCH  11  13
ENDBRANCH  10  11
ENDBRANCH   1  10
TORSDOF 0
ENDMDL
MODEL 4
REMARK VINA RESULT:    -3.464     14.686     16.943
REMARK INTER + INTRA:          -4.375
REMARK INTER:                  -4.749
REMARK INTRA:                   0.373
REMARK UNBOUND:                 0.506
REMARK SMILES CC1=CCC(=C(C)C)C(=O)CC(C)=CCC1
REMARK SMILES IDX 12 1 14 2 13 3 15 4 16 5 2 6 1 7 3 8 11 10 9 11 10 12 5 13
REMARK SMILES IDX 6 14 7 15 8 16 4 17
REMARK H PARENT
REMARK Flexibility Score: 60.00
ROOT
ATOM      1  C   UNL     1       9.504   8.476  48.277  1.00  0.00    -0.070 C 
ATOM      2  C   UNL     1       8.493   9.359  48.092  1.00  0.00    -0.027 C 
ATOM      3  C   UNL     1       9.139   7.091  48.752  1.00  0.00     0.039 C 
ENDROOT
BRANCH   2   4
ATOM      4  C   UNL     1       8.617  10.754  47.527  1.00  0.00     0.032 C 
BRANCH   4   5
ATOM      5  C   UNL     1       9.094  11.778  48.575  1.00  0.00     0.034 C 
BRANCH   5   6
ATOM      6  C   UNL     1      10.326  12.534  48.116  1.00  0.00    -0.077 C 
ATOM      7  C   UNL     1      10.201  13.451  46.927  1.00  0.00     0.039 C 
ATOM      8  C   UNL     1      11.540  12.413  48.699  1.00  0.00    -0.023 CG0
ATOM      9  G   UNL     1      11.872  11.522  49.872  1.00  0.00     0.000 G0
ENDBRANCH   5   6
ENDBRANCH   4   5
ENDBRANCH   2   4
BRANCH   1  10
ATOM     10  C   UNL     1      10.960   8.783  47.970  1.00  0.00     0.111 C 
BRANCH  10  11
ATOM     11  C   UNL     1      11.753   9.028  49.231  1.00  0.00     0.163 C 
ATOM     12  O   UNL     1      11.668   8.179  50.159  1.00  0.00    -0.294 OA
BRANCH  11  13
ATOM     13  C   UNL     1      12.581  10.260  49.419  1.00  0.00    -0.002 C 
ATOM     14  C   UNL     1      13.918  10.278  49.131  1.00  0.00    -0.069 C 
ATOM     15  C   UNL     1      14.617   9.077  48.536  1.00  0.00     0.039 C 
ATOM     16  C   UNL     1      14.755  11.517  49.360  1.00  0.00     0.039 C 
BRANCH  13  17
ATOM     17  C   UNL     1      11.858  11.514  49.875  1.00  0.00     0.066 CG0
ATOM     18  G   UNL     1      11.548  12.389  48.684  1.00  0.00     0.000 G0
ENDBRANCH  13  17
ENDBRANCH  11  13
ENDBRANCH  10  11
ENDBRANCH   1  10
TORSDOF 0
ENDMDL
MODEL 5
REMARK VINA RESULT:    -3.461      2.394      4.640
REMARK INTER + INTRA:          -4.372
REMARK INTER:                  -4.978
REMARK INTRA:                   0.606
REMARK UNBOUND:                 0.506
REMARK SMILES CC1=CCC(=C(C)C)C(=O)CC(C)=CCC1
REMARK SMILES IDX 12 1 14 2 13 3 15 4 16 5 2 6 1 7 3 8 11 10 9 11 10 12 5 13
REMARK SMILES IDX 6 14 7 15 8 16 4 17
REMARK H PARENT
REMARK Flexibility Score: 60.00
ROOT
ATOM      1  C   UNL     1      13.139  20.126  38.698  1.00  0.00    -0.070 C 
ATOM      2  C   UNL     1      12.042  20.846  38.361  1.00  0.00    -0.027 C 
ATOM      3  C   UNL     1      13.122  19.418  40.032  1.00  0.00     0.039 C 
ENDROOT
BRANCH   2   4
ATOM      4  C   UNL     1      11.801  21.542  37.043  1.00  0.00     0.032 C 
BRANCH   4   5
ATOM      5  C   UNL     1      11.677  23.070  37.195  1.00  0.00     0.034 C 
BRANCH   5   6
ATOM      6  C   UNL     1      12.741  23.643  38.110  1.00  0.00    -0.077 C 
ATOM      7  C   UNL     1      12.303  24.294  39.398  1.00  0.00     0.039 C 
ATOM      8  C   UNL     1      14.064  23.625  37.827  1.00  0.00    -0.023 CG0
ATOM      9  G   UNL     1      14.691  23.054  36.578  1.00  0.00     0.000 G0
ENDBRANCH   5   6
ENDBRANCH   4   5
ENDBRANCH   2   4
BRANCH   1  10
ATOM     10  C   UNL     1      14.341  19.941  37.788  1.00  0.00     0.111 C 
BRANCH  10  11
ATOM     11  C   UNL     1      15.368  21.027  37.997  1.00  0.00     0.163 C 
ATOM     12  O   UNL     1      15.900  21.129  39.135  1.00  0.00    -0.294 OA
BRANCH  11  13
ATOM     13  C   UNL     1      15.722  22.001  36.917  1.00  0.00    -0.002 C 
ATOM     14  C   UNL     1      16.896  21.908  36.223  1.00  0.00    -0.069 C 
ATOM     15  C   UNL     1      17.869  20.773  36.457  1.00  0.00     0.039 C 
ATOM     16  C   UNL     1      17.264  22.919  35.159  1.00  0.00     0.039 C 
BRANCH  13  17
ATOM     17  C   UNL     1      14.686  23.055  36.572  1.00  0.00     0.066 CG0
ATOM     18  G   UNL     1      14.067  23.598  37.838  1.00  0.00     0.000 G0
ENDBRANCH  13  17
ENDBRANCH  11  13
ENDBRANCH  10  11
ENDBRANCH   1  10
TORSDOF 0
ENDMDL
MODEL 6
REMARK VINA RESULT:    -3.348     13.868     16.215
REMARK INTER + INTRA:          -4.212
REMARK INTER:                  -4.805
REMARK INTRA:                   0.593
REMARK UNBOUND:                 0.506
REMARK SMILES CC1=CCC(=C(C)C)C(=O)CC(C)=CCC1
REMARK SMILES IDX 12 1 14 2 13 3 15 4 16 5 2 6 1 7 3 8 11 10 9 11 10 12 5 13
REMARK SMILES IDX 6 14 7 15 8 16 4 17
REMARK H PARENT
REMARK Flexibility Score: 60.00
ROOT
ATOM      1  C   UNL     1       3.879  22.921  39.375  1.00  0.00    -0.070 C 
ATOM      2  C   UNL     1       3.220  22.221  38.420  1.00  0.00    -0.027 C 
ATOM      3  C   UNL     1       5.099  22.278  39.990  1.00  0.00     0.039 C 
ENDROOT
BRANCH   2   4
ATOM      4  C   UNL     1       2.048  22.710  37.604  1.00  0.00     0.032 C 
BRANCH   4   5
ATOM      5  C   UNL     1       0.824  21.781  37.709  1.00  0.00     0.034 C 
BRANCH   5   6
ATOM      6  C   UNL     1       0.354  21.614  39.141  1.00  0.00    -0.077 C 
ATOM      7  C   UNL     1       0.141  20.217  39.667  1.00  0.00     0.039 C 
ATOM      8  C   UNL     1       0.089  22.650  39.969  1.00  0.00    -0.023 CG0
ATOM      9  G   UNL     1       0.206  24.114  39.617  1.00  0.00     0.000 G0
ENDBRANCH   5   6
ENDBRANCH   4   5
ENDBRANCH   2   4
BRANCH   1  10
ATOM     10  C   UNL     1       3.499  24.327  39.805  1.00  0.00     0.111 C 
BRANCH  10  11
ATOM     11  C   UNL     1       2.441  24.312  40.881  1.00  0.00     0.163 C 
ATOM     12  O   UNL     1       2.728  23.781  41.987  1.00  0.00    -0.294 OA
BRANCH  11  13
ATOM     13  C   UNL     1       1.067  24.857  40.648  1.00  0.00    -0.002 C 
ATOM     14  C   UNL     1       0.627  25.989  41.276  1.00  0.00    -0.069 C 
ATOM     15  C   UNL     1       1.529  26.794  42.183  1.00  0.00     0.039 C 
ATOM     16  C   UNL     1      -0.777  26.511  41.063  1.00  0.00     0.039 C 
BRANCH  13  17
ATOM     17  C   UNL     1       0.205  24.139  39.625  1.00  0.00     0.066 CG0
ATOM     18  G   UNL     1       0.094  22.677  39.984  1.00  0.00     0.000 G0
ENDBRANCH  13  17
ENDBRANCH  11  13
ENDBRANCH  10  11
ENDBRANCH   1  10
TORSDOF 0
ENDMDL
MODEL 7
REMARK VINA RESULT:    -3.280      2.907      4.720
REMARK INTER + INTRA:          -4.116
REMARK INTER:                  -4.880
REMARK INTRA:                   0.764
REMARK UNBOUND:                 0.506
REMARK SMILES CC1=CCC(=C(C)C)C(=O)CC(C)=CCC1
REMARK SMILES IDX 12 1 14 2 13 3 15 4 16 5 2 6 1 7 3 8 11 10 9 11 10 12 5 13
REMARK SMILES IDX 6 14 7 15 8 16 4 17
REMARK H PARENT
REMARK Flexibility Score: 60.00
ROOT
ATOM      1  C   UNL     1      12.090  23.546  36.493  1.00  0.00    -0.070 C 
ATOM      2  C   UNL     1      11.149  22.922  37.242  1.00  0.00    -0.027 C 
ATOM      3  C   UNL     1      11.991  25.046  36.363  1.00  0.00     0.039 C 
ENDROOT
BRANCH   2   4
ATOM      4  C   UNL     1      11.114  21.454  37.591  1.00  0.00     0.032 C 
BRANCH   4   5
ATOM      5  C   UNL     1      11.201  21.203  39.109  1.00  0.00     0.034 C 
BRANCH   5   6
ATOM      6  C   UNL     1      12.376  21.924  39.741  1.00  0.00    -0.077 C 
ATOM      7  C   UNL     1      12.095  22.945  40.814  1.00  0.00     0.039 C 
ATOM      8  C   UNL     1      13.663  21.722  39.379  1.00  0.00    -0.023 CG0
ATOM      9  G   UNL     1      14.140  20.772  38.305  1.00  0.00     0.000 G0
ENDBRANCH   5   6
ENDBRANCH   4   5
ENDBRANCH   2   4
BRANCH   1  10
ATOM     10  C   UNL     1      13.260  22.831  35.841  1.00  0.00     0.111 C 
BRANCH  10  11
ATOM     11  C   UNL     1      14.469  22.807  36.744  1.00  0.00     0.163 C 
ATOM     12  O   UNL     1      15.043  23.900  36.996  1.00  0.00    -0.294 OA
BRANCH  11  13
ATOM     13  C   UNL     1      15.021  21.530  37.295  1.00  0.00    -0.002 C 
ATOM     14  C   UNL     1      16.276  21.092  36.977  1.00  0.00    -0.069 C 
ATOM     15  C   UNL     1      17.205  21.912  36.109  1.00  0.00     0.039 C 
ATOM     16  C   UNL     1      16.812  19.781  37.508  1.00  0.00     0.039 C 
BRANCH  13  17
ATOM     17  C   UNL     1      14.153  20.774  38.285  1.00  0.00     0.066 CG0
ATOM     18  G   UNL     1      13.673  21.713  39.367  1.00  0.00     0.000 G0
ENDBRANCH  13  17
ENDBRANCH  11  13
ENDBRANCH  10  11
ENDBRANCH   1  10
TORSDOF 0
ENDMDL
MODEL 8
REMARK VINA RESULT:    -3.253      4.096      6.508
REMARK INTER + INTRA:          -4.078
REMARK INTER:                  -4.696
REMARK INTRA:                   0.618
REMARK UNBOUND:                 0.506
REMARK SMILES CC1=CCC(=C(C)C)C(=O)CC(C)=CCC1
REMARK SMILES IDX 12 1 14 2 13 3 15 4 16 5 2 6 1 7 3 8 11 10 9 11 10 12 5 13
REMARK SMILES IDX 6 14 7 15 8 16 4 17
REMARK H PARENT
REMARK Flexibility Score: 60.00
ROOT
ATOM      1  C   UNL     1      12.636  22.629  36.008  1.00  0.00    -0.070 C 
ATOM      2  C   UNL     1      13.702  21.963  36.512  1.00  0.00    -0.027 C 
ATOM      3  C   UNL     1      12.658  22.965  34.536  1.00  0.00     0.039 C 
ENDROOT
BRANCH   2   4
ATOM      4  C   UNL     1      13.844  21.438  37.920  1.00  0.00     0.032 C 
BRANCH   4   5
ATOM      5  C   UNL     1      14.995  22.113  38.691  1.00  0.00     0.034 C 
BRANCH   5   6
ATOM      6  C   UNL     1      15.034  23.611  38.463  1.00  0.00    -0.077 C 
ATOM      7  C   UNL     1      16.230  24.197  37.756  1.00  0.00     0.039 C 
ATOM      8  C   UNL     1      14.067  24.459  38.882  1.00  0.00    -0.023 CG0
ATOM      9  G   UNL     1      12.817  24.070  39.635  1.00  0.00     0.000 G0
ENDBRANCH   5   6
ENDBRANCH   4   5
ENDBRANCH   2   4
BRANCH   1  10
ATOM     10  C   UNL     1      11.405  22.993  36.822  1.00  0.00     0.111 C 
BRANCH  10  11
ATOM     11  C   UNL     1      11.533  24.365  37.437  1.00  0.00     0.163 C 
ATOM     12  O   UNL     1      11.650  25.353  36.664  1.00  0.00    -0.294 OA
BRANCH  11  13
ATOM     13  C   UNL     1      11.574  24.568  38.919  1.00  0.00    -0.002 C 
ATOM     14  C   UNL     1      10.521  25.113  39.600  1.00  0.00    -0.069 C 
ATOM     15  C   UNL     1       9.228  25.474  38.903  1.00  0.00     0.039 C 
ATOM     16  C   UNL     1      10.586  25.350  41.093  1.00  0.00     0.039 C 
BRANCH  13  17
ATOM     17  C   UNL     1      12.809  24.072  39.649  1.00  0.00     0.066 CG0
ATOM     18  G   UNL     1      14.049  24.462  38.880  1.00  0.00     0.000 G0
ENDBRANCH  13  17
ENDBRANCH  11  13
ENDBRANCH  10  11
ENDBRANCH   1  10
TORSDOF 0
ENDMDL
MODEL 9
REMARK VINA RESULT:    -3.069      1.444      2.015
REMARK INTER + INTRA:          -3.819
REMARK INTER:                  -4.219
REMARK INTRA:                   0.401
REMARK UNBOUND:                 0.506
REMARK SMILES CC1=CCC(=C(C)C)C(=O)CC(C)=CCC1
REMARK SMILES IDX 12 1 14 2 13 3 15 4 16 5 2 6 1 7 3 8 11 10 9 11 10 12 5 13
REMARK SMILES IDX 6 14 7 15 8 16 4 17
REMARK H PARENT
REMARK Flexibility Score: 60.00
ROOT
ATOM      1  C   UNL     1      17.847  20.996  36.675  1.00  0.00    -0.070 C 
ATOM      2  C   UNL     1      17.426  22.122  36.048  1.00  0.00    -0.027 C 
ATOM      3  C   UNL     1      18.826  20.115  35.938  1.00  0.00     0.039 C 
ENDROOT
BRANCH   2   4
ATOM      4  C   UNL     1      16.538  23.192  36.635  1.00  0.00     0.032 C 
BRANCH   4   5
ATOM      5  C   UNL     1      15.044  22.824  36.568  1.00  0.00     0.034 C 
BRANCH   5   6
ATOM      6  C   UNL     1      14.384  22.862  37.933  1.00  0.00    -0.077 C 
ATOM      7  C   UNL     1      14.250  24.194  38.627  1.00  0.00     0.039 C 
ATOM      8  C   UNL     1      13.931  21.763  38.578  1.00  0.00    -0.023 CG0
ATOM      9  G   UNL     1      14.007  20.344  38.065  1.00  0.00     0.000 G0
ENDBRANCH   5   6
ENDBRANCH   4   5
ENDBRANCH   2   4
BRANCH   1  10
ATOM     10  C   UNL     1      17.442  20.616  38.089  1.00  0.00     0.111 C 
BRANCH  10  11
ATOM     11  C   UNL     1      16.445  19.483  38.094  1.00  0.00     0.163 C 
ATOM     12  O   UNL     1      16.731  18.438  37.450  1.00  0.00    -0.294 OA
BRANCH  11  13
ATOM     13  C   UNL     1      15.126  19.592  38.792  1.00  0.00    -0.002 C 
ATOM     14  C   UNL     1      14.939  19.104  40.056  1.00  0.00    -0.069 C 
ATOM     15  C   UNL     1      16.074  18.494  40.846  1.00  0.00     0.039 C 
ATOM     16  C   UNL     1      13.591  19.185  40.739  1.00  0.00     0.039 C 
BRANCH  13  17
ATOM     17  C   UNL     1      14.020  20.336  38.065  1.00  0.00     0.066 CG0
ATOM     18  G   UNL     1      13.947  21.759  38.564  1.00  0.00     0.000 G0
ENDBRANCH  13  17
ENDBRANCH  11  13
ENDBRANCH  10  11
ENDBRANCH   1  10
TORSDOF 0
ENDMDL
