MODEL 1
REMARK VINA RESULT:    -3.566      0.000      0.000
REMARK INTER + INTRA:          -5.069
REMARK INTER:                  -5.442
REMARK INTRA:                   0.373
REMARK UNBOUND:                 0.373
REMARK SMILES CC1=CCC[C@@H](C)C(=O)C[C@@H](C(C)C)C(=O)C1
REMARK SMILES IDX 8 1 9 2 6 3 7 4 5 5 4 6 3 7 2 8 1 9 10 11 11 12 15 13 16 14
REMARK SMILES IDX 17 15 12 17 13 18 14 19
REMARK H PARENT
REMARK Flexibility Score: 70.00
ROOT
ATOM      1  C   UNL     1      61.140 -18.674  -0.523  1.00  0.00     0.136 C 
ATOM      2  O   UNL     1      61.891 -19.636  -0.448  1.00  0.00    -0.299 OA
ENDROOT
BRANCH   1   3
ATOM      3  C   UNL     1      61.094 -17.846  -1.789  1.00  0.00     0.053 C 
ATOM      4  C   UNL     1      61.414 -16.386  -1.451  1.00  0.00     0.016 C 
BRANCH   3   5
ATOM      5  C   UNL     1      59.730 -17.939  -2.514  1.00  0.00     0.015 C 
BRANCH   5   6
ATOM      6  C   UNL     1      58.741 -16.826  -2.119  1.00  0.00     0.028 C 
BRANCH   6   7
ATOM      7  C   UNL     1      57.320 -17.342  -2.053  1.00  0.00    -0.028 C 
ATOM      8  C   UNL     1      56.715 -17.899  -0.978  1.00  0.00    -0.070 CG0
ATOM      9  C   UNL     1      55.292 -18.373  -1.137  1.00  0.00     0.039 C 
ATOM     10  G   UNL     1      57.357 -18.005   0.390  1.00  0.00     0.000 G0
ENDBRANCH   6   7
ENDBRANCH   5   6
ENDBRANCH   3   5
ENDBRANCH   1   3
BRANCH   1  11
ATOM     11  C   UNL     1      60.239 -18.344   0.643  1.00  0.00     0.087 C 
BRANCH  11  12
ATOM     12  C   UNL     1      59.368 -19.550   1.065  1.00  0.00     0.066 C 
BRANCH  12  13
ATOM     13  C   UNL     1      57.942 -19.374   0.577  1.00  0.00     0.140 C 
ATOM     14  O   UNL     1      57.251 -20.357   0.347  1.00  0.00    -0.299 OA
BRANCH  13  15
ATOM     15  C   UNL     1      57.341 -18.006   0.392  1.00  0.00     0.106 CG0
ATOM     16  G   UNL     1      56.721 -17.895  -0.986  1.00  0.00     0.000 G0
ENDBRANCH  13  15
ENDBRANCH  12  13
BRANCH  12  17
ATOM     17  C   UNL     1      59.403 -19.848   2.598  1.00  0.00    -0.006 C 
ATOM     18  C   UNL     1      60.820 -19.683   3.171  1.00  0.00     0.008 C 
ATOM     19  C   UNL     1      58.407 -19.015   3.423  1.00  0.00     0.008 C 
ENDBRANCH  12  17
ENDBRANCH  11  12
ENDBRANCH   1  11
TORSDOF 1
ENDMDL
MODEL 2
REMARK VINA RESULT:    -3.474      2.770      4.007
REMARK INTER + INTRA:          -4.929
REMARK INTER:                  -4.716
REMARK INTRA:                  -0.213
REMARK UNBOUND:                 0.373
REMARK SMILES CC1=CCC[C@@H](C)C(=O)C[C@@H](C(C)C)C(=O)C1
REMARK SMILES IDX 8 1 9 2 6 3 7 4 5 5 4 6 3 7 2 8 1 9 10 11 11 12 15 13 16 14
REMARK SMILES IDX 17 15 12 17 13 18 14 19
REMARK H PARENT
REMARK Flexibility Score: 70.00
ROOT
ATOM      1  C   UNL     1      60.138 -17.929   1.606  1.00  0.00     0.136 C 
ATOM      2  O   UNL     1      59.869 -16.857   1.083  1.00  0.00    -0.299 OA
ENDROOT
BRANCH   1   3
ATOM      3  C   UNL     1      60.077 -19.205   0.795  1.00  0.00     0.053 C 
ATOM      4  C   UNL     1      61.071 -19.114  -0.368  1.00  0.00     0.016 C 
BRANCH   3   5
ATOM      5  C   UNL     1      58.657 -19.505   0.260  1.00  0.00     0.015 C 
BRANCH   5   6
ATOM      6  C   UNL     1      57.829 -20.422   1.180  1.00  0.00     0.028 C 
BRANCH   6   7
ATOM      7  C   UNL     1      56.881 -19.628   2.052  1.00  0.00    -0.028 C 
ATOM      8  C   UNL     1      56.885 -19.576   3.405  1.00  0.00    -0.070 CG0
ATOM      9  C   UNL     1      55.830 -18.737   4.081  1.00  0.00     0.039 C 
ATOM     10  G   UNL     1      57.930 -20.248   4.272  1.00  0.00     0.000 G0
ENDBRANCH   6   7
ENDBRANCH   5   6
ENDBRANCH   3   5
ENDBRANCH   1   3
BRANCH   1  11
ATOM     11  C   UNL     1      60.563 -17.961   3.055  1.00  0.00     0.087 C 
BRANCH  11  12
ATOM     12  C   UNL     1      60.316 -19.343   3.703  1.00  0.00     0.066 C 
BRANCH  12  13
ATOM     13  C   UNL     1      59.069 -19.311   4.568  1.00  0.00     0.140 C 
ATOM     14  O   UNL     1      58.980 -18.501   5.479  1.00  0.00    -0.299 OA
BRANCH  13  15
ATOM     15  C   UNL     1      57.916 -20.244   4.311  1.00  0.00     0.106 CG0
ATOM     16  G   UNL     1      56.903 -19.577   3.403  1.00  0.00     0.000 G0
ENDBRANCH  13  15
ENDBRANCH  12  13
BRANCH  12  17
ATOM     17  C   UNL     1      61.540 -19.892   4.503  1.00  0.00    -0.006 C 
ATOM     18  C   UNL     1      62.291 -18.763   5.228  1.00  0.00     0.008 C 
ATOM     19  C   UNL     1      61.189 -21.010   5.500  1.00  0.00     0.008 C 
ENDBRANCH  12  17
ENDBRANCH  11  12
ENDBRANCH   1  11
TORSDOF 1
ENDMDL
MODEL 3
REMARK VINA RESULT:    -3.372      2.903      5.562
REMARK INTER + INTRA:          -4.774
REMARK INTER:                  -4.434
REMARK INTRA:                  -0.340
REMARK UNBOUND:                 0.373
REMARK SMILES CC1=CCC[C@@H](C)C(=O)C[C@@H](C(C)C)C(=O)C1
REMARK SMILES IDX 8 1 9 2 6 3 7 4 5 5 4 6 3 7 2 8 1 9 10 11 11 12 15 13 16 14
REMARK SMILES IDX 17 15 12 17 13 18 14 19
REMARK H PARENT
REMARK Flexibility Score: 70.00
ROOT
ATOM      1  C   UNL     1      61.273 -18.943   4.125  1.00  0.00     0.136 C 
ATOM      2  O   UNL     1      61.499 -17.765   3.888  1.00  0.00    -0.299 OA
ENDROOT
BRANCH   1   3
ATOM      3  C   UNL     1      61.418 -19.474   5.535  1.00  0.00     0.053 C 
ATOM      4  C   UNL     1      61.311 -21.002   5.515  1.00  0.00     0.016 C 
BRANCH   3   5
ATOM      5  C   UNL     1      60.372 -18.879   6.507  1.00  0.00     0.015 C 
BRANCH   5   6
ATOM      6  C   UNL     1      59.067 -19.693   6.588  1.00  0.00     0.028 C 
BRANCH   6   7
ATOM      7  C   UNL     1      57.933 -19.000   5.863  1.00  0.00    -0.028 C 
ATOM      8  C   UNL     1      57.471 -19.295   4.625  1.00  0.00    -0.070 CG0
ATOM      9  C   UNL     1      56.342 -18.458   4.076  1.00  0.00     0.039 C 
ATOM     10  G   UNL     1      57.969 -20.459   3.794  1.00  0.00     0.000 G0
ENDBRANCH   6   7
ENDBRANCH   5   6
ENDBRANCH   3   5
ENDBRANCH   1   3
BRANCH   1  11
ATOM     11  C   UNL     1      60.816 -19.850   3.008  1.00  0.00     0.087 C 
BRANCH  11  12
ATOM     12  C   UNL     1      59.666 -19.225   2.184  1.00  0.00     0.066 C 
BRANCH  12  13
ATOM     13  C   UNL     1      58.374 -19.990   2.404  1.00  0.00     0.140 C 
ATOM     14  O   UNL     1      57.649 -20.249   1.454  1.00  0.00    -0.299 OA
BRANCH  13  15
ATOM     15  C   UNL     1      57.973 -20.469   3.774  1.00  0.00     0.106 CG0
ATOM     16  G   UNL     1      57.455 -19.308   4.597  1.00  0.00     0.000 G0
ENDBRANCH  13  15
ENDBRANCH  12  13
BRANCH  12  17
ATOM     17  C   UNL     1      59.984 -19.086   0.661  1.00  0.00    -0.006 C 
ATOM     18  C   UNL     1      59.820 -17.635   0.180  1.00  0.00     0.008 C 
ATOM     19  C   UNL     1      61.372 -19.616   0.259  1.00  0.00     0.008 C 
ENDBRANCH  12  17
ENDBRANCH  11  12
ENDBRANCH   1  11
TORSDOF 1
ENDMDL
MODEL 4
REMARK VINA RESULT:    -3.352      1.457      3.699
REMARK INTER + INTRA:          -4.743
REMARK INTER:                  -4.241
REMARK INTRA:                  -0.502
REMARK UNBOUND:                 0.373
REMARK SMILES CC1=CCC[C@@H](C)C(=O)C[C@@H](C(C)C)C(=O)C1
REMARK SMILES IDX 8 1 9 2 6 3 7 4 5 5 4 6 3 7 2 8 1 9 10 11 11 12 15 13 16 14
REMARK SMILES IDX 17 15 12 17 13 18 14 19
REMARK H PARENT
REMARK Flexibility Score: 70.00
ROOT
ATOM      1  C   UNL     1      57.251 -19.765   0.617  1.00  0.00     0.136 C 
ATOM      2  O   UNL     1      56.616 -20.807   0.701  1.00  0.00    -0.299 OA
ENDROOT
BRANCH   1   3
ATOM      3  C   UNL     1      56.532 -18.434   0.660  1.00  0.00     0.053 C 
ATOM      4  C   UNL     1      55.859 -18.266   2.027  1.00  0.00     0.016 C 
BRANCH   3   5
ATOM      5  C   UNL     1      55.489 -18.282  -0.472  1.00  0.00     0.015 C 
BRANCH   5   6
ATOM      6  C   UNL     1      56.101 -18.291  -1.885  1.00  0.00     0.028 C 
BRANCH   6   7
ATOM      7  C   UNL     1      56.917 -17.042  -2.145  1.00  0.00    -0.028 C 
ATOM      8  C   UNL     1      58.267 -16.957  -2.186  1.00  0.00    -0.070 CG0
ATOM      9  C   UNL     1      58.880 -15.601  -2.437  1.00  0.00     0.039 C 
ATOM     10  G   UNL     1      59.191 -18.151  -2.069  1.00  0.00     0.000 G0
ENDBRANCH   6   7
ENDBRANCH   5   6
ENDBRANCH   3   5
ENDBRANCH   1   3
BRANCH   1  11
ATOM     11  C   UNL     1      58.756 -19.821   0.506  1.00  0.00     0.087 C 
BRANCH  11  12
ATOM     12  C   UNL     1      59.395 -18.413   0.550  1.00  0.00     0.066 C 
BRANCH  12  13
ATOM     13  C   UNL     1      60.010 -18.064  -0.792  1.00  0.00     0.140 C 
ATOM     14  O   UNL     1      61.182 -17.721  -0.855  1.00  0.00    -0.299 OA
BRANCH  13  15
ATOM     15  C   UNL     1      59.213 -18.157  -2.066  1.00  0.00     0.106 CG0
ATOM     16  G   UNL     1      58.271 -16.975  -2.174  1.00  0.00     0.000 G0
ENDBRANCH  13  15
ENDBRANCH  12  13
BRANCH  12  17
ATOM     17  C   UNL     1      60.428 -18.225   1.707  1.00  0.00    -0.006 C 
ATOM     18  C   UNL     1      60.148 -16.944   2.510  1.00  0.00     0.008 C 
ATOM     19  C   UNL     1      60.527 -19.428   2.661  1.00  0.00     0.008 C 
ENDBRANCH  12  17
ENDBRANCH  11  12
ENDBRANCH   1  11
TORSDOF 1
ENDMDL
MODEL 5
REMARK VINA RESULT:    -3.338      1.701      4.038
REMARK INTER + INTRA:          -4.721
REMARK INTER:                  -4.628
REMARK INTRA:                  -0.094
REMARK UNBOUND:                 0.373
REMARK SMILES CC1=CCC[C@@H](C)C(=O)C[C@@H](C(C)C)C(=O)C1
REMARK SMILES IDX 8 1 9 2 6 3 7 4 5 5 4 6 3 7 2 8 1 9 10 11 11 12 15 13 16 14
REMARK SMILES IDX 17 15 12 17 13 18 14 19
REMARK H PARENT
REMARK Flexibility Score: 70.00
ROOT
ATOM      1  C   UNL     1      59.234 -17.741  -1.853  1.00  0.00     0.136 C 
ATOM      2  O   UNL     1      59.262 -17.144  -2.919  1.00  0.00    -0.299 OA
ENDROOT
BRANCH   1   3
ATOM      3  C   UNL     1      60.304 -17.486  -0.813  1.00  0.00     0.053 C 
ATOM      4  C   UNL     1      60.947 -16.120  -1.073  1.00  0.00     0.016 C 
BRANCH   3   5
ATOM      5  C   UNL     1      61.387 -18.590  -0.787  1.00  0.00     0.015 C 
BRANCH   5   6
ATOM      6  C   UNL     1      61.186 -19.630   0.331  1.00  0.00     0.028 C 
BRANCH   6   7
ATOM      7  C   UNL     1      60.519 -19.020   1.545  1.00  0.00    -0.028 C 
ATOM      8  C   UNL     1      59.206 -19.096   1.866  1.00  0.00    -0.070 CG0
ATOM      9  C   UNL     1      58.744 -18.389   3.116  1.00  0.00     0.039 C 
ATOM     10  G   UNL     1      58.194 -19.909   1.086  1.00  0.00     0.000 G0
ENDBRANCH   6   7
ENDBRANCH   5   6
ENDBRANCH   3   5
ENDBRANCH   1   3
BRANCH   1  11
ATOM     11  C   UNL     1      58.107 -18.706  -1.573  1.00  0.00     0.087 C 
BRANCH  11  12
ATOM     12  C   UNL     1      57.101 -18.142  -0.541  1.00  0.00     0.066 C 
BRANCH  12  13
ATOM     13  C   UNL     1      57.016 -19.049   0.672  1.00  0.00     0.140 C 
ATOM     14  O   UNL     1      55.982 -19.100   1.323  1.00  0.00    -0.299 OA
BRANCH  13  15
ATOM     15  C   UNL     1      58.176 -19.916   1.083  1.00  0.00     0.106 CG0
ATOM     16  G   UNL     1      59.190 -19.095   1.854  1.00  0.00     0.000 G0
ENDBRANCH  13  15
ENDBRANCH  12  13
BRANCH  12  17
ATOM     17  C   UNL     1      55.683 -17.861  -1.133  1.00  0.00    -0.006 C 
ATOM     18  C   UNL     1      55.610 -16.472  -1.787  1.00  0.00     0.008 C 
ATOM     19  C   UNL     1      55.193 -18.931  -2.124  1.00  0.00     0.008 C 
ENDBRANCH  12  17
ENDBRANCH  11  12
ENDBRANCH   1  11
TORSDOF 1
ENDMDL
MODEL 6
REMARK VINA RESULT:    -3.263      1.691      4.168
REMARK INTER + INTRA:          -4.607
REMARK INTER:                  -4.171
REMARK INTRA:                  -0.436
REMARK UNBOUND:                 0.373
REMARK SMILES CC1=CCC[C@@H](C)C(=O)C[C@@H](C(C)C)C(=O)C1
REMARK SMILES IDX 8 1 9 2 6 3 7 4 5 5 4 6 3 7 2 8 1 9 10 11 11 12 15 13 16 14
REMARK SMILES IDX 17 15 12 17 13 18 14 19
REMARK H PARENT
REMARK Flexibility Score: 70.00
ROOT
ATOM      1  C   UNL     1      60.216 -17.522  -2.281  1.00  0.00     0.136 C 
ATOM      2  O   UNL     1      61.147 -18.251  -2.591  1.00  0.00    -0.299 OA
ENDROOT
BRANCH   1   3
ATOM      3  C   UNL     1      60.406 -16.460  -1.220  1.00  0.00     0.053 C 
ATOM      4  C   UNL     1      61.522 -15.504  -1.655  1.00  0.00     0.016 C 
BRANCH   3   5
ATOM      5  C   UNL     1      60.727 -17.057   0.171  1.00  0.00     0.015 C 
BRANCH   5   6
ATOM      6  C   UNL     1      59.488 -17.245   1.066  1.00  0.00     0.028 C 
BRANCH   6   7
ATOM      7  C   UNL     1      58.915 -18.640   0.937  1.00  0.00    -0.028 C 
ATOM      8  C   UNL     1      57.684 -18.965   0.477  1.00  0.00    -0.070 CG0
ATOM      9  C   UNL     1      57.302 -20.424   0.456  1.00  0.00     0.039 C 
ATOM     10  G   UNL     1      56.701 -17.959  -0.085  1.00  0.00     0.000 G0
ENDBRANCH   6   7
ENDBRANCH   5   6
ENDBRANCH   3   5
ENDBRANCH   1   3
BRANCH   1  11
ATOM     11  C   UNL     1      58.890 -17.669  -2.990  1.00  0.00     0.087 C 
BRANCH  11  12
ATOM     12  C   UNL     1      57.755 -16.913  -2.262  1.00  0.00     0.066 C 
BRANCH  12  13
ATOM     13  C   UNL     1      56.810 -17.890  -1.588  1.00  0.00     0.140 C 
ATOM     14  O   UNL     1      56.147 -18.662  -2.266  1.00  0.00    -0.299 OA
BRANCH  13  15
ATOM     15  C   UNL     1      56.687 -17.952  -0.088  1.00  0.00     0.106 CG0
ATOM     16  G   UNL     1      57.683 -18.947   0.471  1.00  0.00     0.000 G0
ENDBRANCH  13  15
ENDBRANCH  12  13
BRANCH  12  17
ATOM     17  C   UNL     1      56.973 -15.916  -3.177  1.00  0.00    -0.006 C 
ATOM     18  C   UNL     1      57.107 -14.469  -2.677  1.00  0.00     0.008 C 
ATOM     19  C   UNL     1      57.362 -15.993  -4.664  1.00  0.00     0.008 C 
ENDBRANCH  12  17
ENDBRANCH  11  12
ENDBRANCH   1  11
TORSDOF 1
ENDMDL
MODEL 7
REMARK VINA RESULT:    -3.257      2.235      5.011
REMARK INTER + INTRA:          -4.598
REMARK INTER:                  -4.160
REMARK INTRA:                  -0.438
REMARK UNBOUND:                 0.373
REMARK SMILES CC1=CCC[C@@H](C)C(=O)C[C@@H](C(C)C)C(=O)C1
REMARK SMILES IDX 8 1 9 2 6 3 7 4 5 5 4 6 3 7 2 8 1 9 10 11 11 12 15 13 16 14
REMARK SMILES IDX 17 15 12 17 13 18 14 19
REMARK H PARENT
REMARK Flexibility Score: 70.00
ROOT
ATOM      1  C   UNL     1      56.847 -18.079   1.216  1.00  0.00     0.136 C 
ATOM      2  O   UNL     1      56.768 -17.845   2.414  1.00  0.00    -0.299 OA
ENDROOT
BRANCH   1   3
ATOM      3  C   UNL     1      57.538 -19.337   0.735  1.00  0.00     0.053 C 
ATOM      4  C   UNL     1      56.840 -20.561   1.337  1.00  0.00     0.016 C 
BRANCH   3   5
ATOM      5  C   UNL     1      59.046 -19.358   1.080  1.00  0.00     0.015 C 
BRANCH   5   6
ATOM      6  C   UNL     1      59.959 -19.006  -0.109  1.00  0.00     0.028 C 
BRANCH   6   7
ATOM      7  C   UNL     1      60.168 -17.512  -0.229  1.00  0.00    -0.028 C 
ATOM      8  C   UNL     1      59.679 -16.706  -1.201  1.00  0.00    -0.070 CG0
ATOM      9  C   UNL     1      60.031 -15.241  -1.144  1.00  0.00     0.039 C 
ATOM     10  G   UNL     1      58.743 -17.177  -2.294  1.00  0.00     0.000 G0
ENDBRANCH   6   7
ENDBRANCH   5   6
ENDBRANCH   3   5
ENDBRANCH   1   3
BRANCH   1  11
ATOM     11  C   UNL     1      56.219 -17.123   0.231  1.00  0.00     0.087 C 
BRANCH  11  12
ATOM     12  C   UNL     1      56.356 -17.619  -1.228  1.00  0.00     0.066 C 
BRANCH  12  13
ATOM     13  C   UNL     1      57.316 -16.737  -2.004  1.00  0.00     0.140 C 
ATOM     14  O   UNL     1      56.959 -15.629  -2.377  1.00  0.00    -0.299 OA
BRANCH  13  15
ATOM     15  C   UNL     1      58.721 -17.186  -2.305  1.00  0.00     0.106 CG0
ATOM     16  G   UNL     1      59.663 -16.701  -1.222  1.00  0.00     0.000 G0
ENDBRANCH  13  15
ENDBRANCH  12  13
BRANCH  12  17
ATOM     17  C   UNL     1      54.992 -17.759  -1.977  1.00  0.00    -0.006 C 
ATOM     18  C   UNL     1      55.125 -18.635  -3.233  1.00  0.00     0.008 C 
ATOM     19  C   UNL     1      53.843 -18.280  -1.096  1.00  0.00     0.008 C 
ENDBRANCH  12  17
ENDBRANCH  11  12
ENDBRANCH   1  11
TORSDOF 1
ENDMDL
MODEL 8
REMARK VINA RESULT:    -3.230      2.626      4.258
REMARK INTER + INTRA:          -4.556
REMARK INTER:                  -4.233
REMARK INTRA:                  -0.323
REMARK UNBOUND:                 0.373
REMARK SMILES CC1=CCC[C@@H](C)C(=O)C[C@@H](C(C)C)C(=O)C1
REMARK SMILES IDX 8 1 9 2 6 3 7 4 5 5 4 6 3 7 2 8 1 9 10 11 11 12 15 13 16 14
REMARK SMILES IDX 17 15 12 17 13 18 14 19
REMARK H PARENT
REMARK Flexibility Score: 70.00
ROOT
ATOM      1  C   UNL     1      57.348 -15.135  -2.590  1.00  0.00     0.136 C 
ATOM      2  O   UNL     1      57.580 -13.955  -2.371  1.00  0.00    -0.299 OA
ENDROOT
BRANCH   1   3
ATOM      3  C   UNL     1      57.163 -15.619  -4.012  1.00  0.00     0.053 C 
ATOM      4  C   UNL     1      58.105 -14.841  -4.938  1.00  0.00     0.016 C 
BRANCH   3   5
ATOM      5  C   UNL     1      55.703 -15.487  -4.503  1.00  0.00     0.015 C 
BRANCH   5   6
ATOM      6  C   UNL     1      54.922 -16.814  -4.490  1.00  0.00     0.028 C 
BRANCH   6   7
ATOM      7  C   UNL     1      54.225 -17.038  -3.165  1.00  0.00    -0.028 C 
ATOM      8  C   UNL     1      54.512 -18.001  -2.258  1.00  0.00    -0.070 CG0
ATOM      9  C   UNL     1      53.672 -18.063  -1.006  1.00  0.00     0.039 C 
ATOM     10  G   UNL     1      55.670 -18.968  -2.392  1.00  0.00     0.000 G0
ENDBRANCH   6   7
ENDBRANCH   5   6
ENDBRANCH   3   5
ENDBRANCH   1   3
BRANCH   1  11
ATOM     11  C   UNL     1      57.283 -16.106  -1.435  1.00  0.00     0.087 C 
BRANCH  11  12
ATOM     12  C   UNL     1      57.796 -17.511  -1.827  1.00  0.00     0.066 C 
BRANCH  12  13
ATOM     13  C   UNL     1      56.787 -18.575  -1.436  1.00  0.00     0.140 C 
ATOM     14  O   UNL     1      56.856 -19.106  -0.336  1.00  0.00    -0.299 OA
BRANCH  13  15
ATOM     15  C   UNL     1      55.675 -18.978  -2.367  1.00  0.00     0.106 CG0
ATOM     16  G   UNL     1      54.518 -18.008  -2.242  1.00  0.00     0.000 G0
ENDBRANCH  13  15
ENDBRANCH  12  13
BRANCH  12  17
ATOM     17  C   UNL     1      59.213 -17.846  -1.260  1.00  0.00    -0.006 C 
ATOM     18  C   UNL     1      60.298 -17.709  -2.340  1.00  0.00     0.008 C 
ATOM     19  C   UNL     1      59.603 -17.022  -0.020  1.00  0.00     0.008 C 
ENDBRANCH  12  17
ENDBRANCH  11  12
ENDBRANCH   1  11
TORSDOF 1
ENDMDL
MODEL 9
REMARK VINA RESULT:    -3.113      1.996      2.740
REMARK INTER + INTRA:          -4.378
REMARK INTER:                  -3.922
REMARK INTRA:                  -0.456
REMARK UNBOUND:                 0.373
REMARK SMILES CC1=CCC[C@@H](C)C(=O)C[C@@H](C(C)C)C(=O)C1
REMARK SMILES IDX 8 1 9 2 6 3 7 4 5 5 4 6 3 7 2 8 1 9 10 11 11 12 15 13 16 14
REMARK SMILES IDX 17 15 12 17 13 18 14 19
REMARK H PARENT
REMARK Flexibility Score: 70.00
ROOT
ATOM      1  C   UNL     1      58.943 -17.519   1.360  1.00  0.00     0.136 C 
ATOM      2  O   UNL     1      59.789 -16.699   1.687  1.00  0.00    -0.299 OA
ENDROOT
BRANCH   1   3
ATOM      3  C   UNL     1      59.321 -18.684   0.470  1.00  0.00     0.053 C 
ATOM      4  C   UNL     1      60.572 -19.367   1.034  1.00  0.00     0.016 C 
BRANCH   3   5
ATOM      5  C   UNL     1      59.561 -18.260  -0.998  1.00  0.00     0.015 C 
BRANCH   5   6
ATOM      6  C   UNL     1      58.643 -17.117  -1.471  1.00  0.00     0.028 C 
BRANCH   6   7
ATOM      7  C   UNL     1      57.439 -17.644  -2.222  1.00  0.00    -0.028 C 
ATOM      8  C   UNL     1      56.152 -17.616  -1.801  1.00  0.00    -0.070 CG0
ATOM      9  C   UNL     1      55.104 -18.223  -2.699  1.00  0.00     0.039 C 
ATOM     10  G   UNL     1      55.698 -16.945  -0.521  1.00  0.00     0.000 G0
ENDBRANCH   6   7
ENDBRANCH   5   6
ENDBRANCH   3   5
ENDBRANCH   1   3
BRANCH   1  11
ATOM     11  C   UNL     1      57.532 -17.378   1.879  1.00  0.00     0.087 C 
BRANCH  11  12
ATOM     12  C   UNL     1      56.615 -18.524   1.392  1.00  0.00     0.066 C 
BRANCH  12  13
ATOM     13  C   UNL     1      55.469 -17.974   0.564  1.00  0.00     0.140 C 
ATOM     14  O   UNL     1      54.325 -18.351   0.781  1.00  0.00    -0.299 OA
BRANCH  13  15
ATOM     15  C   UNL     1      55.703 -16.946  -0.511  1.00  0.00     0.106 CG0
ATOM     16  G   UNL     1      56.151 -17.626  -1.788  1.00  0.00     0.000 G0
ENDBRANCH  13  15
ENDBRANCH  12  13
BRANCH  12  17
ATOM     17  C   UNL     1      56.088 -19.442   2.542  1.00  0.00    -0.006 C 
ATOM     18  C   UNL     1      56.815 -20.796   2.559  1.00  0.00     0.008 C 
ATOM     19  C   UNL     1      56.151 -18.797   3.938  1.00  0.00     0.008 C 
ENDBRANCH  12  17
ENDBRANCH  11  12
ENDBRANCH   1  11
TORSDOF 1
ENDMDL
