MODEL 1
REMARK VINA RESULT:    -5.511      0.000      0.000
REMARK INTER + INTRA:         -11.477
REMARK INTER:                 -10.021
REMARK INTRA:                  -1.456
REMARK UNBOUND:                -1.456
REMARK SMILES CCCCCCCCCCCCCCCC(=O)[O-]
REMARK SMILES IDX 9 1 10 2 11 3 12 4 13 5 14 6 15 7 16 8 17 9 18 10 8 11 7 12
REMARK SMILES IDX 6 13 5 14 4 15 3 16 2 17 1 18
REMARK H PARENT
REMARK Flexibility Score: inf
ROOT
ATOM      1  C   UNL     1       5.547   3.759   7.961  1.00  0.00     0.000 C 
ENDROOT
BRANCH   1   2
ATOM      2  C   UNL     1       4.269   4.545   7.626  1.00  0.00     0.000 C 
BRANCH   2   3
ATOM      3  C   UNL     1       3.989   5.717   8.591  1.00  0.00     0.000 C 
BRANCH   3   4
ATOM      4  C   UNL     1       2.915   5.363   9.635  1.00  0.00     0.000 C 
BRANCH   4   5
ATOM      5  C   UNL     1       1.882   4.356   9.107  1.00  0.00     0.000 C 
BRANCH   5   6
ATOM      6  C   UNL     1       0.435   4.848   9.276  1.00  0.00     0.006 C 
BRANCH   6   7
ATOM      7  C   UNL     1       0.358   6.153  10.079  1.00  0.00     0.053 C 
BRANCH   7   8
ATOM      8  C   UNL     1      -0.199   5.928  11.453  1.00  0.00     0.041 C 
ATOM      9  O   UNL     1      -1.310   5.355  11.602  1.00  0.00    -0.550 OA
ATOM     10  O   UNL     1       0.497   6.378  12.567  1.00  0.00    -0.550 OA
ENDBRANCH   7   8
ENDBRANCH   6   7
ENDBRANCH   5   6
ENDBRANCH   4   5
ENDBRANCH   3   4
ENDBRANCH   2   3
ENDBRANCH   1   2
BRANCH   1  11
ATOM     11  C   UNL     1       6.810   4.384   7.348  1.00  0.00     0.000 C 
BRANCH  11  12
ATOM     12  C   UNL     1       7.808   4.869   8.412  1.00  0.00    -0.000 C 
BRANCH  12  13
ATOM     13  C   UNL     1       8.656   6.062   7.934  1.00  0.00    -0.000 C 
BRANCH  13  14
ATOM     14  C   UNL     1       7.783   7.241   7.454  1.00  0.00    -0.000 C 
BRANCH  14  15
ATOM     15  C   UNL     1       8.170   7.766   6.061  1.00  0.00    -0.000 C 
BRANCH  15  16
ATOM     16  C   UNL     1       7.005   8.463   5.341  1.00  0.00    -0.000 C 
BRANCH  16  17
ATOM     17  C   UNL     1       5.766   7.562   5.217  1.00  0.00    -0.003 C 
ATOM     18  C   UNL     1       6.004   6.353   4.314  1.00  0.00     0.004 C 
ENDBRANCH  16  17
ENDBRANCH  15  16
ENDBRANCH  14  15
ENDBRANCH  13  14
ENDBRANCH  12  13
ENDBRANCH  11  12
ENDBRANCH   1  11
TORSDOF 14
ENDMDL
MODEL 2
REMARK VINA RESULT:    -5.491      3.871      7.659
REMARK INTER + INTRA:         -11.441
REMARK INTER:                  -9.807
REMARK INTRA:                  -1.634
REMARK UNBOUND:                -1.456
REMARK SMILES CCCCCCCCCCCCCCCC(=O)[O-]
REMARK SMILES IDX 9 1 10 2 11 3 12 4 13 5 14 6 15 7 16 8 17 9 18 10 8 11 7 12
REMARK SMILES IDX 6 13 5 14 4 15 3 16 2 17 1 18
REMARK H PARENT
REMARK Flexibility Score: inf
ROOT
ATOM      1  C   UNL     1       1.312   4.271   9.158  1.00  0.00     0.000 C 
ENDROOT
BRANCH   1   2
ATOM      2  C   UNL     1       2.515   4.893   9.887  1.00  0.00     0.000 C 
BRANCH   2   3
ATOM      3  C   UNL     1       3.489   5.641   8.952  1.00  0.00     0.000 C 
BRANCH   3   4
ATOM      4  C   UNL     1       3.964   4.757   7.784  1.00  0.00     0.000 C 
BRANCH   4   5
ATOM      5  C   UNL     1       5.453   4.393   7.883  1.00  0.00     0.000 C 
BRANCH   5   6
ATOM      6  C   UNL     1       6.375   5.552   7.472  1.00  0.00     0.006 C 
BRANCH   6   7
ATOM      7  C   UNL     1       7.809   5.361   7.982  1.00  0.00     0.053 C 
BRANCH   7   8
ATOM      8  C   UNL     1       8.655   6.572   7.731  1.00  0.00     0.041 C 
ATOM      9  O   UNL     1       9.535   6.915   8.564  1.00  0.00    -0.550 OA
ATOM     10  O   UNL     1       8.451   7.339   6.592  1.00  0.00    -0.550 OA
ENDBRANCH   7   8
ENDBRANCH   6   7
ENDBRANCH   5   6
ENDBRANCH   4   5
ENDBRANCH   3   4
ENDBRANCH   2   3
ENDBRANCH   1   2
BRANCH   1  11
ATOM     11  C   UNL     1      -0.032   4.860   9.614  1.00  0.00     0.000 C 
BRANCH  11  12
ATOM     12  C   UNL     1      -0.508   6.013   8.716  1.00  0.00    -0.000 C 
BRANCH  12  13
ATOM     13  C   UNL     1      -0.532   7.368   9.447  1.00  0.00    -0.000 C 
BRANCH  13  14
ATOM     14  C   UNL     1       0.797   8.138   9.289  1.00  0.00    -0.000 C 
BRANCH  14  15
ATOM     15  C   UNL     1       1.169   8.981  10.520  1.00  0.00    -0.000 C 
BRANCH  15  16
ATOM     16  C   UNL     1       1.895   8.168  11.603  1.00  0.00    -0.000 C 
BRANCH  16  17
ATOM     17  C   UNL     1       1.045   7.984  12.870  1.00  0.00    -0.003 C 
ATOM     18  C   UNL     1       0.362   6.619  12.930  1.00  0.00     0.004 C 
ENDBRANCH  16  17
ENDBRANCH  15  16
ENDBRANCH  14  15
ENDBRANCH  13  14
ENDBRANCH  12  13
ENDBRANCH  11  12
ENDBRANCH   1  11
TORSDOF 14
ENDMDL
MODEL 3
REMARK VINA RESULT:    -5.487      1.837      2.294
REMARK INTER + INTRA:         -11.434
REMARK INTER:                  -9.029
REMARK INTRA:                  -2.405
REMARK UNBOUND:                -1.456
REMARK SMILES CCCCCCCCCCCCCCCC(=O)[O-]
REMARK SMILES IDX 9 1 10 2 11 3 12 4 13 5 14 6 15 7 16 8 17 9 18 10 8 11 7 12
REMARK SMILES IDX 6 13 5 14 4 15 3 16 2 17 1 18
REMARK H PARENT
REMARK Flexibility Score: inf
ROOT
ATOM      1  C   UNL     1       4.442   5.513   7.981  1.00  0.00     0.000 C 
ENDROOT
BRANCH   1   2
ATOM      2  C   UNL     1       3.344   5.864   6.962  1.00  0.00     0.000 C 
BRANCH   2   3
ATOM      3  C   UNL     1       2.985   7.365   6.930  1.00  0.00     0.000 C 
BRANCH   3   4
ATOM      4  C   UNL     1       3.490   8.108   8.180  1.00  0.00     0.000 C 
BRANCH   4   5
ATOM      5  C   UNL     1       2.454   9.092   8.744  1.00  0.00     0.000 C 
BRANCH   5   6
ATOM      6  C   UNL     1       1.860   8.624  10.083  1.00  0.00     0.006 C 
BRANCH   6   7
ATOM      7  C   UNL     1       0.496   7.944   9.905  1.00  0.00     0.053 C 
BRANCH   7   8
ATOM      8  C   UNL     1       0.631   6.461   9.742  1.00  0.00     0.041 C 
ATOM      9  O   UNL     1      -0.268   5.802   9.155  1.00  0.00    -0.550 OA
ATOM     10  O   UNL     1       1.736   5.801  10.264  1.00  0.00    -0.550 OA
ENDBRANCH   7   8
ENDBRANCH   6   7
ENDBRANCH   5   6
ENDBRANCH   4   5
ENDBRANCH   3   4
ENDBRANCH   2   3
ENDBRANCH   1   2
BRANCH   1  11
ATOM     11  C   UNL     1       5.257   4.274   7.576  1.00  0.00     0.000 C 
BRANCH  11  12
ATOM     12  C   UNL     1       6.771   4.534   7.581  1.00  0.00    -0.000 C 
BRANCH  12  13
ATOM     13  C   UNL     1       7.137   5.912   8.163  1.00  0.00    -0.000 C 
BRANCH  13  14
ATOM     14  C   UNL     1       8.423   6.488   7.532  1.00  0.00    -0.000 C 
BRANCH  14  15
ATOM     15  C   UNL     1       8.158   7.413   6.333  1.00  0.00    -0.000 C 
BRANCH  15  16
ATOM     16  C   UNL     1       6.768   8.067   6.380  1.00  0.00    -0.000 C 
BRANCH  16  17
ATOM     17  C   UNL     1       6.012   7.941   5.049  1.00  0.00    -0.003 C 
ATOM     18  C   UNL     1       6.114   6.542   4.443  1.00  0.00     0.004 C 
ENDBRANCH  16  17
ENDBRANCH  15  16
ENDBRANCH  14  15
ENDBRANCH  13  14
ENDBRANCH  12  13
ENDBRANCH  11  12
ENDBRANCH   1  11
TORSDOF 14
ENDMDL
MODEL 4
REMARK VINA RESULT:    -5.469      3.021      6.893
REMARK INTER + INTRA:         -11.400
REMARK INTER:                  -9.485
REMARK INTRA:                  -1.914
REMARK UNBOUND:                -1.456
REMARK SMILES CCCCCCCCCCCCCCCC(=O)[O-]
REMARK SMILES IDX 9 1 10 2 11 3 12 4 13 5 14 6 15 7 16 8 17 9 18 10 8 11 7 12
REMARK SMILES IDX 6 13 5 14 4 15 3 16 2 17 1 18
REMARK H PARENT
REMARK Flexibility Score: inf
ROOT
ATOM      1  C   UNL     1       2.645   8.605   9.131  1.00  0.00     0.000 C 
ENDROOT
BRANCH   1   2
ATOM      2  C   UNL     1       2.772   9.168   7.705  1.00  0.00     0.000 C 
BRANCH   2   3
ATOM      3  C   UNL     1       4.232   9.361   7.242  1.00  0.00     0.000 C 
BRANCH   3   4
ATOM      4  C   UNL     1       5.212   8.478   8.034  1.00  0.00     0.000 C 
BRANCH   4   5
ATOM      5  C   UNL     1       5.916   7.435   7.153  1.00  0.00     0.000 C 
BRANCH   5   6
ATOM      6  C   UNL     1       4.941   6.400   6.568  1.00  0.00     0.006 C 
BRANCH   6   7
ATOM      7  C   UNL     1       4.215   5.605   7.661  1.00  0.00     0.053 C 
BRANCH   7   8
ATOM      8  C   UNL     1       2.886   5.097   7.189  1.00  0.00     0.041 C 
ATOM      9  O   UNL     1       2.548   3.904   7.411  1.00  0.00    -0.550 OA
ATOM     10  O   UNL     1       2.035   5.932   6.478  1.00  0.00    -0.550 OA
ENDBRANCH   7   8
ENDBRANCH   6   7
ENDBRANCH   5   6
ENDBRANCH   4   5
ENDBRANCH   3   4
ENDBRANCH   2   3
ENDBRANCH   1   2
BRANCH   1  11
ATOM     11  C   UNL     1       1.981   9.591  10.105  1.00  0.00     0.000 C 
BRANCH  11  12
ATOM     12  C   UNL     1       1.318   8.887  11.299  1.00  0.00    -0.000 C 
BRANCH  12  13
ATOM     13  C   UNL     1       1.602   7.374  11.333  1.00  0.00    -0.000 C 
BRANCH  13  14
ATOM     14  C   UNL     1       0.579   6.609  12.199  1.00  0.00    -0.000 C 
BRANCH  14  15
ATOM     15  C   UNL     1      -0.420   5.776  11.377  1.00  0.00    -0.000 C 
BRANCH  15  16
ATOM     16  C   UNL     1       0.180   5.251  10.063  1.00  0.00    -0.000 C 
BRANCH  16  17
ATOM     17  C   UNL     1      -0.561   5.780   8.825  1.00  0.00    -0.003 C 
ATOM     18  C   UNL     1      -1.404   7.018   9.126  1.00  0.00     0.004 C 
ENDBRANCH  16  17
ENDBRANCH  15  16
ENDBRANCH  14  15
ENDBRANCH  13  14
ENDBRANCH  12  13
ENDBRANCH  11  12
ENDBRANCH   1  11
TORSDOF 14
ENDMDL
MODEL 5
REMARK VINA RESULT:    -5.426      3.852      7.711
REMARK INTER + INTRA:         -11.323
REMARK INTER:                  -9.300
REMARK INTRA:                  -2.023
REMARK UNBOUND:                -1.456
REMARK SMILES CCCCCCCCCCCCCCCC(=O)[O-]
REMARK SMILES IDX 9 1 10 2 11 3 12 4 13 5 14 6 15 7 16 8 17 9 18 10 8 11 7 12
REMARK SMILES IDX 6 13 5 14 4 15 3 16 2 17 1 18
REMARK H PARENT
REMARK Flexibility Score: inf
ROOT
ATOM      1  C   UNL     1       2.816   8.522   9.415  1.00  0.00     0.000 C 
ENDROOT
BRANCH   1   2
ATOM      2  C   UNL     1       2.481   7.923   8.039  1.00  0.00     0.000 C 
BRANCH   2   3
ATOM      3  C   UNL     1       2.743   6.405   7.943  1.00  0.00     0.000 C 
BRANCH   3   4
ATOM      4  C   UNL     1       4.117   6.017   8.517  1.00  0.00     0.000 C 
BRANCH   4   5
ATOM      5  C   UNL     1       5.122   5.610   7.429  1.00  0.00     0.000 C 
BRANCH   5   6
ATOM      6  C   UNL     1       6.470   6.338   7.565  1.00  0.00     0.006 C 
BRANCH   6   7
ATOM      7  C   UNL     1       6.358   7.831   7.230  1.00  0.00     0.053 C 
BRANCH   7   8
ATOM      8  C   UNL     1       6.882   8.134   5.859  1.00  0.00     0.041 C 
ATOM      9  O   UNL     1       8.039   7.765   5.526  1.00  0.00    -0.550 OA
ATOM     10  O   UNL     1       6.103   8.849   4.959  1.00  0.00    -0.550 OA
ENDBRANCH   7   8
ENDBRANCH   6   7
ENDBRANCH   5   6
ENDBRANCH   4   5
ENDBRANCH   3   4
ENDBRANCH   2   3
ENDBRANCH   1   2
BRANCH   1  11
ATOM     11  C   UNL     1       1.652   9.329  10.014  1.00  0.00     0.000 C 
BRANCH  11  12
ATOM     12  C   UNL     1       1.271   8.859  11.427  1.00  0.00    -0.000 C 
BRANCH  12  13
ATOM     13  C   UNL     1       1.558   7.364  11.656  1.00  0.00    -0.000 C 
BRANCH  13  14
ATOM     14  C   UNL     1       0.467   6.686  12.511  1.00  0.00    -0.000 C 
BRANCH  14  15
ATOM     15  C   UNL     1      -0.489   5.798  11.697  1.00  0.00    -0.000 C 
BRANCH  15  16
ATOM     16  C   UNL     1       0.155   5.247  10.415  1.00  0.00    -0.000 C 
BRANCH  16  17
ATOM     17  C   UNL     1      -0.675   5.555   9.159  1.00  0.00    -0.003 C 
ATOM     18  C   UNL     1      -1.250   6.971   9.164  1.00  0.00     0.004 C 
ENDBRANCH  16  17
ENDBRANCH  15  16
ENDBRANCH  14  15
ENDBRANCH  13  14
ENDBRANCH  12  13
ENDBRANCH  11  12
ENDBRANCH   1  11
TORSDOF 14
ENDMDL
MODEL 6
REMARK VINA RESULT:    -5.399      3.782      6.603
REMARK INTER + INTRA:         -11.274
REMARK INTER:                  -9.226
REMARK INTRA:                  -2.047
REMARK UNBOUND:                -1.456
REMARK SMILES CCCCCCCCCCCCCCCC(=O)[O-]
REMARK SMILES IDX 9 1 10 2 11 3 12 4 13 5 14 6 15 7 16 8 17 9 18 10 8 11 7 12
REMARK SMILES IDX 6 13 5 14 4 15 3 16 2 17 1 18
REMARK H PARENT
REMARK Flexibility Score: inf
ROOT
ATOM      1  C   UNL     1       2.370   4.759   9.947  1.00  0.00     0.000 C 
ENDROOT
BRANCH   1   2
ATOM      2  C   UNL     1       2.009   4.328   8.516  1.00  0.00     0.000 C 
BRANCH   2   3
ATOM      3  C   UNL     1       3.228   3.911   7.666  1.00  0.00     0.000 C 
BRANCH   3   4
ATOM      4  C   UNL     1       4.465   4.778   7.964  1.00  0.00     0.000 C 
BRANCH   4   5
ATOM      5  C   UNL     1       5.763   3.959   8.025  1.00  0.00     0.000 C 
BRANCH   5   6
ATOM      6  C   UNL     1       7.022   4.842   7.997  1.00  0.00     0.006 C 
BRANCH   6   7
ATOM      7  C   UNL     1       6.837   6.087   7.120  1.00  0.00     0.053 C 
BRANCH   7   8
ATOM      8  C   UNL     1       8.081   6.920   7.068  1.00  0.00     0.041 C 
ATOM      9  O   UNL     1       8.168   7.882   6.260  1.00  0.00    -0.550 OA
ATOM     10  O   UNL     1       9.158   6.615   7.891  1.00  0.00    -0.550 OA
ENDBRANCH   7   8
ENDBRANCH   6   7
ENDBRANCH   5   6
ENDBRANCH   4   5
ENDBRANCH   3   4
ENDBRANCH   2   3
ENDBRANCH   1   2
BRANCH   1  11
ATOM     11  C   UNL     1       1.347   5.731  10.555  1.00  0.00     0.000 C 
BRANCH  11  12
ATOM     12  C   UNL     1       0.301   6.204   9.534  1.00  0.00    -0.000 C 
BRANCH  12  13
ATOM     13  C   UNL     1       0.235   7.738   9.414  1.00  0.00    -0.000 C 
BRANCH  13  14
ATOM     14  C   UNL     1       1.299   8.436  10.289  1.00  0.00    -0.000 C 
BRANCH  14  15
ATOM     15  C   UNL     1       2.358   9.199   9.476  1.00  0.00    -0.000 C 
BRANCH  15  16
ATOM     16  C   UNL     1       3.263   8.269   8.653  1.00  0.00    -0.000 C 
BRANCH  16  17
ATOM     17  C   UNL     1       3.146   8.520   7.141  1.00  0.00    -0.003 C 
ATOM     18  C   UNL     1       2.436   7.384   6.408  1.00  0.00     0.004 C 
ENDBRANCH  16  17
ENDBRANCH  15  16
ENDBRANCH  14  15
ENDBRANCH  13  14
ENDBRANCH  12  13
ENDBRANCH  11  12
ENDBRANCH   1  11
TORSDOF 14
ENDMDL
MODEL 7
REMARK VINA RESULT:    -5.395      3.610      6.932
REMARK INTER + INTRA:         -11.266
REMARK INTER:                  -9.140
REMARK INTRA:                  -2.126
REMARK UNBOUND:                -1.456
REMARK SMILES CCCCCCCCCCCCCCCC(=O)[O-]
REMARK SMILES IDX 9 1 10 2 11 3 12 4 13 5 14 6 15 7 16 8 17 9 18 10 8 11 7 12
REMARK SMILES IDX 6 13 5 14 4 15 3 16 2 17 1 18
REMARK H PARENT
REMARK Flexibility Score: inf
ROOT
ATOM      1  C   UNL     1       4.440   5.368   7.112  1.00  0.00     0.000 C 
ENDROOT
BRANCH   1   2
ATOM      2  C   UNL     1       5.341   4.448   7.954  1.00  0.00     0.000 C 
BRANCH   2   3
ATOM      3  C   UNL     1       6.795   4.368   7.443  1.00  0.00     0.000 C 
BRANCH   3   4
ATOM      4  C   UNL     1       7.795   4.975   8.443  1.00  0.00     0.000 C 
BRANCH   4   5
ATOM      5  C   UNL     1       8.644   6.097   7.826  1.00  0.00     0.000 C 
BRANCH   5   6
ATOM      6  C   UNL     1       7.792   7.258   7.289  1.00  0.00     0.006 C 
BRANCH   6   7
ATOM      7  C   UNL     1       8.036   7.514   5.796  1.00  0.00     0.053 C 
BRANCH   7   8
ATOM      8  C   UNL     1       6.750   7.635   5.035  1.00  0.00     0.041 C 
ATOM      9  O   UNL     1       6.086   8.704   5.078  1.00  0.00    -0.550 OA
ATOM     10  O   UNL     1       6.271   6.557   4.304  1.00  0.00    -0.550 OA
ENDBRANCH   7   8
ENDBRANCH   6   7
ENDBRANCH   5   6
ENDBRANCH   4   5
ENDBRANCH   3   4
ENDBRANCH   2   3
ENDBRANCH   1   2
BRANCH   1  11
ATOM     11  C   UNL     1       4.274   6.767   7.727  1.00  0.00     0.000 C 
BRANCH  11  12
ATOM     12  C   UNL     1       3.269   7.637   6.957  1.00  0.00    -0.000 C 
BRANCH  12  13
ATOM     13  C   UNL     1       2.343   8.443   7.886  1.00  0.00    -0.000 C 
BRANCH  13  14
ATOM     14  C   UNL     1       2.884   8.510   9.331  1.00  0.00    -0.000 C 
BRANCH  14  15
ATOM     15  C   UNL     1       1.878   8.022  10.386  1.00  0.00    -0.000 C 
BRANCH  15  16
ATOM     16  C   UNL     1       1.069   6.801   9.920  1.00  0.00    -0.000 C 
BRANCH  16  17
ATOM     17  C   UNL     1       1.797   5.475  10.188  1.00  0.00    -0.003 C 
ATOM     18  C   UNL     1       1.488   4.409   9.137  1.00  0.00     0.004 C 
ENDBRANCH  16  17
ENDBRANCH  15  16
ENDBRANCH  14  15
ENDBRANCH  13  14
ENDBRANCH  12  13
ENDBRANCH  11  12
ENDBRANCH   1  11
TORSDOF 14
ENDMDL
MODEL 8
REMARK VINA RESULT:    -5.390      1.977      3.295
REMARK INTER + INTRA:         -11.257
REMARK INTER:                  -9.083
REMARK INTRA:                  -2.174
REMARK UNBOUND:                -1.456
REMARK SMILES CCCCCCCCCCCCCCCC(=O)[O-]
REMARK SMILES IDX 9 1 10 2 11 3 12 4 13 5 14 6 15 7 16 8 17 9 18 10 8 11 7 12
REMARK SMILES IDX 6 13 5 14 4 15 3 16 2 17 1 18
REMARK H PARENT
REMARK Flexibility Score: inf
ROOT
ATOM      1  C   UNL     1       2.938   8.409   6.873  1.00  0.00     0.000 C 
ENDROOT
BRANCH   1   2
ATOM      2  C   UNL     1       2.371   7.029   6.500  1.00  0.00     0.000 C 
BRANCH   2   3
ATOM      3  C   UNL     1       3.308   5.856   6.859  1.00  0.00     0.000 C 
BRANCH   3   4
ATOM      4  C   UNL     1       2.639   4.851   7.814  1.00  0.00     0.000 C 
BRANCH   4   5
ATOM      5  C   UNL     1       3.031   5.078   9.282  1.00  0.00     0.000 C 
BRANCH   5   6
ATOM      6  C   UNL     1       1.877   5.651  10.121  1.00  0.00     0.006 C 
BRANCH   6   7
ATOM      7  C   UNL     1       0.532   5.574   9.386  1.00  0.00     0.053 C 
BRANCH   7   8
ATOM      8  C   UNL     1      -0.141   6.911   9.317  1.00  0.00     0.041 C 
ATOM      9  O   UNL     1      -1.377   6.988   9.087  1.00  0.00    -0.550 OA
ATOM     10  O   UNL     1       0.602   8.073   9.477  1.00  0.00    -0.550 OA
ENDBRANCH   7   8
ENDBRANCH   6   7
ENDBRANCH   5   6
ENDBRANCH   4   5
ENDBRANCH   3   4
ENDBRANCH   2   3
ENDBRANCH   1   2
BRANCH   1  11
ATOM     11  C   UNL     1       4.098   8.326   7.878  1.00  0.00     0.000 C 
BRANCH  11  12
ATOM     12  C   UNL     1       5.383   8.986   7.355  1.00  0.00    -0.000 C 
BRANCH  12  13
ATOM     13  C   UNL     1       5.631   8.705   5.861  1.00  0.00    -0.000 C 
BRANCH  13  14
ATOM     14  C   UNL     1       6.562   7.492   5.644  1.00  0.00    -0.000 C 
BRANCH  14  15
ATOM     15  C   UNL     1       7.904   7.607   6.385  1.00  0.00    -0.000 C 
BRANCH  15  16
ATOM     16  C   UNL     1       8.062   6.559   7.498  1.00  0.00    -0.000 C 
BRANCH  16  17
ATOM     17  C   UNL     1       6.866   5.598   7.577  1.00  0.00    -0.003 C 
ATOM     18  C   UNL     1       7.182   4.325   8.360  1.00  0.00     0.004 C 
ENDBRANCH  16  17
ENDBRANCH  15  16
ENDBRANCH  14  15
ENDBRANCH  13  14
ENDBRANCH  12  13
ENDBRANCH  11  12
ENDBRANCH   1  11
TORSDOF 14
ENDMDL
MODEL 9
REMARK VINA RESULT:    -5.382      3.614      7.163
REMARK INTER + INTRA:         -11.243
REMARK INTER:                  -9.016
REMARK INTRA:                  -2.227
REMARK UNBOUND:                -1.456
REMARK SMILES CCCCCCCCCCCCCCCC(=O)[O-]
REMARK SMILES IDX 9 1 10 2 11 3 12 4 13 5 14 6 15 7 16 8 17 9 18 10 8 11 7 12
REMARK SMILES IDX 6 13 5 14 4 15 3 16 2 17 1 18
REMARK H PARENT
REMARK Flexibility Score: inf
ROOT
ATOM      1  C   UNL     1       1.476   7.341  11.716  1.00  0.00     0.000 C 
ENDROOT
BRANCH   1   2
ATOM      2  C   UNL     1       1.385   8.872  11.828  1.00  0.00     0.000 C 
BRANCH   2   3
ATOM      3  C   UNL     1       1.920   9.618  10.587  1.00  0.00     0.000 C 
BRANCH   3   4
ATOM      4  C   UNL     1       2.678   8.680   9.630  1.00  0.00     0.000 C 
BRANCH   4   5
ATOM      5  C   UNL     1       2.378   8.972   8.152  1.00  0.00     0.000 C 
BRANCH   5   6
ATOM      6  C   UNL     1       3.545   8.594   7.225  1.00  0.00     0.006 C 
BRANCH   6   7
ATOM      7  C   UNL     1       4.833   8.303   8.006  1.00  0.00     0.053 C 
BRANCH   7   8
ATOM      8  C   UNL     1       6.002   8.092   7.091  1.00  0.00     0.041 C 
ATOM      9  O   UNL     1       6.926   7.301   7.415  1.00  0.00    -0.550 OA
ATOM     10  O   UNL     1       6.084   8.792   5.895  1.00  0.00    -0.550 OA
ENDBRANCH   7   8
ENDBRANCH   6   7
ENDBRANCH   5   6
ENDBRANCH   4   5
ENDBRANCH   3   4
ENDBRANCH   2   3
ENDBRANCH   1   2
BRANCH   1  11
ATOM     11  C   UNL     1       0.290   6.623  12.380  1.00  0.00     0.000 C 
BRANCH  11  12
ATOM     12  C   UNL     1      -0.546   5.810  11.379  1.00  0.00    -0.000 C 
BRANCH  12  13
ATOM     13  C   UNL     1      -0.786   6.560  10.056  1.00  0.00    -0.000 C 
BRANCH  13  14
ATOM     14  C   UNL     1      -0.578   5.650   8.826  1.00  0.00    -0.000 C 
BRANCH  14  15
ATOM     15  C   UNL     1       0.850   5.702   8.258  1.00  0.00    -0.000 C 
BRANCH  15  16
ATOM     16  C   UNL     1       1.749   4.578   8.798  1.00  0.00    -0.000 C 
BRANCH  16  17
ATOM     17  C   UNL     1       3.132   5.087   9.233  1.00  0.00    -0.003 C 
ATOM     18  C   UNL     1       4.241   4.684   8.263  1.00  0.00     0.004 C 
ENDBRANCH  16  17
ENDBRANCH  15  16
ENDBRANCH  14  15
ENDBRANCH  13  14
ENDBRANCH  12  13
ENDBRANCH  11  12
ENDBRANCH   1  11
TORSDOF 14
ENDMDL
