MODEL 1
REMARK VINA RESULT:    -3.439      0.000      0.000
REMARK INTER + INTRA:          -5.234
REMARK INTER:                  -5.249
REMARK INTRA:                   0.015
REMARK UNBOUND:                 0.015
REMARK SMILES CC(=O)CCC=C(C)CCC=C(C)CCC=C(C)C
REMARK SMILES IDX 10 1 11 2 12 3 13 4 14 5 15 6 16 7 18 8 17 9 19 10 9 11 7 12
REMARK SMILES IDX 6 13 8 14 5 15 4 16 2 17 3 18 1 19
REMARK H PARENT
REMARK Flexibility Score: inf
ROOT
ATOM      1  C   UNL     1     134.692  51.830  24.990  1.00  0.00     0.032 C 
ENDROOT
BRANCH   1   2
ATOM      2  C   UNL     1     134.424  51.305  26.380  1.00  0.00    -0.028 C 
ATOM      3  C   UNL     1     135.058  50.229  26.897  1.00  0.00    -0.077 C 
ATOM      4  C   UNL     1     136.099  49.473  26.104  1.00  0.00     0.039 C 
BRANCH   3   5
ATOM      5  C   UNL     1     134.720  49.774  28.299  1.00  0.00     0.034 C 
BRANCH   5   6
ATOM      6  C   UNL     1     134.192  50.943  29.139  1.00  0.00     0.032 C 
BRANCH   6   7
ATOM      7  C   UNL     1     134.954  52.208  28.833  1.00  0.00    -0.028 C 
ATOM      8  C   UNL     1     134.158  53.377  30.902  1.00  0.00     0.039 C 
ATOM      9  C   UNL     1     134.968  53.302  29.628  1.00  0.00    -0.080 C 
ATOM     10  C   UNL     1     135.808  54.482  29.211  1.00  0.00     0.039 C 
ENDBRANCH   6   7
ENDBRANCH   5   6
ENDBRANCH   3   5
ENDBRANCH   1   2
BRANCH   1  11
ATOM     11  C   UNL     1     134.157  53.257  24.823  1.00  0.00     0.034 C 
BRANCH  11  12
ATOM     12  C   UNL     1     134.130  53.656  23.363  1.00  0.00    -0.077 C 
ATOM     13  C   UNL     1     133.971  52.694  22.425  1.00  0.00    -0.028 C 
ATOM     14  C   UNL     1     134.270  55.114  22.997  1.00  0.00     0.039 C 
BRANCH  13  15
ATOM     15  C   UNL     1     133.875  52.947  20.937  1.00  0.00     0.035 C 
BRANCH  15  16
ATOM     16  C   UNL     1     134.071  51.656  20.135  1.00  0.00     0.079 C 
BRANCH  16  17
ATOM     17  C   UNL     1     134.986  50.692  20.844  1.00  0.00     0.130 C 
ATOM     18  O   UNL     1     136.183  50.929  20.901  1.00  0.00    -0.300 OA
ATOM     19  C   UNL     1     134.456  49.445  21.487  1.00  0.00     0.087 C 
ENDBRANCH  16  17
ENDBRANCH  15  16
ENDBRANCH  13  15
ENDBRANCH  11  12
ENDBRANCH   1  11
TORSDOF 9
ENDMDL
MODEL 2
REMARK VINA RESULT:    -1.762      1.364      2.521
REMARK INTER + INTRA:          -2.674
REMARK INTER:                  -2.199
REMARK INTRA:                  -0.475
REMARK UNBOUND:                 0.015
REMARK SMILES CC(=O)CCC=C(C)CCC=C(C)CCC=C(C)C
REMARK SMILES IDX 10 1 11 2 12 3 13 4 14 5 15 6 16 7 18 8 17 9 19 10 9 11 7 12
REMARK SMILES IDX 6 13 8 14 5 15 4 16 2 17 3 18 1 19
REMARK H PARENT
REMARK Flexibility Score: inf
ROOT
ATOM      1  C   UNL     1     134.082  51.541  27.235  1.00  0.00     0.032 C 
ENDROOT
BRANCH   1   2
ATOM      2  C   UNL     1     133.880  52.159  28.598  1.00  0.00    -0.028 C 
ATOM      3  C   UNL     1     134.113  51.495  29.752  1.00  0.00    -0.077 C 
ATOM      4  C   UNL     1     134.604  50.066  29.751  1.00  0.00     0.039 C 
BRANCH   3   5
ATOM      5  C   UNL     1     133.879  52.196  31.070  1.00  0.00     0.034 C 
BRANCH   5   6
ATOM      6  C   UNL     1     134.515  53.592  31.065  1.00  0.00     0.032 C 
BRANCH   6   7
ATOM      7  C   UNL     1     135.611  53.676  30.033  1.00  0.00    -0.028 C 
ATOM      8  C   UNL     1     134.950  55.975  29.286  1.00  0.00     0.039 C 
ATOM      9  C   UNL     1     135.835  54.751  29.243  1.00  0.00    -0.080 C 
ATOM     10  C   UNL     1     136.995  54.706  28.282  1.00  0.00     0.039 C 
ENDBRANCH   6   7
ENDBRANCH   5   6
ENDBRANCH   3   5
ENDBRANCH   1   2
BRANCH   1  11
ATOM     11  C   UNL     1     135.220  52.231  26.475  1.00  0.00     0.034 C 
BRANCH  11  12
ATOM     12  C   UNL     1     134.686  53.007  25.291  1.00  0.00    -0.077 C 
ATOM     13  C   UNL     1     134.937  52.551  24.042  1.00  0.00    -0.028 C 
ATOM     14  C   UNL     1     133.881  54.261  25.536  1.00  0.00     0.039 C 
BRANCH  13  15
ATOM     15  C   UNL     1     134.428  53.191  22.770  1.00  0.00     0.035 C 
BRANCH  15  16
ATOM     16  C   UNL     1     133.887  52.144  21.792  1.00  0.00     0.079 C 
BRANCH  16  17
ATOM     17  C   UNL     1     134.943  51.138  21.410  1.00  0.00     0.130 C 
ATOM     18  O   UNL     1     134.990  50.065  21.992  1.00  0.00    -0.300 OA
ATOM     19  C   UNL     1     135.938  51.427  20.326  1.00  0.00     0.087 C 
ENDBRANCH  16  17
ENDBRANCH  15  16
ENDBRANCH  13  15
ENDBRANCH  11  12
ENDBRANCH   1  11
TORSDOF 9
ENDMDL
MODEL 3
REMARK VINA RESULT:    -1.317      1.254      2.049
REMARK INTER + INTRA:          -1.995
REMARK INTER:                  -1.111
REMARK INTRA:                  -0.884
REMARK UNBOUND:                 0.015
REMARK SMILES CC(=O)CCC=C(C)CCC=C(C)CCC=C(C)C
REMARK SMILES IDX 10 1 11 2 12 3 13 4 14 5 15 6 16 7 18 8 17 9 19 10 9 11 7 12
REMARK SMILES IDX 6 13 8 14 5 15 4 16 2 17 3 18 1 19
REMARK H PARENT
REMARK Flexibility Score: inf
ROOT
ATOM      1  C   UNL     1     135.683  50.502  25.297  1.00  0.00     0.032 C 
ENDROOT
BRANCH   1   2
ATOM      2  C   UNL     1     134.973  50.772  26.601  1.00  0.00    -0.028 C 
ATOM      3  C   UNL     1     135.291  50.149  27.758  1.00  0.00    -0.077 C 
ATOM      4  C   UNL     1     136.402  49.127  27.821  1.00  0.00     0.039 C 
BRANCH   3   5
ATOM      5  C   UNL     1     134.520  50.483  29.015  1.00  0.00     0.034 C 
BRANCH   5   6
ATOM      6  C   UNL     1     133.875  51.870  28.907  1.00  0.00     0.032 C 
BRANCH   6   7
ATOM      7  C   UNL     1     134.201  52.707  30.118  1.00  0.00    -0.028 C 
ATOM      8  C   UNL     1     135.927  54.066  28.913  1.00  0.00     0.039 C 
ATOM      9  C   UNL     1     135.103  53.714  30.130  1.00  0.00    -0.080 C 
ATOM     10  C   UNL     1     135.296  54.491  31.407  1.00  0.00     0.039 C 
ENDBRANCH   6   7
ENDBRANCH   5   6
ENDBRANCH   3   5
ENDBRANCH   1   2
BRANCH   1  11
ATOM     11  C   UNL     1     135.648  51.730  24.381  1.00  0.00     0.034 C 
BRANCH  11  12
ATOM     12  C   UNL     1     134.810  51.461  23.150  1.00  0.00    -0.077 C 
ATOM     13  C   UNL     1     134.902  50.254  22.545  1.00  0.00    -0.028 C 
ATOM     14  C   UNL     1     133.888  52.542  22.637  1.00  0.00     0.039 C 
BRANCH  13  15
ATOM     15  C   UNL     1     134.093  49.827  21.342  1.00  0.00     0.035 C 
BRANCH  15  16
ATOM     16  C   UNL     1     134.892  49.985  20.043  1.00  0.00     0.079 C 
BRANCH  16  17
ATOM     17  C   UNL     1     135.099  51.435  19.689  1.00  0.00     0.130 C 
ATOM     18  O   UNL     1     136.227  51.904  19.703  1.00  0.00    -0.300 OA
ATOM     19  C   UNL     1     133.945  52.317  19.315  1.00  0.00     0.087 C 
ENDBRANCH  16  17
ENDBRANCH  15  16
ENDBRANCH  13  15
ENDBRANCH  11  12
ENDBRANCH   1  11
TORSDOF 9
ENDMDL
