MODEL 1
REMARK VINA RESULT:    -7.904      0.000      0.000
REMARK INTER + INTRA:          -8.135
REMARK INTER:                  -8.135
REMARK INTRA:                   0.000
REMARK UNBOUND:                 0.000
REMARK SMILES C[C@H]1CC[C@@]2(OC1)O[C@@H]1C[C@@H]3[C@H]4CC=C5C[C@@H](O)CC[C@@]5(C)[C@@H]4CC[C@@]3(C)[C@@H]1[C@H]2C
REMARK SMILES IDX 1 1 2 2 3 3 4 4 5 5 29 6 28 7 9 8 8 9 10 10 11 11 26 12
REMARK SMILES IDX 25 13 24 14 23 15 12 16 13 17 14 18 15 19 21 20 20 21 19 22
REMARK SMILES IDX 17 23 16 24 22 25 27 26 30 27 6 28 7 29 18 30
REMARK H PARENT 18 31
REMARK Flexibility Score: inf
ROOT
ATOM      1  C   UNL     1     173.016 174.868 181.701  1.00  0.00     0.010 C 
ATOM      2  C   UNL     1     172.929 173.406 181.236  1.00  0.00     0.012 C 
ATOM      3  C   UNL     1     171.659 173.137 180.413  1.00  0.00     0.011 C 
ATOM      4  C   UNL     1     171.775 173.728 179.006  1.00  0.00     0.066 C 
ATOM      5  C   UNL     1     173.105 173.282 178.334  1.00  0.00     0.171 C 
ATOM      6  C   UNL     1     173.343 173.904 176.924  1.00  0.00     0.052 C 
ATOM      7  C   UNL     1     173.073 172.751 175.956  1.00  0.00     0.033 C 
ATOM      8  C   UNL     1     172.613 171.615 176.866  1.00  0.00     0.126 C 
ATOM      9  O   UNL     1     173.082 171.874 178.166  1.00  0.00    -0.346 OA
ATOM     10  C   UNL     1     173.214 170.313 176.307  1.00  0.00     0.037 C 
ATOM     11  C   UNL     1     173.736 170.723 174.939  1.00  0.00     0.002 C 
ATOM     12  C   UNL     1     174.264 172.146 175.151  1.00  0.00    -0.024 C 
ATOM     13  C   UNL     1     174.467 172.774 173.758  1.00  0.00     0.008 C 
ATOM     14  C   UNL     1     175.472 171.951 172.922  1.00  0.00     0.005 C 
ATOM     15  C   UNL     1     175.131 170.423 172.849  1.00  0.00     0.003 C 
ATOM     16  C   UNL     1     174.731 169.791 174.218  1.00  0.00     0.000 C 
ATOM     17  C   UNL     1     174.099 168.406 173.972  1.00  0.00     0.031 C 
ATOM     18  C   UNL     1     174.820 167.587 172.931  1.00  0.00    -0.027 C 
ATOM     19  C   UNL     1     175.706 168.099 172.045  1.00  0.00    -0.065 C 
ATOM     20  C   UNL     1     176.235 169.537 172.162  1.00  0.00    -0.008 C 
ATOM     21  C   UNL     1     176.511 170.074 170.725  1.00  0.00     0.014 C 
ATOM     22  C   UNL     1     177.398 169.170 169.835  1.00  0.00     0.033 C 
ATOM     23  C   UNL     1     177.492 167.703 170.303  1.00  0.00     0.118 C 
ATOM     24  C   UNL     1     176.186 167.198 170.925  1.00  0.00     0.063 C 
ATOM     25  C   UNL     1     177.557 169.516 172.997  1.00  0.00     0.016 C 
ATOM     26  C   UNL     1     175.606 172.185 175.961  1.00  0.00     0.012 C 
ATOM     27  C   UNL     1     172.509 175.149 176.572  1.00  0.00     0.014 C 
ATOM     28  O   UNL     1     174.204 173.658 179.159  1.00  0.00    -0.349 OA
ATOM     29  C   UNL     1     174.170 173.005 180.419  1.00  0.00     0.167 C 
ENDROOT
BRANCH  23  30
ATOM     30  O   UNL     1     177.894 166.866 169.247  1.00  0.00    -0.393 OA
ATOM     31  H   UNL     1     178.415 167.416 168.607  1.00  0.00     0.210 HD
ENDBRANCH  23  30
TORSDOF 1
ENDMDL
MODEL 2
REMARK VINA RESULT:    -7.852      2.624      8.919
REMARK INTER + INTRA:          -8.082
REMARK INTER:                  -8.082
REMARK INTRA:                   0.000
REMARK UNBOUND:                 0.000
REMARK SMILES C[C@H]1CC[C@@]2(OC1)O[C@@H]1C[C@@H]3[C@H]4CC=C5C[C@@H](O)CC[C@@]5(C)[C@@H]4CC[C@@]3(C)[C@@H]1[C@H]2C
REMARK SMILES IDX 1 1 2 2 3 3 4 4 5 5 29 6 28 7 9 8 8 9 10 10 11 11 26 12
REMARK SMILES IDX 25 13 24 14 23 15 12 16 13 17 14 18 15 19 21 20 20 21 19 22
REMARK SMILES IDX 17 23 16 24 22 25 27 26 30 27 6 28 7 29 18 30
REMARK H PARENT 18 31
REMARK Flexibility Score: inf
ROOT
ATOM      1  C   UNL     1     174.253 168.601 167.235  1.00  0.00     0.010 C 
ATOM      2  C   UNL     1     173.132 169.329 167.993  1.00  0.00     0.012 C 
ATOM      3  C   UNL     1     172.207 168.349 168.733  1.00  0.00     0.011 C 
ATOM      4  C   UNL     1     172.884 167.787 169.986  1.00  0.00     0.066 C 
ATOM      5  C   UNL     1     173.462 168.937 170.858  1.00  0.00     0.171 C 
ATOM      6  C   UNL     1     174.242 168.448 172.117  1.00  0.00     0.052 C 
ATOM      7  C   UNL     1     173.293 168.744 173.280  1.00  0.00     0.033 C 
ATOM      8  C   UNL     1     172.035 169.271 172.597  1.00  0.00     0.126 C 
ATOM      9  O   UNL     1     172.390 169.743 171.321  1.00  0.00    -0.346 OA
ATOM     10  C   UNL     1     171.483 170.409 173.475  1.00  0.00     0.037 C 
ATOM     11  C   UNL     1     172.277 170.276 174.766  1.00  0.00     0.002 C 
ATOM     12  C   UNL     1     173.676 169.856 174.303  1.00  0.00    -0.024 C 
ATOM     13  C   UNL     1     174.435 169.342 175.542  1.00  0.00     0.008 C 
ATOM     14  C   UNL     1     174.537 170.439 176.624  1.00  0.00     0.005 C 
ATOM     15  C   UNL     1     173.161 171.093 176.991  1.00  0.00     0.003 C 
ATOM     16  C   UNL     1     172.276 171.456 175.759  1.00  0.00     0.000 C 
ATOM     17  C   UNL     1     170.843 171.764 176.237  1.00  0.00     0.031 C 
ATOM     18  C   UNL     1     170.789 172.600 177.491  1.00  0.00    -0.027 C 
ATOM     19  C   UNL     1     171.839 172.782 178.325  1.00  0.00    -0.065 C 
ATOM     20  C   UNL     1     173.262 172.336 177.951  1.00  0.00    -0.008 C 
ATOM     21  C   UNL     1     174.003 171.922 179.259  1.00  0.00     0.014 C 
ATOM     22  C   UNL     1     173.973 172.967 180.400  1.00  0.00     0.033 C 
ATOM     23  C   UNL     1     172.862 174.030 180.269  1.00  0.00     0.118 C 
ATOM     24  C   UNL     1     171.578 173.466 179.651  1.00  0.00     0.063 C 
ATOM     25  C   UNL     1     173.997 173.533 177.266  1.00  0.00     0.016 C 
ATOM     26  C   UNL     1     174.473 171.028 173.632  1.00  0.00     0.012 C 
ATOM     27  C   UNL     1     174.699 166.978 172.114  1.00  0.00     0.014 C 
ATOM     28  O   UNL     1     174.360 169.721 170.076  1.00  0.00    -0.349 OA
ATOM     29  C   UNL     1     173.704 170.353 168.988  1.00  0.00     0.167 C 
ENDROOT
BRANCH  23  30
ATOM     30  O   UNL     1     172.594 174.628 181.512  1.00  0.00    -0.393 OA
ATOM     31  H   UNL     1     171.660 174.962 181.493  1.00  0.00     0.210 HD
ENDBRANCH  23  30
TORSDOF 1
ENDMDL
MODEL 3
REMARK VINA RESULT:    -7.838      5.044      9.094
REMARK INTER + INTRA:          -8.067
REMARK INTER:                  -8.067
REMARK INTRA:                   0.000
REMARK UNBOUND:                 0.000
REMARK SMILES C[C@H]1CC[C@@]2(OC1)O[C@@H]1C[C@@H]3[C@H]4CC=C5C[C@@H](O)CC[C@@]5(C)[C@@H]4CC[C@@]3(C)[C@@H]1[C@H]2C
REMARK SMILES IDX 1 1 2 2 3 3 4 4 5 5 29 6 28 7 9 8 8 9 10 10 11 11 26 12
REMARK SMILES IDX 25 13 24 14 23 15 12 16 13 17 14 18 15 19 21 20 20 21 19 22
REMARK SMILES IDX 17 23 16 24 22 25 27 26 30 27 6 28 7 29 18 30
REMARK H PARENT 18 31
REMARK Flexibility Score: inf
ROOT
ATOM      1  C   UNL     1     172.172 177.643 167.185  1.00  0.00     0.010 C 
ATOM      2  C   UNL     1     173.306 176.953 167.961  1.00  0.00     0.012 C 
ATOM      3  C   UNL     1     174.191 177.964 168.707  1.00  0.00     0.011 C 
ATOM      4  C   UNL     1     173.481 178.512 169.948  1.00  0.00     0.066 C 
ATOM      5  C   UNL     1     172.927 177.349 170.819  1.00  0.00     0.171 C 
ATOM      6  C   UNL     1     172.117 177.820 172.066  1.00  0.00     0.052 C 
ATOM      7  C   UNL     1     173.059 177.559 173.242  1.00  0.00     0.033 C 
ATOM      8  C   UNL     1     174.341 177.067 172.578  1.00  0.00     0.126 C 
ATOM      9  O   UNL     1     174.017 176.579 171.300  1.00  0.00    -0.346 OA
ATOM     10  C   UNL     1     174.916 175.951 173.469  1.00  0.00     0.037 C 
ATOM     11  C   UNL     1     174.102 176.066 174.749  1.00  0.00     0.002 C 
ATOM     12  C   UNL     1     172.696 176.440 174.266  1.00  0.00    -0.024 C 
ATOM     13  C   UNL     1     171.906 176.938 175.493  1.00  0.00     0.008 C 
ATOM     14  C   UNL     1     171.824 175.844 176.579  1.00  0.00     0.005 C 
ATOM     15  C   UNL     1     173.214 175.234 176.968  1.00  0.00     0.003 C 
ATOM     16  C   UNL     1     174.126 174.892 175.749  1.00  0.00     0.000 C 
ATOM     17  C   UNL     1     175.561 174.630 176.246  1.00  0.00     0.031 C 
ATOM     18  C   UNL     1     175.625 173.802 177.506  1.00  0.00    -0.027 C 
ATOM     19  C   UNL     1     174.570 173.592 178.327  1.00  0.00    -0.065 C 
ATOM     20  C   UNL     1     173.139 173.993 177.933  1.00  0.00    -0.008 C 
ATOM     21  C   UNL     1     172.369 174.390 179.229  1.00  0.00     0.014 C 
ATOM     22  C   UNL     1     172.417 173.353 180.376  1.00  0.00     0.033 C 
ATOM     23  C   UNL     1     173.560 172.323 180.264  1.00  0.00     0.118 C 
ATOM     24  C   UNL     1     174.835 172.923 179.660  1.00  0.00     0.063 C 
ATOM     25  C   UNL     1     172.449 172.770 177.245  1.00  0.00     0.016 C 
ATOM     26  C   UNL     1     171.944 175.242 173.591  1.00  0.00     0.012 C 
ATOM     27  C   UNL     1     171.615 179.275 172.049  1.00  0.00     0.014 C 
ATOM     28  O   UNL     1     172.063 176.534 170.030  1.00  0.00    -0.349 OA
ATOM     29  C   UNL     1     172.752 175.917 168.954  1.00  0.00     0.167 C 
ENDROOT
BRANCH  23  30
ATOM     30  O   UNL     1     173.831 171.740 181.514  1.00  0.00    -0.393 OA
ATOM     31  H   UNL     1     173.451 172.331 182.213  1.00  0.00     0.210 HD
ENDBRANCH  23  30
TORSDOF 1
ENDMDL
MODEL 4
REMARK VINA RESULT:    -7.806      4.548      7.580
REMARK INTER + INTRA:          -8.035
REMARK INTER:                  -8.035
REMARK INTRA:                   0.000
REMARK UNBOUND:                 0.000
REMARK SMILES C[C@H]1CC[C@@]2(OC1)O[C@@H]1C[C@@H]3[C@H]4CC=C5C[C@@H](O)CC[C@@]5(C)[C@@H]4CC[C@@]3(C)[C@@H]1[C@H]2C
REMARK SMILES IDX 1 1 2 2 3 3 4 4 5 5 29 6 28 7 9 8 8 9 10 10 11 11 26 12
REMARK SMILES IDX 25 13 24 14 23 15 12 16 13 17 14 18 15 19 21 20 20 21 19 22
REMARK SMILES IDX 17 23 16 24 22 25 27 26 30 27 6 28 7 29 18 30
REMARK H PARENT 18 31
REMARK Flexibility Score: inf
ROOT
ATOM      1  C   UNL     1     173.182 171.534 181.503  1.00  0.00     0.010 C 
ATOM      2  C   UNL     1     173.219 173.007 181.065  1.00  0.00     0.012 C 
ATOM      3  C   UNL     1     174.519 173.355 180.322  1.00  0.00     0.011 C 
ATOM      4  C   UNL     1     174.515 172.785 178.902  1.00  0.00     0.066 C 
ATOM      5  C   UNL     1     173.205 173.174 178.160  1.00  0.00     0.171 C 
ATOM      6  C   UNL     1     173.080 172.566 176.729  1.00  0.00     0.052 C 
ATOM      7  C   UNL     1     173.346 173.750 175.797  1.00  0.00     0.033 C 
ATOM      8  C   UNL     1     173.693 174.890 176.749  1.00  0.00     0.126 C 
ATOM      9  O   UNL     1     173.164 174.585 178.015  1.00  0.00    -0.346 OA
ATOM     10  C   UNL     1     173.058 176.170 176.176  1.00  0.00     0.037 C 
ATOM     11  C   UNL     1     172.637 175.759 174.773  1.00  0.00     0.002 C 
ATOM     12  C   UNL     1     172.173 174.307 174.933  1.00  0.00    -0.024 C 
ATOM     13  C   UNL     1     172.083 173.695 173.521  1.00  0.00     0.008 C 
ATOM     14  C   UNL     1     171.087 174.481 172.640  1.00  0.00     0.005 C 
ATOM     15  C   UNL     1     171.351 176.025 172.610  1.00  0.00     0.003 C 
ATOM     16  C   UNL     1     171.638 176.652 174.009  1.00  0.00     0.000 C 
ATOM     17  C   UNL     1     172.211 178.071 173.822  1.00  0.00     0.031 C 
ATOM     18  C   UNL     1     171.509 178.872 172.753  1.00  0.00    -0.027 C 
ATOM     19  C   UNL     1     170.703 178.331 171.809  1.00  0.00    -0.065 C 
ATOM     20  C   UNL     1     170.244 176.866 171.873  1.00  0.00    -0.008 C 
ATOM     21  C   UNL     1     170.079 176.341 170.414  1.00  0.00     0.014 C 
ATOM     22  C   UNL     1     169.200 177.215 169.488  1.00  0.00     0.033 C 
ATOM     23  C   UNL     1     169.002 178.667 169.972  1.00  0.00     0.118 C 
ATOM     24  C   UNL     1     170.243 179.226 170.677  1.00  0.00     0.063 C 
ATOM     25  C   UNL     1     168.877 176.804 172.630  1.00  0.00     0.016 C 
ATOM     26  C   UNL     1     170.791 174.184 175.661  1.00  0.00     0.012 C 
ATOM     27  C   UNL     1     173.998 171.372 176.408  1.00  0.00     0.014 C 
ATOM     28  O   UNL     1     172.081 172.728 178.914  1.00  0.00    -0.349 OA
ATOM     29  C   UNL     1     172.008 173.359 180.183  1.00  0.00     0.167 C 
ENDROOT
BRANCH  23  30
ATOM     30  O   UNL     1     168.619 179.500 168.907  1.00  0.00    -0.393 OA
ATOM     31  H   UNL     1     167.847 179.076 168.453  1.00  0.00     0.210 HD
ENDBRANCH  23  30
TORSDOF 1
ENDMDL
MODEL 5
REMARK VINA RESULT:    -7.755      1.039      1.070
REMARK INTER + INTRA:          -7.981
REMARK INTER:                  -7.981
REMARK INTRA:                   0.000
REMARK UNBOUND:                 0.000
REMARK SMILES C[C@H]1CC[C@@]2(OC1)O[C@@H]1C[C@@H]3[C@H]4CC=C5C[C@@H](O)CC[C@@]5(C)[C@@H]4CC[C@@]3(C)[C@@H]1[C@H]2C
REMARK SMILES IDX 1 1 2 2 3 3 4 4 5 5 29 6 28 7 9 8 8 9 10 10 11 11 26 12
REMARK SMILES IDX 25 13 24 14 23 15 12 16 13 17 14 18 15 19 21 20 20 21 19 22
REMARK SMILES IDX 17 23 16 24 22 25 27 26 30 27 6 28 7 29 18 30
REMARK H PARENT 18 31
REMARK Flexibility Score: inf
ROOT
ATOM      1  C   UNL     1     173.211 174.101 181.448  1.00  0.00     0.010 C 
ATOM      2  C   UNL     1     172.597 172.931 180.661  1.00  0.00     0.012 C 
ATOM      3  C   UNL     1     171.607 173.414 179.589  1.00  0.00     0.011 C 
ATOM      4  C   UNL     1     172.340 174.023 178.391  1.00  0.00     0.066 C 
ATOM      5  C   UNL     1     173.448 173.059 177.881  1.00  0.00     0.171 C 
ATOM      6  C   UNL     1     174.301 173.635 176.709  1.00  0.00     0.052 C 
ATOM      7  C   UNL     1     173.801 172.878 175.477  1.00  0.00     0.033 C 
ATOM      8  C   UNL     1     172.658 172.022 176.017  1.00  0.00     0.126 C 
ATOM      9  O   UNL     1     172.836 171.871 177.403  1.00  0.00    -0.346 OA
ATOM     10  C   UNL     1     172.729 170.663 175.296  1.00  0.00     0.037 C 
ATOM     11  C   UNL     1     173.717 170.912 174.167  1.00  0.00     0.002 C 
ATOM     12  C   UNL     1     174.754 171.859 174.780  1.00  0.00    -0.024 C 
ATOM     13  C   UNL     1     175.575 172.455 173.619  1.00  0.00     0.008 C 
ATOM     14  C   UNL     1     176.279 171.343 172.811  1.00  0.00     0.005 C 
ATOM     15  C   UNL     1     175.316 170.199 172.341  1.00  0.00     0.003 C 
ATOM     16  C   UNL     1     174.333 169.698 173.443  1.00  0.00     0.000 C 
ATOM     17  C   UNL     1     173.232 168.839 172.788  1.00  0.00     0.031 C 
ATOM     18  C   UNL     1     173.748 167.892 171.734  1.00  0.00    -0.027 C 
ATOM     19  C   UNL     1     174.966 167.997 171.153  1.00  0.00    -0.065 C 
ATOM     20  C   UNL     1     176.037 168.966 171.679  1.00  0.00    -0.008 C 
ATOM     21  C   UNL     1     176.890 169.453 170.469  1.00  0.00     0.014 C 
ATOM     22  C   UNL     1     177.470 168.335 169.570  1.00  0.00     0.033 C 
ATOM     23  C   UNL     1     176.766 166.969 169.709  1.00  0.00     0.118 C 
ATOM     24  C   UNL     1     175.261 167.107 169.964  1.00  0.00     0.063 C 
ATOM     25  C   UNL     1     176.937 168.207 172.707  1.00  0.00     0.016 C 
ATOM     26  C   UNL     1     175.706 171.144 175.800  1.00  0.00     0.012 C 
ATOM     27  C   UNL     1     174.243 175.159 176.503  1.00  0.00     0.014 C 
ATOM     28  O   UNL     1     174.341 172.752 178.949  1.00  0.00    -0.349 OA
ATOM     29  C   UNL     1     173.688 172.066 180.006  1.00  0.00     0.167 C 
ENDROOT
BRANCH  23  30
ATOM     30  O   UNL     1     177.007 166.166 168.580  1.00  0.00    -0.393 OA
ATOM     31  H   UNL     1     176.307 165.465 168.553  1.00  0.00     0.210 HD
ENDBRANCH  23  30
TORSDOF 1
ENDMDL
MODEL 6
REMARK VINA RESULT:    -7.366      4.977      7.366
REMARK INTER + INTRA:          -7.582
REMARK INTER:                  -7.582
REMARK INTRA:                   0.000
REMARK UNBOUND:                 0.000
REMARK SMILES C[C@H]1CC[C@@]2(OC1)O[C@@H]1C[C@@H]3[C@H]4CC=C5C[C@@H](O)CC[C@@]5(C)[C@@H]4CC[C@@]3(C)[C@@H]1[C@H]2C
REMARK SMILES IDX 1 1 2 2 3 3 4 4 5 5 29 6 28 7 9 8 8 9 10 10 11 11 26 12
REMARK SMILES IDX 25 13 24 14 23 15 12 16 13 17 14 18 15 19 21 20 20 21 19 22
REMARK SMILES IDX 17 23 16 24 22 25 27 26 30 27 6 28 7 29 18 30
REMARK H PARENT 18 31
REMARK Flexibility Score: inf
ROOT
ATOM      1  C   UNL     1     172.713 172.606 181.499  1.00  0.00     0.010 C 
ATOM      2  C   UNL     1     173.717 173.450 180.696  1.00  0.00     0.012 C 
ATOM      3  C   UNL     1     174.491 172.604 179.672  1.00  0.00     0.011 C 
ATOM      4  C   UNL     1     173.612 172.246 178.471  1.00  0.00     0.066 C 
ATOM      5  C   UNL     1     172.928 173.518 177.895  1.00  0.00     0.171 C 
ATOM      6  C   UNL     1     171.949 173.234 176.715  1.00  0.00     0.052 C 
ATOM      7  C   UNL     1     172.708 173.714 175.477  1.00  0.00     0.033 C 
ATOM      8  C   UNL     1     174.069 174.131 176.025  1.00  0.00     0.126 C 
ATOM      9  O   UNL     1     173.930 174.392 177.400  1.00  0.00    -0.346 OA
ATOM     10  C   UNL     1     174.499 175.397 175.261  1.00  0.00     0.037 C 
ATOM     11  C   UNL     1     173.509 175.468 174.109  1.00  0.00     0.002 C 
ATOM     12  C   UNL     1     172.191 174.974 174.718  1.00  0.00    -0.024 C 
ATOM     13  C   UNL     1     171.235 174.661 173.550  1.00  0.00     0.008 C 
ATOM     14  C   UNL     1     170.987 175.916 172.685  1.00  0.00     0.005 C 
ATOM     15  C   UNL     1     172.301 176.626 172.211  1.00  0.00     0.003 C 
ATOM     16  C   UNL     1     173.378 176.791 173.327  1.00  0.00     0.000 C 
ATOM     17  C   UNL     1     174.724 177.177 172.682  1.00  0.00     0.031 C 
ATOM     18  C   UNL     1     174.597 178.202 171.583  1.00  0.00    -0.027 C 
ATOM     19  C   UNL     1     173.431 178.511 170.967  1.00  0.00    -0.065 C 
ATOM     20  C   UNL     1     172.077 178.006 171.488  1.00  0.00    -0.008 C 
ATOM     21  C   UNL     1     171.129 177.803 170.266  1.00  0.00     0.014 C 
ATOM     22  C   UNL     1     171.001 179.016 169.315  1.00  0.00     0.033 C 
ATOM     23  C   UNL     1     172.141 180.049 169.433  1.00  0.00     0.118 C 
ATOM     24  C   UNL     1     173.494 179.399 169.741  1.00  0.00     0.063 C 
ATOM     25  C   UNL     1     171.485 179.076 172.462  1.00  0.00     0.016 C 
ATOM     26  C   UNL     1     171.536 176.021 175.684  1.00  0.00     0.012 C 
ATOM     27  C   UNL     1     171.466 171.780 176.559  1.00  0.00     0.014 C 
ATOM     28  O   UNL     1     172.183 174.164 178.924  1.00  0.00    -0.349 OA
ATOM     29  C   UNL     1     173.016 174.618 179.979  1.00  0.00     0.167 C 
ENDROOT
BRANCH  23  30
ATOM     30  O   UNL     1     172.222 180.839 168.273  1.00  0.00    -0.393 OA
ATOM     31  H   UNL     1     173.025 181.414 168.354  1.00  0.00     0.210 HD
ENDBRANCH  23  30
TORSDOF 1
ENDMDL
MODEL 7
REMARK VINA RESULT:    -7.307      2.542      4.753
REMARK INTER + INTRA:          -7.520
REMARK INTER:                  -7.520
REMARK INTRA:                   0.000
REMARK UNBOUND:                 0.000
REMARK SMILES C[C@H]1CC[C@@]2(OC1)O[C@@H]1C[C@@H]3[C@H]4CC=C5C[C@@H](O)CC[C@@]5(C)[C@@H]4CC[C@@]3(C)[C@@H]1[C@H]2C
REMARK SMILES IDX 1 1 2 2 3 3 4 4 5 5 29 6 28 7 9 8 8 9 10 10 11 11 26 12
REMARK SMILES IDX 25 13 24 14 23 15 12 16 13 17 14 18 15 19 21 20 20 21 19 22
REMARK SMILES IDX 17 23 16 24 22 25 27 26 30 27 6 28 7 29 18 30
REMARK H PARENT 18 31
REMARK Flexibility Score: inf
ROOT
ATOM      1  C   UNL     1     169.893 171.503 176.832  1.00  0.00     0.010 C 
ATOM      2  C   UNL     1     170.989 172.423 176.269  1.00  0.00     0.012 C 
ATOM      3  C   UNL     1     172.207 172.506 177.202  1.00  0.00     0.011 C 
ATOM      4  C   UNL     1     173.046 171.227 177.134  1.00  0.00     0.066 C 
ATOM      5  C   UNL     1     173.368 170.862 175.657  1.00  0.00     0.171 C 
ATOM      6  C   UNL     1     174.153 169.525 175.490  1.00  0.00     0.052 C 
ATOM      7  C   UNL     1     175.576 169.969 175.146  1.00  0.00     0.033 C 
ATOM      8  C   UNL     1     175.514 171.491 175.242  1.00  0.00     0.126 C 
ATOM      9  O   UNL     1     174.173 171.888 175.099  1.00  0.00    -0.346 OA
ATOM     10  C   UNL     1     176.385 172.054 174.104  1.00  0.00     0.037 C 
ATOM     11  C   UNL     1     177.142 170.835 173.602  1.00  0.00     0.002 C 
ATOM     12  C   UNL     1     176.127 169.692 173.714  1.00  0.00    -0.024 C 
ATOM     13  C   UNL     1     176.908 168.369 173.583  1.00  0.00     0.008 C 
ATOM     14  C   UNL     1     177.648 168.295 172.229  1.00  0.00     0.005 C 
ATOM     15  C   UNL     1     178.537 169.550 171.926  1.00  0.00     0.003 C 
ATOM     16  C   UNL     1     177.843 170.914 172.230  1.00  0.00     0.000 C 
ATOM     17  C   UNL     1     178.902 172.035 172.223  1.00  0.00     0.031 C 
ATOM     18  C   UNL     1     179.902 171.918 171.100  1.00  0.00    -0.027 C 
ATOM     19  C   UNL     1     180.096 170.792 170.374  1.00  0.00    -0.065 C 
ATOM     20  C   UNL     1     179.152 169.584 170.478  1.00  0.00    -0.008 C 
ATOM     21  C   UNL     1     179.987 168.289 170.239  1.00  0.00     0.014 C 
ATOM     22  C   UNL     1     180.849 168.280 168.953  1.00  0.00     0.033 C 
ATOM     23  C   UNL     1     181.121 169.675 168.354  1.00  0.00     0.118 C 
ATOM     24  C   UNL     1     181.278 170.757 169.428  1.00  0.00     0.063 C 
ATOM     25  C   UNL     1     178.042 169.723 169.385  1.00  0.00     0.016 C 
ATOM     26  C   UNL     1     175.004 169.764 172.623  1.00  0.00     0.012 C 
ATOM     27  C   UNL     1     174.132 168.562 176.691  1.00  0.00     0.014 C 
ATOM     28  O   UNL     1     172.153 170.740 174.922  1.00  0.00    -0.349 OA
ATOM     29  C   UNL     1     171.438 171.965 174.870  1.00  0.00     0.167 C 
ENDROOT
BRANCH  23  30
ATOM     30  O   UNL     1     182.247 169.645 167.512  1.00  0.00    -0.393 OA
ATOM     31  H   UNL     1     181.955 169.304 166.628  1.00  0.00     0.210 HD
ENDBRANCH  23  30
TORSDOF 1
ENDMDL
MODEL 8
REMARK VINA RESULT:    -7.108      6.250      8.851
REMARK INTER + INTRA:          -7.315
REMARK INTER:                  -7.315
REMARK INTRA:                   0.000
REMARK UNBOUND:                 0.000
REMARK SMILES C[C@H]1CC[C@@]2(OC1)O[C@@H]1C[C@@H]3[C@H]4CC=C5C[C@@H](O)CC[C@@]5(C)[C@@H]4CC[C@@]3(C)[C@@H]1[C@H]2C
REMARK SMILES IDX 1 1 2 2 3 3 4 4 5 5 29 6 28 7 9 8 8 9 10 10 11 11 26 12
REMARK SMILES IDX 25 13 24 14 23 15 12 16 13 17 14 18 15 19 21 20 20 21 19 22
REMARK SMILES IDX 17 23 16 24 22 25 27 26 30 27 6 28 7 29 18 30
REMARK H PARENT 18 31
REMARK Flexibility Score: inf
ROOT
ATOM      1  C   UNL     1     176.695 174.562 177.021  1.00  0.00     0.010 C 
ATOM      2  C   UNL     1     175.583 173.675 176.439  1.00  0.00     0.012 C 
ATOM      3  C   UNL     1     174.368 173.584 177.376  1.00  0.00     0.011 C 
ATOM      4  C   UNL     1     173.548 174.876 177.347  1.00  0.00     0.066 C 
ATOM      5  C   UNL     1     173.225 175.286 175.882  1.00  0.00     0.171 C 
ATOM      6  C   UNL     1     172.459 176.639 175.756  1.00  0.00     0.052 C 
ATOM      7  C   UNL     1     171.028 176.225 175.407  1.00  0.00     0.033 C 
ATOM      8  C   UNL     1     171.068 174.701 175.461  1.00  0.00     0.126 C 
ATOM      9  O   UNL     1     172.402 174.288 175.300  1.00  0.00    -0.346 OA
ATOM     10  C   UNL     1     170.183 174.182 174.312  1.00  0.00     0.037 C 
ATOM     11  C   UNL     1     169.442 175.425 173.847  1.00  0.00     0.002 C 
ATOM     12  C   UNL     1     170.474 176.550 173.986  1.00  0.00    -0.024 C 
ATOM     13  C   UNL     1     169.713 177.887 173.895  1.00  0.00     0.008 C 
ATOM     14  C   UNL     1     168.967 178.009 172.547  1.00  0.00     0.005 C 
ATOM     15  C   UNL     1     168.059 176.776 172.214  1.00  0.00     0.003 C 
ATOM     16  C   UNL     1     168.734 175.395 172.477  1.00  0.00     0.000 C 
ATOM     17  C   UNL     1     167.659 174.290 172.445  1.00  0.00     0.031 C 
ATOM     18  C   UNL     1     166.655 174.453 171.331  1.00  0.00    -0.027 C 
ATOM     19  C   UNL     1     166.474 175.601 170.637  1.00  0.00    -0.065 C 
ATOM     20  C   UNL     1     167.437 176.792 170.769  1.00  0.00    -0.008 C 
ATOM     21  C   UNL     1     166.620 178.104 170.570  1.00  0.00     0.014 C 
ATOM     22  C   UNL     1     165.753 178.161 169.289  1.00  0.00     0.033 C 
ATOM     23  C   UNL     1     165.456 176.787 168.653  1.00  0.00     0.118 C 
ATOM     24  C   UNL     1     165.288 175.679 169.698  1.00  0.00     0.063 C 
ATOM     25  C   UNL     1     168.539 176.666 169.667  1.00  0.00     0.016 C 
ATOM     26  C   UNL     1     171.592 176.491 172.887  1.00  0.00     0.012 C 
ATOM     27  C   UNL     1     172.500 177.568 176.982  1.00  0.00     0.014 C 
ATOM     28  O   UNL     1     174.438 175.411 175.144  1.00  0.00    -0.349 OA
ATOM     29  C   UNL     1     175.135 174.177 175.056  1.00  0.00     0.167 C 
ENDROOT
BRANCH  23  30
ATOM     30  O   UNL     1     164.327 176.857 167.818  1.00  0.00    -0.393 OA
ATOM     31  H   UNL     1     164.590 176.516 166.925  1.00  0.00     0.210 HD
ENDBRANCH  23  30
TORSDOF 1
ENDMDL
MODEL 9
REMARK VINA RESULT:    -6.953      4.745      8.902
REMARK INTER + INTRA:          -7.156
REMARK INTER:                  -7.156
REMARK INTRA:                   0.000
REMARK UNBOUND:                 0.000
REMARK SMILES C[C@H]1CC[C@@]2(OC1)O[C@@H]1C[C@@H]3[C@H]4CC=C5C[C@@H](O)CC[C@@]5(C)[C@@H]4CC[C@@]3(C)[C@@H]1[C@H]2C
REMARK SMILES IDX 1 1 2 2 3 3 4 4 5 5 29 6 28 7 9 8 8 9 10 10 11 11 26 12
REMARK SMILES IDX 25 13 24 14 23 15 12 16 13 17 14 18 15 19 21 20 20 21 19 22
REMARK SMILES IDX 17 23 16 24 22 25 27 26 30 27 6 28 7 29 18 30
REMARK H PARENT 18 31
REMARK Flexibility Score: inf
ROOT
ATOM      1  C   UNL     1     167.875 178.035 168.693  1.00  0.00     0.010 C 
ATOM      2  C   UNL     1     168.501 176.677 169.049  1.00  0.00     0.012 C 
ATOM      3  C   UNL     1     170.023 176.671 168.838  1.00  0.00     0.011 C 
ATOM      4  C   UNL     1     170.739 177.452 169.944  1.00  0.00     0.066 C 
ATOM      5  C   UNL     1     170.263 176.974 171.346  1.00  0.00     0.171 C 
ATOM      6  C   UNL     1     170.884 177.773 172.533  1.00  0.00     0.052 C 
ATOM      7  C   UNL     1     171.914 176.813 173.129  1.00  0.00     0.033 C 
ATOM      8  C   UNL     1     171.873 175.609 172.193  1.00  0.00     0.126 C 
ATOM      9  O   UNL     1     170.640 175.617 171.518  1.00  0.00    -0.346 OA
ATOM     10  C   UNL     1     172.019 174.349 173.066  1.00  0.00     0.037 C 
ATOM     11  C   UNL     1     172.439 174.903 174.419  1.00  0.00     0.002 C 
ATOM     12  C   UNL     1     171.656 176.214 174.546  1.00  0.00    -0.024 C 
ATOM     13  C   UNL     1     172.291 177.019 175.697  1.00  0.00     0.008 C 
ATOM     14  C   UNL     1     172.230 176.230 177.024  1.00  0.00     0.005 C 
ATOM     15  C   UNL     1     172.803 174.776 176.920  1.00  0.00     0.003 C 
ATOM     16  C   UNL     1     172.331 173.990 175.658  1.00  0.00     0.000 C 
ATOM     17  C   UNL     1     173.207 172.733 175.485  1.00  0.00     0.031 C 
ATOM     18  C   UNL     1     173.489 172.008 176.777  1.00  0.00    -0.027 C 
ATOM     19  C   UNL     1     173.310 172.551 178.004  1.00  0.00    -0.065 C 
ATOM     20  C   UNL     1     172.584 173.891 178.203  1.00  0.00    -0.008 C 
ATOM     21  C   UNL     1     173.209 174.606 179.439  1.00  0.00     0.014 C 
ATOM     22  C   UNL     1     173.285 173.758 180.731  1.00  0.00     0.033 C 
ATOM     23  C   UNL     1     173.175 172.235 180.507  1.00  0.00     0.118 C 
ATOM     24  C   UNL     1     173.836 171.784 179.200  1.00  0.00     0.063 C 
ATOM     25  C   UNL     1     171.067 173.605 178.451  1.00  0.00     0.016 C 
ATOM     26  C   UNL     1     170.130 175.989 174.824  1.00  0.00     0.012 C 
ATOM     27  C   UNL     1     171.508 179.138 172.190  1.00  0.00     0.014 C 
ATOM     28  O   UNL     1     168.847 177.103 171.436  1.00  0.00    -0.349 OA
ATOM     29  C   UNL     1     168.177 176.275 170.498  1.00  0.00     0.167 C 
ENDROOT
BRANCH  23  30
ATOM     30  O   UNL     1     173.707 171.530 181.601  1.00  0.00    -0.393 OA
ATOM     31  H   UNL     1     174.135 170.707 181.251  1.00  0.00     0.210 HD
ENDBRANCH  23  30
TORSDOF 1
ENDMDL
