MODEL 1
REMARK VINA RESULT:    -2.926      0.000      0.000
REMARK INTER + INTRA:          -3.475
REMARK INTER:                  -3.440
REMARK INTRA:                  -0.035
REMARK UNBOUND:                -0.035
REMARK SMILES O=C([O-])CCC(=O)[O-]
REMARK SMILES IDX 4 1 2 2 1 3 3 4 5 5 6 6 7 7 8 8
REMARK H PARENT
REMARK Flexibility Score: inf
ROOT
ATOM      1  C   UNL     1      25.077 -12.786 -22.414  1.00  0.00     0.059 C 
ENDROOT
BRANCH   1   2
ATOM      2  C   UNL     1      26.035 -13.152 -21.324  1.00  0.00     0.042 C 
ATOM      3  O   UNL     1      27.093 -13.777 -21.596  1.00  0.00    -0.550 OA
ATOM      4  O   UNL     1      25.735 -12.847 -20.002  1.00  0.00    -0.550 OA
ENDBRANCH   1   2
BRANCH   1   5
ATOM      5  C   UNL     1      24.629 -14.035 -23.176  1.00  0.00     0.059 C 
BRANCH   5   6
ATOM      6  C   UNL     1      23.277 -13.823 -23.779  1.00  0.00     0.042 C 
ATOM      7  O   UNL     1      22.829 -12.656 -23.935  1.00  0.00    -0.550 OA
ATOM      8  O   UNL     1      22.533 -14.911 -24.217  1.00  0.00    -0.550 OA
ENDBRANCH   5   6
ENDBRANCH   1   5
TORSDOF 3
ENDMDL
MODEL 2
REMARK VINA RESULT:    -2.917      3.839      5.468
REMARK INTER + INTRA:          -3.464
REMARK INTER:                  -3.373
REMARK INTRA:                  -0.091
REMARK UNBOUND:                -0.035
REMARK SMILES O=C([O-])CCC(=O)[O-]
REMARK SMILES IDX 4 1 2 2 1 3 3 4 5 5 6 6 7 7 8 8
REMARK H PARENT
REMARK Flexibility Score: inf
ROOT
ATOM      1  C   UNL     1      25.622  -9.432 -19.153  1.00  0.00     0.059 C 
ENDROOT
BRANCH   1   2
ATOM      2  C   UNL     1      24.243  -8.855 -19.081  1.00  0.00     0.042 C 
ATOM      3  O   UNL     1      23.753  -8.262 -20.077  1.00  0.00    -0.550 OA
ATOM      4  O   UNL     1      23.519  -8.930 -17.898  1.00  0.00    -0.550 OA
ENDBRANCH   1   2
BRANCH   1   5
ATOM      5  C   UNL     1      25.678 -10.558 -20.188  1.00  0.00     0.059 C 
BRANCH   5   6
ATOM      6  C   UNL     1      25.784 -11.887 -19.510  1.00  0.00     0.042 C 
ATOM      7  O   UNL     1      25.893 -11.952 -18.257  1.00  0.00    -0.550 OA
ATOM      8  O   UNL     1      25.712 -13.056 -20.256  1.00  0.00    -0.550 OA
ENDBRANCH   5   6
ENDBRANCH   1   5
TORSDOF 3
ENDMDL
MODEL 3
REMARK VINA RESULT:    -2.912      0.474      4.253
REMARK INTER + INTRA:          -3.458
REMARK INTER:                  -3.424
REMARK INTRA:                  -0.034
REMARK UNBOUND:                -0.035
REMARK SMILES O=C([O-])CCC(=O)[O-]
REMARK SMILES IDX 4 1 2 2 1 3 3 4 5 5 6 6 7 7 8 8
REMARK H PARENT
REMARK Flexibility Score: inf
ROOT
ATOM      1  C   UNL     1      24.036 -13.861 -22.542  1.00  0.00     0.059 C 
ENDROOT
BRANCH   1   2
ATOM      2  C   UNL     1      23.256 -13.783 -23.816  1.00  0.00     0.042 C 
ATOM      3  O   UNL     1      23.234 -12.713 -24.479  1.00  0.00    -0.550 OA
ATOM      4  O   UNL     1      22.513 -14.875 -24.245  1.00  0.00    -0.550 OA
ENDBRANCH   1   2
BRANCH   1   5
ATOM      5  C   UNL     1      25.302 -13.007 -22.634  1.00  0.00     0.059 C 
BRANCH   5   6
ATOM      6  C   UNL     1      26.144 -13.183 -21.411  1.00  0.00     0.042 C 
ATOM      7  O   UNL     1      25.626 -13.088 -20.267  1.00  0.00    -0.550 OA
ATOM      8  O   UNL     1      27.490 -13.503 -21.534  1.00  0.00    -0.550 OA
ENDBRANCH   5   6
ENDBRANCH   1   5
TORSDOF 3
ENDMDL
MODEL 4
REMARK VINA RESULT:    -2.900      2.150      4.664
REMARK INTER + INTRA:          -3.444
REMARK INTER:                  -3.406
REMARK INTRA:                  -0.038
REMARK UNBOUND:                -0.035
REMARK SMILES O=C([O-])CCC(=O)[O-]
REMARK SMILES IDX 4 1 2 2 1 3 3 4 5 5 6 6 7 7 8 8
REMARK H PARENT
REMARK Flexibility Score: inf
ROOT
ATOM      1  C   UNL     1      25.763 -13.143 -20.836  1.00  0.00     0.059 C 
ENDROOT
BRANCH   1   2
ATOM      2  C   UNL     1      25.056 -13.101 -22.154  1.00  0.00     0.042 C 
ATOM      3  O   UNL     1      24.032 -13.808 -22.345  1.00  0.00    -0.550 OA
ATOM      4  O   UNL     1      25.557 -12.319 -23.187  1.00  0.00    -0.550 OA
ENDBRANCH   1   2
BRANCH   1   5
ATOM      5  C   UNL     1      26.112 -11.728 -20.369  1.00  0.00     0.059 C 
BRANCH   5   6
ATOM      6  C   UNL     1      25.569 -11.480 -18.998  1.00  0.00     0.042 C 
ATOM      7  O   UNL     1      25.794 -12.301 -18.070  1.00  0.00    -0.550 OA
ATOM      8  O   UNL     1      24.857 -10.318 -18.732  1.00  0.00    -0.550 OA
ENDBRANCH   5   6
ENDBRANCH   1   5
TORSDOF 3
ENDMDL
MODEL 5
REMARK VINA RESULT:    -2.895     19.556     20.027
REMARK INTER + INTRA:          -3.438
REMARK INTER:                  -3.332
REMARK INTRA:                  -0.105
REMARK UNBOUND:                -0.035
REMARK SMILES O=C([O-])CCC(=O)[O-]
REMARK SMILES IDX 4 1 2 2 1 3 3 4 5 5 6 6 7 7 8 8
REMARK H PARENT
REMARK Flexibility Score: inf
ROOT
ATOM      1  C   UNL     1      34.391  -3.432 -36.498  1.00  0.00     0.059 C 
ENDROOT
BRANCH   1   2
ATOM      2  C   UNL     1      34.285  -1.948 -36.344  1.00  0.00     0.042 C 
ATOM      3  O   UNL     1      34.160  -1.438 -35.199  1.00  0.00    -0.550 OA
ATOM      4  O   UNL     1      34.273  -1.130 -37.467  1.00  0.00    -0.550 OA
ENDBRANCH   1   2
BRANCH   1   5
ATOM      5  C   UNL     1      33.983  -3.854 -37.911  1.00  0.00     0.059 C 
BRANCH   5   6
ATOM      6  C   UNL     1      32.553  -4.290 -37.935  1.00  0.00     0.042 C 
ATOM      7  O   UNL     1      31.630  -3.433 -37.976  1.00  0.00    -0.550 OA
ATOM      8  O   UNL     1      32.238  -5.643 -37.963  1.00  0.00    -0.550 OA
ENDBRANCH   5   6
ENDBRANCH   1   5
TORSDOF 3
ENDMDL
MODEL 6
REMARK VINA RESULT:    -2.871      2.026      3.063
REMARK INTER + INTRA:          -3.409
REMARK INTER:                  -3.310
REMARK INTRA:                  -0.099
REMARK UNBOUND:                -0.035
REMARK SMILES O=C([O-])CCC(=O)[O-]
REMARK SMILES IDX 4 1 2 2 1 3 3 4 5 5 6 6 7 7 8 8
REMARK H PARENT
REMARK Flexibility Score: inf
ROOT
ATOM      1  C   UNL     1      26.539 -12.252 -20.294  1.00  0.00     0.059 C 
ENDROOT
BRANCH   1   2
ATOM      2  C   UNL     1      25.822 -11.669 -19.118  1.00  0.00     0.042 C 
ATOM      3  O   UNL     1      25.785 -12.294 -18.025  1.00  0.00    -0.550 OA
ATOM      4  O   UNL     1      25.150 -10.459 -19.242  1.00  0.00    -0.550 OA
ENDBRANCH   1   2
BRANCH   1   5
ATOM      5  C   UNL     1      25.756 -13.434 -20.868  1.00  0.00     0.059 C 
BRANCH   5   6
ATOM      6  C   UNL     1      25.069 -13.039 -22.137  1.00  0.00     0.042 C 
ATOM      7  O   UNL     1      24.098 -13.715 -22.568  1.00  0.00    -0.550 OA
ATOM      8  O   UNL     1      25.470 -11.897 -22.819  1.00  0.00    -0.550 OA
ENDBRANCH   5   6
ENDBRANCH   1   5
TORSDOF 3
ENDMDL
MODEL 7
REMARK VINA RESULT:    -2.858      3.570      5.252
REMARK INTER + INTRA:          -3.395
REMARK INTER:                  -3.258
REMARK INTRA:                  -0.137
REMARK UNBOUND:                -0.035
REMARK SMILES O=C([O-])CCC(=O)[O-]
REMARK SMILES IDX 4 1 2 2 1 3 3 4 5 5 6 6 7 7 8 8
REMARK H PARENT
REMARK Flexibility Score: inf
ROOT
ATOM      1  C   UNL     1      25.875 -11.995 -18.468  1.00  0.00     0.059 C 
ENDROOT
BRANCH   1   2
ATOM      2  C   UNL     1      26.205 -12.366 -19.879  1.00  0.00     0.042 C 
ATOM      3  O   UNL     1      25.494 -13.203 -20.496  1.00  0.00    -0.550 OA
ATOM      4  O   UNL     1      27.325 -11.825 -20.497  1.00  0.00    -0.550 OA
ENDBRANCH   1   2
BRANCH   1   5
ATOM      5  C   UNL     1      26.151 -10.510 -18.225  1.00  0.00     0.059 C 
BRANCH   5   6
ATOM      6  C   UNL     1      24.976  -9.684 -18.642  1.00  0.00     0.042 C 
ATOM      7  O   UNL     1      23.985  -9.559 -17.875  1.00  0.00    -0.550 OA
ATOM      8  O   UNL     1      24.995  -9.012 -19.858  1.00  0.00    -0.550 OA
ENDBRANCH   5   6
ENDBRANCH   1   5
TORSDOF 3
ENDMDL
MODEL 8
REMARK VINA RESULT:    -2.820     17.209     18.039
REMARK INTER + INTRA:          -3.349
REMARK INTER:                  -3.302
REMARK INTRA:                  -0.047
REMARK UNBOUND:                -0.035
REMARK SMILES O=C([O-])CCC(=O)[O-]
REMARK SMILES IDX 4 1 2 2 1 3 3 4 5 5 6 6 7 7 8 8
REMARK H PARENT
REMARK Flexibility Score: inf
ROOT
ATOM      1  C   UNL     1      27.649  -3.281 -36.484  1.00  0.00     0.059 C 
ENDROOT
BRANCH   1   2
ATOM      2  C   UNL     1      28.947  -2.703 -36.951  1.00  0.00     0.042 C 
ATOM      3  O   UNL     1      28.972  -1.577 -37.514  1.00  0.00    -0.550 OA
ATOM      4  O   UNL     1      30.123  -3.430 -36.812  1.00  0.00    -0.550 OA
ENDBRANCH   1   2
BRANCH   1   5
ATOM      5  C   UNL     1      26.614  -3.257 -37.611  1.00  0.00     0.059 C 
BRANCH   5   6
ATOM      6  C   UNL     1      25.756  -4.481 -37.560  1.00  0.00     0.042 C 
ATOM      7  O   UNL     1      26.162  -5.515 -36.969  1.00  0.00    -0.550 OA
ATOM      8  O   UNL     1      24.486  -4.463 -38.124  1.00  0.00    -0.550 OA
ENDBRANCH   5   6
ENDBRANCH   1   5
TORSDOF 3
ENDMDL
MODEL 9
REMARK VINA RESULT:    -2.759     11.895     12.915
REMARK INTER + INTRA:          -3.278
REMARK INTER:                  -3.153
REMARK INTRA:                  -0.124
REMARK UNBOUND:                -0.035
REMARK SMILES O=C([O-])CCC(=O)[O-]
REMARK SMILES IDX 4 1 2 2 1 3 3 4 5 5 6 6 7 7 8 8
REMARK H PARENT
REMARK Flexibility Score: inf
ROOT
ATOM      1  C   UNL     1      28.209 -16.086 -34.374  1.00  0.00     0.059 C 
ENDROOT
BRANCH   1   2
ATOM      2  C   UNL     1      27.269 -14.990 -33.983  1.00  0.00     0.042 C 
ATOM      3  O   UNL     1      26.319 -14.669 -34.746  1.00  0.00    -0.550 OA
ATOM      4  O   UNL     1      27.470 -14.290 -32.801  1.00  0.00    -0.550 OA
ENDBRANCH   1   2
BRANCH   1   5
ATOM      5  C   UNL     1      29.423 -16.108 -33.443  1.00  0.00     0.059 C 
BRANCH   5   6
ATOM      6  C   UNL     1      30.594 -15.443 -34.094  1.00  0.00     0.042 C 
ATOM      7  O   UNL     1      31.430 -16.125 -34.744  1.00  0.00    -0.550 OA
ATOM      8  O   UNL     1      30.736 -14.062 -34.026  1.00  0.00    -0.550 OA
ENDBRANCH   5   6
ENDBRANCH   1   5
TORSDOF 3
ENDMDL
