MODEL 1
REMARK VINA RESULT:    -3.060      0.000      0.000
REMARK INTER + INTRA:          -8.161
REMARK INTER:                  -5.744
REMARK INTRA:                  -2.418
REMARK UNBOUND:                -2.418
REMARK SMILES O=C([O-])CCCCCCCCCCCCCCC(=O)[O-]
REMARK SMILES IDX 10 1 9 2 8 3 7 4 6 5 5 6 4 7 2 8 1 9 3 10 11 11 12 12 13 13
REMARK SMILES IDX 14 14 15 15 16 16 17 17 18 18 19 19 20 20
REMARK H PARENT
REMARK Flexibility Score: inf
ROOT
ATOM      1  C   UNL     1      11.859  43.790 152.229  1.00  0.00     0.000 C 
ENDROOT
BRANCH   1   2
ATOM      2  C   UNL     1      12.771  43.735 153.474  1.00  0.00     0.000 C 
BRANCH   2   3
ATOM      3  C   UNL     1      12.235  42.774 154.549  1.00  0.00     0.000 C 
BRANCH   3   4
ATOM      4  C   UNL     1      10.725  42.510 154.414  1.00  0.00     0.000 C 
BRANCH   4   5
ATOM      5  C   UNL     1       9.930  42.605 155.729  1.00  0.00     0.000 C 
BRANCH   5   6
ATOM      6  C   UNL     1       9.079  43.881 155.822  1.00  0.00     0.006 C 
BRANCH   6   7
ATOM      7  C   UNL     1       8.901  44.522 154.442  1.00  0.00     0.053 C 
BRANCH   7   8
ATOM      8  C   UNL     1       9.297  45.964 154.478  1.00  0.00     0.041 C 
ATOM      9  O   UNL     1      10.513  46.286 154.496  1.00  0.00    -0.550 OA
ATOM     10  O   UNL     1       8.321  46.951 154.528  1.00  0.00    -0.550 OA
ENDBRANCH   7   8
ENDBRANCH   6   7
ENDBRANCH   5   6
ENDBRANCH   4   5
ENDBRANCH   3   4
ENDBRANCH   2   3
ENDBRANCH   1   2
BRANCH   1  11
ATOM     11  C   UNL     1      12.395  42.982 151.030  1.00  0.00     0.000 C 
BRANCH  11  12
ATOM     12  C   UNL     1      11.545  41.760 150.634  1.00  0.00     0.000 C 
BRANCH  12  13
ATOM     13  C   UNL     1      11.879  40.469 151.404  1.00  0.00     0.000 C 
BRANCH  13  14
ATOM     14  C   UNL     1      10.627  39.689 151.830  1.00  0.00     0.000 C 
BRANCH  14  15
ATOM     15  C   UNL     1       9.362  40.538 151.636  1.00  0.00     0.000 C 
BRANCH  15  16
ATOM     16  C   UNL     1       8.367  40.392 152.800  1.00  0.00     0.006 C 
BRANCH  16  17
ATOM     17  C   UNL     1       7.437  41.605 152.931  1.00  0.00     0.053 C 
BRANCH  17  18
ATOM     18  C   UNL     1       6.271  41.281 153.813  1.00  0.00     0.041 C 
ATOM     19  O   UNL     1       5.895  42.102 154.689  1.00  0.00    -0.550 OA
ATOM     20  O   UNL     1       5.580  40.087 153.645  1.00  0.00    -0.550 OA
ENDBRANCH  17  18
ENDBRANCH  16  17
ENDBRANCH  15  16
ENDBRANCH  14  15
ENDBRANCH  13  14
ENDBRANCH  12  13
ENDBRANCH  11  12
ENDBRANCH   1  11
TORSDOF 15
ENDMDL
MODEL 2
REMARK VINA RESULT:    -2.921      3.042      6.654
REMARK INTER + INTRA:          -7.900
REMARK INTER:                  -6.084
REMARK INTRA:                  -1.815
REMARK UNBOUND:                -2.418
REMARK SMILES O=C([O-])CCCCCCCCCCCCCCC(=O)[O-]
REMARK SMILES IDX 10 1 9 2 8 3 7 4 6 5 5 6 4 7 2 8 1 9 3 10 11 11 12 12 13 13
REMARK SMILES IDX 14 14 15 15 16 16 17 17 18 18 19 19 20 20
REMARK H PARENT
REMARK Flexibility Score: inf
ROOT
ATOM      1  C   UNL     1      10.137  42.523 155.956  1.00  0.00     0.000 C 
ENDROOT
BRANCH   1   2
ATOM      2  C   UNL     1      10.430  42.625 154.444  1.00  0.00     0.000 C 
BRANCH   2   3
ATOM      3  C   UNL     1      11.903  42.963 154.156  1.00  0.00     0.000 C 
BRANCH   3   4
ATOM      4  C   UNL     1      12.207  43.072 152.651  1.00  0.00     0.000 C 
BRANCH   4   5
ATOM      5  C   UNL     1      11.364  42.151 151.751  1.00  0.00     0.000 C 
BRANCH   5   6
ATOM      6  C   UNL     1      11.934  40.727 151.651  1.00  0.00     0.006 C 
BRANCH   6   7
ATOM      7  C   UNL     1      10.810  39.687 151.616  1.00  0.00     0.053 C 
BRANCH   7   8
ATOM      8  C   UNL     1      11.003  38.744 150.472  1.00  0.00     0.041 C 
ATOM      9  O   UNL     1      10.120  37.891 150.198  1.00  0.00    -0.550 OA
ATOM     10  O   UNL     1      12.175  38.786 149.728  1.00  0.00    -0.550 OA
ENDBRANCH   7   8
ENDBRANCH   6   7
ENDBRANCH   5   6
ENDBRANCH   4   5
ENDBRANCH   3   4
ENDBRANCH   2   3
ENDBRANCH   1   2
BRANCH   1  11
ATOM     11  C   UNL     1       8.857  43.264 156.392  1.00  0.00     0.000 C 
BRANCH  11  12
ATOM     12  C   UNL     1       8.576  44.579 155.641  1.00  0.00     0.000 C 
BRANCH  12  13
ATOM     13  C   UNL     1       8.908  45.856 156.436  1.00  0.00     0.000 C 
BRANCH  13  14
ATOM     14  C   UNL     1       9.499  46.967 155.557  1.00  0.00     0.000 C 
BRANCH  14  15
ATOM     15  C   UNL     1      10.299  46.372 154.388  1.00  0.00     0.000 C 
BRANCH  15  16
ATOM     16  C   UNL     1       9.739  46.786 153.017  1.00  0.00     0.006 C 
BRANCH  16  17
ATOM     17  C   UNL     1       9.645  45.605 152.042  1.00  0.00     0.053 C 
BRANCH  17  18
ATOM     18  C   UNL     1      10.123  46.007 150.682  1.00  0.00     0.041 C 
ATOM     19  O   UNL     1       9.428  46.775 149.968  1.00  0.00    -0.550 OA
ATOM     20  O   UNL     1      11.354  45.558 150.215  1.00  0.00    -0.550 OA
ENDBRANCH  17  18
ENDBRANCH  16  17
ENDBRANCH  15  16
ENDBRANCH  14  15
ENDBRANCH  13  14
ENDBRANCH  12  13
ENDBRANCH  11  12
ENDBRANCH   1  11
TORSDOF 15
ENDMDL
MODEL 3
REMARK VINA RESULT:    -2.905      1.817      5.996
REMARK INTER + INTRA:          -7.870
REMARK INTER:                  -6.004
REMARK INTRA:                  -1.866
REMARK UNBOUND:                -2.418
REMARK SMILES O=C([O-])CCCCCCCCCCCCCCC(=O)[O-]
REMARK SMILES IDX 10 1 9 2 8 3 7 4 6 5 5 6 4 7 2 8 1 9 3 10 11 11 12 12 13 13
REMARK SMILES IDX 14 14 15 15 16 16 17 17 18 18 19 19 20 20
REMARK H PARENT
REMARK Flexibility Score: inf
ROOT
ATOM      1  C   UNL     1      10.451  43.756 153.540  1.00  0.00     0.000 C 
ENDROOT
BRANCH   1   2
ATOM      2  C   UNL     1      11.316  44.030 152.292  1.00  0.00     0.000 C 
BRANCH   2   3
ATOM      3  C   UNL     1      12.329  42.903 152.025  1.00  0.00     0.000 C 
BRANCH   3   4
ATOM      4  C   UNL     1      12.395  42.498 150.542  1.00  0.00     0.000 C 
BRANCH   4   5
ATOM      5  C   UNL     1      12.071  41.019 150.259  1.00  0.00     0.000 C 
BRANCH   5   6
ATOM      6  C   UNL     1      11.742  40.226 151.533  1.00  0.00     0.006 C 
BRANCH   6   7
ATOM      7  C   UNL     1      10.353  39.586 151.438  1.00  0.00     0.053 C 
BRANCH   7   8
ATOM      8  C   UNL     1       9.335  40.437 152.128  1.00  0.00     0.041 C 
ATOM      9  O   UNL     1       8.984  40.174 153.307  1.00  0.00    -0.550 OA
ATOM     10  O   UNL     1       8.748  41.500 151.454  1.00  0.00    -0.550 OA
ENDBRANCH   7   8
ENDBRANCH   6   7
ENDBRANCH   5   6
ENDBRANCH   4   5
ENDBRANCH   3   4
ENDBRANCH   2   3
ENDBRANCH   1   2
BRANCH   1  11
ATOM     11  C   UNL     1      11.062  42.719 154.504  1.00  0.00     0.000 C 
BRANCH  11  12
ATOM     12  C   UNL     1      10.210  42.402 155.747  1.00  0.00     0.000 C 
BRANCH  12  13
ATOM     13  C   UNL     1       8.747  42.877 155.663  1.00  0.00     0.000 C 
BRANCH  13  14
ATOM     14  C   UNL     1       8.246  43.499 156.974  1.00  0.00     0.000 C 
BRANCH  14  15
ATOM     15  C   UNL     1       8.756  44.940 157.125  1.00  0.00     0.000 C 
BRANCH  15  16
ATOM     16  C   UNL     1       8.449  45.808 155.892  1.00  0.00     0.006 C 
BRANCH  16  17
ATOM     17  C   UNL     1       8.722  47.297 156.141  1.00  0.00     0.053 C 
BRANCH  17  18
ATOM     18  C   UNL     1       9.729  47.818 155.164  1.00  0.00     0.041 C 
ATOM     19  O   UNL     1      10.502  47.023 154.569  1.00  0.00    -0.550 OA
ATOM     20  O   UNL     1       9.792  49.178 154.886  1.00  0.00    -0.550 OA
ENDBRANCH  17  18
ENDBRANCH  16  17
ENDBRANCH  15  16
ENDBRANCH  14  15
ENDBRANCH  13  14
ENDBRANCH  12  13
ENDBRANCH  11  12
ENDBRANCH   1  11
TORSDOF 15
ENDMDL
MODEL 4
REMARK VINA RESULT:    -2.900      1.037      4.923
REMARK INTER + INTRA:          -7.861
REMARK INTER:                  -5.698
REMARK INTRA:                  -2.163
REMARK UNBOUND:                -2.418
REMARK SMILES O=C([O-])CCCCCCCCCCCCCCC(=O)[O-]
REMARK SMILES IDX 10 1 9 2 8 3 7 4 6 5 5 6 4 7 2 8 1 9 3 10 11 11 12 12 13 13
REMARK SMILES IDX 14 14 15 15 16 16 17 17 18 18 19 19 20 20
REMARK H PARENT
REMARK Flexibility Score: inf
ROOT
ATOM      1  C   UNL     1      11.881  43.529 151.695  1.00  0.00     0.000 C 
ENDROOT
BRANCH   1   2
ATOM      2  C   UNL     1      12.505  42.722 150.536  1.00  0.00     0.000 C 
BRANCH   2   3
ATOM      3  C   UNL     1      11.718  41.436 150.231  1.00  0.00     0.000 C 
BRANCH   3   4
ATOM      4  C   UNL     1      11.986  40.315 151.251  1.00  0.00     0.000 C 
BRANCH   4   5
ATOM      5  C   UNL     1      10.723  39.668 151.850  1.00  0.00     0.000 C 
BRANCH   5   6
ATOM      6  C   UNL     1       9.436  40.428 151.493  1.00  0.00     0.006 C 
BRANCH   6   7
ATOM      7  C   UNL     1       8.409  40.329 152.625  1.00  0.00     0.053 C 
BRANCH   7   8
ATOM      8  C   UNL     1       7.602  41.585 152.712  1.00  0.00     0.041 C 
ATOM      9  O   UNL     1       6.551  41.616 153.404  1.00  0.00    -0.550 OA
ATOM     10  O   UNL     1       7.992  42.712 151.999  1.00  0.00    -0.550 OA
ENDBRANCH   7   8
ENDBRANCH   6   7
ENDBRANCH   5   6
ENDBRANCH   4   5
ENDBRANCH   3   4
ENDBRANCH   2   3
ENDBRANCH   1   2
BRANCH   1  11
ATOM     11  C   UNL     1      12.818  43.699 152.908  1.00  0.00     0.000 C 
BRANCH  11  12
ATOM     12  C   UNL     1      12.373  42.960 154.184  1.00  0.00     0.000 C 
BRANCH  12  13
ATOM     13  C   UNL     1      10.890  42.544 154.202  1.00  0.00     0.000 C 
BRANCH  13  14
ATOM     14  C   UNL     1      10.325  42.413 155.624  1.00  0.00     0.000 C 
BRANCH  14  15
ATOM     15  C   UNL     1       9.055  43.260 155.787  1.00  0.00     0.000 C 
BRANCH  15  16
ATOM     16  C   UNL     1       9.002  44.443 154.806  1.00  0.00     0.006 C 
BRANCH  16  17
ATOM     17  C   UNL     1       9.350  45.778 155.478  1.00  0.00     0.053 C 
BRANCH  17  18
ATOM     18  C   UNL     1       9.233  46.905 154.500  1.00  0.00     0.041 C 
ATOM     19  O   UNL     1      10.204  47.685 154.316  1.00  0.00    -0.550 OA
ATOM     20  O   UNL     1       8.064  47.076 153.769  1.00  0.00    -0.550 OA
ENDBRANCH  17  18
ENDBRANCH  16  17
ENDBRANCH  15  16
ENDBRANCH  14  15
ENDBRANCH  13  14
ENDBRANCH  12  13
ENDBRANCH  11  12
ENDBRANCH   1  11
TORSDOF 15
ENDMDL
MODEL 5
REMARK VINA RESULT:    -2.874      2.936      6.455
REMARK INTER + INTRA:          -7.812
REMARK INTER:                  -5.846
REMARK INTRA:                  -1.966
REMARK UNBOUND:                -2.418
REMARK SMILES O=C([O-])CCCCCCCCCCCCCCC(=O)[O-]
REMARK SMILES IDX 10 1 9 2 8 3 7 4 6 5 5 6 4 7 2 8 1 9 3 10 11 11 12 12 13 13
REMARK SMILES IDX 14 14 15 15 16 16 17 17 18 18 19 19 20 20
REMARK H PARENT
REMARK Flexibility Score: inf
ROOT
ATOM      1  C   UNL     1      10.718  39.814 151.745  1.00  0.00     0.000 C 
ENDROOT
BRANCH   1   2
ATOM      2  C   UNL     1       9.755  40.143 152.905  1.00  0.00     0.000 C 
BRANCH   2   3
ATOM      3  C   UNL     1       8.289  40.219 152.444  1.00  0.00     0.000 C 
BRANCH   3   4
ATOM      4  C   UNL     1       8.151  40.566 150.951  1.00  0.00     0.000 C 
BRANCH   4   5
ATOM      5  C   UNL     1       7.294  39.581 150.134  1.00  0.00     0.000 C 
BRANCH   5   6
ATOM      6  C   UNL     1       8.104  38.829 149.066  1.00  0.00     0.006 C 
BRANCH   6   7
ATOM      7  C   UNL     1       8.683  37.529 149.632  1.00  0.00     0.053 C 
BRANCH   7   8
ATOM      8  C   UNL     1       7.931  36.348 149.107  1.00  0.00     0.041 C 
ATOM      9  O   UNL     1       7.076  36.495 148.196  1.00  0.00    -0.550 OA
ATOM     10  O   UNL     1       8.150  35.088 149.650  1.00  0.00    -0.550 OA
ENDBRANCH   7   8
ENDBRANCH   6   7
ENDBRANCH   5   6
ENDBRANCH   4   5
ENDBRANCH   3   4
ENDBRANCH   2   3
ENDBRANCH   1   2
BRANCH   1  11
ATOM     11  C   UNL     1      11.993  40.682 151.731  1.00  0.00     0.000 C 
BRANCH  11  12
ATOM     12  C   UNL     1      11.817  42.090 151.132  1.00  0.00     0.000 C 
BRANCH  12  13
ATOM     13  C   UNL     1      12.052  43.244 152.123  1.00  0.00     0.000 C 
BRANCH  13  14
ATOM     14  C   UNL     1      12.343  42.754 153.549  1.00  0.00     0.000 C 
BRANCH  14  15
ATOM     15  C   UNL     1      11.143  43.014 154.472  1.00  0.00     0.000 C 
BRANCH  15  16
ATOM     16  C   UNL     1      10.227  44.134 153.950  1.00  0.00     0.006 C 
BRANCH  16  17
ATOM     17  C   UNL     1       8.783  43.659 153.739  1.00  0.00     0.053 C 
BRANCH  17  18
ATOM     18  C   UNL     1       8.053  43.597 155.044  1.00  0.00     0.041 C 
ATOM     19  O   UNL     1       7.177  42.714 155.237  1.00  0.00    -0.550 OA
ATOM     20  O   UNL     1       8.363  44.494 156.060  1.00  0.00    -0.550 OA
ENDBRANCH  17  18
ENDBRANCH  16  17
ENDBRANCH  15  16
ENDBRANCH  14  15
ENDBRANCH  13  14
ENDBRANCH  12  13
ENDBRANCH  11  12
ENDBRANCH   1  11
TORSDOF 15
ENDMDL
MODEL 6
REMARK VINA RESULT:    -2.835     13.719     15.525
REMARK INTER + INTRA:          -7.740
REMARK INTER:                  -5.730
REMARK INTRA:                  -2.009
REMARK UNBOUND:                -2.418
REMARK SMILES O=C([O-])CCCCCCCCCCCCCCC(=O)[O-]
REMARK SMILES IDX 10 1 9 2 8 3 7 4 6 5 5 6 4 7 2 8 1 9 3 10 11 11 12 12 13 13
REMARK SMILES IDX 14 14 15 15 16 16 17 17 18 18 19 19 20 20
REMARK H PARENT
REMARK Flexibility Score: inf
ROOT
ATOM      1  C   UNL     1      12.025  37.489 141.178  1.00  0.00     0.000 C 
ENDROOT
BRANCH   1   2
ATOM      2  C   UNL     1      13.119  36.412 141.021  1.00  0.00     0.000 C 
BRANCH   2   3
ATOM      3  C   UNL     1      12.842  35.466 139.839  1.00  0.00     0.000 C 
BRANCH   3   4
ATOM      4  C   UNL     1      11.405  34.916 139.838  1.00  0.00     0.000 C 
BRANCH   4   5
ATOM      5  C   UNL     1      10.556  35.324 138.620  1.00  0.00     0.000 C 
BRANCH   5   6
ATOM      6  C   UNL     1       9.122  35.729 138.999  1.00  0.00     0.006 C 
BRANCH   6   7
ATOM      7  C   UNL     1       8.933  35.715 140.519  1.00  0.00     0.053 C 
BRANCH   7   8
ATOM      8  C   UNL     1       7.483  35.599 140.866  1.00  0.00     0.041 C 
ATOM      9  O   UNL     1       7.134  35.297 142.036  1.00  0.00    -0.550 OA
ATOM     10  O   UNL     1       6.518  35.790 139.886  1.00  0.00    -0.550 OA
ENDBRANCH   7   8
ENDBRANCH   6   7
ENDBRANCH   5   6
ENDBRANCH   4   5
ENDBRANCH   3   4
ENDBRANCH   2   3
ENDBRANCH   1   2
BRANCH   1  11
ATOM     11  C   UNL     1      12.526  38.925 140.921  1.00  0.00     0.000 C 
BRANCH  11  12
ATOM     12  C   UNL     1      12.275  39.459 139.498  1.00  0.00     0.000 C 
BRANCH  12  13
ATOM     13  C   UNL     1      11.176  38.715 138.717  1.00  0.00     0.000 C 
BRANCH  13  14
ATOM     14  C   UNL     1      10.094  39.656 138.168  1.00  0.00     0.000 C 
BRANCH  14  15
ATOM     15  C   UNL     1       9.119  40.073 139.279  1.00  0.00     0.000 C 
BRANCH  15  16
ATOM     16  C   UNL     1       7.803  39.278 139.241  1.00  0.00     0.006 C 
BRANCH  16  17
ATOM     17  C   UNL     1       6.710  39.991 138.435  1.00  0.00     0.053 C 
BRANCH  17  18
ATOM     18  C   UNL     1       5.984  39.019 137.558  1.00  0.00     0.041 C 
ATOM     19  O   UNL     1       4.741  39.124 137.392  1.00  0.00    -0.550 OA
ATOM     20  O   UNL     1       6.685  38.017 136.898  1.00  0.00    -0.550 OA
ENDBRANCH  17  18
ENDBRANCH  16  17
ENDBRANCH  15  16
ENDBRANCH  14  15
ENDBRANCH  13  14
ENDBRANCH  12  13
ENDBRANCH  11  12
ENDBRANCH   1  11
TORSDOF 15
ENDMDL
MODEL 7
REMARK VINA RESULT:    -2.832     14.098     15.580
REMARK INTER + INTRA:          -7.733
REMARK INTER:                  -5.427
REMARK INTRA:                  -2.305
REMARK UNBOUND:                -2.418
REMARK SMILES O=C([O-])CCCCCCCCCCCCCCC(=O)[O-]
REMARK SMILES IDX 10 1 9 2 8 3 7 4 6 5 5 6 4 7 2 8 1 9 3 10 11 11 12 12 13 13
REMARK SMILES IDX 14 14 15 15 16 16 17 17 18 18 19 19 20 20
REMARK H PARENT
REMARK Flexibility Score: inf
ROOT
ATOM      1  C   UNL     1       8.989  35.701 141.036  1.00  0.00     0.000 C 
ENDROOT
BRANCH   1   2
ATOM      2  C   UNL     1       7.905  35.172 140.073  1.00  0.00     0.000 C 
BRANCH   2   3
ATOM      3  C   UNL     1       7.032  36.302 139.500  1.00  0.00     0.000 C 
BRANCH   3   4
ATOM      4  C   UNL     1       7.370  36.634 138.036  1.00  0.00     0.000 C 
BRANCH   4   5
ATOM      5  C   UNL     1       6.696  37.905 137.487  1.00  0.00     0.000 C 
BRANCH   5   6
ATOM      6  C   UNL     1       6.032  38.751 138.586  1.00  0.00     0.006 C 
BRANCH   6   7
ATOM      7  C   UNL     1       6.496  40.209 138.510  1.00  0.00     0.053 C 
BRANCH   7   8
ATOM      8  C   UNL     1       6.670  40.775 139.883  1.00  0.00     0.041 C 
ATOM      9  O   UNL     1       7.236  40.099 140.781  1.00  0.00    -0.550 OA
ATOM     10  O   UNL     1       6.176  42.039 140.181  1.00  0.00    -0.550 OA
ENDBRANCH   7   8
ENDBRANCH   6   7
ENDBRANCH   5   6
ENDBRANCH   4   5
ENDBRANCH   3   4
ENDBRANCH   2   3
ENDBRANCH   1   2
BRANCH   1  11
ATOM     11  C   UNL     1      10.424  35.305 140.633  1.00  0.00     0.000 C 
BRANCH  11  12
ATOM     12  C   UNL     1      10.628  35.031 139.131  1.00  0.00     0.000 C 
BRANCH  12  13
ATOM     13  C   UNL     1      11.252  36.198 138.344  1.00  0.00     0.000 C 
BRANCH  13  14
ATOM     14  C   UNL     1      12.282  36.986 139.165  1.00  0.00     0.000 C 
BRANCH  14  15
ATOM     15  C   UNL     1      11.985  38.493 139.114  1.00  0.00     0.000 C 
BRANCH  15  16
ATOM     16  C   UNL     1      10.479  38.801 139.163  1.00  0.00     0.006 C 
BRANCH  16  17
ATOM     17  C   UNL     1      10.046  39.785 138.069  1.00  0.00     0.053 C 
BRANCH  17  18
ATOM     18  C   UNL     1      10.266  41.197 138.514  1.00  0.00     0.041 C 
ATOM     19  O   UNL     1      10.541  42.089 137.670  1.00  0.00    -0.550 OA
ATOM     20  O   UNL     1      10.134  41.534 139.856  1.00  0.00    -0.550 OA
ENDBRANCH  17  18
ENDBRANCH  16  17
ENDBRANCH  15  16
ENDBRANCH  14  15
ENDBRANCH  13  14
ENDBRANCH  12  13
ENDBRANCH  11  12
ENDBRANCH   1  11
TORSDOF 15
ENDMDL
MODEL 8
REMARK VINA RESULT:    -2.831      1.565      3.078
REMARK INTER + INTRA:          -7.731
REMARK INTER:                  -5.598
REMARK INTRA:                  -2.133
REMARK UNBOUND:                -2.418
REMARK SMILES O=C([O-])CCCCCCCCCCCCCCC(=O)[O-]
REMARK SMILES IDX 10 1 9 2 8 3 7 4 6 5 5 6 4 7 2 8 1 9 3 10 11 11 12 12 13 13
REMARK SMILES IDX 14 14 15 15 16 16 17 17 18 18 19 19 20 20
REMARK H PARENT
REMARK Flexibility Score: inf
ROOT
ATOM      1  C   UNL     1      11.999  40.496 151.464  1.00  0.00     0.000 C 
ENDROOT
BRANCH   1   2
ATOM      2  C   UNL     1      12.006  41.487 150.280  1.00  0.00     0.000 C 
BRANCH   2   3
ATOM      3  C   UNL     1      12.112  42.950 150.743  1.00  0.00     0.000 C 
BRANCH   3   4
ATOM      4  C   UNL     1      11.275  43.241 152.001  1.00  0.00     0.000 C 
BRANCH   4   5
ATOM      5  C   UNL     1      12.081  43.739 153.215  1.00  0.00     0.000 C 
BRANCH   5   6
ATOM      6  C   UNL     1      11.945  42.820 154.440  1.00  0.00     0.006 C 
BRANCH   6   7
ATOM      7  C   UNL     1      10.539  42.218 154.520  1.00  0.00     0.053 C 
BRANCH   7   8
ATOM      8  C   UNL     1       9.765  42.843 155.637  1.00  0.00     0.041 C 
ATOM      9  O   UNL     1       8.959  43.780 155.402  1.00  0.00    -0.550 OA
ATOM     10  O   UNL     1       9.960  42.412 156.943  1.00  0.00    -0.550 OA
ENDBRANCH   7   8
ENDBRANCH   6   7
ENDBRANCH   5   6
ENDBRANCH   4   5
ENDBRANCH   3   4
ENDBRANCH   2   3
ENDBRANCH   1   2
BRANCH   1  11
ATOM     11  C   UNL     1      10.950  39.374 151.327  1.00  0.00     0.000 C 
BRANCH  11  12
ATOM     12  C   UNL     1       9.898  39.594 150.225  1.00  0.00     0.000 C 
BRANCH  12  13
ATOM     13  C   UNL     1       8.439  39.594 150.720  1.00  0.00     0.000 C 
BRANCH  13  14
ATOM     14  C   UNL     1       8.280  40.246 152.101  1.00  0.00     0.000 C 
BRANCH  14  15
ATOM     15  C   UNL     1       7.929  41.735 151.966  1.00  0.00     0.000 C 
BRANCH  15  16
ATOM     16  C   UNL     1       6.551  42.074 152.559  1.00  0.00     0.006 C 
BRANCH  16  17
ATOM     17  C   UNL     1       6.432  41.668 154.034  1.00  0.00     0.053 C 
BRANCH  17  18
ATOM     18  C   UNL     1       5.268  40.749 154.234  1.00  0.00     0.041 C 
ATOM     19  O   UNL     1       4.586  40.814 155.290  1.00  0.00    -0.550 OA
ATOM     20  O   UNL     1       4.916  39.842 153.241  1.00  0.00    -0.550 OA
ENDBRANCH  17  18
ENDBRANCH  16  17
ENDBRANCH  15  16
ENDBRANCH  14  15
ENDBRANCH  13  14
ENDBRANCH  12  13
ENDBRANCH  11  12
ENDBRANCH   1  11
TORSDOF 15
ENDMDL
MODEL 9
REMARK VINA RESULT:    -2.830      2.590      5.157
REMARK INTER + INTRA:          -7.730
REMARK INTER:                  -5.194
REMARK INTRA:                  -2.536
REMARK UNBOUND:                -2.418
REMARK SMILES O=C([O-])CCCCCCCCCCCCCCC(=O)[O-]
REMARK SMILES IDX 10 1 9 2 8 3 7 4 6 5 5 6 4 7 2 8 1 9 3 10 11 11 12 12 13 13
REMARK SMILES IDX 14 14 15 15 16 16 17 17 18 18 19 19 20 20
REMARK H PARENT
REMARK Flexibility Score: inf
ROOT
ATOM      1  C   UNL     1      10.621  38.443 149.823  1.00  0.00     0.000 C 
ENDROOT
BRANCH   1   2
ATOM      2  C   UNL     1      11.085  39.733 149.114  1.00  0.00     0.000 C 
BRANCH   2   3
ATOM      3  C   UNL     1      11.980  40.604 150.012  1.00  0.00     0.000 C 
BRANCH   3   4
ATOM      4  C   UNL     1      12.041  40.099 151.464  1.00  0.00     0.000 C 
BRANCH   4   5
ATOM      5  C   UNL     1      11.277  40.964 152.484  1.00  0.00     0.000 C 
BRANCH   5   6
ATOM      6  C   UNL     1      11.879  42.369 152.644  1.00  0.00     0.006 C 
BRANCH   6   7
ATOM      7  C   UNL     1      11.978  42.758 154.123  1.00  0.00     0.053 C 
BRANCH   7   8
ATOM      8  C   UNL     1      10.615  42.892 154.722  1.00  0.00     0.041 C 
ATOM      9  O   UNL     1      10.343  42.326 155.812  1.00  0.00    -0.550 OA
ATOM     10  O   UNL     1       9.632  43.614 154.056  1.00  0.00    -0.550 OA
ENDBRANCH   7   8
ENDBRANCH   6   7
ENDBRANCH   5   6
ENDBRANCH   4   5
ENDBRANCH   3   4
ENDBRANCH   2   3
ENDBRANCH   1   2
BRANCH   1  11
ATOM     11  C   UNL     1       9.092  38.346 149.999  1.00  0.00     0.000 C 
BRANCH  11  12
ATOM     12  C   UNL     1       8.342  39.690 149.939  1.00  0.00     0.000 C 
BRANCH  12  13
ATOM     13  C   UNL     1       7.810  40.189 151.295  1.00  0.00     0.000 C 
BRANCH  13  14
ATOM     14  C   UNL     1       7.946  41.710 151.465  1.00  0.00     0.000 C 
BRANCH  14  15
ATOM     15  C   UNL     1       8.563  42.346 150.210  1.00  0.00     0.000 C 
BRANCH  15  16
ATOM     16  C   UNL     1       9.381  43.608 150.528  1.00  0.00     0.006 C 
BRANCH  16  17
ATOM     17  C   UNL     1      10.442  43.904 149.459  1.00  0.00     0.053 C 
BRANCH  17  18
ATOM     18  C   UNL     1      11.376  44.976 149.926  1.00  0.00     0.041 C 
ATOM     19  O   UNL     1      10.942  46.134 150.160  1.00  0.00    -0.550 OA
ATOM     20  O   UNL     1      12.719  44.688 150.136  1.00  0.00    -0.550 OA
ENDBRANCH  17  18
ENDBRANCH  16  17
ENDBRANCH  15  16
ENDBRANCH  14  15
ENDBRANCH  13  14
ENDBRANCH  12  13
ENDBRANCH  11  12
ENDBRANCH   1  11
TORSDOF 15
ENDMDL
