MODEL 1
REMARK VINA RESULT:    -4.729      0.000      0.000
REMARK INTER + INTRA:         -10.300
REMARK INTER:                  -8.322
REMARK INTRA:                  -1.978
REMARK UNBOUND:                -1.978
REMARK SMILES CCCCCCCCCCCCCCC(=O)[O-]
REMARK SMILES IDX 9 1 10 2 11 3 12 4 13 5 14 6 15 7 16 8 17 9 8 10 7 11 6 12
REMARK SMILES IDX 5 13 4 14 3 15 2 16 1 17
REMARK H PARENT
REMARK Flexibility Score: inf
ROOT
ATOM      1  C   UNL     1      -3.194  10.285  -8.639  1.00  0.00     0.000 C 
ENDROOT
BRANCH   1   2
ATOM      2  C   UNL     1      -2.584  11.549  -9.272  1.00  0.00     0.000 C 
BRANCH   2   3
ATOM      3  C   UNL     1      -1.946  12.481  -8.229  1.00  0.00     0.000 C 
BRANCH   3   4
ATOM      4  C   UNL     1      -0.991  11.742  -7.275  1.00  0.00     0.000 C 
BRANCH   4   5
ATOM      5  C   UNL     1       0.452  11.694  -7.803  1.00  0.00     0.006 C 
BRANCH   5   6
ATOM      6  C   UNL     1       0.974  10.261  -7.964  1.00  0.00     0.053 C 
BRANCH   6   7
ATOM      7  C   UNL     1       2.454  10.266  -8.175  1.00  0.00     0.041 C 
ATOM      8  O   UNL     1       2.948   9.778  -9.225  1.00  0.00    -0.550 OA
ATOM      9  O   UNL     1       3.295  10.765  -7.187  1.00  0.00    -0.550 OA
ENDBRANCH   6   7
ENDBRANCH   5   6
ENDBRANCH   4   5
ENDBRANCH   3   4
ENDBRANCH   2   3
ENDBRANCH   1   2
BRANCH   1  10
ATOM     10  C   UNL     1      -4.312   9.676  -9.502  1.00  0.00     0.000 C 
BRANCH  10  11
ATOM     11  C   UNL     1      -4.892  10.684 -10.509  1.00  0.00    -0.000 C 
BRANCH  11  12
ATOM     12  C   UNL     1      -6.388  10.956 -10.278  1.00  0.00    -0.000 C 
BRANCH  12  13
ATOM     13  C   UNL     1      -6.676  11.551  -8.891  1.00  0.00    -0.000 C 
BRANCH  13  14
ATOM     14  C   UNL     1      -6.013  12.925  -8.734  1.00  0.00    -0.000 C 
BRANCH  14  15
ATOM     15  C   UNL     1      -5.589  13.168  -7.277  1.00  0.00    -0.000 C 
BRANCH  15  16
ATOM     16  C   UNL     1      -5.607  11.884  -6.436  1.00  0.00    -0.003 C 
ATOM     17  C   UNL     1      -4.416  11.783  -5.482  1.00  0.00     0.004 C 
ENDBRANCH  15  16
ENDBRANCH  14  15
ENDBRANCH  13  14
ENDBRANCH  12  13
ENDBRANCH  11  12
ENDBRANCH  10  11
ENDBRANCH   1  10
TORSDOF 13
ENDMDL
MODEL 2
REMARK VINA RESULT:    -4.699      1.284      3.213
REMARK INTER + INTRA:         -10.249
REMARK INTER:                  -8.841
REMARK INTRA:                  -1.408
REMARK UNBOUND:                -1.978
REMARK SMILES CCCCCCCCCCCCCCC(=O)[O-]
REMARK SMILES IDX 9 1 10 2 11 3 12 4 13 5 14 6 15 7 16 8 17 9 8 10 7 11 6 12
REMARK SMILES IDX 5 13 4 14 3 15 2 16 1 17
REMARK H PARENT
REMARK Flexibility Score: inf
ROOT
ATOM      1  C   UNL     1      -3.223  12.723  -6.948  1.00  0.00     0.000 C 
ENDROOT
BRANCH   1   2
ATOM      2  C   UNL     1      -2.956  11.217  -7.112  1.00  0.00     0.000 C 
BRANCH   2   3
ATOM      3  C   UNL     1      -1.737  10.928  -8.003  1.00  0.00     0.000 C 
BRANCH   3   4
ATOM      4  C   UNL     1      -0.807  12.145  -8.153  1.00  0.00     0.000 C 
BRANCH   4   5
ATOM      5  C   UNL     1       0.655  11.817  -7.814  1.00  0.00     0.006 C 
BRANCH   5   6
ATOM      6  C   UNL     1       0.962  10.317  -7.913  1.00  0.00     0.053 C 
BRANCH   6   7
ATOM      7  C   UNL     1       2.420  10.098  -8.164  1.00  0.00     0.041 C 
ATOM      8  O   UNL     1       3.271  10.444  -7.303  1.00  0.00    -0.550 OA
ATOM      9  O   UNL     1       2.844   9.557  -9.371  1.00  0.00    -0.550 OA
ENDBRANCH   6   7
ENDBRANCH   5   6
ENDBRANCH   4   5
ENDBRANCH   3   4
ENDBRANCH   2   3
ENDBRANCH   1   2
BRANCH   1  10
ATOM     10  C   UNL     1      -4.644  13.120  -7.380  1.00  0.00     0.000 C 
BRANCH  10  11
ATOM     11  C   UNL     1      -4.923  12.793  -8.858  1.00  0.00    -0.000 C 
BRANCH  11  12
ATOM     12  C   UNL     1      -6.168  11.910  -9.043  1.00  0.00    -0.000 C 
BRANCH  12  13
ATOM     13  C   UNL     1      -6.038  10.941 -10.228  1.00  0.00    -0.000 C 
BRANCH  13  14
ATOM     14  C   UNL     1      -4.580  10.504 -10.423  1.00  0.00    -0.000 C 
BRANCH  14  15
ATOM     15  C   UNL     1      -4.366   9.065  -9.930  1.00  0.00    -0.000 C 
BRANCH  15  16
ATOM     16  C   UNL     1      -5.589   8.170 -10.174  1.00  0.00    -0.003 C 
ATOM     17  C   UNL     1      -5.266   6.944 -11.029  1.00  0.00     0.004 C 
ENDBRANCH  15  16
ENDBRANCH  14  15
ENDBRANCH  13  14
ENDBRANCH  12  13
ENDBRANCH  11  12
ENDBRANCH  10  11
ENDBRANCH   1  10
TORSDOF 13
ENDMDL
MODEL 3
REMARK VINA RESULT:    -4.649      1.663      3.044
REMARK INTER + INTRA:         -10.160
REMARK INTER:                  -8.814
REMARK INTRA:                  -1.346
REMARK UNBOUND:                -1.978
REMARK SMILES CCCCCCCCCCCCCCC(=O)[O-]
REMARK SMILES IDX 9 1 10 2 11 3 12 4 13 5 14 6 15 7 16 8 17 9 8 10 7 11 6 12
REMARK SMILES IDX 5 13 4 14 3 15 2 16 1 17
REMARK H PARENT
REMARK Flexibility Score: inf
ROOT
ATOM      1  C   UNL     1      -3.620  10.284  -9.947  1.00  0.00     0.000 C 
ENDROOT
BRANCH   1   2
ATOM      2  C   UNL     1      -3.036  11.375  -9.034  1.00  0.00     0.000 C 
BRANCH   2   3
ATOM      3  C   UNL     1      -1.706  10.955  -8.389  1.00  0.00     0.000 C 
BRANCH   3   4
ATOM      4  C   UNL     1      -0.802  12.155  -8.054  1.00  0.00     0.000 C 
BRANCH   4   5
ATOM      5  C   UNL     1       0.581  11.727  -7.537  1.00  0.00     0.006 C 
BRANCH   5   6
ATOM      6  C   UNL     1       0.968  10.314  -7.991  1.00  0.00     0.053 C 
BRANCH   6   7
ATOM      7  C   UNL     1       2.448  10.217  -8.190  1.00  0.00     0.041 C 
ATOM      8  O   UNL     1       2.915   9.657  -9.216  1.00  0.00    -0.550 OA
ATOM      9  O   UNL     1       3.313  10.702  -7.217  1.00  0.00    -0.550 OA
ENDBRANCH   6   7
ENDBRANCH   5   6
ENDBRANCH   4   5
ENDBRANCH   3   4
ENDBRANCH   2   3
ENDBRANCH   1   2
BRANCH   1  10
ATOM     10  C   UNL     1      -4.845  10.771 -10.740  1.00  0.00     0.000 C 
BRANCH  10  11
ATOM     11  C   UNL     1      -5.889  11.461  -9.843  1.00  0.00    -0.000 C 
BRANCH  11  12
ATOM     12  C   UNL     1      -6.993  10.498  -9.374  1.00  0.00    -0.000 C 
BRANCH  12  13
ATOM     13  C   UNL     1      -6.798  10.032  -7.923  1.00  0.00    -0.000 C 
BRANCH  13  14
ATOM     14  C   UNL     1      -6.558   8.519  -7.859  1.00  0.00    -0.000 C 
BRANCH  14  15
ATOM     15  C   UNL     1      -6.748   7.873  -9.241  1.00  0.00    -0.000 C 
BRANCH  15  16
ATOM     16  C   UNL     1      -5.588   6.941  -9.620  1.00  0.00    -0.003 C 
ATOM     17  C   UNL     1      -5.168   7.083 -11.083  1.00  0.00     0.004 C 
ENDBRANCH  15  16
ENDBRANCH  14  15
ENDBRANCH  13  14
ENDBRANCH  12  13
ENDBRANCH  11  12
ENDBRANCH  10  11
ENDBRANCH   1  10
TORSDOF 13
ENDMDL
MODEL 4
REMARK VINA RESULT:    -4.388      3.720      7.044
REMARK INTER + INTRA:          -9.700
REMARK INTER:                  -8.706
REMARK INTRA:                  -0.994
REMARK UNBOUND:                -1.978
REMARK SMILES CCCCCCCCCCCCCCC(=O)[O-]
REMARK SMILES IDX 9 1 10 2 11 3 12 4 13 5 14 6 15 7 16 8 17 9 8 10 7 11 6 12
REMARK SMILES IDX 5 13 4 14 3 15 2 16 1 17
REMARK H PARENT
REMARK Flexibility Score: inf
ROOT
ATOM      1  C   UNL     1      -2.917  11.104  -9.394  1.00  0.00     0.000 C 
ENDROOT
BRANCH   1   2
ATOM      2  C   UNL     1      -3.949  10.551 -10.393  1.00  0.00     0.000 C 
BRANCH   2   3
ATOM      3  C   UNL     1      -5.369  11.074 -10.124  1.00  0.00     0.000 C 
BRANCH   3   4
ATOM      4  C   UNL     1      -6.424   9.954 -10.111  1.00  0.00     0.000 C 
BRANCH   4   5
ATOM      5  C   UNL     1      -5.899   8.654  -9.482  1.00  0.00     0.006 C 
BRANCH   5   6
ATOM      6  C   UNL     1      -6.817   7.455  -9.752  1.00  0.00     0.053 C 
BRANCH   6   7
ATOM      7  C   UNL     1      -6.166   6.503 -10.704  1.00  0.00     0.041 C 
ATOM      8  O   UNL     1      -5.221   6.890 -11.442  1.00  0.00    -0.550 OA
ATOM      9  O   UNL     1      -6.634   5.200 -10.814  1.00  0.00    -0.550 OA
ENDBRANCH   6   7
ENDBRANCH   5   6
ENDBRANCH   4   5
ENDBRANCH   3   4
ENDBRANCH   2   3
ENDBRANCH   1   2
BRANCH   1  10
ATOM     10  C   UNL     1      -3.429  12.345  -8.644  1.00  0.00     0.000 C 
BRANCH  10  11
ATOM     11  C   UNL     1      -2.635  12.622  -7.355  1.00  0.00    -0.000 C 
BRANCH  11  12
ATOM     12  C   UNL     1      -1.850  11.393  -6.869  1.00  0.00    -0.000 C 
BRANCH  12  13
ATOM     13  C   UNL     1      -0.466  11.756  -6.308  1.00  0.00    -0.000 C 
BRANCH  13  14
ATOM     14  C   UNL     1       0.571  11.868  -7.433  1.00  0.00    -0.000 C 
BRANCH  14  15
ATOM     15  C   UNL     1       0.788  10.510  -8.117  1.00  0.00    -0.000 C 
BRANCH  15  16
ATOM     16  C   UNL     1       2.169   9.910  -7.812  1.00  0.00    -0.003 C 
ATOM     17  C   UNL     1       3.000   9.665  -9.071  1.00  0.00     0.004 C 
ENDBRANCH  15  16
ENDBRANCH  14  15
ENDBRANCH  13  14
ENDBRANCH  12  13
ENDBRANCH  11  12
ENDBRANCH  10  11
ENDBRANCH   1  10
TORSDOF 13
ENDMDL
MODEL 5
REMARK VINA RESULT:    -4.367      3.408      6.761
REMARK INTER + INTRA:          -9.664
REMARK INTER:                  -8.427
REMARK INTRA:                  -1.237
REMARK UNBOUND:                -1.978
REMARK SMILES CCCCCCCCCCCCCCC(=O)[O-]
REMARK SMILES IDX 9 1 10 2 11 3 12 4 13 5 14 6 15 7 16 8 17 9 8 10 7 11 6 12
REMARK SMILES IDX 5 13 4 14 3 15 2 16 1 17
REMARK H PARENT
REMARK Flexibility Score: inf
ROOT
ATOM      1  C   UNL     1      -4.476  12.626  -7.266  1.00  0.00     0.000 C 
ENDROOT
BRANCH   1   2
ATOM      2  C   UNL     1      -5.397  12.794  -8.487  1.00  0.00     0.000 C 
BRANCH   2   3
ATOM      3  C   UNL     1      -6.113  11.489  -8.870  1.00  0.00     0.000 C 
BRANCH   3   4
ATOM      4  C   UNL     1      -5.969  11.147 -10.364  1.00  0.00     0.000 C 
BRANCH   4   5
ATOM      5  C   UNL     1      -4.782  10.214 -10.645  1.00  0.00     0.006 C 
BRANCH   5   6
ATOM      6  C   UNL     1      -4.779   8.973  -9.742  1.00  0.00     0.053 C 
BRANCH   6   7
ATOM      7  C   UNL     1      -5.631   7.896 -10.335  1.00  0.00     0.041 C 
ATOM      8  O   UNL     1      -6.789   7.683  -9.888  1.00  0.00    -0.550 OA
ATOM      9  O   UNL     1      -5.127   7.090 -11.349  1.00  0.00    -0.550 OA
ENDBRANCH   6   7
ENDBRANCH   5   6
ENDBRANCH   4   5
ENDBRANCH   3   4
ENDBRANCH   2   3
ENDBRANCH   1   2
BRANCH   1  10
ATOM     10  C   UNL     1      -3.290  11.688  -7.547  1.00  0.00     0.000 C 
BRANCH  10  11
ATOM     11  C   UNL     1      -2.329  12.255  -8.607  1.00  0.00    -0.000 C 
BRANCH  11  12
ATOM     12  C   UNL     1      -0.852  12.086  -8.216  1.00  0.00    -0.000 C 
BRANCH  12  13
ATOM     13  C   UNL     1      -0.667  11.253  -6.938  1.00  0.00    -0.000 C 
BRANCH  13  14
ATOM     14  C   UNL     1       0.816  11.152  -6.559  1.00  0.00    -0.000 C 
BRANCH  14  15
ATOM     15  C   UNL     1       1.707  11.158  -7.811  1.00  0.00    -0.000 C 
BRANCH  15  16
ATOM     16  C   UNL     1       1.956   9.747  -8.363  1.00  0.00    -0.003 C 
ATOM     17  C   UNL     1       3.206   9.666  -9.240  1.00  0.00     0.004 C 
ENDBRANCH  15  16
ENDBRANCH  14  15
ENDBRANCH  13  14
ENDBRANCH  12  13
ENDBRANCH  11  12
ENDBRANCH  10  11
ENDBRANCH   1  10
TORSDOF 13
ENDMDL
MODEL 6
REMARK VINA RESULT:    -4.360      1.202      2.311
REMARK INTER + INTRA:          -9.651
REMARK INTER:                  -8.467
REMARK INTRA:                  -1.184
REMARK UNBOUND:                -1.978
REMARK SMILES CCCCCCCCCCCCCCC(=O)[O-]
REMARK SMILES IDX 9 1 10 2 11 3 12 4 13 5 14 6 15 7 16 8 17 9 8 10 7 11 6 12
REMARK SMILES IDX 5 13 4 14 3 15 2 16 1 17
REMARK H PARENT
REMARK Flexibility Score: inf
ROOT
ATOM      1  C   UNL     1      -1.434  11.587  -8.401  1.00  0.00     0.000 C 
ENDROOT
BRANCH   1   2
ATOM      2  C   UNL     1      -1.205  12.961  -7.746  1.00  0.00     0.000 C 
BRANCH   2   3
ATOM      3  C   UNL     1      -0.817  12.849  -6.263  1.00  0.00     0.000 C 
BRANCH   3   4
ATOM      4  C   UNL     1       0.706  12.887  -6.042  1.00  0.00     0.000 C 
BRANCH   4   5
ATOM      5  C   UNL     1       1.314  11.487  -5.866  1.00  0.00     0.006 C 
BRANCH   5   6
ATOM      6  C   UNL     1       2.605  11.299  -6.673  1.00  0.00     0.053 C 
BRANCH   6   7
ATOM      7  C   UNL     1       2.409  10.266  -7.736  1.00  0.00     0.041 C 
ATOM      8  O   UNL     1       1.374   9.550  -7.743  1.00  0.00    -0.550 OA
ATOM      9  O   UNL     1       3.395  10.058  -8.693  1.00  0.00    -0.550 OA
ENDBRANCH   6   7
ENDBRANCH   5   6
ENDBRANCH   4   5
ENDBRANCH   3   4
ENDBRANCH   2   3
ENDBRANCH   1   2
BRANCH   1  10
ATOM     10  C   UNL     1      -2.836  11.454  -9.017  1.00  0.00     0.000 C 
BRANCH  10  11
ATOM     11  C   UNL     1      -3.219   9.990  -9.298  1.00  0.00    -0.000 C 
BRANCH  11  12
ATOM     12  C   UNL     1      -4.183   9.849 -10.488  1.00  0.00    -0.000 C 
BRANCH  12  13
ATOM     13  C   UNL     1      -5.125  11.054 -10.635  1.00  0.00    -0.000 C 
BRANCH  13  14
ATOM     14  C   UNL     1      -6.554  10.689 -10.215  1.00  0.00    -0.000 C 
BRANCH  14  15
ATOM     15  C   UNL     1      -6.946  11.408  -8.915  1.00  0.00    -0.000 C 
BRANCH  15  16
ATOM     16  C   UNL     1      -6.287  12.789  -8.783  1.00  0.00    -0.003 C 
ATOM     17  C   UNL     1      -5.780  13.070  -7.369  1.00  0.00     0.004 C 
ENDBRANCH  15  16
ENDBRANCH  14  15
ENDBRANCH  13  14
ENDBRANCH  12  13
ENDBRANCH  11  12
ENDBRANCH  10  11
ENDBRANCH   1  10
TORSDOF 13
ENDMDL
MODEL 7
REMARK VINA RESULT:    -4.289      1.808      3.700
REMARK INTER + INTRA:          -9.526
REMARK INTER:                  -7.877
REMARK INTRA:                  -1.649
REMARK UNBOUND:                -1.978
REMARK SMILES CCCCCCCCCCCCCCC(=O)[O-]
REMARK SMILES IDX 9 1 10 2 11 3 12 4 13 5 14 6 15 7 16 8 17 9 8 10 7 11 6 12
REMARK SMILES IDX 5 13 4 14 3 15 2 16 1 17
REMARK H PARENT
REMARK Flexibility Score: inf
ROOT
ATOM      1  C   UNL     1      -4.123  12.927  -7.651  1.00  0.00     0.000 C 
ENDROOT
BRANCH   1   2
ATOM      2  C   UNL     1      -4.038  11.530  -7.010  1.00  0.00     0.000 C 
BRANCH   2   3
ATOM      3  C   UNL     1      -2.734  10.798  -7.363  1.00  0.00     0.000 C 
BRANCH   3   4
ATOM      4  C   UNL     1      -1.960  11.477  -8.507  1.00  0.00     0.000 C 
BRANCH   4   5
ATOM      5  C   UNL     1      -0.503  11.790  -8.131  1.00  0.00     0.006 C 
BRANCH   5   6
ATOM      6  C   UNL     1      -0.395  12.761  -6.949  1.00  0.00     0.053 C 
BRANCH   6   7
ATOM      7  C   UNL     1       0.871  12.519  -6.190  1.00  0.00     0.041 C 
ATOM      8  O   UNL     1       1.348  13.418  -5.448  1.00  0.00    -0.550 OA
ATOM      9  O   UNL     1       1.554  11.319  -6.342  1.00  0.00    -0.550 OA
ENDBRANCH   6   7
ENDBRANCH   5   6
ENDBRANCH   4   5
ENDBRANCH   3   4
ENDBRANCH   2   3
ENDBRANCH   1   2
BRANCH   1  10
ATOM     10  C   UNL     1      -5.215  13.015  -8.729  1.00  0.00     0.000 C 
BRANCH  10  11
ATOM     11  C   UNL     1      -6.365  12.021  -8.484  1.00  0.00    -0.000 C 
BRANCH  11  12
ATOM     12  C   UNL     1      -6.596  11.079  -9.677  1.00  0.00    -0.000 C 
BRANCH  12  13
ATOM     13  C   UNL     1      -5.382  11.000 -10.616  1.00  0.00    -0.000 C 
BRANCH  13  14
ATOM     14  C   UNL     1      -4.606   9.694 -10.403  1.00  0.00    -0.000 C 
BRANCH  14  15
ATOM     15  C   UNL     1      -5.349   8.765  -9.431  1.00  0.00    -0.000 C 
BRANCH  15  16
ATOM     16  C   UNL     1      -6.084   7.624 -10.151  1.00  0.00    -0.003 C 
ATOM     17  C   UNL     1      -5.190   6.872 -11.137  1.00  0.00     0.004 C 
ENDBRANCH  15  16
ENDBRANCH  14  15
ENDBRANCH  13  14
ENDBRANCH  12  13
ENDBRANCH  11  12
ENDBRANCH  10  11
ENDBRANCH   1  10
TORSDOF 13
ENDMDL
MODEL 8
REMARK VINA RESULT:    -4.258      2.020      3.384
REMARK INTER + INTRA:          -9.472
REMARK INTER:                  -7.781
REMARK INTRA:                  -1.691
REMARK UNBOUND:                -1.978
REMARK SMILES CCCCCCCCCCCCCCC(=O)[O-]
REMARK SMILES IDX 9 1 10 2 11 3 12 4 13 5 14 6 15 7 16 8 17 9 8 10 7 11 6 12
REMARK SMILES IDX 5 13 4 14 3 15 2 16 1 17
REMARK H PARENT
REMARK Flexibility Score: inf
ROOT
ATOM      1  C   UNL     1      -3.592  10.747  -6.985  1.00  0.00     0.000 C 
ENDROOT
BRANCH   1   2
ATOM      2  C   UNL     1      -2.457  11.743  -7.279  1.00  0.00     0.000 C 
BRANCH   2   3
ATOM      3  C   UNL     1      -1.574  11.300  -8.456  1.00  0.00     0.000 C 
BRANCH   3   4
ATOM      4  C   UNL     1      -0.218  10.730  -8.002  1.00  0.00     0.000 C 
BRANCH   4   5
ATOM      5  C   UNL     1       0.807  11.828  -7.680  1.00  0.00     0.006 C 
BRANCH   5   6
ATOM      6  C   UNL     1       1.322  11.750  -6.237  1.00  0.00     0.053 C 
BRANCH   6   7
ATOM      7  C   UNL     1       1.176  13.075  -5.559  1.00  0.00     0.041 C 
ATOM      8  O   UNL     1       0.097  13.718  -5.646  1.00  0.00    -0.550 OA
ATOM      9  O   UNL     1       2.251  13.626  -4.871  1.00  0.00    -0.550 OA
ENDBRANCH   6   7
ENDBRANCH   5   6
ENDBRANCH   4   5
ENDBRANCH   3   4
ENDBRANCH   2   3
ENDBRANCH   1   2
BRANCH   1  10
ATOM     10  C   UNL     1      -4.922  11.448  -6.660  1.00  0.00     0.000 C 
BRANCH  10  11
ATOM     11  C   UNL     1      -5.046  12.819  -7.347  1.00  0.00    -0.000 C 
BRANCH  11  12
ATOM     12  C   UNL     1      -5.313  12.702  -8.857  1.00  0.00    -0.000 C 
BRANCH  12  13
ATOM     13  C   UNL     1      -6.551  11.851  -9.178  1.00  0.00    -0.000 C 
BRANCH  13  14
ATOM     14  C   UNL     1      -6.251  10.844 -10.295  1.00  0.00    -0.000 C 
BRANCH  14  15
ATOM     15  C   UNL     1      -4.763  10.872 -10.677  1.00  0.00    -0.000 C 
BRANCH  15  16
ATOM     16  C   UNL     1      -4.090   9.499 -10.532  1.00  0.00    -0.003 C 
ATOM     17  C   UNL     1      -4.940   8.503  -9.744  1.00  0.00     0.004 C 
ENDBRANCH  15  16
ENDBRANCH  14  15
ENDBRANCH  13  14
ENDBRANCH  12  13
ENDBRANCH  11  12
ENDBRANCH  10  11
ENDBRANCH   1  10
TORSDOF 13
ENDMDL
MODEL 9
REMARK VINA RESULT:    -4.161      1.271      2.016
REMARK INTER + INTRA:          -9.302
REMARK INTER:                  -7.208
REMARK INTRA:                  -2.093
REMARK UNBOUND:                -1.978
REMARK SMILES CCCCCCCCCCCCCCC(=O)[O-]
REMARK SMILES IDX 9 1 10 2 11 3 12 4 13 5 14 6 15 7 16 8 17 9 8 10 7 11 6 12
REMARK SMILES IDX 5 13 4 14 3 15 2 16 1 17
REMARK H PARENT
REMARK Flexibility Score: inf
ROOT
ATOM      1  C   UNL     1      -4.131   9.938 -10.215  1.00  0.00     0.000 C 
ENDROOT
BRANCH   1   2
ATOM      2  C   UNL     1      -2.993  10.255  -9.228  1.00  0.00     0.000 C 
BRANCH   2   3
ATOM      3  C   UNL     1      -2.616  11.745  -9.223  1.00  0.00     0.000 C 
BRANCH   3   4
ATOM      4  C   UNL     1      -1.652  12.110  -8.080  1.00  0.00     0.000 C 
BRANCH   4   5
ATOM      5  C   UNL     1      -0.666  10.979  -7.753  1.00  0.00     0.006 C 
BRANCH   5   6
ATOM      6  C   UNL     1       0.797  11.442  -7.789  1.00  0.00     0.053 C 
BRANCH   6   7
ATOM      7  C   UNL     1       1.352  11.523  -6.403  1.00  0.00     0.041 C 
ATOM      8  O   UNL     1       2.598  11.519  -6.217  1.00  0.00    -0.550 OA
ATOM      9  O   UNL     1       0.494  11.553  -5.311  1.00  0.00    -0.550 OA
ENDBRANCH   6   7
ENDBRANCH   5   6
ENDBRANCH   4   5
ENDBRANCH   3   4
ENDBRANCH   2   3
ENDBRANCH   1   2
BRANCH   1  10
ATOM     10  C   UNL     1      -5.093  11.122 -10.404  1.00  0.00     0.000 C 
BRANCH  10  11
ATOM     11  C   UNL     1      -6.483  10.854  -9.799  1.00  0.00    -0.000 C 
BRANCH  11  12
ATOM     12  C   UNL     1      -6.884  11.905  -8.751  1.00  0.00    -0.000 C 
BRANCH  12  13
ATOM     13  C   UNL     1      -5.840  13.023  -8.601  1.00  0.00    -0.000 C 
BRANCH  13  14
ATOM     14  C   UNL     1      -5.323  13.102  -7.159  1.00  0.00    -0.000 C 
BRANCH  14  15
ATOM     15  C   UNL     1      -5.825  11.911  -6.328  1.00  0.00    -0.000 C 
BRANCH  15  16
ATOM     16  C   UNL     1      -4.724  10.877  -6.053  1.00  0.00    -0.003 C 
ATOM     17  C   UNL     1      -5.171   9.444  -6.344  1.00  0.00     0.004 C 
ENDBRANCH  15  16
ENDBRANCH  14  15
ENDBRANCH  13  14
ENDBRANCH  12  13
ENDBRANCH  11  12
ENDBRANCH  10  11
ENDBRANCH   1  10
TORSDOF 13
ENDMDL
