MODEL 1
REMARK VINA RESULT:    -6.120      0.000      0.000
REMARK INTER + INTRA:          -6.785
REMARK INTER:                  -6.478
REMARK INTRA:                  -0.307
REMARK UNBOUND:                -0.307
REMARK SMILES C=C1CC[C@H](C(C)C)[C@@H]2C=C(C)CC[C@@H]12
REMARK SMILES IDX 12 1 11 2 10 3 9 4 15 5 14 6 13 7 2 8 1 9 3 10 4 11 5 12
REMARK SMILES IDX 6 13 7 14 8 15
REMARK H PARENT
REMARK Flexibility Score: inf
ROOT
ATOM      1  C   UNL     1     113.248 109.343 107.894  1.00  0.00     0.039 C 
ATOM      2  C   UNL     1     112.320 110.145 108.766  1.00  0.00    -0.077 C 
ATOM      3  C   UNL     1     111.975 109.655 109.976  1.00  0.00    -0.024 C 
ATOM      4  C   UNL     1     110.979 110.352 110.873  1.00  0.00     0.022 C 
ATOM      5  C   UNL     1     110.867 111.870 110.576  1.00  0.00     0.022 C 
ATOM      6  C   UNL     1     110.655 112.052 109.062  1.00  0.00     0.013 C 
ATOM      7  C   UNL     1     111.876 111.517 108.298  1.00  0.00     0.031 C 
ATOM      8  C   UNL     1     109.752 112.490 111.404  1.00  0.00    -0.074 C 
ATOM      9  C   UNL     1     109.461 113.798 111.307  1.00  0.00     0.008 C 
ATOM     10  C   UNL     1     109.070 111.639 112.453  1.00  0.00     0.031 C 
ATOM     11  C   UNL     1     110.137 110.892 113.267  1.00  0.00     0.009 C 
ATOM     12  C   UNL     1     111.114 110.026 112.402  1.00  0.00    -0.001 C 
ENDROOT
BRANCH  12  13
ATOM     13  C   UNL     1     112.556 110.036 113.033  1.00  0.00    -0.014 C 
ATOM     14  C   UNL     1     113.270 111.396 112.937  1.00  0.00     0.007 C 
ATOM     15  C   UNL     1     112.627 109.503 114.469  1.00  0.00     0.007 C 
ENDBRANCH  12  13
TORSDOF 1
ENDMDL
MODEL 2
REMARK VINA RESULT:    -6.112      1.754      4.372
REMARK INTER + INTRA:          -6.776
REMARK INTER:                  -6.795
REMARK INTRA:                   0.018
REMARK UNBOUND:                -0.307
REMARK SMILES C=C1CC[C@H](C(C)C)[C@@H]2C=C(C)CC[C@@H]12
REMARK SMILES IDX 12 1 11 2 10 3 9 4 15 5 14 6 13 7 2 8 1 9 3 10 4 11 5 12
REMARK SMILES IDX 6 13 7 14 8 15
REMARK H PARENT
REMARK Flexibility Score: inf
ROOT
ATOM      1  C   UNL     1     112.313 110.492 109.843  1.00  0.00     0.039 C 
ATOM      2  C   UNL     1     112.383 110.443 111.345  1.00  0.00    -0.077 C 
ATOM      3  C   UNL     1     111.918 111.493 112.055  1.00  0.00    -0.024 C 
ATOM      4  C   UNL     1     112.035 111.563 113.560  1.00  0.00     0.022 C 
ATOM      5  C   UNL     1     112.164 110.163 114.215  1.00  0.00     0.022 C 
ATOM      6  C   UNL     1     113.277 109.389 113.487  1.00  0.00     0.013 C 
ATOM      7  C   UNL     1     112.889 109.180 112.015  1.00  0.00     0.031 C 
ATOM      8  C   UNL     1     112.422 110.300 115.707  1.00  0.00    -0.074 C 
ATOM      9  C   UNL     1     112.580 109.216 116.486  1.00  0.00     0.008 C 
ATOM     10  C   UNL     1     112.352 111.677 116.331  1.00  0.00     0.031 C 
ATOM     11  C   UNL     1     111.089 112.393 115.829  1.00  0.00     0.009 C 
ATOM     12  C   UNL     1     110.983 112.487 114.269  1.00  0.00    -0.001 C 
ENDROOT
BRANCH  12  13
ATOM     13  C   UNL     1     109.480 112.374 113.817  1.00  0.00    -0.014 C 
ATOM     14  C   UNL     1     109.166 113.107 112.501  1.00  0.00     0.007 C 
ATOM     15  C   UNL     1     108.936 110.941 113.767  1.00  0.00     0.007 C 
ENDBRANCH  12  13
TORSDOF 1
ENDMDL
MODEL 3
REMARK VINA RESULT:    -6.104      1.789      3.390
REMARK INTER + INTRA:          -6.768
REMARK INTER:                  -6.857
REMARK INTRA:                   0.089
REMARK UNBOUND:                -0.307
REMARK SMILES C=C1CC[C@H](C(C)C)[C@@H]2C=C(C)CC[C@@H]12
REMARK SMILES IDX 12 1 11 2 10 3 9 4 15 5 14 6 13 7 2 8 1 9 3 10 4 11 5 12
REMARK SMILES IDX 6 13 7 14 8 15
REMARK H PARENT
REMARK Flexibility Score: inf
ROOT
ATOM      1  C   UNL     1     109.989 111.324 109.631  1.00  0.00     0.039 C 
ATOM      2  C   UNL     1     109.939 111.540 111.119  1.00  0.00    -0.077 C 
ATOM      3  C   UNL     1     110.361 110.553 111.937  1.00  0.00    -0.024 C 
ATOM      4  C   UNL     1     110.259 110.654 113.442  1.00  0.00     0.022 C 
ATOM      5  C   UNL     1     110.204 112.121 113.941  1.00  0.00     0.022 C 
ATOM      6  C   UNL     1     109.119 112.863 113.139  1.00  0.00     0.013 C 
ATOM      7  C   UNL     1     109.500 112.891 111.651  1.00  0.00     0.031 C 
ATOM      8  C   UNL     1     109.957 112.160 115.440  1.00  0.00    -0.074 C 
ATOM      9  C   UNL     1     109.858 113.328 116.097  1.00  0.00     0.008 C 
ATOM     10  C   UNL     1     109.969 110.858 116.211  1.00  0.00     0.031 C 
ATOM     11  C   UNL     1     111.191 110.031 115.782  1.00  0.00     0.009 C 
ATOM     12  C   UNL     1     111.275 109.763 114.242  1.00  0.00    -0.001 C 
ENDROOT
BRANCH  12  13
ATOM     13  C   UNL     1     112.776 109.753 113.770  1.00  0.00    -0.014 C 
ATOM     14  C   UNL     1     112.994 109.110 112.389  1.00  0.00     0.007 C 
ATOM     15  C   UNL     1     113.471 111.119 113.833  1.00  0.00     0.007 C 
ENDBRANCH  12  13
TORSDOF 1
ENDMDL
MODEL 4
REMARK VINA RESULT:    -6.091      1.397      3.622
REMARK INTER + INTRA:          -6.754
REMARK INTER:                  -6.402
REMARK INTRA:                  -0.351
REMARK UNBOUND:                -0.307
REMARK SMILES C=C1CC[C@H](C(C)C)[C@@H]2C=C(C)CC[C@@H]12
REMARK SMILES IDX 12 1 11 2 10 3 9 4 15 5 14 6 13 7 2 8 1 9 3 10 4 11 5 12
REMARK SMILES IDX 6 13 7 14 8 15
REMARK H PARENT
REMARK Flexibility Score: inf
ROOT
ATOM      1  C   UNL     1     109.059 112.911 107.900  1.00  0.00     0.039 C 
ATOM      2  C   UNL     1     109.974 112.102 108.780  1.00  0.00    -0.077 C 
ATOM      3  C   UNL     1     110.293 112.577 110.002  1.00  0.00    -0.024 C 
ATOM      4  C   UNL     1     111.275 111.873 110.910  1.00  0.00     0.022 C 
ATOM      5  C   UNL     1     111.401 110.360 110.594  1.00  0.00     0.022 C 
ATOM      6  C   UNL     1     111.644 110.200 109.082  1.00  0.00     0.013 C 
ATOM      7  C   UNL     1     110.435 110.739 108.302  1.00  0.00     0.031 C 
ATOM      8  C   UNL     1     112.503 109.735 111.436  1.00  0.00    -0.074 C 
ATOM      9  C   UNL     1     112.804 108.430 111.326  1.00  0.00     0.008 C 
ATOM     10  C   UNL     1     113.159 110.575 112.509  1.00  0.00     0.031 C 
ATOM     11  C   UNL     1     112.072 111.305 113.312  1.00  0.00     0.009 C 
ATOM     12  C   UNL     1     111.108 112.177 112.440  1.00  0.00    -0.001 C 
ENDROOT
BRANCH  12  13
ATOM     13  C   UNL     1     109.654 112.150 113.042  1.00  0.00    -0.014 C 
ATOM     14  C   UNL     1     109.024 110.747 113.092  1.00  0.00     0.007 C 
ATOM     15  C   UNL     1     109.515 112.840 114.405  1.00  0.00     0.007 C 
ENDBRANCH  12  13
TORSDOF 1
ENDMDL
MODEL 5
REMARK VINA RESULT:    -6.068      1.816      3.489
REMARK INTER + INTRA:          -6.730
REMARK INTER:                  -6.766
REMARK INTRA:                   0.036
REMARK UNBOUND:                -0.307
REMARK SMILES C=C1CC[C@H](C(C)C)[C@@H]2C=C(C)CC[C@@H]12
REMARK SMILES IDX 12 1 11 2 10 3 9 4 15 5 14 6 13 7 2 8 1 9 3 10 4 11 5 12
REMARK SMILES IDX 6 13 7 14 8 15
REMARK H PARENT
REMARK Flexibility Score: inf
ROOT
ATOM      1  C   UNL     1     110.052 111.487 104.721  1.00  0.00     0.039 C 
ATOM      2  C   UNL     1     109.961 111.666 106.212  1.00  0.00    -0.077 C 
ATOM      3  C   UNL     1     110.396 110.672 107.016  1.00  0.00    -0.024 C 
ATOM      4  C   UNL     1     110.256 110.734 108.520  1.00  0.00     0.022 C 
ATOM      5  C   UNL     1     110.143 112.187 109.051  1.00  0.00     0.022 C 
ATOM      6  C   UNL     1     109.055 112.914 108.241  1.00  0.00     0.013 C 
ATOM      7  C   UNL     1     109.469 112.990 106.764  1.00  0.00     0.031 C 
ATOM      8  C   UNL     1     109.860 112.182 110.545  1.00  0.00    -0.074 C 
ATOM      9  C   UNL     1     109.711 113.331 111.226  1.00  0.00     0.008 C 
ATOM     10  C   UNL     1     109.896 110.863 111.285  1.00  0.00     0.031 C 
ATOM     11  C   UNL     1     111.152 110.084 110.866  1.00  0.00     0.009 C 
ATOM     12  C   UNL     1     111.280 109.856 109.322  1.00  0.00    -0.001 C 
ENDROOT
BRANCH  12  13
ATOM     13  C   UNL     1     112.791 109.903 108.887  1.00  0.00    -0.014 C 
ATOM     14  C   UNL     1     113.092 109.137 107.586  1.00  0.00     0.007 C 
ATOM     15  C   UNL     1     113.390 111.314 108.819  1.00  0.00     0.007 C 
ENDBRANCH  12  13
TORSDOF 1
ENDMDL
MODEL 6
REMARK VINA RESULT:    -6.060      1.801      4.339
REMARK INTER + INTRA:          -6.721
REMARK INTER:                  -6.753
REMARK INTRA:                   0.032
REMARK UNBOUND:                -0.307
REMARK SMILES C=C1CC[C@H](C(C)C)[C@@H]2C=C(C)CC[C@@H]12
REMARK SMILES IDX 12 1 11 2 10 3 9 4 15 5 14 6 13 7 2 8 1 9 3 10 4 11 5 12
REMARK SMILES IDX 6 13 7 14 8 15
REMARK H PARENT
REMARK Flexibility Score: inf
ROOT
ATOM      1  C   UNL     1     112.287 110.901 104.726  1.00  0.00     0.039 C 
ATOM      2  C   UNL     1     112.334 110.698 106.216  1.00  0.00    -0.077 C 
ATOM      3  C   UNL     1     111.860 111.672 107.023  1.00  0.00    -0.024 C 
ATOM      4  C   UNL     1     111.953 111.587 108.529  1.00  0.00     0.022 C 
ATOM      5  C   UNL     1     112.069 110.127 109.039  1.00  0.00     0.022 C 
ATOM      6  C   UNL     1     113.193 109.428 108.252  1.00  0.00     0.013 C 
ATOM      7  C   UNL     1     112.827 109.372 106.761  1.00  0.00     0.031 C 
ATOM      8  C   UNL     1     112.305 110.110 110.541  1.00  0.00    -0.074 C 
ATOM      9  C   UNL     1     112.449 108.951 111.207  1.00  0.00     0.008 C 
ATOM     10  C   UNL     1     112.227 111.415 111.301  1.00  0.00     0.031 C 
ATOM     11  C   UNL     1     110.974 112.184 110.856  1.00  0.00     0.009 C 
ATOM     12  C   UNL     1     110.892 112.437 109.313  1.00  0.00    -0.001 C 
ENDROOT
BRANCH  12  13
ATOM     13  C   UNL     1     109.397 112.377 108.829  1.00  0.00    -0.014 C 
ATOM     14  C   UNL     1     109.122 113.179 107.544  1.00  0.00     0.007 C 
ATOM     15  C   UNL     1     108.826 110.959 108.698  1.00  0.00     0.007 C 
ENDBRANCH  12  13
TORSDOF 1
ENDMDL
MODEL 7
REMARK VINA RESULT:    -6.028      3.281      5.068
REMARK INTER + INTRA:          -6.688
REMARK INTER:                  -6.412
REMARK INTRA:                  -0.276
REMARK UNBOUND:                -0.307
REMARK SMILES C=C1CC[C@H](C(C)C)[C@@H]2C=C(C)CC[C@@H]12
REMARK SMILES IDX 12 1 11 2 10 3 9 4 15 5 14 6 13 7 2 8 1 9 3 10 4 11 5 12
REMARK SMILES IDX 6 13 7 14 8 15
REMARK H PARENT
REMARK Flexibility Score: inf
ROOT
ATOM      1  C   UNL     1     113.270 109.373 112.976  1.00  0.00     0.039 C 
ATOM      2  C   UNL     1     112.335 110.171 113.843  1.00  0.00    -0.077 C 
ATOM      3  C   UNL     1     111.958 109.663 115.036  1.00  0.00    -0.024 C 
ATOM      4  C   UNL     1     110.952 110.357 115.926  1.00  0.00     0.022 C 
ATOM      5  C   UNL     1     110.864 111.881 115.654  1.00  0.00     0.022 C 
ATOM      6  C   UNL     1     110.686 112.093 114.139  1.00  0.00     0.013 C 
ATOM      7  C   UNL     1     111.916 111.556 113.391  1.00  0.00     0.031 C 
ATOM      8  C   UNL     1     109.740 112.499 116.470  1.00  0.00    -0.074 C 
ATOM      9  C   UNL     1     109.467 113.812 116.390  1.00  0.00     0.008 C 
ATOM     10  C   UNL     1     109.027 111.638 117.489  1.00  0.00     0.031 C 
ATOM     11  C   UNL     1     110.068 110.864 118.311  1.00  0.00     0.009 C 
ATOM     12  C   UNL     1     111.052 110.002 117.451  1.00  0.00    -0.001 C 
ENDROOT
BRANCH  12  13
ATOM     13  C   UNL     1     112.481 109.984 118.111  1.00  0.00    -0.014 C 
ATOM     14  C   UNL     1     113.250 111.310 117.975  1.00  0.00     0.007 C 
ATOM     15  C   UNL     1     112.503 109.508 119.569  1.00  0.00     0.007 C 
ENDBRANCH  12  13
TORSDOF 1
ENDMDL
MODEL 8
REMARK VINA RESULT:    -5.988      1.860      4.318
REMARK INTER + INTRA:          -6.645
REMARK INTER:                  -6.969
REMARK INTRA:                   0.323
REMARK UNBOUND:                -0.307
REMARK SMILES C=C1CC[C@H](C(C)C)[C@@H]2C=C(C)CC[C@@H]12
REMARK SMILES IDX 12 1 11 2 10 3 9 4 15 5 14 6 13 7 2 8 1 9 3 10 4 11 5 12
REMARK SMILES IDX 6 13 7 14 8 15
REMARK H PARENT
REMARK Flexibility Score: inf
ROOT
ATOM      1  C   UNL     1     109.544 111.275 116.258  1.00  0.00     0.039 C 
ATOM      2  C   UNL     1     109.849 111.626 114.827  1.00  0.00    -0.077 C 
ATOM      3  C   UNL     1     111.136 111.644 114.419  1.00  0.00    -0.024 C 
ATOM      4  C   UNL     1     111.533 112.074 113.026  1.00  0.00     0.022 C 
ATOM      5  C   UNL     1     110.382 111.913 111.999  1.00  0.00     0.022 C 
ATOM      6  C   UNL     1     109.121 112.580 112.578  1.00  0.00     0.013 C 
ATOM      7  C   UNL     1     108.698 111.861 113.868  1.00  0.00     0.031 C 
ATOM      8  C   UNL     1     110.790 112.494 110.654  1.00  0.00    -0.074 C 
ATOM      9  C   UNL     1     109.946 112.478 109.608  1.00  0.00     0.008 C 
ATOM     10  C   UNL     1     112.217 112.959 110.468  1.00  0.00     0.031 C 
ATOM     11  C   UNL     1     113.171 111.890 111.022  1.00  0.00     0.009 C 
ATOM     12  C   UNL     1     112.905 111.506 112.517  1.00  0.00    -0.001 C 
ENDROOT
BRANCH  12  13
ATOM     13  C   UNL     1     113.201 109.979 112.749  1.00  0.00    -0.014 C 
ATOM     14  C   UNL     1     112.854 109.482 114.163  1.00  0.00     0.007 C 
ATOM     15  C   UNL     1     112.590 109.045 111.696  1.00  0.00     0.007 C 
ENDBRANCH  12  13
TORSDOF 1
ENDMDL
MODEL 9
REMARK VINA RESULT:    -5.952      3.394      6.242
REMARK INTER + INTRA:          -6.607
REMARK INTER:                  -6.240
REMARK INTRA:                  -0.367
REMARK UNBOUND:                -0.307
REMARK SMILES C=C1CC[C@H](C(C)C)[C@@H]2C=C(C)CC[C@@H]12
REMARK SMILES IDX 12 1 11 2 10 3 9 4 15 5 14 6 13 7 2 8 1 9 3 10 4 11 5 12
REMARK SMILES IDX 6 13 7 14 8 15
REMARK H PARENT
REMARK Flexibility Score: inf
ROOT
ATOM      1  C   UNL     1     109.128 112.893 112.972  1.00  0.00     0.039 C 
ATOM      2  C   UNL     1     110.027 112.058 113.844  1.00  0.00    -0.077 C 
ATOM      3  C   UNL     1     110.356 112.517 115.071  1.00  0.00    -0.024 C 
ATOM      4  C   UNL     1     111.324 111.785 115.971  1.00  0.00     0.022 C 
ATOM      5  C   UNL     1     111.420 110.272 115.643  1.00  0.00     0.022 C 
ATOM      6  C   UNL     1     111.658 110.120 114.130  1.00  0.00     0.013 C 
ATOM      7  C   UNL     1     110.460 110.690 113.355  1.00  0.00     0.031 C 
ATOM      8  C   UNL     1     112.509 109.618 116.478  1.00  0.00    -0.074 C 
ATOM      9  C   UNL     1     112.783 108.309 116.358  1.00  0.00     0.008 C 
ATOM     10  C   UNL     1     113.183 110.436 117.558  1.00  0.00     0.031 C 
ATOM     11  C   UNL     1     112.111 111.181 118.368  1.00  0.00     0.009 C 
ATOM     12  C   UNL     1     111.164 112.080 117.504  1.00  0.00    -0.001 C 
ENDROOT
BRANCH  12  13
ATOM     13  C   UNL     1     109.710 112.077 118.107  1.00  0.00    -0.014 C 
ATOM     14  C   UNL     1     109.095 110.674 118.251  1.00  0.00     0.007 C 
ATOM     15  C   UNL     1     109.564 112.855 119.421  1.00  0.00     0.007 C 
ENDBRANCH  12  13
TORSDOF 1
ENDMDL
