MODEL 1
REMARK VINA RESULT:    -6.868      0.000      0.000
REMARK INTER + INTRA:          -6.868
REMARK INTER:                  -6.868
REMARK INTRA:                   0.000
REMARK UNBOUND:                 0.000
REMARK SMILES C=C1CCC[C@]2(C)CC(=O)C(=C(C)C)C[C@H]12
REMARK SMILES IDX 13 1 12 2 11 3 15 4 16 5 2 6 1 7 3 8 4 9 5 10 6 11 8 12 9 13
REMARK SMILES IDX 10 14 7 15 14 16
REMARK H PARENT
REMARK Flexibility Score: inf
ROOT
ATOM      1  C   UNL     1       5.599  15.513  32.155  1.00  0.00     0.039 C 
ATOM      2  C   UNL     1       5.680  15.175  30.683  1.00  0.00    -0.070 C 
ATOM      3  C   UNL     1       4.946  14.151  30.155  1.00  0.00    -0.006 C 
ATOM      4  C   UNL     1       4.068  13.260  31.017  1.00  0.00     0.047 C 
ATOM      5  C   UNL     1       2.806  12.792  30.250  1.00  0.00     0.025 C 
ATOM      6  C   UNL     1       1.962  11.926  31.180  1.00  0.00    -0.073 C 
ATOM      7  C   UNL     1       1.058  12.494  31.993  1.00  0.00     0.008 C 
ATOM      8  C   UNL     1       2.186  10.434  31.271  1.00  0.00     0.031 C 
ATOM      9  C   UNL     1       3.165   9.931  30.209  1.00  0.00     0.005 C 
ATOM     10  C   UNL     1       2.837  10.565  28.857  1.00  0.00     0.008 C 
ATOM     11  C   UNL     1       3.111  12.103  28.846  1.00  0.00    -0.018 C 
ATOM     12  C   UNL     1       4.586  12.334  28.397  1.00  0.00     0.088 C 
ATOM     13  C   UNL     1       5.046  13.717  28.737  1.00  0.00     0.159 C 
ATOM     14  O   UNL     1       5.457  14.480  27.821  1.00  0.00    -0.295 OA
ATOM     15  C   UNL     1       2.187  12.731  27.773  1.00  0.00     0.012 C 
ATOM     16  C   UNL     1       6.631  15.991  29.839  1.00  0.00     0.039 C 
ENDROOT
TORSDOF 0
ENDMDL
MODEL 2
REMARK VINA RESULT:    -6.595      1.636      3.212
REMARK INTER + INTRA:          -6.595
REMARK INTER:                  -6.595
REMARK INTRA:                   0.000
REMARK UNBOUND:                 0.000
REMARK SMILES C=C1CCC[C@]2(C)CC(=O)C(=C(C)C)C[C@H]12
REMARK SMILES IDX 13 1 12 2 11 3 15 4 16 5 2 6 1 7 3 8 4 9 5 10 6 11 8 12 9 13
REMARK SMILES IDX 10 14 7 15 14 16
REMARK H PARENT
REMARK Flexibility Score: inf
ROOT
ATOM      1  C   UNL     1       5.996  14.861  27.493  1.00  0.00     0.039 C 
ATOM      2  C   UNL     1       5.973  15.129  28.980  1.00  0.00    -0.070 C 
ATOM      3  C   UNL     1       5.145  14.427  29.810  1.00  0.00    -0.006 C 
ATOM      4  C   UNL     1       4.162  13.396  29.282  1.00  0.00     0.047 C 
ATOM      5  C   UNL     1       3.968  12.231  30.286  1.00  0.00     0.025 C 
ATOM      6  C   UNL     1       2.992  11.224  29.684  1.00  0.00    -0.073 C 
ATOM      7  C   UNL     1       3.444  10.245  28.885  1.00  0.00     0.008 C 
ATOM      8  C   UNL     1       1.502  11.361  29.897  1.00  0.00     0.031 C 
ATOM      9  C   UNL     1       1.162  12.452  30.912  1.00  0.00     0.005 C 
ATOM     10  C   UNL     1       2.093  12.347  32.121  1.00  0.00     0.008 C 
ATOM     11  C   UNL     1       3.571  12.694  31.758  1.00  0.00    -0.018 C 
ATOM     12  C   UNL     1       3.777  14.227  31.956  1.00  0.00     0.088 C 
ATOM     13  C   UNL     1       5.016  14.703  31.264  1.00  0.00     0.159 C 
ATOM     14  O   UNL     1       5.921  15.274  31.930  1.00  0.00    -0.295 OA
ATOM     15  C   UNL     1       4.484  11.961  32.773  1.00  0.00     0.012 C 
ATOM     16  C   UNL     1       6.873  16.228  29.497  1.00  0.00     0.039 C 
ENDROOT
TORSDOF 0
ENDMDL
MODEL 3
REMARK VINA RESULT:    -6.561      1.745      3.166
REMARK INTER + INTRA:          -6.561
REMARK INTER:                  -6.561
REMARK INTRA:                   0.000
REMARK UNBOUND:                 0.000
REMARK SMILES C=C1CCC[C@]2(C)CC(=O)C(=C(C)C)C[C@H]12
REMARK SMILES IDX 13 1 12 2 11 3 15 4 16 5 2 6 1 7 3 8 4 9 5 10 6 11 8 12 9 13
REMARK SMILES IDX 10 14 7 15 14 16
REMARK H PARENT
REMARK Flexibility Score: inf
ROOT
ATOM      1  C   UNL     1       6.148  15.121  27.933  1.00  0.00     0.039 C 
ATOM      2  C   UNL     1       4.846  14.382  27.716  1.00  0.00    -0.070 C 
ATOM      3  C   UNL     1       4.233  13.722  28.743  1.00  0.00    -0.006 C 
ATOM      4  C   UNL     1       4.850  13.635  30.129  1.00  0.00     0.047 C 
ATOM      5  C   UNL     1       3.764  13.620  31.234  1.00  0.00     0.025 C 
ATOM      6  C   UNL     1       4.452  13.558  32.594  1.00  0.00    -0.073 C 
ATOM      7  C   UNL     1       4.830  14.689  33.209  1.00  0.00     0.008 C 
ATOM      8  C   UNL     1       4.802  12.232  33.231  1.00  0.00     0.031 C 
ATOM      9  C   UNL     1       4.209  11.050  32.464  1.00  0.00     0.005 C 
ATOM     10  C   UNL     1       2.758  11.349  32.087  1.00  0.00     0.008 C 
ATOM     11  C   UNL     1       2.647  12.501  31.039  1.00  0.00    -0.018 C 
ATOM     12  C   UNL     1       2.702  11.873  29.613  1.00  0.00     0.088 C 
ATOM     13  C   UNL     1       3.001  12.909  28.574  1.00  0.00     0.159 C 
ATOM     14  O   UNL     1       2.191  13.091  27.625  1.00  0.00    -0.295 OA
ATOM     15  C   UNL     1       1.253  13.155  31.213  1.00  0.00     0.012 C 
ATOM     16  C   UNL     1       4.281  14.376  26.315  1.00  0.00     0.039 C 
ENDROOT
TORSDOF 0
ENDMDL
MODEL 4
REMARK VINA RESULT:    -5.672      2.105      3.666
REMARK INTER + INTRA:          -5.672
REMARK INTER:                  -5.672
REMARK INTRA:                   0.000
REMARK UNBOUND:                 0.000
REMARK SMILES C=C1CCC[C@]2(C)CC(=O)C(=C(C)C)C[C@H]12
REMARK SMILES IDX 13 1 12 2 11 3 15 4 16 5 2 6 1 7 3 8 4 9 5 10 6 11 8 12 9 13
REMARK SMILES IDX 10 14 7 15 14 16
REMARK H PARENT
REMARK Flexibility Score: inf
ROOT
ATOM      1  C   UNL     1       5.585  15.866  32.658  1.00  0.00     0.039 C 
ATOM      2  C   UNL     1       5.202  14.421  32.886  1.00  0.00    -0.070 C 
ATOM      3  C   UNL     1       4.615  13.684  31.897  1.00  0.00    -0.006 C 
ATOM      4  C   UNL     1       4.256  14.286  30.548  1.00  0.00     0.047 C 
ATOM      5  C   UNL     1       4.399  13.248  29.407  1.00  0.00     0.025 C 
ATOM      6  C   UNL     1       4.050  13.923  28.085  1.00  0.00    -0.073 C 
ATOM      7  C   UNL     1       4.996  14.574  27.390  1.00  0.00     0.008 C 
ATOM      8  C   UNL     1       2.626  13.953  27.578  1.00  0.00     0.031 C 
ATOM      9  C   UNL     1       1.695  13.079  28.419  1.00  0.00     0.005 C 
ATOM     10  C   UNL     1       2.366  11.737  28.713  1.00  0.00     0.008 C 
ATOM     11  C   UNL     1       3.603  11.890  29.654  1.00  0.00    -0.018 C 
ATOM     12  C   UNL     1       3.114  11.767  31.129  1.00  0.00     0.088 C 
ATOM     13  C   UNL     1       4.139  12.290  32.086  1.00  0.00     0.159 C 
ATOM     14  O   UNL     1       4.597  11.532  32.984  1.00  0.00    -0.295 OA
ATOM     15  C   UNL     1       4.552  10.699  29.370  1.00  0.00     0.012 C 
ATOM     16  C   UNL     1       5.460  13.848  34.260  1.00  0.00     0.039 C 
ENDROOT
TORSDOF 0
ENDMDL
MODEL 5
REMARK VINA RESULT:    -4.875      2.609      4.473
REMARK INTER + INTRA:          -4.875
REMARK INTER:                  -4.875
REMARK INTRA:                   0.000
REMARK UNBOUND:                 0.000
REMARK SMILES C=C1CCC[C@]2(C)CC(=O)C(=C(C)C)C[C@H]12
REMARK SMILES IDX 13 1 12 2 11 3 15 4 16 5 2 6 1 7 3 8 4 9 5 10 6 11 8 12 9 13
REMARK SMILES IDX 10 14 7 15 14 16
REMARK H PARENT
REMARK Flexibility Score: inf
ROOT
ATOM      1  C   UNL     1       5.488   9.876  30.968  1.00  0.00     0.039 C 
ATOM      2  C   UNL     1       4.491  10.869  31.521  1.00  0.00    -0.070 C 
ATOM      3  C   UNL     1       3.836  11.742  30.699  1.00  0.00    -0.006 C 
ATOM      4  C   UNL     1       4.118  11.810  29.208  1.00  0.00     0.047 C 
ATOM      5  C   UNL     1       2.843  12.172  28.404  1.00  0.00     0.025 C 
ATOM      6  C   UNL     1       3.192  12.198  26.920  1.00  0.00    -0.073 C 
ATOM      7  C   UNL     1       3.131  11.070  26.194  1.00  0.00     0.008 C 
ATOM      8  C   UNL     1       3.696  13.461  26.260  1.00  0.00     0.031 C 
ATOM      9  C   UNL     1       3.602  14.673  27.187  1.00  0.00     0.005 C 
ATOM     10  C   UNL     1       2.249  14.680  27.900  1.00  0.00     0.008 C 
ATOM     11  C   UNL     1       2.107  13.493  28.905  1.00  0.00    -0.018 C 
ATOM     12  C   UNL     1       2.642  13.961  30.293  1.00  0.00     0.088 C 
ATOM     13  C   UNL     1       2.912  12.795  31.192  1.00  0.00     0.159 C 
ATOM     14  O   UNL     1       2.325  12.718  32.305  1.00  0.00    -0.295 OA
ATOM     15  C   UNL     1       0.595  13.192  29.059  1.00  0.00     0.012 C 
ATOM     16  C   UNL     1       4.285  10.877  33.018  1.00  0.00     0.039 C 
ENDROOT
TORSDOF 0
ENDMDL
MODEL 6
REMARK VINA RESULT:    -4.501      2.145      4.525
REMARK INTER + INTRA:          -4.501
REMARK INTER:                  -4.501
REMARK INTRA:                   0.000
REMARK UNBOUND:                 0.000
REMARK SMILES C=C1CCC[C@]2(C)CC(=O)C(=C(C)C)C[C@H]12
REMARK SMILES IDX 13 1 12 2 11 3 15 4 16 5 2 6 1 7 3 8 4 9 5 10 6 11 8 12 9 13
REMARK SMILES IDX 10 14 7 15 14 16
REMARK H PARENT
REMARK Flexibility Score: inf
ROOT
ATOM      1  C   UNL     1       1.497  14.515  32.208  1.00  0.00     0.039 C 
ATOM      2  C   UNL     1       1.444  13.106  31.662  1.00  0.00    -0.070 C 
ATOM      3  C   UNL     1       2.144  12.759  30.541  1.00  0.00    -0.006 C 
ATOM      4  C   UNL     1       2.952  13.774  29.749  1.00  0.00     0.047 C 
ATOM      5  C   UNL     1       4.213  13.130  29.120  1.00  0.00     0.025 C 
ATOM      6  C   UNL     1       4.986  14.205  28.364  1.00  0.00    -0.073 C 
ATOM      7  C   UNL     1       5.891  14.960  29.006  1.00  0.00     0.008 C 
ATOM      8  C   UNL     1       4.688  14.504  26.912  1.00  0.00     0.031 C 
ATOM      9  C   UNL     1       3.719  13.491  26.302  1.00  0.00     0.005 C 
ATOM     10  C   UNL     1       4.117  12.075  26.717  1.00  0.00     0.008 C 
ATOM     11  C   UNL     1       3.918  11.830  28.246  1.00  0.00    -0.018 C 
ATOM     12  C   UNL     1       2.470  11.299  28.473  1.00  0.00     0.088 C 
ATOM     13  C   UNL     1       2.066  11.417  29.909  1.00  0.00     0.159 C 
ATOM     14  O   UNL     1       1.719  10.385  30.545  1.00  0.00    -0.295 OA
ATOM     15  C   UNL     1       4.903  10.712  28.670  1.00  0.00     0.012 C 
ATOM     16  C   UNL     1       0.559  12.118  32.386  1.00  0.00     0.039 C 
ENDROOT
TORSDOF 0
ENDMDL
