MODEL 1
REMARK VINA RESULT:    -3.556      0.000      0.000
REMARK INTER + INTRA:          -4.972
REMARK INTER:                  -4.803
REMARK INTRA:                  -0.169
REMARK UNBOUND:                -0.169
REMARK SMILES CCCCCCCC(=O)[O-]
REMARK SMILES IDX 5 1 6 2 7 3 8 4 9 5 10 6 4 7 3 8 2 9 1 10
REMARK H PARENT
REMARK Flexibility Score: inf
ROOT
ATOM      1  C   UNL     1      62.199  32.990  60.398  1.00  0.00     0.000 C 
ENDROOT
BRANCH   1   2
ATOM      2  C   UNL     1      61.056  31.962  60.463  1.00  0.00     0.006 C 
BRANCH   2   3
ATOM      3  C   UNL     1      61.176  31.038  61.682  1.00  0.00     0.053 C 
BRANCH   3   4
ATOM      4  C   UNL     1      62.139  29.916  61.438  1.00  0.00     0.041 C 
ATOM      5  O   UNL     1      63.378  30.111  61.540  1.00  0.00    -0.550 OA
ATOM      6  O   UNL     1      61.668  28.661  61.070  1.00  0.00    -0.550 OA
ENDBRANCH   3   4
ENDBRANCH   2   3
ENDBRANCH   1   2
BRANCH   1   7
ATOM      7  C   UNL     1      61.690  34.429  60.222  1.00  0.00     0.000 C 
BRANCH   7   8
ATOM      8  C   UNL     1      62.629  35.472  60.848  1.00  0.00    -0.000 C 
BRANCH   8   9
ATOM      9  C   UNL     1      63.987  34.849  61.191  1.00  0.00    -0.003 C 
ATOM     10  C   UNL     1      64.972  35.909  61.678  1.00  0.00     0.004 C 
ENDBRANCH   8   9
ENDBRANCH   7   8
ENDBRANCH   1   7
TORSDOF 6
ENDMDL
MODEL 2
REMARK VINA RESULT:    -3.447     12.296     13.860
REMARK INTER + INTRA:          -4.826
REMARK INTER:                  -4.561
REMARK INTRA:                  -0.264
REMARK UNBOUND:                -0.169
REMARK SMILES CCCCCCCC(=O)[O-]
REMARK SMILES IDX 5 1 6 2 7 3 8 4 9 5 10 6 4 7 3 8 2 9 1 10
REMARK H PARENT
REMARK Flexibility Score: inf
ROOT
ATOM      1  C   UNL     1      57.042  28.095  50.361  1.00  0.00     0.000 C 
ENDROOT
BRANCH   1   2
ATOM      2  C   UNL     1      58.011  29.243  50.025  1.00  0.00     0.006 C 
BRANCH   2   3
ATOM      3  C   UNL     1      59.234  28.756  49.236  1.00  0.00     0.053 C 
BRANCH   3   4
ATOM      4  C   UNL     1      60.019  27.733  49.999  1.00  0.00     0.041 C 
ATOM      5  O   UNL     1      60.126  26.559  49.560  1.00  0.00    -0.550 OA
ATOM      6  O   UNL     1      60.610  28.071  51.211  1.00  0.00    -0.550 OA
ENDBRANCH   3   4
ENDBRANCH   2   3
ENDBRANCH   1   2
BRANCH   1   7
ATOM      7  C   UNL     1      55.649  28.599  50.770  1.00  0.00     0.000 C 
BRANCH   7   8
ATOM      8  C   UNL     1      54.514  27.855  50.050  1.00  0.00    -0.000 C 
BRANCH   8   9
ATOM      9  C   UNL     1      54.930  26.420  49.708  1.00  0.00    -0.003 C 
ATOM     10  C   UNL     1      53.771  25.642  49.090  1.00  0.00     0.004 C 
ENDBRANCH   8   9
ENDBRANCH   7   8
ENDBRANCH   1   7
TORSDOF 6
ENDMDL
MODEL 3
REMARK VINA RESULT:    -3.337      3.066      5.029
REMARK INTER + INTRA:          -4.677
REMARK INTER:                  -4.356
REMARK INTRA:                  -0.321
REMARK UNBOUND:                -0.169
REMARK SMILES CCCCCCCC(=O)[O-]
REMARK SMILES IDX 5 1 6 2 7 3 8 4 9 5 10 6 4 7 3 8 2 9 1 10
REMARK H PARENT
REMARK Flexibility Score: inf
ROOT
ATOM      1  C   UNL     1      61.559  32.263  60.045  1.00  0.00     0.000 C 
ENDROOT
BRANCH   1   2
ATOM      2  C   UNL     1      61.850  33.740  60.368  1.00  0.00     0.006 C 
BRANCH   2   3
ATOM      3  C   UNL     1      63.355  34.028  60.451  1.00  0.00     0.053 C 
BRANCH   3   4
ATOM      4  C   UNL     1      63.641  35.283  61.219  1.00  0.00     0.041 C 
ATOM      5  O   UNL     1      62.788  36.208  61.260  1.00  0.00    -0.550 OA
ATOM      6  O   UNL     1      64.861  35.443  61.864  1.00  0.00    -0.550 OA
ENDBRANCH   3   4
ENDBRANCH   2   3
ENDBRANCH   1   2
BRANCH   1   7
ATOM      7  C   UNL     1      60.925  31.513  61.226  1.00  0.00     0.000 C 
BRANCH   7   8
ATOM      8  C   UNL     1      61.726  30.268  61.638  1.00  0.00    -0.000 C 
BRANCH   8   9
ATOM      9  C   UNL     1      63.207  30.426  61.276  1.00  0.00    -0.003 C 
ATOM     10  C   UNL     1      63.813  29.093  60.843  1.00  0.00     0.004 C 
ENDBRANCH   8   9
ENDBRANCH   7   8
ENDBRANCH   1   7
TORSDOF 6
ENDMDL
MODEL 4
REMARK VINA RESULT:    -3.324      3.491      5.341
REMARK INTER + INTRA:          -4.659
REMARK INTER:                  -4.343
REMARK INTRA:                  -0.316
REMARK UNBOUND:                -0.169
REMARK SMILES CCCCCCCC(=O)[O-]
REMARK SMILES IDX 5 1 6 2 7 3 8 4 9 5 10 6 4 7 3 8 2 9 1 10
REMARK H PARENT
REMARK Flexibility Score: inf
ROOT
ATOM      1  C   UNL     1      64.178  33.035  60.664  1.00  0.00     0.000 C 
ENDROOT
BRANCH   1   2
ATOM      2  C   UNL     1      63.803  34.521  60.808  1.00  0.00     0.006 C 
BRANCH   2   3
ATOM      3  C   UNL     1      62.331  34.784  60.463  1.00  0.00     0.053 C 
BRANCH   3   4
ATOM      4  C   UNL     1      61.926  36.190  60.784  1.00  0.00     0.041 C 
ATOM      5  O   UNL     1      62.712  36.949  61.409  1.00  0.00    -0.550 OA
ATOM      6  O   UNL     1      60.669  36.654  60.418  1.00  0.00    -0.550 OA
ENDBRANCH   3   4
ENDBRANCH   2   3
ENDBRANCH   1   2
BRANCH   1   7
ATOM      7  C   UNL     1      62.947  32.125  60.534  1.00  0.00     0.000 C 
BRANCH   7   8
ATOM      8  C   UNL     1      63.191  30.712  61.086  1.00  0.00    -0.000 C 
BRANCH   8   9
ATOM      9  C   UNL     1      61.908  30.131  61.690  1.00  0.00    -0.003 C 
ATOM     10  C   UNL     1      60.741  31.105  61.547  1.00  0.00     0.004 C 
ENDBRANCH   8   9
ENDBRANCH   7   8
ENDBRANCH   1   7
TORSDOF 6
ENDMDL
MODEL 5
REMARK VINA RESULT:    -3.308     12.826     14.195
REMARK INTER + INTRA:          -4.638
REMARK INTER:                  -4.341
REMARK INTRA:                  -0.297
REMARK UNBOUND:                -0.169
REMARK SMILES CCCCCCCC(=O)[O-]
REMARK SMILES IDX 5 1 6 2 7 3 8 4 9 5 10 6 4 7 3 8 2 9 1 10
REMARK H PARENT
REMARK Flexibility Score: inf
ROOT
ATOM      1  C   UNL     1      56.033  26.099  50.631  1.00  0.00     0.000 C 
ENDROOT
BRANCH   1   2
ATOM      2  C   UNL     1      57.463  26.373  50.129  1.00  0.00     0.006 C 
BRANCH   2   3
ATOM      3  C   UNL     1      57.963  27.765  50.537  1.00  0.00     0.053 C 
BRANCH   3   4
ATOM      4  C   UNL     1      58.965  28.305  49.563  1.00  0.00     0.041 C 
ATOM      5  O   UNL     1      59.983  27.630  49.262  1.00  0.00    -0.550 OA
ATOM      6  O   UNL     1      58.788  29.567  49.008  1.00  0.00    -0.550 OA
ENDBRANCH   3   4
ENDBRANCH   2   3
ENDBRANCH   1   2
BRANCH   1   7
ATOM      7  C   UNL     1      54.995  26.118  49.498  1.00  0.00     0.000 C 
BRANCH   7   8
ATOM      8  C   UNL     1      53.814  27.054  49.791  1.00  0.00    -0.000 C 
BRANCH   8   9
ATOM      9  C   UNL     1      54.298  28.367  50.416  1.00  0.00    -0.003 C 
ATOM     10  C   UNL     1      53.278  29.485  50.209  1.00  0.00     0.004 C 
ENDBRANCH   8   9
ENDBRANCH   7   8
ENDBRANCH   1   7
TORSDOF 6
ENDMDL
MODEL 6
REMARK VINA RESULT:    -3.289     12.463     14.208
REMARK INTER + INTRA:          -4.611
REMARK INTER:                  -4.238
REMARK INTRA:                  -0.374
REMARK UNBOUND:                -0.169
REMARK SMILES CCCCCCCC(=O)[O-]
REMARK SMILES IDX 5 1 6 2 7 3 8 4 9 5 10 6 4 7 3 8 2 9 1 10
REMARK H PARENT
REMARK Flexibility Score: inf
ROOT
ATOM      1  C   UNL     1      54.883  29.295  50.733  1.00  0.00     0.000 C 
ENDROOT
BRANCH   1   2
ATOM      2  C   UNL     1      56.260  28.956  51.333  1.00  0.00     0.006 C 
BRANCH   2   3
ATOM      3  C   UNL     1      57.194  28.303  50.305  1.00  0.00     0.053 C 
BRANCH   3   4
ATOM      4  C   UNL     1      58.442  29.107  50.098  1.00  0.00     0.041 C 
ATOM      5  O   UNL     1      59.065  29.037  49.007  1.00  0.00    -0.550 OA
ATOM      6  O   UNL     1      58.932  29.910  51.120  1.00  0.00    -0.550 OA
ENDBRANCH   3   4
ENDBRANCH   2   3
ENDBRANCH   1   2
BRANCH   1   7
ATOM      7  C   UNL     1      53.875  28.145  50.879  1.00  0.00     0.000 C 
BRANCH   7   8
ATOM      8  C   UNL     1      53.043  27.920  49.607  1.00  0.00    -0.000 C 
BRANCH   8   9
ATOM      9  C   UNL     1      53.062  26.444  49.194  1.00  0.00    -0.003 C 
ATOM     10  C   UNL     1      54.477  25.873  49.259  1.00  0.00     0.004 C 
ENDBRANCH   8   9
ENDBRANCH   7   8
ENDBRANCH   1   7
TORSDOF 6
ENDMDL
MODEL 7
REMARK VINA RESULT:    -3.278      1.007      1.502
REMARK INTER + INTRA:          -4.597
REMARK INTER:                  -4.302
REMARK INTRA:                  -0.294
REMARK UNBOUND:                -0.169
REMARK SMILES CCCCCCCC(=O)[O-]
REMARK SMILES IDX 5 1 6 2 7 3 8 4 9 5 10 6 4 7 3 8 2 9 1 10
REMARK H PARENT
REMARK Flexibility Score: inf
ROOT
ATOM      1  C   UNL     1      60.911  32.131  60.472  1.00  0.00     0.000 C 
ENDROOT
BRANCH   1   2
ATOM      2  C   UNL     1      60.955  31.036  61.552  1.00  0.00     0.006 C 
BRANCH   2   3
ATOM      3  C   UNL     1      62.325  30.349  61.625  1.00  0.00     0.053 C 
BRANCH   3   4
ATOM      4  C   UNL     1      62.327  29.032  60.911  1.00  0.00     0.041 C 
ATOM      5  O   UNL     1      62.443  28.990  59.658  1.00  0.00    -0.550 OA
ATOM      6  O   UNL     1      62.170  27.851  61.626  1.00  0.00    -0.550 OA
ENDBRANCH   3   4
ENDBRANCH   2   3
ENDBRANCH   1   2
BRANCH   1   7
ATOM      7  C   UNL     1      62.150  33.038  60.498  1.00  0.00     0.000 C 
BRANCH   7   8
ATOM      8  C   UNL     1      61.807  34.520  60.284  1.00  0.00    -0.000 C 
BRANCH   8   9
ATOM      9  C   UNL     1      62.970  35.420  60.718  1.00  0.00    -0.003 C 
ATOM     10  C   UNL     1      64.138  34.592  61.250  1.00  0.00     0.004 C 
ENDBRANCH   8   9
ENDBRANCH   7   8
ENDBRANCH   1   7
TORSDOF 6
ENDMDL
MODEL 8
REMARK VINA RESULT:    -3.224     12.253     13.951
REMARK INTER + INTRA:          -4.524
REMARK INTER:                  -4.327
REMARK INTRA:                  -0.197
REMARK UNBOUND:                -0.169
REMARK SMILES CCCCCCCC(=O)[O-]
REMARK SMILES IDX 5 1 6 2 7 3 8 4 9 5 10 6 4 7 3 8 2 9 1 10
REMARK H PARENT
REMARK Flexibility Score: inf
ROOT
ATOM      1  C   UNL     1      57.138  27.758  50.391  1.00  0.00     0.000 C 
ENDROOT
BRANCH   1   2
ATOM      2  C   UNL     1      57.740  29.175  50.376  1.00  0.00     0.006 C 
BRANCH   2   3
ATOM      3  C   UNL     1      58.814  29.336  49.292  1.00  0.00     0.053 C 
BRANCH   3   4
ATOM      4  C   UNL     1      60.127  28.750  49.717  1.00  0.00     0.041 C 
ATOM      5  O   UNL     1      60.936  29.435  50.395  1.00  0.00    -0.550 OA
ATOM      6  O   UNL     1      60.468  27.457  49.340  1.00  0.00    -0.550 OA
ENDBRANCH   3   4
ENDBRANCH   2   3
ENDBRANCH   1   2
BRANCH   1   7
ATOM      7  C   UNL     1      55.602  27.769  50.426  1.00  0.00     0.000 C 
BRANCH   7   8
ATOM      8  C   UNL     1      54.983  26.563  49.703  1.00  0.00    -0.000 C 
BRANCH   8   9
ATOM      9  C   UNL     1      53.456  26.683  49.646  1.00  0.00    -0.003 C 
ATOM     10  C   UNL     1      53.015  28.144  49.714  1.00  0.00     0.004 C 
ENDBRANCH   8   9
ENDBRANCH   7   8
ENDBRANCH   1   7
TORSDOF 6
ENDMDL
MODEL 9
REMARK VINA RESULT:    -3.143      1.521      2.577
REMARK INTER + INTRA:          -4.415
REMARK INTER:                  -4.070
REMARK INTRA:                  -0.345
REMARK UNBOUND:                -0.169
REMARK SMILES CCCCCCCC(=O)[O-]
REMARK SMILES IDX 5 1 6 2 7 3 8 4 9 5 10 6 4 7 3 8 2 9 1 10
REMARK H PARENT
REMARK Flexibility Score: inf
ROOT
ATOM      1  C   UNL     1      60.806  31.062  61.107  1.00  0.00     0.000 C 
ENDROOT
BRANCH   1   2
ATOM      2  C   UNL     1      62.032  30.351  61.707  1.00  0.00     0.006 C 
BRANCH   2   3
ATOM      3  C   UNL     1      62.133  28.888  61.254  1.00  0.00     0.053 C 
BRANCH   3   4
ATOM      4  C   UNL     1      63.500  28.556  60.740  1.00  0.00     0.041 C 
ATOM      5  O   UNL     1      63.926  27.373  60.790  1.00  0.00    -0.550 OA
ATOM      6  O   UNL     1      64.317  29.560  60.233  1.00  0.00    -0.550 OA
ENDBRANCH   3   4
ENDBRANCH   2   3
ENDBRANCH   1   2
BRANCH   1   7
ATOM      7  C   UNL     1      61.174  32.362  60.377  1.00  0.00     0.000 C 
BRANCH   7   8
ATOM      8  C   UNL     1      62.674  32.685  60.459  1.00  0.00    -0.000 C 
BRANCH   8   9
ATOM      9  C   UNL     1      62.902  34.193  60.616  1.00  0.00    -0.003 C 
ATOM     10  C   UNL     1      61.627  34.977  60.314  1.00  0.00     0.004 C 
ENDBRANCH   8   9
ENDBRANCH   7   8
ENDBRANCH   1   7
TORSDOF 6
ENDMDL
