MODEL 1
REMARK VINA RESULT:    -4.055      0.000      0.000
REMARK INTER + INTRA:          -5.988
REMARK INTER:                  -5.477
REMARK INTRA:                  -0.511
REMARK UNBOUND:                -0.511
REMARK SMILES [NH3+]CCCC[C@@H]([NH3+])C(=O)[O-]
REMARK SMILES IDX 4 1 3 2 2 3 1 4 5 8 6 9 7 10 8 14 9 15 10 16
REMARK H PARENT 1 5 1 6 1 7 7 11 7 12 7 13
REMARK Flexibility Score: inf
ROOT
ATOM      1  C   UNL     1      22.938  39.694  22.281  1.00  0.00     0.012 C 
ENDROOT
BRANCH   1   2
ATOM      2  C   UNL     1      21.920  39.478  23.418  1.00  0.00     0.061 C 
BRANCH   2   3
ATOM      3  C   UNL     1      22.443  39.817  24.826  1.00  0.00     0.258 C 
BRANCH   3   4
ATOM      4  N   UNL     1      22.329  38.686  25.748  1.00  0.00    -0.358 N 
ATOM      5  H   UNL     1      23.277  38.357  26.040  1.00  0.00     0.344 HD
ATOM      6  H   UNL     1      21.769  38.956  26.588  1.00  0.00     0.344 HD
ATOM      7  H   UNL     1      21.844  37.898  25.261  1.00  0.00     0.344 HD
ENDBRANCH   3   4
ENDBRANCH   2   3
ENDBRANCH   1   2
BRANCH   1   8
ATOM      8  C   UNL     1      24.383  39.259  22.600  1.00  0.00     0.072 C 
BRANCH   8   9
ATOM      9  C   UNL     1      24.707  37.784  22.265  1.00  0.00     0.227 C 
BRANCH   9  10
ATOM     10  N   UNL     1      25.832  37.673  21.326  1.00  0.00    -0.350 N 
ATOM     11  H   UNL     1      26.545  37.005  21.701  1.00  0.00     0.345 HD
ATOM     12  H   UNL     1      26.284  38.605  21.176  1.00  0.00     0.345 HD
ATOM     13  H   UNL     1      25.500  37.296  20.410  1.00  0.00     0.345 HD
ENDBRANCH   9  10
BRANCH   9  14
ATOM     14  C   UNL     1      25.022  37.043  23.539  1.00  0.00     0.099 C 
ATOM     15  O   UNL     1      24.101  36.763  24.351  1.00  0.00    -0.544 OA
ATOM     16  O   UNL     1      26.332  36.694  23.841  1.00  0.00    -0.544 OA
ENDBRANCH   9  14
ENDBRANCH   8   9
ENDBRANCH   1   8
TORSDOF 7
ENDMDL
MODEL 2
REMARK VINA RESULT:    -4.025      1.700      1.850
REMARK INTER + INTRA:          -5.948
REMARK INTER:                  -5.748
REMARK INTRA:                  -0.200
REMARK UNBOUND:                -0.511
REMARK SMILES [NH3+]CCCC[C@@H]([NH3+])C(=O)[O-]
REMARK SMILES IDX 4 1 3 2 2 3 1 4 5 8 6 9 7 10 8 14 9 15 10 16
REMARK H PARENT 1 5 1 6 1 7 7 11 7 12 7 13
REMARK Flexibility Score: inf
ROOT
ATOM      1  C   UNL     1      23.918  39.500  23.472  1.00  0.00     0.012 C 
ENDROOT
BRANCH   1   2
ATOM      2  C   UNL     1      22.383  39.554  23.334  1.00  0.00     0.061 C 
BRANCH   2   3
ATOM      3  C   UNL     1      21.611  39.430  24.660  1.00  0.00     0.258 C 
BRANCH   3   4
ATOM      4  N   UNL     1      22.376  38.712  25.682  1.00  0.00    -0.358 N 
ATOM      5  H   UNL     1      21.961  38.874  26.627  1.00  0.00     0.344 HD
ATOM      6  H   UNL     1      22.395  37.688  25.470  1.00  0.00     0.344 HD
ATOM      7  H   UNL     1      23.357  39.072  25.688  1.00  0.00     0.344 HD
ENDBRANCH   3   4
ENDBRANCH   2   3
ENDBRANCH   1   2
BRANCH   1   8
ATOM      8  C   UNL     1      24.602  38.325  22.744  1.00  0.00     0.072 C 
BRANCH   8   9
ATOM      9  C   UNL     1      25.182  37.232  23.673  1.00  0.00     0.227 C 
BRANCH   9  10
ATOM     10  N   UNL     1      24.258  36.099  23.825  1.00  0.00    -0.350 N 
ATOM     11  H   UNL     1      23.283  36.402  23.601  1.00  0.00     0.345 HD
ATOM     12  H   UNL     1      24.284  35.728  24.803  1.00  0.00     0.345 HD
ATOM     13  H   UNL     1      24.511  35.337  23.157  1.00  0.00     0.345 HD
ENDBRANCH   9  10
BRANCH   9  14
ATOM     14  C   UNL     1      26.498  36.756  23.118  1.00  0.00     0.099 C 
ATOM     15  O   UNL     1      26.534  36.117  22.033  1.00  0.00    -0.544 OA
ATOM     16  O   UNL     1      27.678  36.988  23.816  1.00  0.00    -0.544 OA
ENDBRANCH   9  14
ENDBRANCH   8   9
ENDBRANCH   1   8
TORSDOF 7
ENDMDL
MODEL 3
REMARK VINA RESULT:    -3.979      2.312      4.361
REMARK INTER + INTRA:          -5.886
REMARK INTER:                  -5.351
REMARK INTRA:                  -0.535
REMARK UNBOUND:                -0.511
REMARK SMILES [NH3+]CCCC[C@@H]([NH3+])C(=O)[O-]
REMARK SMILES IDX 4 1 3 2 2 3 1 4 5 8 6 9 7 10 8 14 9 15 10 16
REMARK H PARENT 1 5 1 6 1 7 7 11 7 12 7 13
REMARK Flexibility Score: inf
ROOT
ATOM      1  C   UNL     1      26.894  36.699  22.933  1.00  0.00     0.012 C 
ENDROOT
BRANCH   1   2
ATOM      2  C   UNL     1      26.298  36.331  21.561  1.00  0.00     0.061 C 
BRANCH   2   3
ATOM      3  C   UNL     1      26.362  37.452  20.508  1.00  0.00     0.258 C 
BRANCH   3   4
ATOM      4  N   UNL     1      25.181  38.318  20.546  1.00  0.00    -0.358 N 
ATOM      5  H   UNL     1      25.457  39.315  20.399  1.00  0.00     0.344 HD
ATOM      6  H   UNL     1      24.491  38.025  19.817  1.00  0.00     0.344 HD
ATOM      7  H   UNL     1      24.731  38.237  21.486  1.00  0.00     0.344 HD
ENDBRANCH   3   4
ENDBRANCH   2   3
ENDBRANCH   1   2
BRANCH   1   8
ATOM      8  C   UNL     1      25.896  36.687  24.109  1.00  0.00     0.072 C 
BRANCH   8   9
ATOM      9  C   UNL     1      24.405  36.710  23.696  1.00  0.00     0.227 C 
BRANCH   9  10
ATOM     10  N   UNL     1      23.627  35.686  24.407  1.00  0.00    -0.350 N 
ATOM     11  H   UNL     1      22.899  35.286  23.771  1.00  0.00     0.345 HD
ATOM     12  H   UNL     1      23.157  36.095  25.249  1.00  0.00     0.345 HD
ATOM     13  H   UNL     1      24.250  34.902  24.704  1.00  0.00     0.345 HD
ENDBRANCH   9  10
BRANCH   9  14
ATOM     14  C   UNL     1      23.834  38.077  23.971  1.00  0.00     0.099 C 
ATOM     15  O   UNL     1      24.292  39.085  23.372  1.00  0.00    -0.544 OA
ATOM     16  O   UNL     1      22.824  38.238  24.911  1.00  0.00    -0.544 OA
ENDBRANCH   9  14
ENDBRANCH   8   9
ENDBRANCH   1   8
TORSDOF 7
ENDMDL
MODEL 4
REMARK VINA RESULT:    -3.953      2.096      4.422
REMARK INTER + INTRA:          -5.850
REMARK INTER:                  -5.314
REMARK INTRA:                  -0.537
REMARK UNBOUND:                -0.511
REMARK SMILES [NH3+]CCCC[C@@H]([NH3+])C(=O)[O-]
REMARK SMILES IDX 4 1 3 2 2 3 1 4 5 8 6 9 7 10 8 14 9 15 10 16
REMARK H PARENT 1 5 1 6 1 7 7 11 7 12 7 13
REMARK Flexibility Score: inf
ROOT
ATOM      1  C   UNL     1      25.450  36.765  24.171  1.00  0.00     0.012 C 
ENDROOT
BRANCH   1   2
ATOM      2  C   UNL     1      26.668  36.757  23.225  1.00  0.00     0.061 C 
BRANCH   2   3
ATOM      3  C   UNL     1      26.351  36.373  21.769  1.00  0.00     0.258 C 
BRANCH   3   4
ATOM      4  N   UNL     1      26.533  37.495  20.847  1.00  0.00    -0.358 N 
ATOM      5  H   UNL     1      25.660  38.068  20.795  1.00  0.00     0.344 HD
ATOM      6  H   UNL     1      27.335  38.092  21.153  1.00  0.00     0.344 HD
ATOM      7  H   UNL     1      26.738  37.122  19.893  1.00  0.00     0.344 HD
ENDBRANCH   3   4
ENDBRANCH   2   3
ENDBRANCH   1   2
BRANCH   1   8
ATOM      8  C   UNL     1      24.075  36.730  23.473  1.00  0.00     0.072 C 
BRANCH   8   9
ATOM      9  C   UNL     1      23.214  38.000  23.668  1.00  0.00     0.227 C 
BRANCH   9  10
ATOM     10  N   UNL     1      22.862  38.209  25.080  1.00  0.00    -0.350 N 
ATOM     11  H   UNL     1      21.823  38.178  25.197  1.00  0.00     0.345 HD
ATOM     12  H   UNL     1      23.217  39.134  25.418  1.00  0.00     0.345 HD
ATOM     13  H   UNL     1      23.266  37.446  25.668  1.00  0.00     0.345 HD
ENDBRANCH   9  10
BRANCH   9  14
ATOM     14  C   UNL     1      23.964  39.195  23.140  1.00  0.00     0.099 C 
ATOM     15  O   UNL     1      24.322  40.114  23.923  1.00  0.00    -0.544 OA
ATOM     16  O   UNL     1      24.236  39.307  21.782  1.00  0.00    -0.544 OA
ENDBRANCH   9  14
ENDBRANCH   8   9
ENDBRANCH   1   8
TORSDOF 7
ENDMDL
MODEL 5
REMARK VINA RESULT:    -3.841      2.100      2.568
REMARK INTER + INTRA:          -5.699
REMARK INTER:                  -5.127
REMARK INTRA:                  -0.572
REMARK UNBOUND:                -0.511
REMARK SMILES [NH3+]CCCC[C@@H]([NH3+])C(=O)[O-]
REMARK SMILES IDX 4 1 3 2 2 3 1 4 5 8 6 9 7 10 8 14 9 15 10 16
REMARK H PARENT 1 5 1 6 1 7 7 11 7 12 7 13
REMARK Flexibility Score: inf
ROOT
ATOM      1  C   UNL     1      24.168  39.817  23.584  1.00  0.00     0.012 C 
ENDROOT
BRANCH   1   2
ATOM      2  C   UNL     1      22.893  39.874  24.448  1.00  0.00     0.061 C 
BRANCH   2   3
ATOM      3  C   UNL     1      22.405  38.510  24.969  1.00  0.00     0.258 C 
BRANCH   3   4
ATOM      4  N   UNL     1      23.392  37.449  24.756  1.00  0.00    -0.358 N 
ATOM      5  H   UNL     1      23.527  37.278  23.734  1.00  0.00     0.344 HD
ATOM      6  H   UNL     1      24.304  37.706  25.199  1.00  0.00     0.344 HD
ATOM      7  H   UNL     1      23.043  36.567  25.194  1.00  0.00     0.344 HD
ENDBRANCH   3   4
ENDBRANCH   2   3
ENDBRANCH   1   2
BRANCH   1   8
ATOM      8  C   UNL     1      23.942  39.978  22.067  1.00  0.00     0.072 C 
BRANCH   8   9
ATOM      9  C   UNL     1      24.181  38.697  21.233  1.00  0.00     0.227 C 
BRANCH   9  10
ATOM     10  N   UNL     1      25.329  37.927  21.734  1.00  0.00    -0.350 N 
ATOM     11  H   UNL     1      26.011  37.759  20.959  1.00  0.00     0.345 HD
ATOM     12  H   UNL     1      25.017  37.006  22.121  1.00  0.00     0.345 HD
ATOM     13  H   UNL     1      25.826  38.466  22.478  1.00  0.00     0.345 HD
ENDBRANCH   9  10
BRANCH   9  14
ATOM     14  C   UNL     1      22.938  37.847  21.260  1.00  0.00     0.099 C 
ATOM     15  O   UNL     1      22.960  36.711  21.802  1.00  0.00    -0.544 OA
ATOM     16  O   UNL     1      21.769  38.298  20.659  1.00  0.00    -0.544 OA
ENDBRANCH   9  14
ENDBRANCH   8   9
ENDBRANCH   1   8
TORSDOF 7
ENDMDL
MODEL 6
REMARK VINA RESULT:    -3.691      2.228      2.683
REMARK INTER + INTRA:          -5.497
REMARK INTER:                  -4.936
REMARK INTRA:                  -0.561
REMARK UNBOUND:                -0.511
REMARK SMILES [NH3+]CCCC[C@@H]([NH3+])C(=O)[O-]
REMARK SMILES IDX 4 1 3 2 2 3 1 4 5 8 6 9 7 10 8 14 9 15 10 16
REMARK H PARENT 1 5 1 6 1 7 7 11 7 12 7 13
REMARK Flexibility Score: inf
ROOT
ATOM      1  C   UNL     1      22.961  37.842  24.236  1.00  0.00     0.012 C 
ENDROOT
BRANCH   1   2
ATOM      2  C   UNL     1      23.056  39.381  24.241  1.00  0.00     0.061 C 
BRANCH   2   3
ATOM      3  C   UNL     1      24.257  39.956  23.469  1.00  0.00     0.258 C 
BRANCH   3   4
ATOM      4  N   UNL     1      23.998  40.052  22.031  1.00  0.00    -0.358 N 
ATOM      5  H   UNL     1      24.712  39.509  21.495  1.00  0.00     0.344 HD
ATOM      6  H   UNL     1      23.039  39.697  21.809  1.00  0.00     0.344 HD
ATOM      7  H   UNL     1      24.060  41.053  21.740  1.00  0.00     0.344 HD
ENDBRANCH   3   4
ENDBRANCH   2   3
ENDBRANCH   1   2
BRANCH   1   8
ATOM      8  C   UNL     1      24.313  37.100  24.207  1.00  0.00     0.072 C 
BRANCH   8   9
ATOM      9  C   UNL     1      24.583  36.290  22.917  1.00  0.00     0.227 C 
BRANCH   9  10
ATOM     10  N   UNL     1      23.465  36.387  21.968  1.00  0.00    -0.350 N 
ATOM     11  H   UNL     1      22.630  35.883  22.347  1.00  0.00     0.345 HD
ATOM     12  H   UNL     1      23.725  35.971  21.044  1.00  0.00     0.345 HD
ATOM     13  H   UNL     1      23.193  37.387  21.834  1.00  0.00     0.345 HD
ENDBRANCH   9  10
BRANCH   9  14
ATOM     14  C   UNL     1      25.851  36.786  22.274  1.00  0.00     0.099 C 
ATOM     15  O   UNL     1      26.970  36.397  22.701  1.00  0.00    -0.544 OA
ATOM     16  O   UNL     1      25.796  37.700  21.229  1.00  0.00    -0.544 OA
ENDBRANCH   9  14
ENDBRANCH   8   9
ENDBRANCH   1   8
TORSDOF 7
ENDMDL
MODEL 7
REMARK VINA RESULT:    -3.690      2.104      2.659
REMARK INTER + INTRA:          -5.495
REMARK INTER:                  -5.330
REMARK INTRA:                  -0.165
REMARK UNBOUND:                -0.511
REMARK SMILES [NH3+]CCCC[C@@H]([NH3+])C(=O)[O-]
REMARK SMILES IDX 4 1 3 2 2 3 1 4 5 8 6 9 7 10 8 14 9 15 10 16
REMARK H PARENT 1 5 1 6 1 7 7 11 7 12 7 13
REMARK Flexibility Score: inf
ROOT
ATOM      1  C   UNL     1      23.760  37.239  24.265  1.00  0.00     0.012 C 
ENDROOT
BRANCH   1   2
ATOM      2  C   UNL     1      23.704  38.712  23.814  1.00  0.00     0.061 C 
BRANCH   2   3
ATOM      3  C   UNL     1      22.680  39.579  24.567  1.00  0.00     0.258 C 
BRANCH   3   4
ATOM      4  N   UNL     1      22.059  38.862  25.682  1.00  0.00    -0.358 N 
ATOM      5  H   UNL     1      22.635  38.031  25.946  1.00  0.00     0.344 HD
ATOM      6  H   UNL     1      21.947  39.496  26.506  1.00  0.00     0.344 HD
ATOM      7  H   UNL     1      21.114  38.526  25.387  1.00  0.00     0.344 HD
ENDBRANCH   3   4
ENDBRANCH   2   3
ENDBRANCH   1   2
BRANCH   1   8
ATOM      8  C   UNL     1      24.900  36.405  23.646  1.00  0.00     0.072 C 
BRANCH   8   9
ATOM      9  C   UNL     1      26.039  37.233  23.005  1.00  0.00     0.227 C 
BRANCH   9  10
ATOM     10  N   UNL     1      27.349  36.895  23.579  1.00  0.00    -0.350 N 
ATOM     11  H   UNL     1      27.784  36.114  23.037  1.00  0.00     0.345 HD
ATOM     12  H   UNL     1      27.251  36.604  24.579  1.00  0.00     0.345 HD
ATOM     13  H   UNL     1      27.991  37.716  23.517  1.00  0.00     0.345 HD
ENDBRANCH   9  10
BRANCH   9  14
ATOM     14  C   UNL     1      26.049  36.996  21.517  1.00  0.00     0.099 C 
ATOM     15  O   UNL     1      26.684  36.021  21.037  1.00  0.00    -0.544 OA
ATOM     16  O   UNL     1      25.385  37.870  20.664  1.00  0.00    -0.544 OA
ENDBRANCH   9  14
ENDBRANCH   8   9
ENDBRANCH   1   8
TORSDOF 7
ENDMDL
MODEL 8
REMARK VINA RESULT:    -3.669     14.124     15.434
REMARK INTER + INTRA:          -5.466
REMARK INTER:                  -4.943
REMARK INTRA:                  -0.524
REMARK UNBOUND:                -0.511
REMARK SMILES [NH3+]CCCC[C@@H]([NH3+])C(=O)[O-]
REMARK SMILES IDX 4 1 3 2 2 3 1 4 5 8 6 9 7 10 8 14 9 15 10 16
REMARK H PARENT 1 5 1 6 1 7 7 11 7 12 7 13
REMARK Flexibility Score: inf
ROOT
ATOM      1  C   UNL     1      17.321  54.061  25.210  1.00  0.00     0.012 C 
ENDROOT
BRANCH   1   2
ATOM      2  C   UNL     1      18.723  54.265  25.816  1.00  0.00     0.061 C 
BRANCH   2   3
ATOM      3  C   UNL     1      19.872  53.630  25.012  1.00  0.00     0.258 C 
BRANCH   3   4
ATOM      4  N   UNL     1      20.601  52.624  25.788  1.00  0.00    -0.358 N 
ATOM      5  H   UNL     1      20.792  51.780  25.202  1.00  0.00     0.344 HD
ATOM      6  H   UNL     1      21.500  53.022  26.146  1.00  0.00     0.344 HD
ATOM      7  H   UNL     1      20.015  52.333  26.603  1.00  0.00     0.344 HD
ENDBRANCH   3   4
ENDBRANCH   2   3
ENDBRANCH   1   2
BRANCH   1   8
ATOM      8  C   UNL     1      17.187  52.860  24.251  1.00  0.00     0.072 C 
BRANCH   8   9
ATOM      9  C   UNL     1      16.527  51.605  24.869  1.00  0.00     0.227 C 
BRANCH   9  10
ATOM     10  N   UNL     1      15.418  51.109  24.042  1.00  0.00    -0.350 N 
ATOM     11  H   UNL     1      15.430  50.063  24.020  1.00  0.00     0.345 HD
ATOM     12  H   UNL     1      15.495  51.471  23.063  1.00  0.00     0.345 HD
ATOM     13  H   UNL     1      14.503  51.404  24.451  1.00  0.00     0.345 HD
ENDBRANCH   9  10
BRANCH   9  14
ATOM     14  C   UNL     1      17.567  50.529  25.039  1.00  0.00     0.099 C 
ATOM     15  O   UNL     1      17.617  49.565  24.231  1.00  0.00    -0.544 OA
ATOM     16  O   UNL     1      18.455  50.576  26.107  1.00  0.00    -0.544 OA
ENDBRANCH   9  14
ENDBRANCH   8   9
ENDBRANCH   1   8
TORSDOF 7
ENDMDL
MODEL 9
REMARK VINA RESULT:    -3.543      2.676      3.530
REMARK INTER + INTRA:          -5.297
REMARK INTER:                  -4.844
REMARK INTRA:                  -0.453
REMARK UNBOUND:                -0.511
REMARK SMILES [NH3+]CCCC[C@@H]([NH3+])C(=O)[O-]
REMARK SMILES IDX 4 1 3 2 2 3 1 4 5 8 6 9 7 10 8 14 9 15 10 16
REMARK H PARENT 1 5 1 6 1 7 7 11 7 12 7 13
REMARK Flexibility Score: inf
ROOT
ATOM      1  C   UNL     1      26.550  36.407  22.659  1.00  0.00     0.012 C 
ENDROOT
BRANCH   1   2
ATOM      2  C   UNL     1      25.878  36.725  24.009  1.00  0.00     0.061 C 
BRANCH   2   3
ATOM      3  C   UNL     1      24.409  36.279  24.120  1.00  0.00     0.258 C 
BRANCH   3   4
ATOM      4  N   UNL     1      23.534  37.360  24.577  1.00  0.00    -0.358 N 
ATOM      5  H   UNL     1      23.051  37.088  25.463  1.00  0.00     0.344 HD
ATOM      6  H   UNL     1      24.085  38.237  24.725  1.00  0.00     0.344 HD
ATOM      7  H   UNL     1      22.806  37.540  23.849  1.00  0.00     0.344 HD
ENDBRANCH   3   4
ENDBRANCH   2   3
ENDBRANCH   1   2
BRANCH   1   8
ATOM      8  C   UNL     1      25.632  36.522  21.425  1.00  0.00     0.072 C 
BRANCH   8   9
ATOM      9  C   UNL     1      25.507  37.948  20.837  1.00  0.00     0.227 C 
BRANCH   9  10
ATOM     10  N   UNL     1      25.542  37.937  19.368  1.00  0.00    -0.350 N 
ATOM     11  H   UNL     1      24.933  37.168  19.003  1.00  0.00     0.345 HD
ATOM     12  H   UNL     1      26.518  37.792  19.021  1.00  0.00     0.345 HD
ATOM     13  H   UNL     1      25.169  38.837  18.993  1.00  0.00     0.345 HD
ENDBRANCH   9  10
BRANCH   9  14
ATOM     14  C   UNL     1      24.225  38.573  21.320  1.00  0.00     0.099 C 
ATOM     15  O   UNL     1      23.125  38.232  20.813  1.00  0.00    -0.544 OA
ATOM     16  O   UNL     1      24.251  39.554  22.304  1.00  0.00    -0.544 OA
ENDBRANCH   9  14
ENDBRANCH   8   9
ENDBRANCH   1   8
TORSDOF 7
ENDMDL
