MODEL 1
REMARK VINA RESULT:    14.244      0.000      0.000
REMARK INTER + INTRA:          22.554
REMARK INTER:                  22.154
REMARK INTRA:                   0.399
REMARK UNBOUND:                 0.399
REMARK SMILES COc1cc(CNC(=O)CCCCC=CC(C)C)ccc1O
REMARK SMILES IDX 11 1 12 2 13 3 14 4 15 5 16 6 17 7 18 8 10 9 8 10 9 11 7 12
REMARK SMILES IDX 6 14 5 15 4 16 19 17 3 18 20 19 21 20 2 21 1 22 22 23
REMARK H PARENT 7 13 22 24
REMARK Flexibility Score: inf
ROOT
ATOM      1  C   UNL     1       8.089  11.628  33.593  1.00  0.00     0.010 C 
ENDROOT
BRANCH   1   2
ATOM      2  C   UNL     1       8.257  12.679  34.705  1.00  0.00     0.005 C 
BRANCH   2   3
ATOM      3  C   UNL     1       8.071  12.077  36.105  1.00  0.00     0.027 C 
BRANCH   3   4
ATOM      4  C   UNL     1       6.800  11.277  36.203  1.00  0.00    -0.031 C 
ATOM      5  C   UNL     1       5.944  11.189  35.170  1.00  0.00    -0.028 C 
BRANCH   5   6
ATOM      6  C   UNL     1       4.688  10.349  35.218  1.00  0.00     0.005 C 
ATOM      7  C   UNL     1       4.278   9.881  33.818  1.00  0.00     0.012 C 
ATOM      8  C   UNL     1       3.542  11.095  35.912  1.00  0.00     0.012 C 
ENDBRANCH   5   6
ENDBRANCH   3   4
ENDBRANCH   2   3
ENDBRANCH   1   2
BRANCH   1   9
ATOM      9  C   UNL     1       9.430  11.226  32.968  1.00  0.00     0.100 C 
BRANCH   9  10
ATOM     10  C   UNL     1      10.522  12.194  33.322  1.00  0.00     0.220 C 
ATOM     11  O   UNL     1      10.876  13.062  32.479  1.00  0.00    -0.275 OA
ATOM     12  N   UNL     1      11.133  12.152  34.620  1.00  0.00    -0.352 N 
ATOM     13  H   UNL     1      10.790  11.459  35.322  1.00  0.00     0.163 HD
BRANCH  12  14
ATOM     14  C   UNL     1      12.200  13.069  35.014  1.00  0.00     0.151 C 
BRANCH  14  15
ATOM     15  C   UNL     1      12.545  12.873  36.466  1.00  0.00    -0.025 A 
ATOM     16  C   UNL     1      11.568  12.411  37.363  1.00  0.00     0.056 A 
ATOM     17  C   UNL     1      13.844  13.123  36.929  1.00  0.00     0.009 A 
ATOM     18  C   UNL     1      11.883  12.202  38.720  1.00  0.00     0.160 A 
ATOM     19  C   UNL     1      14.162  12.919  38.273  1.00  0.00     0.050 A 
ATOM     20  C   UNL     1      13.191  12.461  39.170  1.00  0.00     0.157 A 
BRANCH  18  21
ATOM     21  O   UNL     1      10.930  11.739  39.642  1.00  0.00    -0.493 OA
ATOM     22  C   UNL     1       9.949  10.745  39.360  1.00  0.00     0.278 C 
ENDBRANCH  18  21
BRANCH  20  23
ATOM     23  O   UNL     1      13.547  12.269  40.506  1.00  0.00    -0.504 OA
ATOM     24  H   UNL     1      12.969  11.738  41.148  1.00  0.00     0.293 HD
ENDBRANCH  20  23
ENDBRANCH  14  15
ENDBRANCH  12  14
ENDBRANCH   9  10
ENDBRANCH   1   9
TORSDOF 10
ENDMDL
