MODEL 1
REMARK VINA RESULT:    -2.601      0.000      0.000
REMARK INTER + INTRA:          -3.169
REMARK INTER:                  -3.057
REMARK INTRA:                  -0.112
REMARK UNBOUND:                -0.112
REMARK SMILES O=C([O-])CCC(=O)[O-]
REMARK SMILES IDX 4 1 2 2 1 3 3 4 5 5 6 6 7 7 8 8
REMARK H PARENT
REMARK Flexibility Score: inf
ROOT
ATOM      1  C   UNL     1      88.716  38.728  24.596  1.00  0.00     0.059 C 
ENDROOT
BRANCH   1   2
ATOM      2  C   UNL     1      89.358  37.407  24.296  1.00  0.00     0.042 C 
ATOM      3  O   UNL     1      90.318  37.338  23.483  1.00  0.00    -0.550 OA
ATOM      4  O   UNL     1      88.871  36.249  24.886  1.00  0.00    -0.550 OA
ENDBRANCH   1   2
BRANCH   1   5
ATOM      5  C   UNL     1      89.423  39.449  25.747  1.00  0.00     0.059 C 
BRANCH   5   6
ATOM      6  C   UNL     1      90.058  40.727  25.294  1.00  0.00     0.042 C 
ATOM      7  O   UNL     1      91.013  40.704  24.473  1.00  0.00    -0.550 OA
ATOM      8  O   UNL     1      89.568  41.946  25.746  1.00  0.00    -0.550 OA
ENDBRANCH   5   6
ENDBRANCH   1   5
TORSDOF 3
ENDMDL
MODEL 2
REMARK VINA RESULT:    -2.538      9.553     10.506
REMARK INTER + INTRA:          -3.095
REMARK INTER:                  -3.001
REMARK INTRA:                  -0.093
REMARK UNBOUND:                -0.112
REMARK SMILES O=C([O-])CCC(=O)[O-]
REMARK SMILES IDX 4 1 2 2 1 3 3 4 5 5 6 6 7 7 8 8
REMARK H PARENT
REMARK Flexibility Score: inf
ROOT
ATOM      1  C   UNL     1      88.871  30.197  28.768  1.00  0.00     0.059 C 
ENDROOT
BRANCH   1   2
ATOM      2  C   UNL     1      87.395  30.093  29.009  1.00  0.00     0.042 C 
ATOM      3  O   UNL     1      86.748  31.091  29.421  1.00  0.00    -0.550 OA
ATOM      4  O   UNL     1      86.743  28.883  28.812  1.00  0.00    -0.550 OA
ENDBRANCH   1   2
BRANCH   1   5
ATOM      5  C   UNL     1      89.434  28.910  28.158  1.00  0.00     0.059 C 
BRANCH   5   6
ATOM      6  C   UNL     1      89.759  29.082  26.706  1.00  0.00     0.042 C 
ATOM      7  O   UNL     1      90.372  28.175  26.082  1.00  0.00    -0.550 OA
ATOM      8  O   UNL     1      89.351  30.226  26.033  1.00  0.00    -0.550 OA
ENDBRANCH   5   6
ENDBRANCH   1   5
TORSDOF 3
ENDMDL
MODEL 3
REMARK VINA RESULT:    -2.534      9.370     10.971
REMARK INTER + INTRA:          -3.090
REMARK INTER:                  -3.008
REMARK INTRA:                  -0.083
REMARK UNBOUND:                -0.112
REMARK SMILES O=C([O-])CCC(=O)[O-]
REMARK SMILES IDX 4 1 2 2 1 3 3 4 5 5 6 6 7 7 8 8
REMARK H PARENT
REMARK Flexibility Score: inf
ROOT
ATOM      1  C   UNL     1      89.290  29.992  27.670  1.00  0.00     0.059 C 
ENDROOT
BRANCH   1   2
ATOM      2  C   UNL     1      89.665  29.543  26.291  1.00  0.00     0.042 C 
ATOM      3  O   UNL     1      89.262  28.432  25.854  1.00  0.00    -0.550 OA
ATOM      4  O   UNL     1      90.490  30.334  25.502  1.00  0.00    -0.550 OA
ENDBRANCH   1   2
BRANCH   1   5
ATOM      5  C   UNL     1      89.193  28.811  28.640  1.00  0.00     0.059 C 
BRANCH   5   6
ATOM      6  C   UNL     1      87.776  28.543  29.044  1.00  0.00     0.042 C 
ATOM      7  O   UNL     1      86.922  29.468  29.013  1.00  0.00    -0.550 OA
ATOM      8  O   UNL     1      87.389  27.261  29.416  1.00  0.00    -0.550 OA
ENDBRANCH   5   6
ENDBRANCH   1   5
TORSDOF 3
ENDMDL
MODEL 4
REMARK VINA RESULT:    -2.524      9.595     10.361
REMARK INTER + INTRA:          -3.079
REMARK INTER:                  -2.986
REMARK INTRA:                  -0.093
REMARK UNBOUND:                -0.112
REMARK SMILES O=C([O-])CCC(=O)[O-]
REMARK SMILES IDX 4 1 2 2 1 3 3 4 5 5 6 6 7 7 8 8
REMARK H PARENT
REMARK Flexibility Score: inf
ROOT
ATOM      1  C   UNL     1      89.412  28.925  28.145  1.00  0.00     0.059 C 
ENDROOT
BRANCH   1   2
ATOM      2  C   UNL     1      89.710  29.155  26.695  1.00  0.00     0.042 C 
ATOM      3  O   UNL     1      89.293  30.195  26.118  1.00  0.00    -0.550 OA
ATOM      4  O   UNL     1      90.417  28.204  25.972  1.00  0.00    -0.550 OA
ENDBRANCH   1   2
BRANCH   1   5
ATOM      5  C   UNL     1      88.815  30.174  28.802  1.00  0.00     0.059 C 
BRANCH   5   6
ATOM      6  C   UNL     1      87.344  30.024  29.040  1.00  0.00     0.042 C 
ATOM      7  O   UNL     1      86.781  28.914  28.849  1.00  0.00    -0.550 OA
ATOM      8  O   UNL     1      86.603  31.100  29.512  1.00  0.00    -0.550 OA
ENDBRANCH   5   6
ENDBRANCH   1   5
TORSDOF 3
ENDMDL
MODEL 5
REMARK VINA RESULT:    -2.520      9.619     10.541
REMARK INTER + INTRA:          -3.073
REMARK INTER:                  -2.977
REMARK INTRA:                  -0.097
REMARK UNBOUND:                -0.112
REMARK SMILES O=C([O-])CCC(=O)[O-]
REMARK SMILES IDX 4 1 2 2 1 3 3 4 5 5 6 6 7 7 8 8
REMARK H PARENT
REMARK Flexibility Score: inf
ROOT
ATOM      1  C   UNL     1      88.818  30.179  28.746  1.00  0.00     0.059 C 
ENDROOT
BRANCH   1   2
ATOM      2  C   UNL     1      87.352  30.030  29.021  1.00  0.00     0.042 C 
ATOM      3  O   UNL     1      86.760  28.953  28.743  1.00  0.00    -0.550 OA
ATOM      4  O   UNL     1      86.633  31.093  29.550  1.00  0.00    -0.550 OA
ENDBRANCH   1   2
BRANCH   1   5
ATOM      5  C   UNL     1      89.407  28.906  28.131  1.00  0.00     0.059 C 
BRANCH   5   6
ATOM      6  C   UNL     1      89.652  29.064  26.662  1.00  0.00     0.042 C 
ATOM      7  O   UNL     1      90.364  28.228  26.044  1.00  0.00    -0.550 OA
ATOM      8  O   UNL     1      89.061  30.112  25.967  1.00  0.00    -0.550 OA
ENDBRANCH   5   6
ENDBRANCH   1   5
TORSDOF 3
ENDMDL
MODEL 6
REMARK VINA RESULT:    -2.506      9.270     11.232
REMARK INTER + INTRA:          -3.057
REMARK INTER:                  -2.896
REMARK INTRA:                  -0.161
REMARK UNBOUND:                -0.112
REMARK SMILES O=C([O-])CCC(=O)[O-]
REMARK SMILES IDX 4 1 2 2 1 3 3 4 5 5 6 6 7 7 8 8
REMARK H PARENT
REMARK Flexibility Score: inf
ROOT
ATOM      1  C   UNL     1      88.786  30.061  28.843  1.00  0.00     0.059 C 
ENDROOT
BRANCH   1   2
ATOM      2  C   UNL     1      87.488  30.738  28.522  1.00  0.00     0.042 C 
ATOM      3  O   UNL     1      86.640  30.947  29.430  1.00  0.00    -0.550 OA
ATOM      4  O   UNL     1      87.200  31.105  27.214  1.00  0.00    -0.550 OA
ENDBRANCH   1   2
BRANCH   1   5
ATOM      5  C   UNL     1      88.962  28.771  28.037  1.00  0.00     0.059 C 
BRANCH   5   6
ATOM      6  C   UNL     1      87.783  27.860  28.185  1.00  0.00     0.042 C 
ATOM      7  O   UNL     1      87.122  27.507  27.172  1.00  0.00    -0.550 OA
ATOM      8  O   UNL     1      87.436  27.369  29.438  1.00  0.00    -0.550 OA
ENDBRANCH   5   6
ENDBRANCH   1   5
TORSDOF 3
ENDMDL
MODEL 7
REMARK VINA RESULT:    -2.506      0.673      4.149
REMARK INTER + INTRA:          -3.057
REMARK INTER:                  -3.015
REMARK INTRA:                  -0.042
REMARK UNBOUND:                -0.112
REMARK SMILES O=C([O-])CCC(=O)[O-]
REMARK SMILES IDX 4 1 2 2 1 3 3 4 5 5 6 6 7 7 8 8
REMARK H PARENT
REMARK Flexibility Score: inf
ROOT
ATOM      1  C   UNL     1      89.369  39.132  25.302  1.00  0.00     0.059 C 
ENDROOT
BRANCH   1   2
ATOM      2  C   UNL     1      89.991  40.495  25.279  1.00  0.00     0.042 C 
ATOM      3  O   UNL     1      90.948  40.743  24.498  1.00  0.00    -0.550 OA
ATOM      4  O   UNL     1      89.538  41.480  26.146  1.00  0.00    -0.550 OA
ENDBRANCH   1   2
BRANCH   1   5
ATOM      5  C   UNL     1      89.550  38.408  23.965  1.00  0.00     0.059 C 
BRANCH   5   6
ATOM      6  C   UNL     1      89.680  36.927  24.151  1.00  0.00     0.042 C 
ATOM      7  O   UNL     1      88.839  36.300  24.848  1.00  0.00    -0.550 OA
ATOM      8  O   UNL     1      90.706  36.234  23.522  1.00  0.00    -0.550 OA
ENDBRANCH   5   6
ENDBRANCH   1   5
TORSDOF 3
ENDMDL
MODEL 8
REMARK VINA RESULT:    -2.483      9.315     10.803
REMARK INTER + INTRA:          -3.030
REMARK INTER:                  -2.855
REMARK INTRA:                  -0.175
REMARK UNBOUND:                -0.112
REMARK SMILES O=C([O-])CCC(=O)[O-]
REMARK SMILES IDX 4 1 2 2 1 3 3 4 5 5 6 6 7 7 8 8
REMARK H PARENT
REMARK Flexibility Score: inf
ROOT
ATOM      1  C   UNL     1      88.808  28.669  28.073  1.00  0.00     0.059 C 
ENDROOT
BRANCH   1   2
ATOM      2  C   UNL     1      87.615  27.791  28.298  1.00  0.00     0.042 C 
ATOM      3  O   UNL     1      87.400  27.292  29.434  1.00  0.00    -0.550 OA
ATOM      4  O   UNL     1      86.763  27.493  27.243  1.00  0.00    -0.550 OA
ENDBRANCH   1   2
BRANCH   1   5
ATOM      5  C   UNL     1      88.712  29.967  28.880  1.00  0.00     0.059 C 
BRANCH   5   6
ATOM      6  C   UNL     1      87.455  30.720  28.569  1.00  0.00     0.042 C 
ATOM      7  O   UNL     1      87.218  31.099  27.391  1.00  0.00    -0.550 OA
ATOM      8  O   UNL     1      86.526  30.969  29.572  1.00  0.00    -0.550 OA
ENDBRANCH   5   6
ENDBRANCH   1   5
TORSDOF 3
ENDMDL
MODEL 9
REMARK VINA RESULT:    -2.450      9.028     10.243
REMARK INTER + INTRA:          -2.991
REMARK INTER:                  -2.871
REMARK INTRA:                  -0.120
REMARK UNBOUND:                -0.112
REMARK SMILES O=C([O-])CCC(=O)[O-]
REMARK SMILES IDX 4 1 2 2 1 3 3 4 5 5 6 6 7 7 8 8
REMARK H PARENT
REMARK Flexibility Score: inf
ROOT
ATOM      1  C   UNL     1      88.655  30.427  28.724  1.00  0.00     0.059 C 
ENDROOT
BRANCH   1   2
ATOM      2  C   UNL     1      88.923  28.956  28.630  1.00  0.00     0.042 C 
ATOM      3  O   UNL     1      89.965  28.536  28.061  1.00  0.00    -0.550 OA
ATOM      4  O   UNL     1      88.003  28.049  29.138  1.00  0.00    -0.550 OA
ENDBRANCH   1   2
BRANCH   1   5
ATOM      5  C   UNL     1      87.166  30.716  28.938  1.00  0.00     0.059 C 
BRANCH   5   6
ATOM      6  C   UNL     1      86.427  30.802  27.639  1.00  0.00     0.042 C 
ATOM      7  O   UNL     1      86.822  31.587  26.736  1.00  0.00    -0.550 OA
ATOM      8  O   UNL     1      85.326  29.986  27.409  1.00  0.00    -0.550 OA
ENDBRANCH   5   6
ENDBRANCH   1   5
TORSDOF 3
ENDMDL
