MODEL 1
REMARK VINA RESULT:    -6.114      0.000      0.000
REMARK INTER + INTRA:          -7.765
REMARK INTER:                  -7.544
REMARK INTRA:                  -0.221
REMARK UNBOUND:                -0.221
REMARK SMILES Oc1cc(O)c2cc(O)c(-c3cc(O)c(O)c(O)c3)[o+]c2c1
REMARK SMILES IDX 10 1 20 2 21 3 22 4 2 5 3 6 4 7 6 8 7 9 8 10 11 11 12 12
REMARK SMILES IDX 13 13 19 14 15 15 17 16 14 17 16 19 18 21 9 23 1 25 5 27
REMARK H PARENT 14 18 16 20 18 22 9 24 1 26 5 28
REMARK Flexibility Score: inf
ROOT
ATOM      1  C   UNL     1      12.749  20.896  38.531  1.00  0.00     0.402 A 
ATOM      2  O   UNL     1      11.805  21.752  38.915  1.00  0.00    -0.202 OA
ATOM      3  C   UNL     1      12.028  23.050  39.099  1.00  0.00     0.368 A 
ATOM      4  C   UNL     1      10.972  23.870  39.506  1.00  0.00     0.162 A 
ATOM      5  C   UNL     1      11.180  25.237  39.710  1.00  0.00     0.128 A 
ATOM      6  C   UNL     1      12.447  25.786  39.506  1.00  0.00     0.093 A 
ATOM      7  C   UNL     1      13.521  24.986  39.098  1.00  0.00     0.136 A 
ATOM      8  C   UNL     1      13.316  23.598  38.887  1.00  0.00     0.125 A 
ATOM      9  C   UNL     1      14.330  22.722  38.465  1.00  0.00     0.078 A 
ATOM     10  C   UNL     1      14.050  21.366  38.274  1.00  0.00     0.223 A 
ENDROOT
BRANCH   1  11
ATOM     11  C   UNL     1      12.379  19.472  38.370  1.00  0.00     0.091 A 
ATOM     12  C   UNL     1      11.353  19.122  37.478  1.00  0.00     0.068 A 
ATOM     13  C   UNL     1      10.971  17.783  37.322  1.00  0.00     0.162 A 
ATOM     14  C   UNL     1      12.994  18.465  39.134  1.00  0.00     0.068 A 
ATOM     15  C   UNL     1      11.602  16.782  38.072  1.00  0.00     0.200 A 
ATOM     16  C   UNL     1      12.613  17.124  38.985  1.00  0.00     0.162 A 
BRANCH  13  17
ATOM     17  O   UNL     1       9.962  17.439  36.424  1.00  0.00    -0.504 OA
ATOM     18  H   UNL     1       9.158  18.037  36.275  1.00  0.00     0.293 HD
ENDBRANCH  13  17
BRANCH  15  19
ATOM     19  O   UNL     1      11.209  15.454  37.901  1.00  0.00    -0.502 OA
ATOM     20  H   UNL     1      11.687  14.687  38.361  1.00  0.00     0.293 HD
ENDBRANCH  15  19
BRANCH  16  21
ATOM     21  O   UNL     1      13.234  16.132  39.743  1.00  0.00    -0.504 OA
ATOM     22  H   UNL     1      13.682  15.334  39.309  1.00  0.00     0.293 HD
ENDBRANCH  16  21
ENDBRANCH   1  11
BRANCH  10  23
ATOM     23  O   UNL     1      15.045  20.506  37.807  1.00  0.00    -0.500 OA
ATOM     24  H   UNL     1      15.476  20.634  36.899  1.00  0.00     0.294 HD
ENDBRANCH  10  23
BRANCH   5  25
ATOM     25  O   UNL     1      10.131  26.061  40.116  1.00  0.00    -0.507 OA
ATOM     26  H   UNL     1       9.453  26.420  39.455  1.00  0.00     0.293 HD
ENDBRANCH   5  25
BRANCH   7  27
ATOM     27  O   UNL     1      14.758  25.612  38.919  1.00  0.00    -0.507 OA
ATOM     28  H   UNL     1      15.604  25.354  39.407  1.00  0.00     0.293 HD
ENDBRANCH   7  27
TORSDOF 7
ENDMDL
MODEL 2
REMARK VINA RESULT:    -5.808     13.760     15.648
REMARK INTER + INTRA:          -7.387
REMARK INTER:                  -7.591
REMARK INTRA:                   0.204
REMARK UNBOUND:                -0.221
REMARK SMILES Oc1cc(O)c2cc(O)c(-c3cc(O)c(O)c(O)c3)[o+]c2c1
REMARK SMILES IDX 10 1 20 2 21 3 22 4 2 5 3 6 4 7 6 8 7 9 8 10 11 11 12 12
REMARK SMILES IDX 13 13 19 14 15 15 17 16 14 17 16 19 18 21 9 23 1 25 5 27
REMARK H PARENT 14 18 16 20 18 22 9 24 1 26 5 28
REMARK Flexibility Score: inf
ROOT
ATOM      1  C   UNL     1      24.673  15.090  31.922  1.00  0.00     0.402 A 
ATOM      2  O   UNL     1      24.712  14.842  33.229  1.00  0.00    -0.202 OA
ATOM      3  C   UNL     1      25.784  15.064  33.983  1.00  0.00     0.368 A 
ATOM      4  C   UNL     1      25.729  14.768  35.347  1.00  0.00     0.162 A 
ATOM      5  C   UNL     1      26.844  14.989  36.162  1.00  0.00     0.128 A 
ATOM      6  C   UNL     1      28.017  15.507  35.610  1.00  0.00     0.093 A 
ATOM      7  C   UNL     1      28.097  15.813  34.246  1.00  0.00     0.136 A 
ATOM      8  C   UNL     1      26.969  15.592  33.414  1.00  0.00     0.125 A 
ATOM      9  C   UNL     1      26.953  15.881  32.040  1.00  0.00     0.078 A 
ATOM     10  C   UNL     1      25.801  15.641  31.286  1.00  0.00     0.223 A 
ENDROOT
BRANCH   1  11
ATOM     11  C   UNL     1      23.422  14.791  31.190  1.00  0.00     0.091 A 
ATOM     12  C   UNL     1      22.207  14.741  31.891  1.00  0.00     0.068 A 
ATOM     13  C   UNL     1      21.012  14.441  31.223  1.00  0.00     0.162 A 
ATOM     14  C   UNL     1      23.431  14.498  29.815  1.00  0.00     0.068 A 
ATOM     15  C   UNL     1      21.025  14.170  29.849  1.00  0.00     0.200 A 
ATOM     16  C   UNL     1      22.239  14.194  29.143  1.00  0.00     0.162 A 
BRANCH  13  17
ATOM     17  O   UNL     1      19.806  14.407  31.921  1.00  0.00    -0.504 OA
ATOM     18  H   UNL     1      18.990  13.936  31.548  1.00  0.00     0.293 HD
ENDBRANCH  13  17
BRANCH  15  19
ATOM     19  O   UNL     1      19.825  13.875  29.202  1.00  0.00    -0.502 OA
ATOM     20  H   UNL     1      19.404  14.508  28.531  1.00  0.00     0.293 HD
ENDBRANCH  15  19
BRANCH  16  21
ATOM     21  O   UNL     1      22.258  13.911  27.777  1.00  0.00    -0.504 OA
ATOM     22  H   UNL     1      21.942  13.020  27.415  1.00  0.00     0.293 HD
ENDBRANCH  16  21
ENDBRANCH   1  11
BRANCH  10  23
ATOM     23  O   UNL     1      25.769  15.974  29.932  1.00  0.00    -0.500 OA
ATOM     24  H   UNL     1      26.433  15.586  29.272  1.00  0.00     0.294 HD
ENDBRANCH  10  23
BRANCH   5  25
ATOM     25  O   UNL     1      26.796  14.696  37.524  1.00  0.00    -0.507 OA
ATOM     26  H   UNL     1      27.074  13.789  37.881  1.00  0.00     0.293 HD
ENDBRANCH   5  25
BRANCH   7  27
ATOM     27  O   UNL     1      29.308  16.324  33.771  1.00  0.00    -0.507 OA
ATOM     28  H   UNL     1      29.683  16.143  32.851  1.00  0.00     0.293 HD
ENDBRANCH   7  27
TORSDOF 7
ENDMDL
MODEL 3
REMARK VINA RESULT:    -5.592     14.401     16.759
REMARK INTER + INTRA:          -7.120
REMARK INTER:                  -7.499
REMARK INTRA:                   0.379
REMARK UNBOUND:                -0.221
REMARK SMILES Oc1cc(O)c2cc(O)c(-c3cc(O)c(O)c(O)c3)[o+]c2c1
REMARK SMILES IDX 10 1 20 2 21 3 22 4 2 5 3 6 4 7 6 8 7 9 8 10 11 11 12 12
REMARK SMILES IDX 13 13 19 14 15 15 17 16 14 17 16 19 18 21 9 23 1 25 5 27
REMARK H PARENT 14 18 16 20 18 22 9 24 1 26 5 28
REMARK Flexibility Score: inf
ROOT
ATOM      1  C   UNL     1      25.276  14.728  31.453  1.00  0.00     0.402 A 
ATOM      2  O   UNL     1      24.070  14.593  32.000  1.00  0.00    -0.202 OA
ATOM      3  C   UNL     1      22.969  14.362  31.292  1.00  0.00     0.368 A 
ATOM      4  C   UNL     1      21.747  14.239  31.958  1.00  0.00     0.162 A 
ATOM      5  C   UNL     1      20.572  13.999  31.237  1.00  0.00     0.128 A 
ATOM      6  C   UNL     1      20.622  13.882  29.847  1.00  0.00     0.093 A 
ATOM      7  C   UNL     1      21.834  14.001  29.157  1.00  0.00     0.136 A 
ATOM      8  C   UNL     1      23.029  14.243  29.883  1.00  0.00     0.125 A 
ATOM      9  C   UNL     1      24.290  14.363  29.277  1.00  0.00     0.078 A 
ATOM     10  C   UNL     1      25.424  14.597  30.060  1.00  0.00     0.223 A 
ENDROOT
BRANCH   1  11
ATOM     11  C   UNL     1      26.425  14.994  32.347  1.00  0.00     0.091 A 
ATOM     12  C   UNL     1      27.727  14.733  31.894  1.00  0.00     0.068 A 
ATOM     13  C   UNL     1      28.830  14.958  32.729  1.00  0.00     0.162 A 
ATOM     14  C   UNL     1      26.237  15.450  33.664  1.00  0.00     0.068 A 
ATOM     15  C   UNL     1      28.638  15.431  34.033  1.00  0.00     0.200 A 
ATOM     16  C   UNL     1      27.337  15.674  34.504  1.00  0.00     0.162 A 
BRANCH  13  17
ATOM     17  O   UNL     1      30.122  14.710  32.269  1.00  0.00    -0.504 OA
ATOM     18  H   UNL     1      30.628  13.873  32.534  1.00  0.00     0.293 HD
ENDBRANCH  13  17
BRANCH  15  19
ATOM     19  O   UNL     1      29.748  15.652  34.848  1.00  0.00    -0.502 OA
ATOM     20  H   UNL     1      30.572  16.139  34.516  1.00  0.00     0.293 HD
ENDBRANCH  15  19
BRANCH  16  21
ATOM     21  O   UNL     1      27.140  16.133  35.806  1.00  0.00    -0.504 OA
ATOM     22  H   UNL     1      27.604  15.702  36.596  1.00  0.00     0.293 HD
ENDBRANCH  16  21
ENDBRANCH   1  11
BRANCH  10  23
ATOM     23  O   UNL     1      26.684  14.667  29.463  1.00  0.00    -0.500 OA
ATOM     24  H   UNL     1      27.241  15.513  29.492  1.00  0.00     0.294 HD
ENDBRANCH  10  23
BRANCH   5  25
ATOM     25  O   UNL     1      19.350  13.875  31.895  1.00  0.00    -0.507 OA
ATOM     26  H   UNL     1      19.211  14.242  32.829  1.00  0.00     0.293 HD
ENDBRANCH   5  25
BRANCH   7  27
ATOM     27  O   UNL     1      21.797  13.875  27.765  1.00  0.00    -0.507 OA
ATOM     28  H   UNL     1      21.514  14.610  27.133  1.00  0.00     0.293 HD
ENDBRANCH   7  27
TORSDOF 7
ENDMDL
MODEL 4
REMARK VINA RESULT:    -5.435     13.552     15.888
REMARK INTER + INTRA:          -6.927
REMARK INTER:                  -7.295
REMARK INTRA:                   0.368
REMARK UNBOUND:                -0.221
REMARK SMILES Oc1cc(O)c2cc(O)c(-c3cc(O)c(O)c(O)c3)[o+]c2c1
REMARK SMILES IDX 10 1 20 2 21 3 22 4 2 5 3 6 4 7 6 8 7 9 8 10 11 11 12 12
REMARK SMILES IDX 13 13 19 14 15 15 17 16 14 17 16 19 18 21 9 23 1 25 5 27
REMARK H PARENT 14 18 16 20 18 22 9 24 1 26 5 28
REMARK Flexibility Score: inf
ROOT
ATOM      1  C   UNL     1      24.781  14.529  32.732  1.00  0.00     0.402 A 
ATOM      2  O   UNL     1      23.457  14.426  32.812  1.00  0.00    -0.202 OA
ATOM      3  C   UNL     1      22.674  14.248  31.753  1.00  0.00     0.368 A 
ATOM      4  C   UNL     1      21.292  14.154  31.937  1.00  0.00     0.162 A 
ATOM      5  C   UNL     1      20.445  13.970  30.840  1.00  0.00     0.128 A 
ATOM      6  C   UNL     1      20.982  13.880  29.555  1.00  0.00     0.093 A 
ATOM      7  C   UNL     1      22.362  13.971  29.343  1.00  0.00     0.136 A 
ATOM      8  C   UNL     1      23.227  14.156  30.453  1.00  0.00     0.125 A 
ATOM      9  C   UNL     1      24.624  14.245  30.338  1.00  0.00     0.078 A 
ATOM     10  C   UNL     1      25.412  14.422  31.479  1.00  0.00     0.223 A 
ENDROOT
BRANCH   1  11
ATOM     11  C   UNL     1      25.544  14.736  33.984  1.00  0.00     0.091 A 
ATOM     12  C   UNL     1      24.866  15.130  35.148  1.00  0.00     0.068 A 
ATOM     13  C   UNL     1      25.568  15.351  36.341  1.00  0.00     0.162 A 
ATOM     14  C   UNL     1      26.943  14.601  34.020  1.00  0.00     0.068 A 
ATOM     15  C   UNL     1      26.959  15.196  36.375  1.00  0.00     0.200 A 
ATOM     16  C   UNL     1      27.650  14.824  35.209  1.00  0.00     0.162 A 
BRANCH  13  17
ATOM     17  O   UNL     1      24.888  15.728  37.497  1.00  0.00    -0.504 OA
ATOM     18  H   UNL     1      24.870  16.691  37.812  1.00  0.00     0.293 HD
ENDBRANCH  13  17
BRANCH  15  19
ATOM     19  O   UNL     1      27.640  15.417  37.572  1.00  0.00    -0.502 OA
ATOM     20  H   UNL     1      27.314  16.083  38.263  1.00  0.00     0.293 HD
ENDBRANCH  15  19
BRANCH  16  21
ATOM     21  O   UNL     1      29.037  14.681  35.235  1.00  0.00    -0.504 OA
ATOM     22  H   UNL     1      29.589  14.704  34.386  1.00  0.00     0.293 HD
ENDBRANCH  16  21
ENDBRANCH   1  11
BRANCH  10  23
ATOM     23  O   UNL     1      26.802  14.460  31.370  1.00  0.00    -0.500 OA
ATOM     24  H   UNL     1      27.321  13.722  30.907  1.00  0.00     0.294 HD
ENDBRANCH  10  23
BRANCH   5  25
ATOM     25  O   UNL     1      19.066  13.875  31.017  1.00  0.00    -0.507 OA
ATOM     26  H   UNL     1      18.477  13.394  30.347  1.00  0.00     0.293 HD
ENDBRANCH   5  25
BRANCH   7  27
ATOM     27  O   UNL     1      22.820  13.875  28.026  1.00  0.00    -0.507 OA
ATOM     28  H   UNL     1      22.735  13.049  27.451  1.00  0.00     0.293 HD
ENDBRANCH   7  27
TORSDOF 7
ENDMDL
MODEL 5
REMARK VINA RESULT:    -5.399     14.426     16.266
REMARK INTER + INTRA:          -6.883
REMARK INTER:                  -6.856
REMARK INTRA:                  -0.027
REMARK UNBOUND:                -0.221
REMARK SMILES Oc1cc(O)c2cc(O)c(-c3cc(O)c(O)c(O)c3)[o+]c2c1
REMARK SMILES IDX 10 1 20 2 21 3 22 4 2 5 3 6 4 7 6 8 7 9 8 10 11 11 12 12
REMARK SMILES IDX 13 13 19 14 15 15 17 16 14 17 16 19 18 21 9 23 1 25 5 27
REMARK H PARENT 14 18 16 20 18 22 9 24 1 26 5 28
REMARK Flexibility Score: inf
ROOT
ATOM      1  C   UNL     1      24.804  15.374  31.162  1.00  0.00     0.402 A 
ATOM      2  O   UNL     1      25.534  16.175  30.390  1.00  0.00    -0.202 OA
ATOM      3  C   UNL     1      26.745  16.607  30.726  1.00  0.00     0.368 A 
ATOM      4  C   UNL     1      27.434  17.450  29.850  1.00  0.00     0.162 A 
ATOM      5  C   UNL     1      28.708  17.921  30.180  1.00  0.00     0.128 A 
ATOM      6  C   UNL     1      29.295  17.549  31.391  1.00  0.00     0.093 A 
ATOM      7  C   UNL     1      28.626  16.706  32.286  1.00  0.00     0.136 A 
ATOM      8  C   UNL     1      27.333  16.223  31.956  1.00  0.00     0.125 A 
ATOM      9  C   UNL     1      26.593  15.364  32.785  1.00  0.00     0.078 A 
ATOM     10  C   UNL     1      25.327  14.925  32.389  1.00  0.00     0.223 A 
ENDROOT
BRANCH   1  11
ATOM     11  C   UNL     1      23.463  14.969  30.681  1.00  0.00     0.091 A 
ATOM     12  C   UNL     1      23.291  14.621  29.332  1.00  0.00     0.068 A 
ATOM     13  C   UNL     1      22.028  14.253  28.848  1.00  0.00     0.162 A 
ATOM     14  C   UNL     1      22.345  14.980  31.533  1.00  0.00     0.068 A 
ATOM     15  C   UNL     1      20.922  14.247  29.707  1.00  0.00     0.200 A 
ATOM     16  C   UNL     1      21.080  14.616  31.054  1.00  0.00     0.162 A 
BRANCH  13  17
ATOM     17  O   UNL     1      21.864  13.894  27.512  1.00  0.00    -0.504 OA
ATOM     18  H   UNL     1      21.573  14.568  26.813  1.00  0.00     0.293 HD
ENDBRANCH  13  17
BRANCH  15  19
ATOM     19  O   UNL     1      19.674  13.875  29.208  1.00  0.00    -0.502 OA
ATOM     20  H   UNL     1      19.452  13.922  28.220  1.00  0.00     0.293 HD
ENDBRANCH  15  19
BRANCH  16  21
ATOM     21  O   UNL     1      19.978  14.624  31.909  1.00  0.00    -0.504 OA
ATOM     22  H   UNL     1      20.063  14.901  32.880  1.00  0.00     0.293 HD
ENDBRANCH  16  21
ENDBRANCH   1  11
BRANCH  10  23
ATOM     23  O   UNL     1      24.614  14.033  33.189  1.00  0.00    -0.500 OA
ATOM     24  H   UNL     1      23.647  13.797  32.995  1.00  0.00     0.294 HD
ENDBRANCH  10  23
BRANCH   5  25
ATOM     25  O   UNL     1      29.401  18.761  29.310  1.00  0.00    -0.507 OA
ATOM     26  H   UNL     1      30.047  18.394  28.621  1.00  0.00     0.293 HD
ENDBRANCH   5  25
BRANCH   7  27
ATOM     27  O   UNL     1      29.280  16.385  33.479  1.00  0.00    -0.507 OA
ATOM     28  H   UNL     1      29.995  16.953  33.909  1.00  0.00     0.293 HD
ENDBRANCH   7  27
TORSDOF 7
ENDMDL
MODEL 6
REMARK VINA RESULT:    -5.196     14.350     16.735
REMARK INTER + INTRA:          -6.632
REMARK INTER:                  -6.397
REMARK INTRA:                  -0.235
REMARK UNBOUND:                -0.221
REMARK SMILES Oc1cc(O)c2cc(O)c(-c3cc(O)c(O)c(O)c3)[o+]c2c1
REMARK SMILES IDX 10 1 20 2 21 3 22 4 2 5 3 6 4 7 6 8 7 9 8 10 11 11 12 12
REMARK SMILES IDX 13 13 19 14 15 15 17 16 14 17 16 19 18 21 9 23 1 25 5 27
REMARK H PARENT 14 18 16 20 18 22 9 24 1 26 5 28
REMARK Flexibility Score: inf
ROOT
ATOM      1  C   UNL     1      24.907  14.993  31.414  1.00  0.00     0.402 A 
ATOM      2  O   UNL     1      23.952  14.821  30.503  1.00  0.00    -0.202 OA
ATOM      3  C   UNL     1      22.694  14.523  30.811  1.00  0.00     0.368 A 
ATOM      4  C   UNL     1      21.763  14.357  29.783  1.00  0.00     0.162 A 
ATOM      5  C   UNL     1      20.433  14.041  30.079  1.00  0.00     0.128 A 
ATOM      6  C   UNL     1      20.035  13.888  31.409  1.00  0.00     0.093 A 
ATOM      7  C   UNL     1      20.949  14.049  32.457  1.00  0.00     0.136 A 
ATOM      8  C   UNL     1      22.299  14.372  32.163  1.00  0.00     0.125 A 
ATOM      9  C   UNL     1      23.280  14.565  33.148  1.00  0.00     0.078 A 
ATOM     10  C   UNL     1      24.590  14.887  32.781  1.00  0.00     0.223 A 
ENDROOT
BRANCH   1  11
ATOM     11  C   UNL     1      26.274  15.312  30.944  1.00  0.00     0.091 A 
ATOM     12  C   UNL     1      26.487  16.470  30.179  1.00  0.00     0.068 A 
ATOM     13  C   UNL     1      27.769  16.784  29.706  1.00  0.00     0.162 A 
ATOM     14  C   UNL     1      27.355  14.452  31.199  1.00  0.00     0.068 A 
ATOM     15  C   UNL     1      28.846  15.932  29.980  1.00  0.00     0.200 A 
ATOM     16  C   UNL     1      28.639  14.760  30.725  1.00  0.00     0.162 A 
BRANCH  13  17
ATOM     17  O   UNL     1      27.978  17.941  28.959  1.00  0.00    -0.504 OA
ATOM     18  H   UNL     1      28.858  18.443  28.992  1.00  0.00     0.293 HD
ENDBRANCH  13  17
BRANCH  15  19
ATOM     19  O   UNL     1      30.114  16.263  29.503  1.00  0.00    -0.502 OA
ATOM     20  H   UNL     1      30.403  16.060  28.553  1.00  0.00     0.293 HD
ENDBRANCH  15  19
BRANCH  16  21
ATOM     21  O   UNL     1      29.706  13.902  30.989  1.00  0.00    -0.504 OA
ATOM     22  H   UNL     1      29.559  12.967  31.350  1.00  0.00     0.293 HD
ENDBRANCH  16  21
ENDBRANCH   1  11
BRANCH  10  23
ATOM     23  O   UNL     1      25.553  15.127  33.761  1.00  0.00    -0.500 OA
ATOM     24  H   UNL     1      25.409  15.813  34.493  1.00  0.00     0.294 HD
ENDBRANCH  10  23
BRANCH   5  25
ATOM     25  O   UNL     1      19.499  13.875  29.059  1.00  0.00    -0.507 OA
ATOM     26  H   UNL     1      18.664  14.447  29.006  1.00  0.00     0.293 HD
ENDBRANCH   5  25
BRANCH   7  27
ATOM     27  O   UNL     1      20.471  13.876  33.759  1.00  0.00    -0.507 OA
ATOM     28  H   UNL     1      19.840  14.512  34.225  1.00  0.00     0.293 HD
ENDBRANCH   7  27
TORSDOF 7
ENDMDL
MODEL 7
REMARK VINA RESULT:    -5.162      1.161      2.576
REMARK INTER + INTRA:          -6.590
REMARK INTER:                  -6.438
REMARK INTRA:                  -0.153
REMARK UNBOUND:                -0.221
REMARK SMILES Oc1cc(O)c2cc(O)c(-c3cc(O)c(O)c(O)c3)[o+]c2c1
REMARK SMILES IDX 10 1 20 2 21 3 22 4 2 5 3 6 4 7 6 8 7 9 8 10 11 11 12 12
REMARK SMILES IDX 13 13 19 14 15 15 17 16 14 17 16 19 18 21 9 23 1 25 5 27
REMARK H PARENT 14 18 16 20 18 22 9 24 1 26 5 28
REMARK Flexibility Score: inf
ROOT
ATOM      1  C   UNL     1      12.159  21.279  39.143  1.00  0.00     0.402 A 
ATOM      2  O   UNL     1      13.211  22.055  38.893  1.00  0.00    -0.202 OA
ATOM      3  C   UNL     1      13.199  23.375  39.057  1.00  0.00     0.368 A 
ATOM      4  C   UNL     1      14.353  24.106  38.764  1.00  0.00     0.162 A 
ATOM      5  C   UNL     1      14.367  25.495  38.925  1.00  0.00     0.128 A 
ATOM      6  C   UNL     1      13.222  26.154  39.379  1.00  0.00     0.093 A 
ATOM      7  C   UNL     1      12.054  25.444  39.679  1.00  0.00     0.136 A 
ATOM      8  C   UNL     1      12.035  24.034  39.521  1.00  0.00     0.125 A 
ATOM      9  C   UNL     1      10.914  23.238  39.809  1.00  0.00     0.078 A 
ATOM     10  C   UNL     1      10.972  21.853  39.632  1.00  0.00     0.223 A 
ENDROOT
BRANCH   1  11
ATOM     11  C   UNL     1      12.294  19.823  38.912  1.00  0.00     0.091 A 
ATOM     12  C   UNL     1      11.409  19.179  38.033  1.00  0.00     0.068 A 
ATOM     13  C   UNL     1      11.504  17.798  37.812  1.00  0.00     0.162 A 
ATOM     14  C   UNL     1      13.255  19.059  39.596  1.00  0.00     0.068 A 
ATOM     15  C   UNL     1      12.477  17.046  38.482  1.00  0.00     0.200 A 
ATOM     16  C   UNL     1      13.353  17.677  39.381  1.00  0.00     0.162 A 
BRANCH  13  17
ATOM     17  O   UNL     1      10.632  17.166  36.928  1.00  0.00    -0.504 OA
ATOM     18  H   UNL     1      10.445  17.543  36.006  1.00  0.00     0.293 HD
ENDBRANCH  13  17
BRANCH  15  19
ATOM     19  O   UNL     1      12.558  15.673  38.247  1.00  0.00    -0.502 OA
ATOM     20  H   UNL     1      11.813  15.037  38.505  1.00  0.00     0.293 HD
ENDBRANCH  15  19
BRANCH  16  21
ATOM     21  O   UNL     1      14.314  16.929  40.060  1.00  0.00    -0.504 OA
ATOM     22  H   UNL     1      15.177  16.642  39.614  1.00  0.00     0.293 HD
ENDBRANCH  16  21
ENDBRANCH   1  11
BRANCH  10  23
ATOM     23  O   UNL     1       9.875  21.059  39.966  1.00  0.00    -0.500 OA
ATOM     24  H   UNL     1       9.059  21.444  40.427  1.00  0.00     0.294 HD
ENDBRANCH  10  23
BRANCH   5  25
ATOM     25  O   UNL     1      15.514  26.231  38.635  1.00  0.00    -0.507 OA
ATOM     26  H   UNL     1      16.183  25.919  37.941  1.00  0.00     0.293 HD
ENDBRANCH   5  25
BRANCH   7  27
ATOM     27  O   UNL     1      10.951  26.178  40.125  1.00  0.00    -0.507 OA
ATOM     28  H   UNL     1      10.477  26.020  41.003  1.00  0.00     0.293 HD
ENDBRANCH   7  27
TORSDOF 7
ENDMDL
MODEL 8
REMARK VINA RESULT:    -5.050      1.211      7.251
REMARK INTER + INTRA:          -6.452
REMARK INTER:                  -6.334
REMARK INTRA:                  -0.117
REMARK UNBOUND:                -0.221
REMARK SMILES Oc1cc(O)c2cc(O)c(-c3cc(O)c(O)c(O)c3)[o+]c2c1
REMARK SMILES IDX 10 1 20 2 21 3 22 4 2 5 3 6 4 7 6 8 7 9 8 10 11 11 12 12
REMARK SMILES IDX 13 13 19 14 15 15 17 16 14 17 16 19 18 21 9 23 1 25 5 27
REMARK H PARENT 14 18 16 20 18 22 9 24 1 26 5 28
REMARK Flexibility Score: inf
ROOT
ATOM      1  C   UNL     1      11.442  21.494  38.579  1.00  0.00     0.402 A 
ATOM      2  O   UNL     1      12.060  20.501  39.215  1.00  0.00    -0.202 OA
ATOM      3  C   UNL     1      11.862  19.218  38.930  1.00  0.00     0.368 A 
ATOM      4  C   UNL     1      12.556  18.246  39.656  1.00  0.00     0.162 A 
ATOM      5  C   UNL     1      12.365  16.889  39.380  1.00  0.00     0.128 A 
ATOM      6  C   UNL     1      11.476  16.503  38.374  1.00  0.00     0.093 A 
ATOM      7  C   UNL     1      10.769  17.457  37.633  1.00  0.00     0.136 A 
ATOM      8  C   UNL     1      10.961  18.836  37.907  1.00  0.00     0.125 A 
ATOM      9  C   UNL     1      10.306  19.862  37.207  1.00  0.00     0.078 A 
ATOM     10  C   UNL     1      10.550  21.199  37.532  1.00  0.00     0.223 A 
ENDROOT
BRANCH   1  11
ATOM     11  C   UNL     1      11.739  22.883  38.995  1.00  0.00     0.091 A 
ATOM     12  C   UNL     1      10.684  23.738  39.350  1.00  0.00     0.068 A 
ATOM     13  C   UNL     1      10.938  25.064  39.729  1.00  0.00     0.162 A 
ATOM     14  C   UNL     1      13.052  23.384  38.988  1.00  0.00     0.068 A 
ATOM     15  C   UNL     1      12.251  25.550  39.739  1.00  0.00     0.200 A 
ATOM     16  C   UNL     1      13.312  24.710  39.364  1.00  0.00     0.162 A 
BRANCH  13  17
ATOM     17  O   UNL     1       9.888  25.904  40.094  1.00  0.00    -0.504 OA
ATOM     18  H   UNL     1       9.078  25.555  40.593  1.00  0.00     0.293 HD
ENDBRANCH  13  17
BRANCH  15  19
ATOM     19  O   UNL     1      12.484  26.872  40.122  1.00  0.00    -0.502 OA
ATOM     20  H   UNL     1      12.097  27.657  39.611  1.00  0.00     0.293 HD
ENDBRANCH  15  19
BRANCH  16  21
ATOM     21  O   UNL     1      14.620  25.195  39.359  1.00  0.00    -0.504 OA
ATOM     22  H   UNL     1      14.980  25.742  38.587  1.00  0.00     0.293 HD
ENDBRANCH  16  21
ENDBRANCH   1  11
BRANCH  10  23
ATOM     23  O   UNL     1       9.937  22.219  36.803  1.00  0.00    -0.500 OA
ATOM     24  H   UNL     1      10.330  22.564  35.935  1.00  0.00     0.294 HD
ENDBRANCH  10  23
BRANCH   5  25
ATOM     25  O   UNL     1      13.054  15.915  40.099  1.00  0.00    -0.507 OA
ATOM     26  H   UNL     1      13.759  15.333  39.662  1.00  0.00     0.293 HD
ENDBRANCH   5  25
BRANCH   7  27
ATOM     27  O   UNL     1       9.896  16.988  36.647  1.00  0.00    -0.507 OA
ATOM     28  H   UNL     1       9.020  17.429  36.404  1.00  0.00     0.293 HD
ENDBRANCH   7  27
TORSDOF 7
ENDMDL
