MODEL 1
REMARK VINA RESULT:    -2.108      0.000      0.000
REMARK INTER + INTRA:          -5.647
REMARK INTER:                  -3.956
REMARK INTRA:                  -1.691
REMARK UNBOUND:                -1.691
REMARK SMILES O=C([O-])CCCCCCCCCCCCCCC(=O)[O-]
REMARK SMILES IDX 10 1 9 2 8 3 7 4 6 5 5 6 4 7 2 8 1 9 3 10 11 11 12 12 13 13
REMARK SMILES IDX 14 14 15 15 16 16 17 17 18 18 19 19 20 20
REMARK H PARENT
REMARK Flexibility Score: inf
ROOT
ATOM      1  C   UNL     1      50.887  20.705  21.460  1.00  0.00     0.000 C 
ENDROOT
BRANCH   1   2
ATOM      2  C   UNL     1      50.046  21.650  22.328  1.00  0.00     0.000 C 
BRANCH   2   3
ATOM      3  C   UNL     1      49.562  22.859  21.514  1.00  0.00     0.000 C 
BRANCH   3   4
ATOM      4  C   UNL     1      48.237  22.594  20.774  1.00  0.00     0.000 C 
BRANCH   4   5
ATOM      5  C   UNL     1      48.182  23.125  19.330  1.00  0.00     0.000 C 
BRANCH   5   6
ATOM      6  C   UNL     1      48.757  22.137  18.306  1.00  0.00     0.006 C 
BRANCH   6   7
ATOM      7  C   UNL     1      48.388  22.551  16.878  1.00  0.00     0.053 C 
BRANCH   7   8
ATOM      8  C   UNL     1      47.173  21.810  16.415  1.00  0.00     0.041 C 
ATOM      9  O   UNL     1      47.293  20.721  15.795  1.00  0.00    -0.550 OA
ATOM     10  O   UNL     1      45.907  22.299  16.709  1.00  0.00    -0.550 OA
ENDBRANCH   7   8
ENDBRANCH   6   7
ENDBRANCH   5   6
ENDBRANCH   4   5
ENDBRANCH   3   4
ENDBRANCH   2   3
ENDBRANCH   1   2
BRANCH   1  11
ATOM     11  C   UNL     1      52.388  20.941  21.687  1.00  0.00     0.000 C 
BRANCH  11  12
ATOM     12  C   UNL     1      52.862  22.315  21.178  1.00  0.00     0.000 C 
BRANCH  12  13
ATOM     13  C   UNL     1      53.125  22.390  19.661  1.00  0.00     0.000 C 
BRANCH  13  14
ATOM     14  C   UNL     1      51.998  23.039  18.835  1.00  0.00     0.000 C 
BRANCH  14  15
ATOM     15  C   UNL     1      52.253  23.021  17.312  1.00  0.00     0.000 C 
BRANCH  15  16
ATOM     16  C   UNL     1      52.963  21.741  16.849  1.00  0.00     0.006 C 
BRANCH  16  17
ATOM     17  C   UNL     1      51.970  20.759  16.221  1.00  0.00     0.053 C 
BRANCH  17  18
ATOM     18  C   UNL     1      51.768  21.073  14.772  1.00  0.00     0.041 C 
ATOM     19  O   UNL     1      52.758  21.165  13.999  1.00  0.00    -0.550 OA
ATOM     20  O   UNL     1      50.490  21.314  14.285  1.00  0.00    -0.550 OA
ENDBRANCH  17  18
ENDBRANCH  16  17
ENDBRANCH  15  16
ENDBRANCH  14  15
ENDBRANCH  13  14
ENDBRANCH  12  13
ENDBRANCH  11  12
ENDBRANCH   1  11
TORSDOF 15
ENDMDL
MODEL 2
REMARK VINA RESULT:    -1.699     13.619     16.824
REMARK INTER + INTRA:          -4.881
REMARK INTER:                  -4.302
REMARK INTRA:                  -0.579
REMARK UNBOUND:                -1.691
REMARK SMILES O=C([O-])CCCCCCCCCCCCCCC(=O)[O-]
REMARK SMILES IDX 10 1 9 2 8 3 7 4 6 5 5 6 4 7 2 8 1 9 3 10 11 11 12 12 13 13
REMARK SMILES IDX 14 14 15 15 16 16 17 17 18 18 19 19 20 20
REMARK H PARENT
REMARK Flexibility Score: inf
ROOT
ATOM      1  C   UNL     1      33.163  18.774  12.650  1.00  0.00     0.000 C 
ENDROOT
BRANCH   1   2
ATOM      2  C   UNL     1      33.038  18.615  14.170  1.00  0.00     0.000 C 
BRANCH   2   3
ATOM      3  C   UNL     1      34.359  18.968  14.871  1.00  0.00     0.000 C 
BRANCH   3   4
ATOM      4  C   UNL     1      34.154  19.552  16.280  1.00  0.00     0.000 C 
BRANCH   4   5
ATOM      5  C   UNL     1      34.843  20.907  16.529  1.00  0.00     0.000 C 
BRANCH   5   6
ATOM      6  C   UNL     1      36.227  21.004  15.872  1.00  0.00     0.006 C 
BRANCH   6   7
ATOM      7  C   UNL     1      36.218  22.016  14.723  1.00  0.00     0.053 C 
BRANCH   7   8
ATOM      8  C   UNL     1      37.615  22.322  14.283  1.00  0.00     0.041 C 
ATOM      9  O   UNL     1      38.594  21.988  15.001  1.00  0.00    -0.550 OA
ATOM     10  O   UNL     1      37.839  22.934  13.056  1.00  0.00    -0.550 OA
ENDBRANCH   7   8
ENDBRANCH   6   7
ENDBRANCH   5   6
ENDBRANCH   4   5
ENDBRANCH   3   4
ENDBRANCH   2   3
ENDBRANCH   1   2
BRANCH   1  11
ATOM     11  C   UNL     1      32.890  20.225  12.225  1.00  0.00     0.000 C 
BRANCH  11  12
ATOM     12  C   UNL     1      33.660  21.254  13.073  1.00  0.00     0.000 C 
BRANCH  12  13
ATOM     13  C   UNL     1      33.939  22.597  12.371  1.00  0.00     0.000 C 
BRANCH  13  14
ATOM     14  C   UNL     1      32.875  23.029  11.344  1.00  0.00     0.000 C 
BRANCH  14  15
ATOM     15  C   UNL     1      33.409  23.125   9.898  1.00  0.00     0.000 C 
BRANCH  15  16
ATOM     16  C   UNL     1      34.943  23.080   9.833  1.00  0.00     0.006 C 
BRANCH  16  17
ATOM     17  C   UNL     1      35.421  21.978   8.885  1.00  0.00     0.053 C 
BRANCH  17  18
ATOM     18  C   UNL     1      36.277  20.991   9.616  1.00  0.00     0.041 C 
ATOM     19  O   UNL     1      36.213  20.905  10.870  1.00  0.00    -0.550 OA
ATOM     20  O   UNL     1      37.180  20.203   8.916  1.00  0.00    -0.550 OA
ENDBRANCH  17  18
ENDBRANCH  16  17
ENDBRANCH  15  16
ENDBRANCH  14  15
ENDBRANCH  13  14
ENDBRANCH  12  13
ENDBRANCH  11  12
ENDBRANCH   1  11
TORSDOF 15
ENDMDL
MODEL 3
REMARK VINA RESULT:    -1.695     12.929     16.632
REMARK INTER + INTRA:          -4.872
REMARK INTER:                  -3.559
REMARK INTRA:                  -1.313
REMARK UNBOUND:                -1.691
REMARK SMILES O=C([O-])CCCCCCCCCCCCCCC(=O)[O-]
REMARK SMILES IDX 10 1 9 2 8 3 7 4 6 5 5 6 4 7 2 8 1 9 3 10 11 11 12 12 13 13
REMARK SMILES IDX 14 14 15 15 16 16 17 17 18 18 19 19 20 20
REMARK H PARENT
REMARK Flexibility Score: inf
ROOT
ATOM      1  C   UNL     1      33.746  19.575  12.838  1.00  0.00     0.000 C 
ENDROOT
BRANCH   1   2
ATOM      2  C   UNL     1      32.876  19.776  11.591  1.00  0.00     0.000 C 
BRANCH   2   3
ATOM      3  C   UNL     1      32.956  21.226  11.091  1.00  0.00     0.000 C 
BRANCH   3   4
ATOM      4  C   UNL     1      32.991  22.255  12.236  1.00  0.00     0.000 C 
BRANCH   4   5
ATOM      5  C   UNL     1      34.341  22.970  12.427  1.00  0.00     0.000 C 
BRANCH   5   6
ATOM      6  C   UNL     1      35.140  23.102  11.123  1.00  0.00     0.006 C 
BRANCH   6   7
ATOM      7  C   UNL     1      36.093  21.917  10.942  1.00  0.00     0.053 C 
BRANCH   7   8
ATOM      8  C   UNL     1      36.304  21.632   9.488  1.00  0.00     0.041 C 
ATOM      9  O   UNL     1      35.805  22.389   8.614  1.00  0.00    -0.550 OA
ATOM     10  O   UNL     1      37.092  20.556   9.098  1.00  0.00    -0.550 OA
ENDBRANCH   7   8
ENDBRANCH   6   7
ENDBRANCH   5   6
ENDBRANCH   4   5
ENDBRANCH   3   4
ENDBRANCH   2   3
ENDBRANCH   1   2
BRANCH   1  11
ATOM     11  C   UNL     1      32.915  19.019  14.004  1.00  0.00     0.000 C 
BRANCH  11  12
ATOM     12  C   UNL     1      33.743  18.153  14.971  1.00  0.00     0.000 C 
BRANCH  12  13
ATOM     13  C   UNL     1      34.450  18.932  16.097  1.00  0.00     0.000 C 
BRANCH  13  14
ATOM     14  C   UNL     1      34.035  20.409  16.230  1.00  0.00     0.000 C 
BRANCH  14  15
ATOM     15  C   UNL     1      35.203  21.354  16.586  1.00  0.00     0.000 C 
BRANCH  15  16
ATOM     16  C   UNL     1      35.930  21.885  15.342  1.00  0.00     0.006 C 
BRANCH  16  17
ATOM     17  C   UNL     1      37.258  21.154  15.128  1.00  0.00     0.053 C 
BRANCH  17  18
ATOM     18  C   UNL     1      38.266  22.068  14.505  1.00  0.00     0.041 C 
ATOM     19  O   UNL     1      39.449  22.093  14.935  1.00  0.00    -0.550 OA
ATOM     20  O   UNL     1      37.886  22.928  13.483  1.00  0.00    -0.550 OA
ENDBRANCH  17  18
ENDBRANCH  16  17
ENDBRANCH  15  16
ENDBRANCH  14  15
ENDBRANCH  13  14
ENDBRANCH  12  13
ENDBRANCH  11  12
ENDBRANCH   1  11
TORSDOF 15
ENDMDL
MODEL 4
REMARK VINA RESULT:    -1.031      2.642      5.033
REMARK INTER + INTRA:          -3.627
REMARK INTER:                  -3.572
REMARK INTRA:                  -0.055
REMARK UNBOUND:                -1.691
REMARK SMILES O=C([O-])CCCCCCCCCCCCCCC(=O)[O-]
REMARK SMILES IDX 10 1 9 2 8 3 7 4 6 5 5 6 4 7 2 8 1 9 3 10 11 11 12 12 13 13
REMARK SMILES IDX 14 14 15 15 16 16 17 17 18 18 19 19 20 20
REMARK H PARENT
REMARK Flexibility Score: inf
ROOT
ATOM      1  C   UNL     1      47.322  23.012  17.709  1.00  0.00     0.000 C 
ENDROOT
BRANCH   1   2
ATOM      2  C   UNL     1      48.092  23.125  19.031  1.00  0.00     0.000 C 
BRANCH   2   3
ATOM      3  C   UNL     1      49.405  22.330  18.973  1.00  0.00     0.000 C 
BRANCH   3   4
ATOM      4  C   UNL     1      50.504  22.917  19.876  1.00  0.00     0.000 C 
BRANCH   4   5
ATOM      5  C   UNL     1      51.736  22.014  20.072  1.00  0.00     0.000 C 
BRANCH   5   6
ATOM      6  C   UNL     1      51.654  21.155  21.341  1.00  0.00     0.006 C 
BRANCH   6   7
ATOM      7  C   UNL     1      50.961  21.916  22.475  1.00  0.00     0.053 C 
BRANCH   7   8
ATOM      8  C   UNL     1      49.493  21.624  22.481  1.00  0.00     0.041 C 
ATOM      9  O   UNL     1      49.080  20.448  22.305  1.00  0.00    -0.550 OA
ATOM     10  O   UNL     1      48.583  22.644  22.730  1.00  0.00    -0.550 OA
ENDBRANCH   7   8
ENDBRANCH   6   7
ENDBRANCH   5   6
ENDBRANCH   4   5
ENDBRANCH   3   4
ENDBRANCH   2   3
ENDBRANCH   1   2
BRANCH   1  11
ATOM     11  C   UNL     1      46.829  21.575  17.481  1.00  0.00     0.000 C 
BRANCH  11  12
ATOM     12  C   UNL     1      46.965  21.121  16.016  1.00  0.00     0.000 C 
BRANCH  12  13
ATOM     13  C   UNL     1      48.230  21.625  15.294  1.00  0.00     0.000 C 
BRANCH  13  14
ATOM     14  C   UNL     1      49.437  20.670  15.350  1.00  0.00     0.000 C 
BRANCH  14  15
ATOM     15  C   UNL     1      50.457  20.890  14.211  1.00  0.00     0.000 C 
BRANCH  15  16
ATOM     16  C   UNL     1      51.718  21.628  14.684  1.00  0.00     0.006 C 
BRANCH  16  17
ATOM     17  C   UNL     1      52.478  20.804  15.727  1.00  0.00     0.053 C 
BRANCH  17  18
ATOM     18  C   UNL     1      52.907  21.671  16.868  1.00  0.00     0.041 C 
ATOM     19  O   UNL     1      53.116  22.899  16.687  1.00  0.00    -0.550 OA
ATOM     20  O   UNL     1      53.125  21.112  18.121  1.00  0.00    -0.550 OA
ENDBRANCH  17  18
ENDBRANCH  16  17
ENDBRANCH  15  16
ENDBRANCH  14  15
ENDBRANCH  13  14
ENDBRANCH  12  13
ENDBRANCH  11  12
ENDBRANCH   1  11
TORSDOF 15
ENDMDL
MODEL 5
REMARK VINA RESULT:    -0.391      2.778      4.737
REMARK INTER + INTRA:          -2.426
REMARK INTER:                  -3.538
REMARK INTRA:                   1.112
REMARK UNBOUND:                -1.691
REMARK SMILES O=C([O-])CCCCCCCCCCCCCCC(=O)[O-]
REMARK SMILES IDX 10 1 9 2 8 3 7 4 6 5 5 6 4 7 2 8 1 9 3 10 11 11 12 12 13 13
REMARK SMILES IDX 14 14 15 15 16 16 17 17 18 18 19 19 20 20
REMARK H PARENT
REMARK Flexibility Score: inf
ROOT
ATOM      1  C   UNL     1      49.393  20.796  14.998  1.00  0.00     0.000 C 
ENDROOT
BRANCH   1   2
ATOM      2  C   UNL     1      48.725  21.971  15.723  1.00  0.00     0.000 C 
BRANCH   2   3
ATOM      3  C   UNL     1      49.606  22.479  16.875  1.00  0.00     0.000 C 
BRANCH   3   4
ATOM      4  C   UNL     1      48.937  22.327  18.254  1.00  0.00     0.000 C 
BRANCH   4   5
ATOM      5  C   UNL     1      47.480  22.817  18.327  1.00  0.00     0.000 C 
BRANCH   5   6
ATOM      6  C   UNL     1      46.880  23.125  16.948  1.00  0.00     0.006 C 
BRANCH   6   7
ATOM      7  C   UNL     1      45.408  22.709  16.885  1.00  0.00     0.053 C 
BRANCH   7   8
ATOM      8  C   UNL     1      45.257  21.426  16.131  1.00  0.00     0.041 C 
ATOM      9  O   UNL     1      46.275  20.784  15.761  1.00  0.00    -0.550 OA
ATOM     10  O   UNL     1      43.991  20.913  15.877  1.00  0.00    -0.550 OA
ENDBRANCH   7   8
ENDBRANCH   6   7
ENDBRANCH   5   6
ENDBRANCH   4   5
ENDBRANCH   3   4
ENDBRANCH   2   3
ENDBRANCH   1   2
BRANCH   1  11
ATOM     11  C   UNL     1      50.847  20.619  15.462  1.00  0.00     0.000 C 
BRANCH  11  12
ATOM     12  C   UNL     1      51.847  21.441  14.629  1.00  0.00     0.000 C 
BRANCH  12  13
ATOM     13  C   UNL     1      52.719  22.419  15.440  1.00  0.00     0.000 C 
BRANCH  13  14
ATOM     14  C   UNL     1      53.125  21.924  16.841  1.00  0.00     0.000 C 
BRANCH  14  15
ATOM     15  C   UNL     1      52.971  22.991  17.946  1.00  0.00     0.000 C 
BRANCH  15  16
ATOM     16  C   UNL     1      53.090  22.397  19.358  1.00  0.00     0.006 C 
BRANCH  16  17
ATOM     17  C   UNL     1      51.708  22.189  19.983  1.00  0.00     0.053 C 
BRANCH  17  18
ATOM     18  C   UNL     1      51.836  21.590  21.349  1.00  0.00     0.041 C 
ATOM     19  O   UNL     1      52.437  20.496  21.507  1.00  0.00    -0.550 OA
ATOM     20  O   UNL     1      51.247  22.216  22.440  1.00  0.00    -0.550 OA
ENDBRANCH  17  18
ENDBRANCH  16  17
ENDBRANCH  15  16
ENDBRANCH  14  15
ENDBRANCH  13  14
ENDBRANCH  12  13
ENDBRANCH  11  12
ENDBRANCH   1  11
TORSDOF 15
ENDMDL
MODEL 6
REMARK VINA RESULT:     0.231      3.250      5.631
REMARK INTER + INTRA:          -1.257
REMARK INTER:                  -0.837
REMARK INTRA:                  -0.420
REMARK UNBOUND:                -1.691
REMARK SMILES O=C([O-])CCCCCCCCCCCCCCC(=O)[O-]
REMARK SMILES IDX 10 1 9 2 8 3 7 4 6 5 5 6 4 7 2 8 1 9 3 10 11 11 12 12 13 13
REMARK SMILES IDX 14 14 15 15 16 16 17 17 18 18 19 19 20 20
REMARK H PARENT
REMARK Flexibility Score: inf
ROOT
ATOM      1  C   UNL     1      48.685  23.125  18.576  1.00  0.00     0.000 C 
ENDROOT
BRANCH   1   2
ATOM      2  C   UNL     1      49.871  22.551  19.361  1.00  0.00     0.000 C 
BRANCH   2   3
ATOM      3  C   UNL     1      51.198  22.834  18.640  1.00  0.00     0.000 C 
BRANCH   3   4
ATOM      4  C   UNL     1      52.361  23.118  19.608  1.00  0.00     0.000 C 
BRANCH   4   5
ATOM      5  C   UNL     1      53.070  21.866  20.156  1.00  0.00     0.000 C 
BRANCH   5   6
ATOM      6  C   UNL     1      52.398  21.299  21.415  1.00  0.00     0.006 C 
BRANCH   6   7
ATOM      7  C   UNL     1      53.068  21.835  22.683  1.00  0.00     0.053 C 
BRANCH   7   8
ATOM      8  C   UNL     1      52.078  22.575  23.526  1.00  0.00     0.041 C 
ATOM      9  O   UNL     1      52.434  23.089  24.619  1.00  0.00    -0.550 OA
ATOM     10  O   UNL     1      50.772  22.739  23.083  1.00  0.00    -0.550 OA
ENDBRANCH   7   8
ENDBRANCH   6   7
ENDBRANCH   5   6
ENDBRANCH   4   5
ENDBRANCH   3   4
ENDBRANCH   2   3
ENDBRANCH   1   2
BRANCH   1  11
ATOM     11  C   UNL     1      47.677  22.022  18.220  1.00  0.00     0.000 C 
BRANCH  11  12
ATOM     12  C   UNL     1      46.986  22.256  16.864  1.00  0.00     0.000 C 
BRANCH  12  13
ATOM     13  C   UNL     1      47.872  21.996  15.631  1.00  0.00     0.000 C 
BRANCH  13  14
ATOM     14  C   UNL     1      48.069  20.511  15.270  1.00  0.00     0.000 C 
BRANCH  14  15
ATOM     15  C   UNL     1      49.321  20.242  14.407  1.00  0.00     0.000 C 
BRANCH  15  16
ATOM     16  C   UNL     1      50.620  20.283  15.225  1.00  0.00     0.006 C 
BRANCH  16  17
ATOM     17  C   UNL     1      50.928  21.707  15.696  1.00  0.00     0.053 C 
BRANCH  17  18
ATOM     18  C   UNL     1      52.355  22.057  15.410  1.00  0.00     0.041 C 
ATOM     19  O   UNL     1      52.847  23.123  15.862  1.00  0.00    -0.550 OA
ATOM     20  O   UNL     1      53.125  21.229  14.604  1.00  0.00    -0.550 OA
ENDBRANCH  17  18
ENDBRANCH  16  17
ENDBRANCH  15  16
ENDBRANCH  14  15
ENDBRANCH  13  14
ENDBRANCH  12  13
ENDBRANCH  11  12
ENDBRANCH   1  11
TORSDOF 15
ENDMDL
