MODEL 1
REMARK VINA RESULT:    -5.495      0.000      0.000
REMARK INTER + INTRA:          -8.301
REMARK INTER:                  -8.387
REMARK INTRA:                   0.086
REMARK UNBOUND:                 0.086
REMARK SMILES CC1=CCC[C@@H](C)C(=O)C[C@H](C(C)C)C(=O)C1
REMARK SMILES IDX 8 1 9 2 6 3 7 4 5 5 4 6 3 7 2 8 1 9 10 11 11 12 15 13 16 14
REMARK SMILES IDX 17 15 12 17 13 18 14 19
REMARK H PARENT
REMARK Flexibility Score: 70.00
ROOT
ATOM      1  C   UNL     1     -11.012 -16.508  28.481  1.00  0.00     0.136 C 
ATOM      2  O   UNL     1      -9.892 -16.547  28.968  1.00  0.00    -0.299 OA
ENDROOT
BRANCH   1   3
ATOM      3  C   UNL     1     -11.462 -17.587  27.478  1.00  0.00     0.053 C 
ATOM      4  C   UNL     1     -11.176 -17.213  26.019  1.00  0.00     0.016 C 
BRANCH   3   5
ATOM      5  C   UNL     1     -12.950 -17.715  27.724  1.00  0.00     0.015 C 
BRANCH   5   6
ATOM      6  C   UNL     1     -13.708 -18.884  28.284  1.00  0.00     0.028 C 
BRANCH   6   7
ATOM      7  C   UNL     1     -12.860 -19.491  29.411  1.00  0.00    -0.028 C 
ATOM      8  C   UNL     1     -12.759 -19.118  30.740  1.00  0.00    -0.070 CG0
ATOM      9  C   UNL     1     -11.916 -20.019  31.612  1.00  0.00     0.039 C 
ATOM     10  G   UNL     1     -13.385 -17.874  31.432  1.00  0.00     0.000 G0
ENDBRANCH   6   7
ENDBRANCH   5   6
ENDBRANCH   3   5
ENDBRANCH   1   3
BRANCH   1  11
ATOM     11  C   UNL     1     -11.938 -15.339  28.848  1.00  0.00     0.087 C 
BRANCH  11  12
ATOM     12  C   UNL     1     -13.099 -15.662  29.871  1.00  0.00     0.066 C 
BRANCH  12  13
ATOM     13  C   UNL     1     -12.710 -16.535  31.092  1.00  0.00     0.140 C 
ATOM     14  O   UNL     1     -11.752 -16.182  31.765  1.00  0.00    -0.299 OA
BRANCH  13  15
ATOM     15  C   UNL     1     -13.382 -17.876  31.439  1.00  0.00     0.106 CG0
ATOM     16  G   UNL     1     -12.752 -19.122  30.755  1.00  0.00     0.000 G0
ENDBRANCH  13  15
ENDBRANCH  12  13
BRANCH  12  17
ATOM     17  C   UNL     1     -13.828 -14.370  30.372  1.00  0.00    -0.006 C 
ATOM     18  C   UNL     1     -14.773 -14.681  31.549  1.00  0.00     0.008 C 
ATOM     19  C   UNL     1     -14.642 -13.667  29.267  1.00  0.00     0.008 C 
ENDBRANCH  12  17
ENDBRANCH  11  12
ENDBRANCH   1  11
TORSDOF 1
ENDMDL
MODEL 2
REMARK VINA RESULT:    -5.453      1.962      5.148
REMARK INTER + INTRA:          -8.236
REMARK INTER:                  -7.850
REMARK INTRA:                  -0.386
REMARK UNBOUND:                 0.086
REMARK SMILES CC1=CCC[C@@H](C)C(=O)C[C@H](C(C)C)C(=O)C1
REMARK SMILES IDX 8 1 9 2 6 3 7 4 5 5 4 6 3 7 2 8 1 9 10 11 11 12 15 13 16 14
REMARK SMILES IDX 17 15 12 17 13 18 14 19
REMARK H PARENT
REMARK Flexibility Score: 70.00
ROOT
ATOM      1  C   UNL     1     -13.325 -16.753  32.064  1.00  0.00     0.136 C 
ATOM      2  O   UNL     1     -14.096 -17.463  32.692  1.00  0.00    -0.299 OA
ENDROOT
BRANCH   1   3
ATOM      3  C   UNL     1     -13.547 -15.230  32.001  1.00  0.00     0.053 C 
ATOM      4  C   UNL     1     -14.374 -14.691  33.174  1.00  0.00     0.016 C 
BRANCH   3   5
ATOM      5  C   UNL     1     -14.270 -15.022  30.687  1.00  0.00     0.015 C 
BRANCH   5   6
ATOM      6  C   UNL     1     -14.058 -13.942  29.664  1.00  0.00     0.028 C 
BRANCH   6   7
ATOM      7  C   UNL     1     -14.084 -14.603  28.278  1.00  0.00    -0.028 C 
ATOM      8  C   UNL     1     -13.173 -15.464  27.692  1.00  0.00    -0.070 CG0
ATOM      9  C   UNL     1     -13.574 -16.029  26.349  1.00  0.00     0.039 C 
ATOM     10  G   UNL     1     -11.782 -15.896  28.237  1.00  0.00     0.000 G0
ENDBRANCH   6   7
ENDBRANCH   5   6
ENDBRANCH   3   5
ENDBRANCH   1   3
BRANCH   1  11
ATOM     11  C   UNL     1     -12.166 -17.412  31.303  1.00  0.00     0.087 C 
BRANCH  11  12
ATOM     12  C   UNL     1     -12.500 -17.964  29.860  1.00  0.00     0.066 C 
BRANCH  12  13
ATOM     13  C   UNL     1     -11.676 -17.364  28.692  1.00  0.00     0.140 C 
ATOM     14  O   UNL     1     -10.833 -18.076  28.163  1.00  0.00    -0.299 OA
BRANCH  13  15
ATOM     15  C   UNL     1     -11.773 -15.897  28.235  1.00  0.00     0.106 CG0
ATOM     16  G   UNL     1     -13.167 -15.468  27.695  1.00  0.00     0.000 G0
ENDBRANCH  13  15
ENDBRANCH  12  13
BRANCH  12  17
ATOM     17  C   UNL     1     -12.433 -19.528  29.789  1.00  0.00    -0.006 C 
ATOM     18  C   UNL     1     -13.601 -20.100  28.962  1.00  0.00     0.008 C 
ATOM     19  C   UNL     1     -12.446 -20.197  31.178  1.00  0.00     0.008 C 
ENDBRANCH  12  17
ENDBRANCH  11  12
ENDBRANCH   1  11
TORSDOF 1
ENDMDL
MODEL 3
REMARK VINA RESULT:    -5.345      1.894      4.341
REMARK INTER + INTRA:          -8.072
REMARK INTER:                  -7.824
REMARK INTRA:                  -0.248
REMARK UNBOUND:                 0.086
REMARK SMILES CC1=CCC[C@@H](C)C(=O)C[C@H](C(C)C)C(=O)C1
REMARK SMILES IDX 8 1 9 2 6 3 7 4 5 5 4 6 3 7 2 8 1 9 10 11 11 12 15 13 16 14
REMARK SMILES IDX 17 15 12 17 13 18 14 19
REMARK H PARENT
REMARK Flexibility Score: 70.00
ROOT
ATOM      1  C   UNL     1     -13.991 -14.527  30.521  1.00  0.00     0.136 C 
ATOM      2  O   UNL     1     -14.915 -14.651  31.311  1.00  0.00    -0.299 OA
ENDROOT
BRANCH   1   3
ATOM      3  C   UNL     1     -14.108 -13.553  29.333  1.00  0.00     0.053 C 
ATOM      4  C   UNL     1     -15.559 -13.239  28.950  1.00  0.00     0.016 C 
BRANCH   3   5
ATOM      5  C   UNL     1     -13.391 -14.266  28.206  1.00  0.00     0.015 C 
BRANCH   5   6
ATOM      6  C   UNL     1     -13.938 -15.285  27.249  1.00  0.00     0.028 C 
BRANCH   6   7
ATOM      7  C   UNL     1     -12.747 -15.936  26.532  1.00  0.00    -0.028 C 
ATOM      8  C   UNL     1     -12.095 -17.127  26.802  1.00  0.00    -0.070 CG0
ATOM      9  C   UNL     1     -11.029 -17.532  25.812  1.00  0.00     0.039 C 
ATOM     10  G   UNL     1     -12.313 -18.080  28.013  1.00  0.00     0.000 G0
ENDBRANCH   6   7
ENDBRANCH   5   6
ENDBRANCH   3   5
ENDBRANCH   1   3
BRANCH   1  11
ATOM     11  C   UNL     1     -12.738 -15.394  30.708  1.00  0.00     0.087 C 
BRANCH  11  12
ATOM     12  C   UNL     1     -12.902 -16.935  30.402  1.00  0.00     0.066 C 
BRANCH  12  13
ATOM     13  C   UNL     1     -11.906 -17.538  29.378  1.00  0.00     0.140 C 
ATOM     14  O   UNL     1     -10.713 -17.486  29.642  1.00  0.00    -0.299 OA
BRANCH  13  15
ATOM     15  C   UNL     1     -12.319 -18.092  28.002  1.00  0.00     0.106 CG0
ATOM     16  G   UNL     1     -12.077 -17.126  26.807  1.00  0.00     0.000 G0
ENDBRANCH  13  15
ENDBRANCH  12  13
BRANCH  12  17
ATOM     17  C   UNL     1     -12.892 -17.806  31.705  1.00  0.00    -0.006 C 
ATOM     18  C   UNL     1     -13.123 -19.296  31.384  1.00  0.00     0.008 C 
ATOM     19  C   UNL     1     -13.947 -17.362  32.738  1.00  0.00     0.008 C 
ENDBRANCH  12  17
ENDBRANCH  11  12
ENDBRANCH   1  11
TORSDOF 1
ENDMDL
MODEL 4
REMARK VINA RESULT:    -5.047      1.703      3.175
REMARK INTER + INTRA:          -7.617
REMARK INTER:                  -7.028
REMARK INTRA:                  -0.589
REMARK UNBOUND:                 0.086
REMARK SMILES CC1=CCC[C@@H](C)C(=O)C[C@H](C(C)C)C(=O)C1
REMARK SMILES IDX 8 1 9 2 6 3 7 4 5 5 4 6 3 7 2 8 1 9 10 11 11 12 15 13 16 14
REMARK SMILES IDX 17 15 12 17 13 18 14 19
REMARK H PARENT
REMARK Flexibility Score: 70.00
ROOT
ATOM      1  C   UNL     1     -11.558 -18.910  28.997  1.00  0.00     0.136 C 
ATOM      2  O   UNL     1     -10.425 -18.848  29.453  1.00  0.00    -0.299 OA
ENDROOT
BRANCH   1   3
ATOM      3  C   UNL     1     -12.495 -20.066  29.398  1.00  0.00     0.053 C 
ATOM      4  C   UNL     1     -13.856 -20.011  28.694  1.00  0.00     0.016 C 
BRANCH   3   5
ATOM      5  C   UNL     1     -12.651 -19.905  30.895  1.00  0.00     0.015 C 
BRANCH   5   6
ATOM      6  C   UNL     1     -13.233 -18.747  31.655  1.00  0.00     0.028 C 
BRANCH   6   7
ATOM      7  C   UNL     1     -12.068 -17.973  32.288  1.00  0.00    -0.028 C 
ATOM      8  C   UNL     1     -11.692 -16.652  32.123  1.00  0.00    -0.070 CG0
ATOM      9  C   UNL     1     -10.558 -16.178  33.002  1.00  0.00     0.039 C 
ATOM     10  G   UNL     1     -12.277 -15.610  31.127  1.00  0.00     0.000 G0
ENDBRANCH   6   7
ENDBRANCH   5   6
ENDBRANCH   3   5
ENDBRANCH   1   3
BRANCH   1  11
ATOM     11  C   UNL     1     -12.007 -17.846  27.986  1.00  0.00     0.087 C 
BRANCH  11  12
ATOM     12  C   UNL     1     -12.670 -16.544  28.589  1.00  0.00     0.066 C 
BRANCH  12  13
ATOM     13  C   UNL     1     -11.839 -15.785  29.655  1.00  0.00     0.140 C 
ATOM     14  O   UNL     1     -10.729 -15.383  29.335  1.00  0.00    -0.299 OA
BRANCH  13  15
ATOM     15  C   UNL     1     -12.276 -15.609  31.121  1.00  0.00     0.106 CG0
ATOM     16  G   UNL     1     -11.685 -16.651  32.112  1.00  0.00     0.000 G0
ENDBRANCH  13  15
ENDBRANCH  12  13
BRANCH  12  17
ATOM     17  C   UNL     1     -13.126 -15.538  27.478  1.00  0.00    -0.006 C 
ATOM     18  C   UNL     1     -13.916 -14.360  28.080  1.00  0.00     0.008 C 
ATOM     19  C   UNL     1     -13.990 -16.195  26.384  1.00  0.00     0.008 C 
ENDBRANCH  12  17
ENDBRANCH  11  12
ENDBRANCH   1  11
TORSDOF 1
ENDMDL
MODEL 5
REMARK VINA RESULT:    -4.987      1.733      3.507
REMARK INTER + INTRA:          -7.524
REMARK INTER:                  -7.783
REMARK INTRA:                   0.259
REMARK UNBOUND:                 0.086
REMARK SMILES CC1=CCC[C@@H](C)C(=O)C[C@H](C(C)C)C(=O)C1
REMARK SMILES IDX 8 1 9 2 6 3 7 4 5 5 4 6 3 7 2 8 1 9 10 11 11 12 15 13 16 14
REMARK SMILES IDX 17 15 12 17 13 18 14 19
REMARK H PARENT
REMARK Flexibility Score: 70.00
ROOT
ATOM      1  C   UNL     1     -12.406 -16.140  31.052  1.00  0.00     0.136 C 
ATOM      2  O   UNL     1     -13.622 -16.025  31.098  1.00  0.00    -0.299 OA
ENDROOT
BRANCH   1   3
ATOM      3  C   UNL     1     -11.652 -16.891  32.166  1.00  0.00     0.053 C 
ATOM      4  C   UNL     1     -10.208 -16.412  32.348  1.00  0.00     0.016 C 
BRANCH   3   5
ATOM      5  C   UNL     1     -11.693 -18.338  31.721  1.00  0.00     0.015 C 
BRANCH   5   6
ATOM      6  C   UNL     1     -10.982 -18.979  30.563  1.00  0.00     0.028 C 
BRANCH   6   7
ATOM      7  C   UNL     1     -11.974 -19.928  29.876  1.00  0.00    -0.028 C 
ATOM      8  C   UNL     1     -12.899 -19.668  28.879  1.00  0.00    -0.070 CG0
ATOM      9  C   UNL     1     -13.638 -20.870  28.339  1.00  0.00     0.039 C 
ATOM     10  G   UNL     1     -13.284 -18.289  28.270  1.00  0.00     0.000 G0
ENDBRANCH   6   7
ENDBRANCH   5   6
ENDBRANCH   3   5
ENDBRANCH   1   3
BRANCH   1  11
ATOM     11  C   UNL     1     -11.645 -15.481  29.892  1.00  0.00     0.087 C 
BRANCH  11  12
ATOM     12  C   UNL     1     -12.165 -15.813  28.437  1.00  0.00     0.066 C 
BRANCH  12  13
ATOM     13  C   UNL     1     -12.139 -17.308  28.026  1.00  0.00     0.140 C 
ATOM     14  O   UNL     1     -11.179 -17.706  27.380  1.00  0.00    -0.299 OA
BRANCH  13  15
ATOM     15  C   UNL     1     -13.297 -18.290  28.280  1.00  0.00     0.106 CG0
ATOM     16  G   UNL     1     -12.876 -19.660  28.884  1.00  0.00     0.000 G0
ENDBRANCH  13  15
ENDBRANCH  12  13
BRANCH  12  17
ATOM     17  C   UNL     1     -13.594 -15.229  28.168  1.00  0.00    -0.006 C 
ATOM     18  C   UNL     1     -13.980 -15.359  26.681  1.00  0.00     0.008 C 
ATOM     19  C   UNL     1     -13.731 -13.750  28.579  1.00  0.00     0.008 C 
ENDBRANCH  12  17
ENDBRANCH  11  12
ENDBRANCH   1  11
TORSDOF 1
ENDMDL
MODEL 6
REMARK VINA RESULT:    -4.949      1.812      2.859
REMARK INTER + INTRA:          -7.467
REMARK INTER:                  -7.369
REMARK INTRA:                  -0.098
REMARK UNBOUND:                 0.086
REMARK SMILES CC1=CCC[C@@H](C)C(=O)C[C@H](C(C)C)C(=O)C1
REMARK SMILES IDX 8 1 9 2 6 3 7 4 5 5 4 6 3 7 2 8 1 9 10 11 11 12 15 13 16 14
REMARK SMILES IDX 17 15 12 17 13 18 14 19
REMARK H PARENT
REMARK Flexibility Score: 70.00
ROOT
ATOM      1  C   UNL     1     -13.266 -14.927  29.157  1.00  0.00     0.136 C 
ATOM      2  O   UNL     1     -14.269 -14.266  29.382  1.00  0.00    -0.299 OA
ENDROOT
BRANCH   1   3
ATOM      3  C   UNL     1     -12.816 -15.187  27.707  1.00  0.00     0.053 C 
ATOM      4  C   UNL     1     -13.872 -15.914  26.867  1.00  0.00     0.016 C 
BRANCH   3   5
ATOM      5  C   UNL     1     -11.568 -16.031  27.860  1.00  0.00     0.015 C 
BRANCH   5   6
ATOM      6  C   UNL     1     -11.172 -17.260  27.092  1.00  0.00     0.028 C 
BRANCH   6   7
ATOM      7  C   UNL     1     -12.166 -18.373  27.450  1.00  0.00    -0.028 C 
ATOM      8  C   UNL     1     -12.509 -18.888  28.688  1.00  0.00    -0.070 CG0
ATOM      9  C   UNL     1     -13.626 -19.905  28.690  1.00  0.00     0.039 C 
ATOM     10  G   UNL     1     -11.866 -18.563  30.067  1.00  0.00     0.000 G0
ENDBRANCH   6   7
ENDBRANCH   5   6
ENDBRANCH   3   5
ENDBRANCH   1   3
BRANCH   1  11
ATOM     11  C   UNL     1     -12.498 -15.532  30.341  1.00  0.00     0.087 C 
BRANCH  11  12
ATOM     12  C   UNL     1     -13.295 -16.557  31.242  1.00  0.00     0.066 C 
BRANCH  12  13
ATOM     13  C   UNL     1     -12.857 -18.041  31.140  1.00  0.00     0.140 C 
ATOM     14  O   UNL     1     -13.243 -18.812  32.007  1.00  0.00    -0.299 OA
BRANCH  13  15
ATOM     15  C   UNL     1     -11.875 -18.576  30.081  1.00  0.00     0.106 CG0
ATOM     16  G   UNL     1     -12.507 -18.881  28.694  1.00  0.00     0.000 G0
ENDBRANCH  13  15
ENDBRANCH  12  13
BRANCH  12  17
ATOM     17  C   UNL     1     -13.323 -16.130  32.749  1.00  0.00    -0.006 C 
ATOM     18  C   UNL     1     -14.376 -15.032  33.000  1.00  0.00     0.008 C 
ATOM     19  C   UNL     1     -11.960 -15.623  33.260  1.00  0.00     0.008 C 
ENDBRANCH  12  17
ENDBRANCH  11  12
ENDBRANCH   1  11
TORSDOF 1
ENDMDL
MODEL 7
REMARK VINA RESULT:    -4.934      2.045      3.790
REMARK INTER + INTRA:          -7.445
REMARK INTER:                  -6.940
REMARK INTRA:                  -0.505
REMARK UNBOUND:                 0.086
REMARK SMILES CC1=CCC[C@@H](C)C(=O)C[C@H](C(C)C)C(=O)C1
REMARK SMILES IDX 8 1 9 2 6 3 7 4 5 5 4 6 3 7 2 8 1 9 10 11 11 12 15 13 16 14
REMARK SMILES IDX 17 15 12 17 13 18 14 19
REMARK H PARENT
REMARK Flexibility Score: 70.00
ROOT
ATOM      1  C   UNL     1     -12.842 -19.197  30.161  1.00  0.00     0.136 C 
ATOM      2  O   UNL     1     -12.191 -20.142  30.582  1.00  0.00    -0.299 OA
ENDROOT
BRANCH   1   3
ATOM      3  C   UNL     1     -13.400 -19.215  28.725  1.00  0.00     0.053 C 
ATOM      4  C   UNL     1     -13.849 -20.608  28.269  1.00  0.00     0.016 C 
BRANCH   3   5
ATOM      5  C   UNL     1     -12.247 -18.714  27.881  1.00  0.00     0.015 C 
BRANCH   5   6
ATOM      6  C   UNL     1     -12.216 -17.539  26.946  1.00  0.00     0.028 C 
BRANCH   6   7
ATOM      7  C   UNL     1     -12.989 -16.392  27.613  1.00  0.00    -0.028 C 
ATOM      8  C   UNL     1     -12.567 -15.475  28.560  1.00  0.00    -0.070 CG0
ATOM      9  C   UNL     1     -13.560 -14.392  28.913  1.00  0.00     0.039 C 
ATOM     10  G   UNL     1     -11.210 -15.444  29.319  1.00  0.00     0.000 G0
ENDBRANCH   6   7
ENDBRANCH   5   6
ENDBRANCH   3   5
ENDBRANCH   1   3
BRANCH   1  11
ATOM     11  C   UNL     1     -13.049 -17.978  31.072  1.00  0.00     0.087 C 
BRANCH  11  12
ATOM     12  C   UNL     1     -11.761 -17.123  31.399  1.00  0.00     0.066 C 
BRANCH  12  13
ATOM     13  C   UNL     1     -10.907 -16.682  30.183  1.00  0.00     0.140 C 
ATOM     14  O   UNL     1      -9.881 -17.305  29.949  1.00  0.00    -0.299 OA
BRANCH  13  15
ATOM     15  C   UNL     1     -11.210 -15.439  29.325  1.00  0.00     0.106 CG0
ATOM     16  G   UNL     1     -12.562 -15.486  28.558  1.00  0.00     0.000 G0
ENDBRANCH  13  15
ENDBRANCH  12  13
BRANCH  12  17
ATOM     17  C   UNL     1     -12.086 -15.871  32.283  1.00  0.00    -0.006 C 
ATOM     18  C   UNL     1     -11.040 -15.689  33.401  1.00  0.00     0.008 C 
ATOM     19  C   UNL     1     -13.483 -15.932  32.930  1.00  0.00     0.008 C 
ENDBRANCH  12  17
ENDBRANCH  11  12
ENDBRANCH   1  11
TORSDOF 1
ENDMDL
MODEL 8
REMARK VINA RESULT:    -4.762      1.643      4.176
REMARK INTER + INTRA:          -7.182
REMARK INTER:                  -6.908
REMARK INTRA:                  -0.274
REMARK UNBOUND:                 0.086
REMARK SMILES CC1=CCC[C@@H](C)C(=O)C[C@H](C(C)C)C(=O)C1
REMARK SMILES IDX 8 1 9 2 6 3 7 4 5 5 4 6 3 7 2 8 1 9 10 11 11 12 15 13 16 14
REMARK SMILES IDX 17 15 12 17 13 18 14 19
REMARK H PARENT
REMARK Flexibility Score: 70.00
ROOT
ATOM      1  C   UNL     1     -13.624 -15.412  30.369  1.00  0.00     0.136 C 
ATOM      2  O   UNL     1     -13.700 -14.223  30.096  1.00  0.00    -0.299 OA
ENDROOT
BRANCH   1   3
ATOM      3  C   UNL     1     -13.667 -15.878  31.836  1.00  0.00     0.053 C 
ATOM      4  C   UNL     1     -14.727 -15.151  32.671  1.00  0.00     0.016 C 
BRANCH   3   5
ATOM      5  C   UNL     1     -12.274 -15.583  32.352  1.00  0.00     0.015 C 
BRANCH   5   6
ATOM      6  C   UNL     1     -11.066 -16.475  32.345  1.00  0.00     0.028 C 
BRANCH   6   7
ATOM      7  C   UNL     1     -11.526 -17.877  31.920  1.00  0.00    -0.028 C 
ATOM      8  C   UNL     1     -11.238 -18.592  30.770  1.00  0.00    -0.070 CG0
ATOM      9  C   UNL     1     -11.762 -20.008  30.729  1.00  0.00     0.039 C 
ATOM     10  G   UNL     1     -10.465 -18.104  29.512  1.00  0.00     0.000 G0
ENDBRANCH   6   7
ENDBRANCH   5   6
ENDBRANCH   3   5
ENDBRANCH   1   3
BRANCH   1  11
ATOM     11  C   UNL     1     -13.436 -16.421  29.227  1.00  0.00     0.087 C 
BRANCH  11  12
ATOM     12  C   UNL     1     -12.125 -16.261  28.360  1.00  0.00     0.066 C 
BRANCH  12  13
ATOM     13  C   UNL     1     -10.796 -16.665  29.050  1.00  0.00     0.140 C 
ATOM     14  O   UNL     1      -9.926 -15.813  29.160  1.00  0.00    -0.299 OA
BRANCH  13  15
ATOM     15  C   UNL     1     -10.463 -18.100  29.500  1.00  0.00     0.106 CG0
ATOM     16  G   UNL     1     -11.231 -18.587  30.762  1.00  0.00     0.000 G0
ENDBRANCH  13  15
ENDBRANCH  12  13
BRANCH  12  17
ATOM     17  C   UNL     1     -12.231 -16.990  26.977  1.00  0.00    -0.006 C 
ATOM     18  C   UNL     1     -10.997 -16.704  26.098  1.00  0.00     0.008 C 
ATOM     19  C   UNL     1     -13.494 -16.603  26.184  1.00  0.00     0.008 C 
ENDBRANCH  12  17
ENDBRANCH  11  12
ENDBRANCH   1  11
TORSDOF 1
ENDMDL
MODEL 9
REMARK VINA RESULT:    -4.731      1.852      2.615
REMARK INTER + INTRA:          -7.135
REMARK INTER:                  -6.768
REMARK INTRA:                  -0.367
REMARK UNBOUND:                 0.086
REMARK SMILES CC1=CCC[C@@H](C)C(=O)C[C@H](C(C)C)C(=O)C1
REMARK SMILES IDX 8 1 9 2 6 3 7 4 5 5 4 6 3 7 2 8 1 9 10 11 11 12 15 13 16 14
REMARK SMILES IDX 17 15 12 17 13 18 14 19
REMARK H PARENT
REMARK Flexibility Score: 70.00
ROOT
ATOM      1  C   UNL     1     -13.134 -16.830  27.898  1.00  0.00     0.136 C 
ATOM      2  O   UNL     1     -13.933 -16.566  27.011  1.00  0.00    -0.299 OA
ENDROOT
BRANCH   1   3
ATOM      3  C   UNL     1     -12.530 -18.243  28.006  1.00  0.00     0.053 C 
ATOM      4  C   UNL     1     -13.502 -19.272  28.594  1.00  0.00     0.016 C 
BRANCH   3   5
ATOM      5  C   UNL     1     -11.327 -18.057  28.906  1.00  0.00     0.015 C 
BRANCH   5   6
ATOM      6  C   UNL     1     -11.039 -18.709  30.228  1.00  0.00     0.028 C 
BRANCH   6   7
ATOM      7  C   UNL     1     -10.684 -17.598  31.227  1.00  0.00    -0.028 C 
ATOM      8  C   UNL     1     -11.514 -16.823  32.018  1.00  0.00    -0.070 CG0
ATOM      9  C   UNL     1     -10.819 -15.898  32.989  1.00  0.00     0.039 C 
ATOM     10  G   UNL     1     -13.069 -16.774  32.008  1.00  0.00     0.000 G0
ENDBRANCH   6   7
ENDBRANCH   5   6
ENDBRANCH   3   5
ENDBRANCH   1   3
BRANCH   1  11
ATOM     11  C   UNL     1     -12.785 -15.743  28.926  1.00  0.00     0.087 C 
BRANCH  11  12
ATOM     12  C   UNL     1     -13.953 -15.294  29.891  1.00  0.00     0.066 C 
BRANCH  12  13
ATOM     13  C   UNL     1     -13.706 -15.508  31.407  1.00  0.00     0.140 C 
ATOM     14  O   UNL     1     -13.941 -14.575  32.162  1.00  0.00    -0.299 OA
BRANCH  13  15
ATOM     15  C   UNL     1     -13.077 -16.781  32.004  1.00  0.00     0.106 CG0
ATOM     16  G   UNL     1     -11.522 -16.801  32.013  1.00  0.00     0.000 G0
ENDBRANCH  13  15
ENDBRANCH  12  13
BRANCH  12  17
ATOM     17  C   UNL     1     -14.392 -13.810  29.645  1.00  0.00    -0.006 C 
ATOM     18  C   UNL     1     -15.920 -13.651  29.770  1.00  0.00     0.008 C 
ATOM     19  C   UNL     1     -13.957 -13.271  28.269  1.00  0.00     0.008 C 
ENDBRANCH  12  17
ENDBRANCH  11  12
ENDBRANCH   1  11
TORSDOF 1
ENDMDL
