MODEL 1
REMARK VINA RESULT:    -4.636      0.000      0.000
REMARK INTER + INTRA:          -6.994
REMARK INTER:                  -6.533
REMARK INTRA:                  -0.462
REMARK UNBOUND:                -0.462
REMARK SMILES CCCCCCCCC(=O)[O-]
REMARK SMILES IDX 6 1 7 2 8 3 9 4 10 5 11 6 5 7 4 8 3 9 2 10 1 11
REMARK H PARENT
REMARK Flexibility Score: inf
ROOT
ATOM      1  C   UNL     1      23.567  37.221 147.761  1.00  0.00     0.000 C 
ENDROOT
BRANCH   1   2
ATOM      2  C   UNL     1      23.268  38.729 147.660  1.00  0.00     0.006 C 
BRANCH   2   3
ATOM      3  C   UNL     1      24.452  39.631 148.042  1.00  0.00     0.053 C 
BRANCH   3   4
ATOM      4  C   UNL     1      24.305  40.195 149.422  1.00  0.00     0.041 C 
ATOM      5  O   UNL     1      24.300  39.432 150.423  1.00  0.00    -0.550 OA
ATOM      6  O   UNL     1      24.193  41.568 149.604  1.00  0.00    -0.550 OA
ENDBRANCH   3   4
ENDBRANCH   2   3
ENDBRANCH   1   2
BRANCH   1   7
ATOM      7  C   UNL     1      25.051  36.892 147.523  1.00  0.00     0.000 C 
BRANCH   7   8
ATOM      8  C   UNL     1      25.305  35.372 147.441  1.00  0.00    -0.000 C 
BRANCH   8   9
ATOM      9  C   UNL     1      24.042  34.549 147.134  1.00  0.00    -0.000 C 
BRANCH   9  10
ATOM     10  C   UNL     1      23.921  33.293 148.007  1.00  0.00    -0.003 C 
ATOM     11  C   UNL     1      24.255  33.600 149.464  1.00  0.00     0.004 C 
ENDBRANCH   9  10
ENDBRANCH   8   9
ENDBRANCH   7   8
ENDBRANCH   1   7
TORSDOF 7
ENDMDL
MODEL 2
REMARK VINA RESULT:    -4.524      1.936      2.922
REMARK INTER + INTRA:          -6.837
REMARK INTER:                  -6.173
REMARK INTRA:                  -0.664
REMARK UNBOUND:                -0.462
REMARK SMILES CCCCCCCCC(=O)[O-]
REMARK SMILES IDX 6 1 7 2 8 3 9 4 10 5 11 6 5 7 4 8 3 9 2 10 1 11
REMARK H PARENT
REMARK Flexibility Score: inf
ROOT
ATOM      1  C   UNL     1      24.574  35.288 147.458  1.00  0.00     0.000 C 
ENDROOT
BRANCH   1   2
ATOM      2  C   UNL     1      23.591  36.472 147.419  1.00  0.00     0.006 C 
BRANCH   2   3
ATOM      3  C   UNL     1      24.230  37.831 147.744  1.00  0.00     0.053 C 
BRANCH   3   4
ATOM      4  C   UNL     1      23.928  38.273 149.143  1.00  0.00     0.041 C 
ATOM      5  O   UNL     1      22.942  37.794 149.761  1.00  0.00    -0.550 OA
ATOM      6  O   UNL     1      24.748  39.202 149.772  1.00  0.00    -0.550 OA
ENDBRANCH   3   4
ENDBRANCH   2   3
ENDBRANCH   1   2
BRANCH   1   7
ATOM      7  C   UNL     1      24.151  34.196 148.456  1.00  0.00     0.000 C 
BRANCH   7   8
ATOM      8  C   UNL     1      25.153  34.050 149.621  1.00  0.00    -0.000 C 
BRANCH   8   9
ATOM      9  C   UNL     1      26.616  34.290 149.212  1.00  0.00    -0.000 C 
BRANCH   9  10
ATOM     10  C   UNL     1      27.381  35.161 150.216  1.00  0.00    -0.003 C 
ATOM     11  C   UNL     1      27.329  36.634 149.820  1.00  0.00     0.004 C 
ENDBRANCH   9  10
ENDBRANCH   8   9
ENDBRANCH   7   8
ENDBRANCH   1   7
TORSDOF 7
ENDMDL
MODEL 3
REMARK VINA RESULT:    -4.422      1.397      1.896
REMARK INTER + INTRA:          -6.693
REMARK INTER:                  -6.109
REMARK INTRA:                  -0.584
REMARK UNBOUND:                -0.462
REMARK SMILES CCCCCCCCC(=O)[O-]
REMARK SMILES IDX 6 1 7 2 8 3 9 4 10 5 11 6 5 7 4 8 3 9 2 10 1 11
REMARK H PARENT
REMARK Flexibility Score: inf
ROOT
ATOM      1  C   UNL     1      23.490  37.115 148.324  1.00  0.00     0.000 C 
ENDROOT
BRANCH   1   2
ATOM      2  C   UNL     1      23.765  38.469 147.642  1.00  0.00     0.006 C 
BRANCH   2   3
ATOM      3  C   UNL     1      25.226  38.934 147.735  1.00  0.00     0.053 C 
BRANCH   3   4
ATOM      4  C   UNL     1      25.759  38.835 149.132  1.00  0.00     0.041 C 
ATOM      5  O   UNL     1      25.312  39.586 150.037  1.00  0.00    -0.550 OA
ATOM      6  O   UNL     1      26.739  37.898 149.438  1.00  0.00    -0.550 OA
ENDBRANCH   3   4
ENDBRANCH   2   3
ENDBRANCH   1   2
BRANCH   1   7
ATOM      7  C   UNL     1      23.604  35.927 147.353  1.00  0.00     0.000 C 
BRANCH   7   8
ATOM      8  C   UNL     1      24.948  35.182 147.498  1.00  0.00    -0.000 C 
BRANCH   8   9
ATOM      9  C   UNL     1      25.248  34.724 148.935  1.00  0.00    -0.000 C 
BRANCH   9  10
ATOM     10  C   UNL     1      24.268  33.657 149.439  1.00  0.00    -0.003 C 
ATOM     11  C   UNL     1      24.258  32.439 148.519  1.00  0.00     0.004 C 
ENDBRANCH   9  10
ENDBRANCH   8   9
ENDBRANCH   7   8
ENDBRANCH   1   7
TORSDOF 7
ENDMDL
MODEL 4
REMARK VINA RESULT:    -4.417      2.864      5.612
REMARK INTER + INTRA:          -6.687
REMARK INTER:                  -6.200
REMARK INTRA:                  -0.486
REMARK UNBOUND:                -0.462
REMARK SMILES CCCCCCCCC(=O)[O-]
REMARK SMILES IDX 6 1 7 2 8 3 9 4 10 5 11 6 5 7 4 8 3 9 2 10 1 11
REMARK H PARENT
REMARK Flexibility Score: inf
ROOT
ATOM      1  C   UNL     1      25.112  37.101 147.478  1.00  0.00     0.000 C 
ENDROOT
BRANCH   1   2
ATOM      2  C   UNL     1      25.481  35.610 147.371  1.00  0.00     0.006 C 
BRANCH   2   3
ATOM      3  C   UNL     1      24.278  34.678 147.155  1.00  0.00     0.053 C 
BRANCH   3   4
ATOM      4  C   UNL     1      24.166  33.647 148.236  1.00  0.00     0.041 C 
ATOM      5  O   UNL     1      24.091  33.998 149.442  1.00  0.00    -0.550 OA
ATOM      6  O   UNL     1      24.124  32.297 147.908  1.00  0.00    -0.550 OA
ENDBRANCH   3   4
ENDBRANCH   2   3
ENDBRANCH   1   2
BRANCH   1   7
ATOM      7  C   UNL     1      23.602  37.327 147.671  1.00  0.00     0.000 C 
BRANCH   7   8
ATOM      8  C   UNL     1      23.224  38.823 147.614  1.00  0.00    -0.000 C 
BRANCH   8   9
ATOM      9  C   UNL     1      24.423  39.771 147.791  1.00  0.00    -0.000 C 
BRANCH   9  10
ATOM     10  C   UNL     1      24.346  40.596 149.081  1.00  0.00    -0.003 C 
ATOM     11  C   UNL     1      24.798  39.777 150.287  1.00  0.00     0.004 C 
ENDBRANCH   9  10
ENDBRANCH   8   9
ENDBRANCH   7   8
ENDBRANCH   1   7
TORSDOF 7
ENDMDL
MODEL 5
REMARK VINA RESULT:    -4.313      3.094      5.164
REMARK INTER + INTRA:          -6.540
REMARK INTER:                  -5.836
REMARK INTRA:                  -0.704
REMARK UNBOUND:                -0.462
REMARK SMILES CCCCCCCCC(=O)[O-]
REMARK SMILES IDX 6 1 7 2 8 3 9 4 10 5 11 6 5 7 4 8 3 9 2 10 1 11
REMARK H PARENT
REMARK Flexibility Score: inf
ROOT
ATOM      1  C   UNL     1      26.668  35.216 148.502  1.00  0.00     0.000 C 
ENDROOT
BRANCH   1   2
ATOM      2  C   UNL     1      25.886  34.393 149.542  1.00  0.00     0.006 C 
BRANCH   2   3
ATOM      3  C   UNL     1      24.369  34.353 149.302  1.00  0.00     0.053 C 
BRANCH   3   4
ATOM      4  C   UNL     1      24.031  33.834 147.937  1.00  0.00     0.041 C 
ATOM      5  O   UNL     1      24.066  32.599 147.701  1.00  0.00    -0.550 OA
ATOM      6  O   UNL     1      23.658  34.717 146.931  1.00  0.00    -0.550 OA
ENDBRANCH   3   4
ENDBRANCH   2   3
ENDBRANCH   1   2
BRANCH   1   7
ATOM      7  C   UNL     1      26.502  36.733 148.697  1.00  0.00     0.000 C 
BRANCH   7   8
ATOM      8  C   UNL     1      26.009  37.435 147.413  1.00  0.00    -0.000 C 
BRANCH   8   9
ATOM      9  C   UNL     1      25.017  38.580 147.677  1.00  0.00    -0.000 C 
BRANCH   9  10
ATOM     10  C   UNL     1      23.553  38.124 147.635  1.00  0.00    -0.003 C 
ATOM     11  C   UNL     1      23.017  37.859 149.039  1.00  0.00     0.004 C 
ENDBRANCH   9  10
ENDBRANCH   8   9
ENDBRANCH   7   8
ENDBRANCH   1   7
TORSDOF 7
ENDMDL
MODEL 6
REMARK VINA RESULT:    -4.287      3.133      5.403
REMARK INTER + INTRA:          -6.503
REMARK INTER:                  -5.877
REMARK INTRA:                  -0.627
REMARK UNBOUND:                -0.462
REMARK SMILES CCCCCCCCC(=O)[O-]
REMARK SMILES IDX 6 1 7 2 8 3 9 4 10 5 11 6 5 7 4 8 3 9 2 10 1 11
REMARK H PARENT
REMARK Flexibility Score: inf
ROOT
ATOM      1  C   UNL     1      25.205  36.569 147.505  1.00  0.00     0.000 C 
ENDROOT
BRANCH   1   2
ATOM      2  C   UNL     1      25.953  36.681 148.847  1.00  0.00     0.006 C 
BRANCH   2   3
ATOM      3  C   UNL     1      26.855  35.479 149.166  1.00  0.00     0.053 C 
BRANCH   3   4
ATOM      4  C   UNL     1      26.100  34.186 149.134  1.00  0.00     0.041 C 
ATOM      5  O   UNL     1      26.502  33.233 148.416  1.00  0.00    -0.550 OA
ATOM      6  O   UNL     1      24.960  34.026 149.912  1.00  0.00    -0.550 OA
ENDBRANCH   3   4
ENDBRANCH   2   3
ENDBRANCH   1   2
BRANCH   1   7
ATOM      7  C   UNL     1      23.681  36.707 147.661  1.00  0.00     0.000 C 
BRANCH   7   8
ATOM      8  C   UNL     1      23.286  37.994 148.416  1.00  0.00    -0.000 C 
BRANCH   8   9
ATOM      9  C   UNL     1      23.254  39.248 147.526  1.00  0.00    -0.000 C 
BRANCH   9  10
ATOM     10  C   UNL     1      24.210  40.347 148.007  1.00  0.00    -0.003 C 
ATOM     11  C   UNL     1      25.577  40.220 147.340  1.00  0.00     0.004 C 
ENDBRANCH   9  10
ENDBRANCH   8   9
ENDBRANCH   7   8
ENDBRANCH   1   7
TORSDOF 7
ENDMDL
MODEL 7
REMARK VINA RESULT:    -4.283      1.996      2.608
REMARK INTER + INTRA:          -6.498
REMARK INTER:                  -5.747
REMARK INTRA:                  -0.751
REMARK UNBOUND:                -0.462
REMARK SMILES CCCCCCCCC(=O)[O-]
REMARK SMILES IDX 6 1 7 2 8 3 9 4 10 5 11 6 5 7 4 8 3 9 2 10 1 11
REMARK H PARENT
REMARK Flexibility Score: inf
ROOT
ATOM      1  C   UNL     1      26.277  37.260 149.053  1.00  0.00     0.000 C 
ENDROOT
BRANCH   1   2
ATOM      2  C   UNL     1      25.588  37.169 147.679  1.00  0.00     0.006 C 
BRANCH   2   3
ATOM      3  C   UNL     1      24.070  36.937 147.750  1.00  0.00     0.053 C 
BRANCH   3   4
ATOM      4  C   UNL     1      23.357  38.085 148.396  1.00  0.00     0.041 C 
ATOM      5  O   UNL     1      22.875  37.964 149.552  1.00  0.00    -0.550 OA
ATOM      6  O   UNL     1      23.241  39.298 147.726  1.00  0.00    -0.550 OA
ENDBRANCH   3   4
ENDBRANCH   2   3
ENDBRANCH   1   2
BRANCH   1   7
ATOM      7  C   UNL     1      27.381  36.203 149.235  1.00  0.00     0.000 C 
BRANCH   7   8
ATOM      8  C   UNL     1      26.829  34.872 149.789  1.00  0.00    -0.000 C 
BRANCH   8   9
ATOM      9  C   UNL     1      26.737  33.755 148.736  1.00  0.00    -0.000 C 
BRANCH   9  10
ATOM     10  C   UNL     1      25.299  33.284 148.489  1.00  0.00    -0.003 C 
ATOM     11  C   UNL     1      24.375  33.713 149.626  1.00  0.00     0.004 C 
ENDBRANCH   9  10
ENDBRANCH   8   9
ENDBRANCH   7   8
ENDBRANCH   1   7
TORSDOF 7
ENDMDL
MODEL 8
REMARK VINA RESULT:    -4.266      3.069      4.956
REMARK INTER + INTRA:          -6.473
REMARK INTER:                  -5.759
REMARK INTRA:                  -0.714
REMARK UNBOUND:                -0.462
REMARK SMILES CCCCCCCCC(=O)[O-]
REMARK SMILES IDX 6 1 7 2 8 3 9 4 10 5 11 6 5 7 4 8 3 9 2 10 1 11
REMARK H PARENT
REMARK Flexibility Score: inf
ROOT
ATOM      1  C   UNL     1      23.554  37.320 148.319  1.00  0.00     0.000 C 
ENDROOT
BRANCH   1   2
ATOM      2  C   UNL     1      23.514  36.117 147.358  1.00  0.00     0.006 C 
BRANCH   2   3
ATOM      3  C   UNL     1      24.707  35.159 147.500  1.00  0.00     0.053 C 
BRANCH   3   4
ATOM      4  C   UNL     1      24.401  34.013 148.414  1.00  0.00     0.041 C 
ATOM      5  O   UNL     1      24.668  34.091 149.642  1.00  0.00    -0.550 OA
ATOM      6  O   UNL     1      23.803  32.863 147.913  1.00  0.00    -0.550 OA
ENDBRANCH   3   4
ENDBRANCH   2   3
ENDBRANCH   1   2
BRANCH   1   7
ATOM      7  C   UNL     1      23.741  38.660 147.586  1.00  0.00     0.000 C 
BRANCH   7   8
ATOM      8  C   UNL     1      25.205  39.149 147.629  1.00  0.00    -0.000 C 
BRANCH   8   9
ATOM      9  C   UNL     1      25.952  38.752 148.913  1.00  0.00    -0.000 C 
BRANCH   9  10
ATOM     10  C   UNL     1      27.184  37.880 148.642  1.00  0.00    -0.003 C 
ATOM     11  C   UNL     1      27.317  36.774 149.685  1.00  0.00     0.004 C 
ENDBRANCH   9  10
ENDBRANCH   8   9
ENDBRANCH   7   8
ENDBRANCH   1   7
TORSDOF 7
ENDMDL
MODEL 9
REMARK VINA RESULT:    -4.209      2.386      2.877
REMARK INTER + INTRA:          -6.393
REMARK INTER:                  -5.797
REMARK INTRA:                  -0.596
REMARK UNBOUND:                -0.462
REMARK SMILES CCCCCCCCC(=O)[O-]
REMARK SMILES IDX 6 1 7 2 8 3 9 4 10 5 11 6 5 7 4 8 3 9 2 10 1 11
REMARK H PARENT
REMARK Flexibility Score: inf
ROOT
ATOM      1  C   UNL     1      23.626  36.418 147.760  1.00  0.00     0.000 C 
ENDROOT
BRANCH   1   2
ATOM      2  C   UNL     1      24.444  37.716 147.625  1.00  0.00     0.006 C 
BRANCH   2   3
ATOM      3  C   UNL     1      25.963  37.496 147.540  1.00  0.00     0.053 C 
BRANCH   3   4
ATOM      4  C   UNL     1      26.718  38.790 147.541  1.00  0.00     0.041 C 
ATOM      5  O   UNL     1      27.930  38.817 147.879  1.00  0.00    -0.550 OA
ATOM      6  O   UNL     1      26.087  39.964 147.149  1.00  0.00    -0.550 OA
ENDBRANCH   3   4
ENDBRANCH   2   3
ENDBRANCH   1   2
BRANCH   1   7
ATOM      7  C   UNL     1      24.419  35.169 147.336  1.00  0.00     0.000 C 
BRANCH   7   8
ATOM      8  C   UNL     1      24.273  34.014 148.350  1.00  0.00    -0.000 C 
BRANCH   8   9
ATOM      9  C   UNL     1      25.147  34.179 149.605  1.00  0.00    -0.000 C 
BRANCH   9  10
ATOM     10  C   UNL     1      26.642  34.285 149.281  1.00  0.00    -0.003 C 
ATOM     11  C   UNL     1      27.391  35.040 150.375  1.00  0.00     0.004 C 
ENDBRANCH   9  10
ENDBRANCH   8   9
ENDBRANCH   7   8
ENDBRANCH   1   7
TORSDOF 7
ENDMDL
