MODEL 1
REMARK VINA RESULT:    -4.709      0.000      0.000
REMARK INTER + INTRA:          -7.098
REMARK INTER:                  -7.186
REMARK INTRA:                   0.088
REMARK UNBOUND:                 0.088
REMARK SMILES CC1=CCC[C@H](C)C(=O)C[C@@H](C(C)C)C(=O)C1
REMARK SMILES IDX 8 1 9 2 6 3 7 4 5 5 4 6 3 7 2 8 1 9 10 11 11 12 15 13 16 14
REMARK SMILES IDX 17 15 12 17 13 18 14 19
REMARK H PARENT
REMARK Flexibility Score: 70.00
ROOT
ATOM      1  C   UNL     1     -12.432 -33.504  29.035  1.00  0.00     0.136 C 
ATOM      2  O   UNL     1     -11.915 -32.396  29.024  1.00  0.00    -0.299 OA
ENDROOT
BRANCH   1   3
ATOM      3  C   UNL     1     -11.743 -34.665  28.348  1.00  0.00     0.053 C 
ATOM      4  C   UNL     1     -11.961 -34.561  26.836  1.00  0.00     0.016 C 
BRANCH   3   5
ATOM      5  C   UNL     1     -10.231 -34.707  28.671  1.00  0.00     0.015 C 
BRANCH   5   6
ATOM      6  C   UNL     1      -9.934 -35.034  30.142  1.00  0.00     0.028 C 
BRANCH   6   7
ATOM      7  C   UNL     1     -10.678 -36.269  30.592  1.00  0.00    -0.028 C 
ATOM      8  C   UNL     1     -11.586 -36.322  31.592  1.00  0.00    -0.070 CG0
ATOM      9  C   UNL     1     -12.225 -37.654  31.897  1.00  0.00     0.039 C 
ATOM     10  G   UNL     1     -12.014 -35.107  32.392  1.00  0.00     0.000 G0
ENDBRANCH   6   7
ENDBRANCH   5   6
ENDBRANCH   3   5
ENDBRANCH   1   3
BRANCH   1  11
ATOM     11  C   UNL     1     -13.763 -33.682  29.719  1.00  0.00     0.087 C 
BRANCH  11  12
ATOM     12  C   UNL     1     -13.671 -33.405  31.242  1.00  0.00     0.066 C 
BRANCH  12  13
ATOM     13  C   UNL     1     -13.408 -34.687  32.013  1.00  0.00     0.140 C 
ATOM     14  O   UNL     1     -14.347 -35.379  32.381  1.00  0.00    -0.299 OA
BRANCH  13  15
ATOM     15  C   UNL     1     -12.009 -35.105  32.387  1.00  0.00     0.106 CG0
ATOM     16  G   UNL     1     -11.578 -36.323  31.594  1.00  0.00     0.000 G0
ENDBRANCH  13  15
ENDBRANCH  12  13
BRANCH  12  17
ATOM     17  C   UNL     1     -14.923 -32.672  31.819  1.00  0.00    -0.006 C 
ATOM     18  C   UNL     1     -15.522 -31.620  30.868  1.00  0.00     0.008 C 
ATOM     19  C   UNL     1     -14.629 -32.037  33.188  1.00  0.00     0.008 C 
ENDBRANCH  12  17
ENDBRANCH  11  12
ENDBRANCH   1  11
TORSDOF 1
ENDMDL
MODEL 2
REMARK VINA RESULT:    -4.642      1.841      4.174
REMARK INTER + INTRA:          -6.996
REMARK INTER:                  -7.219
REMARK INTRA:                   0.223
REMARK UNBOUND:                 0.088
REMARK SMILES CC1=CCC[C@H](C)C(=O)C[C@@H](C(C)C)C(=O)C1
REMARK SMILES IDX 8 1 9 2 6 3 7 4 5 5 4 6 3 7 2 8 1 9 10 11 11 12 15 13 16 14
REMARK SMILES IDX 17 15 12 17 13 18 14 19
REMARK H PARENT
REMARK Flexibility Score: 70.00
ROOT
ATOM      1  C   UNL     1     -13.164 -36.990  29.419  1.00  0.00     0.136 C 
ATOM      2  O   UNL     1     -13.263 -38.046  28.811  1.00  0.00    -0.299 OA
ENDROOT
BRANCH   1   3
ATOM      3  C   UNL     1     -12.562 -36.973  30.810  1.00  0.00     0.053 C 
ATOM      4  C   UNL     1     -12.874 -38.298  31.512  1.00  0.00     0.016 C 
BRANCH   3   5
ATOM      5  C   UNL     1     -11.035 -36.733  30.770  1.00  0.00     0.015 C 
BRANCH   5   6
ATOM      6  C   UNL     1     -10.543 -35.778  31.867  1.00  0.00     0.028 C 
BRANCH   6   7
ATOM      7  C   UNL     1     -11.684 -34.983  32.457  1.00  0.00    -0.028 C 
ATOM      8  C   UNL     1     -12.204 -33.848  31.940  1.00  0.00    -0.070 CG0
ATOM      9  C   UNL     1     -13.346 -33.193  32.676  1.00  0.00     0.039 C 
ATOM     10  G   UNL     1     -11.720 -33.226  30.644  1.00  0.00     0.000 G0
ENDBRANCH   6   7
ENDBRANCH   5   6
ENDBRANCH   3   5
ENDBRANCH   1   3
BRANCH   1  11
ATOM     11  C   UNL     1     -13.667 -35.725  28.773  1.00  0.00     0.087 C 
BRANCH  11  12
ATOM     12  C   UNL     1     -12.533 -34.687  28.575  1.00  0.00     0.066 C 
BRANCH  12  13
ATOM     13  C   UNL     1     -12.705 -33.506  29.515  1.00  0.00     0.140 C 
ATOM     14  O   UNL     1     -13.635 -32.728  29.350  1.00  0.00    -0.299 OA
BRANCH  13  15
ATOM     15  C   UNL     1     -11.720 -33.235  30.623  1.00  0.00     0.106 CG0
ATOM     16  G   UNL     1     -12.195 -33.841  31.929  1.00  0.00     0.000 G0
ENDBRANCH  13  15
ENDBRANCH  12  13
BRANCH  12  17
ATOM     17  C   UNL     1     -12.393 -34.191  27.101  1.00  0.00    -0.006 C 
ATOM     18  C   UNL     1     -13.720 -34.170  26.322  1.00  0.00     0.008 C 
ATOM     19  C   UNL     1     -11.340 -35.001  26.326  1.00  0.00     0.008 C 
ENDBRANCH  12  17
ENDBRANCH  11  12
ENDBRANCH   1  11
TORSDOF 1
ENDMDL
MODEL 3
REMARK VINA RESULT:    -4.487      1.875      3.842
REMARK INTER + INTRA:          -6.760
REMARK INTER:                  -7.229
REMARK INTRA:                   0.469
REMARK UNBOUND:                 0.088
REMARK SMILES CC1=CCC[C@H](C)C(=O)C[C@@H](C(C)C)C(=O)C1
REMARK SMILES IDX 8 1 9 2 6 3 7 4 5 5 4 6 3 7 2 8 1 9 10 11 11 12 15 13 16 14
REMARK SMILES IDX 17 15 12 17 13 18 14 19
REMARK H PARENT
REMARK Flexibility Score: 70.00
ROOT
ATOM      1  C   UNL     1     -13.146 -33.892  31.628  1.00  0.00     0.136 C 
ATOM      2  O   UNL     1     -14.059 -34.582  32.058  1.00  0.00    -0.299 OA
ENDROOT
BRANCH   1   3
ATOM      3  C   UNL     1     -11.743 -34.072  32.173  1.00  0.00     0.053 C 
ATOM      4  C   UNL     1     -11.614 -33.318  33.500  1.00  0.00     0.016 C 
BRANCH   3   5
ATOM      5  C   UNL     1     -11.391 -35.565  32.366  1.00  0.00     0.015 C 
BRANCH   5   6
ATOM      6  C   UNL     1     -10.996 -36.270  31.061  1.00  0.00     0.028 C 
BRANCH   6   7
ATOM      7  C   UNL     1     -12.206 -36.831  30.351  1.00  0.00    -0.028 C 
ATOM      8  C   UNL     1     -12.646 -36.459  29.128  1.00  0.00    -0.070 CG0
ATOM      9  C   UNL     1     -13.879 -37.136  28.584  1.00  0.00     0.039 C 
ATOM     10  G   UNL     1     -11.943 -35.425  28.271  1.00  0.00     0.000 G0
ENDBRANCH   6   7
ENDBRANCH   5   6
ENDBRANCH   3   5
ENDBRANCH   1   3
BRANCH   1  11
ATOM     11  C   UNL     1     -13.445 -32.857  30.574  1.00  0.00     0.087 C 
BRANCH  11  12
ATOM     12  C   UNL     1     -13.430 -33.465  29.148  1.00  0.00     0.066 C 
BRANCH  12  13
ATOM     13  C   UNL     1     -12.064 -34.041  28.817  1.00  0.00     0.140 C 
ATOM     14  O   UNL     1     -11.063 -33.354  28.962  1.00  0.00    -0.299 OA
BRANCH  13  15
ATOM     15  C   UNL     1     -11.914 -35.433  28.258  1.00  0.00     0.106 CG0
ATOM     16  G   UNL     1     -12.642 -36.444  29.123  1.00  0.00     0.000 G0
ENDBRANCH  13  15
ENDBRANCH  12  13
BRANCH  12  17
ATOM     17  C   UNL     1     -13.879 -32.462  28.038  1.00  0.00    -0.006 C 
ATOM     18  C   UNL     1     -14.933 -31.444  28.508  1.00  0.00     0.008 C 
ATOM     19  C   UNL     1     -14.376 -33.193  26.780  1.00  0.00     0.008 C 
ENDBRANCH  12  17
ENDBRANCH  11  12
ENDBRANCH   1  11
TORSDOF 1
ENDMDL
MODEL 4
REMARK VINA RESULT:    -4.472      1.761      3.958
REMARK INTER + INTRA:          -6.737
REMARK INTER:                  -7.289
REMARK INTRA:                   0.553
REMARK UNBOUND:                 0.088
REMARK SMILES CC1=CCC[C@H](C)C(=O)C[C@@H](C(C)C)C(=O)C1
REMARK SMILES IDX 8 1 9 2 6 3 7 4 5 5 4 6 3 7 2 8 1 9 10 11 11 12 15 13 16 14
REMARK SMILES IDX 17 15 12 17 13 18 14 19
REMARK H PARENT
REMARK Flexibility Score: 70.00
ROOT
ATOM      1  C   UNL     1     -13.824 -32.741  29.885  1.00  0.00     0.136 C 
ATOM      2  O   UNL     1     -14.387 -31.963  29.128  1.00  0.00    -0.299 OA
ENDROOT
BRANCH   1   3
ATOM      3  C   UNL     1     -14.105 -32.683  31.373  1.00  0.00     0.053 C 
ATOM      4  C   UNL     1     -15.461 -32.010  31.606  1.00  0.00     0.016 C 
BRANCH   3   5
ATOM      5  C   UNL     1     -14.087 -34.090  32.014  1.00  0.00     0.015 C 
BRANCH   5   6
ATOM      6  C   UNL     1     -12.672 -34.660  32.190  1.00  0.00     0.028 C 
BRANCH   6   7
ATOM      7  C   UNL     1     -12.687 -36.170  32.220  1.00  0.00    -0.028 C 
ATOM      8  C   UNL     1     -12.424 -36.982  31.172  1.00  0.00    -0.070 CG0
ATOM      9  C   UNL     1     -12.490 -38.472  31.397  1.00  0.00     0.039 C 
ATOM     10  G   UNL     1     -12.035 -36.469  29.799  1.00  0.00     0.000 G0
ENDBRANCH   6   7
ENDBRANCH   5   6
ENDBRANCH   3   5
ENDBRANCH   1   3
BRANCH   1  11
ATOM     11  C   UNL     1     -12.840 -33.731  29.316  1.00  0.00     0.087 C 
BRANCH  11  12
ATOM     12  C   UNL     1     -13.539 -34.801  28.439  1.00  0.00     0.066 C 
BRANCH  12  13
ATOM     13  C   UNL     1     -13.212 -36.202  28.927  1.00  0.00     0.140 C 
ATOM     14  O   UNL     1     -13.950 -37.134  28.640  1.00  0.00    -0.299 OA
BRANCH  13  15
ATOM     15  C   UNL     1     -12.019 -36.467  29.809  1.00  0.00     0.106 CG0
ATOM     16  G   UNL     1     -12.455 -36.986  31.166  1.00  0.00     0.000 G0
ENDBRANCH  13  15
ENDBRANCH  12  13
BRANCH  12  17
ATOM     17  C   UNL     1     -13.217 -34.667  26.917  1.00  0.00    -0.006 C 
ATOM     18  C   UNL     1     -11.719 -34.487  26.611  1.00  0.00     0.008 C 
ATOM     19  C   UNL     1     -14.028 -33.538  26.262  1.00  0.00     0.008 C 
ENDBRANCH  12  17
ENDBRANCH  11  12
ENDBRANCH   1  11
TORSDOF 1
ENDMDL
MODEL 5
REMARK VINA RESULT:    -4.399      1.998      4.141
REMARK INTER + INTRA:          -6.626
REMARK INTER:                  -6.439
REMARK INTRA:                  -0.186
REMARK UNBOUND:                 0.088
REMARK SMILES CC1=CCC[C@H](C)C(=O)C[C@@H](C(C)C)C(=O)C1
REMARK SMILES IDX 8 1 9 2 6 3 7 4 5 5 4 6 3 7 2 8 1 9 10 11 11 12 15 13 16 14
REMARK SMILES IDX 17 15 12 17 13 18 14 19
REMARK H PARENT
REMARK Flexibility Score: 70.00
ROOT
ATOM      1  C   UNL     1     -13.266 -35.768  31.593  1.00  0.00     0.136 C 
ATOM      2  O   UNL     1     -14.158 -35.984  32.401  1.00  0.00    -0.299 OA
ENDROOT
BRANCH   1   3
ATOM      3  C   UNL     1     -12.641 -36.921  30.834  1.00  0.00     0.053 C 
ATOM      4  C   UNL     1     -12.128 -37.965  31.830  1.00  0.00     0.016 C 
BRANCH   3   5
ATOM      5  C   UNL     1     -13.642 -37.567  29.847  1.00  0.00     0.015 C 
BRANCH   5   6
ATOM      6  C   UNL     1     -14.048 -36.635  28.697  1.00  0.00     0.028 C 
BRANCH   6   7
ATOM      7  C   UNL     1     -12.850 -36.225  27.873  1.00  0.00    -0.028 C 
ATOM      8  C   UNL     1     -12.568 -34.968  27.463  1.00  0.00    -0.070 CG0
ATOM      9  C   UNL     1     -11.320 -34.754  26.643  1.00  0.00     0.039 C 
ATOM     10  G   UNL     1     -13.423 -33.767  27.816  1.00  0.00     0.000 G0
ENDBRANCH   6   7
ENDBRANCH   5   6
ENDBRANCH   3   5
ENDBRANCH   1   3
BRANCH   1  11
ATOM     11  C   UNL     1     -12.794 -34.352  31.386  1.00  0.00     0.087 C 
BRANCH  11  12
ATOM     12  C   UNL     1     -13.728 -33.566  30.431  1.00  0.00     0.066 C 
BRANCH  12  13
ATOM     13  C   UNL     1     -13.004 -33.190  29.149  1.00  0.00     0.140 C 
ATOM     14  O   UNL     1     -12.091 -32.376  29.182  1.00  0.00    -0.299 OA
BRANCH  13  15
ATOM     15  C   UNL     1     -13.421 -33.758  27.817  1.00  0.00     0.106 CG0
ATOM     16  G   UNL     1     -12.570 -34.959  27.451  1.00  0.00     0.000 G0
ENDBRANCH  13  15
ENDBRANCH  12  13
BRANCH  12  17
ATOM     17  C   UNL     1     -14.365 -32.299  31.085  1.00  0.00    -0.006 C 
ATOM     18  C   UNL     1     -15.009 -32.564  32.458  1.00  0.00     0.008 C 
ATOM     19  C   UNL     1     -15.381 -31.626  30.148  1.00  0.00     0.008 C 
ENDBRANCH  12  17
ENDBRANCH  11  12
ENDBRANCH   1  11
TORSDOF 1
ENDMDL
MODEL 6
REMARK VINA RESULT:    -4.129      1.731      3.989
REMARK INTER + INTRA:          -6.213
REMARK INTER:                  -7.079
REMARK INTRA:                   0.866
REMARK UNBOUND:                 0.088
REMARK SMILES CC1=CCC[C@H](C)C(=O)C[C@@H](C(C)C)C(=O)C1
REMARK SMILES IDX 8 1 9 2 6 3 7 4 5 5 4 6 3 7 2 8 1 9 10 11 11 12 15 13 16 14
REMARK SMILES IDX 17 15 12 17 13 18 14 19
REMARK H PARENT
REMARK Flexibility Score: 70.00
ROOT
ATOM      1  C   UNL     1     -11.165 -34.417  29.020  1.00  0.00     0.136 C 
ATOM      2  O   UNL     1     -10.338 -33.732  29.605  1.00  0.00    -0.299 OA
ENDROOT
BRANCH   1   3
ATOM      3  C   UNL     1     -11.832 -33.889  27.767  1.00  0.00     0.053 C 
ATOM      4  C   UNL     1     -11.739 -34.944  26.660  1.00  0.00     0.016 C 
BRANCH   3   5
ATOM      5  C   UNL     1     -13.309 -33.507  28.021  1.00  0.00     0.015 C 
BRANCH   5   6
ATOM      6  C   UNL     1     -13.471 -32.178  28.773  1.00  0.00     0.028 C 
BRANCH   6   7
ATOM      7  C   UNL     1     -14.499 -32.292  29.875  1.00  0.00    -0.028 C 
ATOM      8  C   UNL     1     -14.316 -32.912  31.062  1.00  0.00    -0.070 CG0
ATOM      9  C   UNL     1     -15.466 -32.924  32.039  1.00  0.00     0.039 C 
ATOM     10  G   UNL     1     -13.008 -33.563  31.468  1.00  0.00     0.000 G0
ENDBRANCH   6   7
ENDBRANCH   5   6
ENDBRANCH   3   5
ENDBRANCH   1   3
BRANCH   1  11
ATOM     11  C   UNL     1     -11.517 -35.772  29.578  1.00  0.00     0.087 C 
BRANCH  11  12
ATOM     12  C   UNL     1     -12.973 -35.817  30.109  1.00  0.00     0.066 C 
BRANCH  12  13
ATOM     13  C   UNL     1     -13.096 -35.066  31.424  1.00  0.00     0.140 C 
ATOM     14  O   UNL     1     -13.324 -35.681  32.457  1.00  0.00    -0.299 OA
BRANCH  13  15
ATOM     15  C   UNL     1     -12.997 -33.563  31.482  1.00  0.00     0.106 CG0
ATOM     16  G   UNL     1     -14.306 -32.919  31.066  1.00  0.00     0.000 G0
ENDBRANCH  13  15
ENDBRANCH  12  13
BRANCH  12  17
ATOM     17  C   UNL     1     -13.539 -37.265  30.257  1.00  0.00    -0.006 C 
ATOM     18  C   UNL     1     -12.653 -38.196  31.102  1.00  0.00     0.008 C 
ATOM     19  C   UNL     1     -13.822 -37.906  28.888  1.00  0.00     0.008 C 
ENDBRANCH  12  17
ENDBRANCH  11  12
ENDBRANCH   1  11
TORSDOF 1
ENDMDL
MODEL 7
REMARK VINA RESULT:    -4.083      1.501      2.167
REMARK INTER + INTRA:          -6.143
REMARK INTER:                  -7.032
REMARK INTRA:                   0.890
REMARK UNBOUND:                 0.088
REMARK SMILES CC1=CCC[C@H](C)C(=O)C[C@@H](C(C)C)C(=O)C1
REMARK SMILES IDX 8 1 9 2 6 3 7 4 5 5 4 6 3 7 2 8 1 9 10 11 11 12 15 13 16 14
REMARK SMILES IDX 17 15 12 17 13 18 14 19
REMARK H PARENT
REMARK Flexibility Score: 70.00
ROOT
ATOM      1  C   UNL     1     -13.161 -33.174  28.538  1.00  0.00     0.136 C 
ATOM      2  O   UNL     1     -13.838 -32.156  28.555  1.00  0.00    -0.299 OA
ENDROOT
BRANCH   1   3
ATOM      3  C   UNL     1     -13.531 -34.310  27.606  1.00  0.00     0.053 C 
ATOM      4  C   UNL     1     -12.327 -34.652  26.722  1.00  0.00     0.016 C 
BRANCH   3   5
ATOM      5  C   UNL     1     -13.997 -35.562  28.386  1.00  0.00     0.015 C 
BRANCH   5   6
ATOM      6  C   UNL     1     -12.995 -36.724  28.325  1.00  0.00     0.028 C 
BRANCH   6   7
ATOM      7  C   UNL     1     -12.890 -37.429  29.657  1.00  0.00    -0.028 C 
ATOM      8  C   UNL     1     -12.083 -37.066  30.679  1.00  0.00    -0.070 CG0
ATOM      9  C   UNL     1     -12.116 -37.899  31.936  1.00  0.00     0.039 C 
ATOM     10  G   UNL     1     -11.178 -35.850  30.634  1.00  0.00     0.000 G0
ENDBRANCH   6   7
ENDBRANCH   5   6
ENDBRANCH   3   5
ENDBRANCH   1   3
BRANCH   1  11
ATOM     11  C   UNL     1     -11.981 -33.282  29.468  1.00  0.00     0.087 C 
BRANCH  11  12
ATOM     12  C   UNL     1     -12.421 -33.537  30.933  1.00  0.00     0.066 C 
BRANCH  12  13
ATOM     13  C   UNL     1     -11.703 -34.744  31.514  1.00  0.00     0.140 C 
ATOM     14  O   UNL     1     -11.496 -34.806  32.718  1.00  0.00    -0.299 OA
BRANCH  13  15
ATOM     15  C   UNL     1     -11.185 -35.850  30.630  1.00  0.00     0.106 CG0
ATOM     16  G   UNL     1     -12.092 -37.064  30.696  1.00  0.00     0.000 G0
ENDBRANCH  13  15
ENDBRANCH  12  13
BRANCH  12  17
ATOM     17  C   UNL     1     -13.966 -33.693  31.102  1.00  0.00    -0.006 C 
ATOM     18  C   UNL     1     -14.668 -32.417  31.598  1.00  0.00     0.008 C 
ATOM     19  C   UNL     1     -14.321 -34.878  32.014  1.00  0.00     0.008 C 
ENDBRANCH  12  17
ENDBRANCH  11  12
ENDBRANCH   1  11
TORSDOF 1
ENDMDL
MODEL 8
REMARK VINA RESULT:    -3.955      2.095      4.762
REMARK INTER + INTRA:          -5.948
REMARK INTER:                  -6.240
REMARK INTRA:                   0.292
REMARK UNBOUND:                 0.088
REMARK SMILES CC1=CCC[C@H](C)C(=O)C[C@@H](C(C)C)C(=O)C1
REMARK SMILES IDX 8 1 9 2 6 3 7 4 5 5 4 6 3 7 2 8 1 9 10 11 11 12 15 13 16 14
REMARK SMILES IDX 17 15 12 17 13 18 14 19
REMARK H PARENT
REMARK Flexibility Score: 70.00
ROOT
ATOM      1  C   UNL     1     -13.669 -33.925  31.906  1.00  0.00     0.136 C 
ATOM      2  O   UNL     1     -12.745 -33.526  32.600  1.00  0.00    -0.299 OA
ENDROOT
BRANCH   1   3
ATOM      3  C   UNL     1     -14.691 -32.942  31.372  1.00  0.00     0.053 C 
ATOM      4  C   UNL     1     -15.263 -32.125  32.535  1.00  0.00     0.016 C 
BRANCH   3   5
ATOM      5  C   UNL     1     -14.082 -32.004  30.305  1.00  0.00     0.015 C 
BRANCH   5   6
ATOM      6  C   UNL     1     -14.318 -32.486  28.866  1.00  0.00     0.028 C 
BRANCH   6   7
ATOM      7  C   UNL     1     -13.048 -33.023  28.250  1.00  0.00    -0.028 C 
ATOM      8  C   UNL     1     -12.771 -34.327  28.026  1.00  0.00    -0.070 CG0
ATOM      9  C   UNL     1     -11.442 -34.670  27.400  1.00  0.00     0.039 C 
ATOM     10  G   UNL     1     -13.741 -35.449  28.339  1.00  0.00     0.000 G0
ENDBRANCH   6   7
ENDBRANCH   5   6
ENDBRANCH   3   5
ENDBRANCH   1   3
BRANCH   1  11
ATOM     11  C   UNL     1     -13.779 -35.399  31.614  1.00  0.00     0.087 C 
BRANCH  11  12
ATOM     12  C   UNL     1     -12.637 -35.892  30.689  1.00  0.00     0.066 C 
BRANCH  12  13
ATOM     13  C   UNL     1     -13.189 -36.399  29.367  1.00  0.00     0.140 C 
ATOM     14  O   UNL     1     -13.135 -37.592  29.103  1.00  0.00    -0.299 OA
BRANCH  13  15
ATOM     15  C   UNL     1     -13.757 -35.454  28.339  1.00  0.00     0.106 CG0
ATOM     16  G   UNL     1     -12.776 -34.339  28.030  1.00  0.00     0.000 G0
ENDBRANCH  13  15
ENDBRANCH  12  13
BRANCH  12  17
ATOM     17  C   UNL     1     -11.724 -36.975  31.346  1.00  0.00    -0.006 C 
ATOM     18  C   UNL     1     -12.501 -38.149  31.969  1.00  0.00     0.008 C 
ATOM     19  C   UNL     1     -10.774 -36.361  32.387  1.00  0.00     0.008 C 
ENDBRANCH  12  17
ENDBRANCH  11  12
ENDBRANCH   1  11
TORSDOF 1
ENDMDL
MODEL 9
REMARK VINA RESULT:    -3.909      2.268      4.132
REMARK INTER + INTRA:          -5.878
REMARK INTER:                  -6.466
REMARK INTRA:                   0.589
REMARK UNBOUND:                 0.088
REMARK SMILES CC1=CCC[C@H](C)C(=O)C[C@@H](C(C)C)C(=O)C1
REMARK SMILES IDX 8 1 9 2 6 3 7 4 5 5 4 6 3 7 2 8 1 9 10 11 11 12 15 13 16 14
REMARK SMILES IDX 17 15 12 17 13 18 14 19
REMARK H PARENT
REMARK Flexibility Score: 70.00
ROOT
ATOM      1  C   UNL     1     -11.235 -36.494  30.886  1.00  0.00     0.136 C 
ATOM      2  O   UNL     1     -10.142 -36.490  30.336  1.00  0.00    -0.299 OA
ENDROOT
BRANCH   1   3
ATOM      3  C   UNL     1     -12.256 -37.555  30.529  1.00  0.00     0.053 C 
ATOM      4  C   UNL     1     -12.802 -38.185  31.813  1.00  0.00     0.016 C 
BRANCH   3   5
ATOM      5  C   UNL     1     -13.412 -36.975  29.681  1.00  0.00     0.015 C 
BRANCH   5   6
ATOM      6  C   UNL     1     -12.931 -36.219  28.434  1.00  0.00     0.028 C 
BRANCH   6   7
ATOM      7  C   UNL     1     -13.593 -34.865  28.323  1.00  0.00    -0.028 C 
ATOM      8  C   UNL     1     -12.980 -33.672  28.483  1.00  0.00    -0.070 CG0
ATOM      9  C   UNL     1     -13.812 -32.422  28.334  1.00  0.00     0.039 C 
ATOM     10  G   UNL     1     -11.497 -33.531  28.769  1.00  0.00     0.000 G0
ENDBRANCH   6   7
ENDBRANCH   5   6
ENDBRANCH   3   5
ENDBRANCH   1   3
BRANCH   1  11
ATOM     11  C   UNL     1     -11.548 -35.421  31.897  1.00  0.00     0.087 C 
BRANCH  11  12
ATOM     12  C   UNL     1     -12.192 -34.175  31.236  1.00  0.00     0.066 C 
BRANCH  12  13
ATOM     13  C   UNL     1     -11.230 -33.518  30.261  1.00  0.00     0.140 C 
ATOM     14  O   UNL     1     -10.238 -32.939  30.681  1.00  0.00    -0.299 OA
BRANCH  13  15
ATOM     15  C   UNL     1     -11.497 -33.515  28.777  1.00  0.00     0.106 CG0
ATOM     16  G   UNL     1     -12.980 -33.656  28.494  1.00  0.00     0.000 G0
ENDBRANCH  13  15
ENDBRANCH  12  13
BRANCH  12  17
ATOM     17  C   UNL     1     -12.721 -33.127  32.265  1.00  0.00    -0.006 C 
ATOM     18  C   UNL     1     -11.999 -33.169  33.623  1.00  0.00     0.008 C 
ATOM     19  C   UNL     1     -14.239 -33.250  32.471  1.00  0.00     0.008 C 
ENDBRANCH  12  17
ENDBRANCH  11  12
ENDBRANCH   1  11
TORSDOF 1
ENDMDL
