MODEL 1
REMARK VINA RESULT:    -3.727      0.000      0.000
REMARK INTER + INTRA:          -8.937
REMARK INTER:                  -6.996
REMARK INTRA:                  -1.942
REMARK UNBOUND:                -1.942
REMARK SMILES O=C([O-])CCCCCCCCCCCCCCC(=O)[O-]
REMARK SMILES IDX 10 1 9 2 8 3 7 4 6 5 5 6 4 7 2 8 1 9 3 10 11 11 12 12 13 13
REMARK SMILES IDX 14 14 15 15 16 16 17 17 18 18 19 19 20 20
REMARK H PARENT
REMARK Flexibility Score: inf
ROOT
ATOM      1  C   UNL     1      -4.800 -63.716   0.236  1.00  0.00     0.000 C 
ENDROOT
BRANCH   1   2
ATOM      2  C   UNL     1      -4.024 -64.856  -0.446  1.00  0.00     0.000 C 
BRANCH   2   3
ATOM      3  C   UNL     1      -4.872 -66.123  -0.686  1.00  0.00     0.000 C 
BRANCH   3   4
ATOM      4  C   UNL     1      -4.887 -66.540  -2.165  1.00  0.00     0.000 C 
BRANCH   4   5
ATOM      5  C   UNL     1      -4.150 -65.510  -3.033  1.00  0.00     0.000 C 
BRANCH   5   6
ATOM      6  C   UNL     1      -4.323 -65.772  -4.537  1.00  0.00     0.006 C 
BRANCH   6   7
ATOM      7  C   UNL     1      -4.186 -67.257  -4.898  1.00  0.00     0.053 C 
BRANCH   7   8
ATOM      8  C   UNL     1      -4.043 -67.424  -6.378  1.00  0.00     0.041 C 
ATOM      9  O   UNL     1      -4.323 -68.524  -6.922  1.00  0.00    -0.550 OA
ATOM     10  O   UNL     1      -3.552 -66.379  -7.151  1.00  0.00    -0.550 OA
ENDBRANCH   7   8
ENDBRANCH   6   7
ENDBRANCH   5   6
ENDBRANCH   4   5
ENDBRANCH   3   4
ENDBRANCH   2   3
ENDBRANCH   1   2
BRANCH   1  11
ATOM     11  C   UNL     1      -5.568 -62.836  -0.764  1.00  0.00     0.000 C 
BRANCH  11  12
ATOM     12  C   UNL     1      -7.092 -62.938  -0.593  1.00  0.00     0.000 C 
BRANCH  12  13
ATOM     13  C   UNL     1      -7.723 -63.973  -1.535  1.00  0.00     0.000 C 
BRANCH  13  14
ATOM     14  C   UNL     1      -8.832 -64.758  -0.826  1.00  0.00     0.000 C 
BRANCH  14  15
ATOM     15  C   UNL     1      -8.502 -66.254  -0.774  1.00  0.00     0.000 C 
BRANCH  15  16
ATOM     16  C   UNL     1      -8.483 -66.764   0.675  1.00  0.00     0.006 C 
BRANCH  16  17
ATOM     17  C   UNL     1      -7.782 -65.784   1.625  1.00  0.00     0.053 C 
BRANCH  17  18
ATOM     18  C   UNL     1      -7.943 -66.191   3.058  1.00  0.00     0.041 C 
ATOM     19  O   UNL     1      -7.714 -65.367   3.981  1.00  0.00    -0.550 OA
ATOM     20  O   UNL     1      -8.375 -67.474   3.372  1.00  0.00    -0.550 OA
ENDBRANCH  17  18
ENDBRANCH  16  17
ENDBRANCH  15  16
ENDBRANCH  14  15
ENDBRANCH  13  14
ENDBRANCH  12  13
ENDBRANCH  11  12
ENDBRANCH   1  11
TORSDOF 15
ENDMDL
MODEL 2
REMARK VINA RESULT:    -3.709      1.905      3.392
REMARK INTER + INTRA:          -8.903
REMARK INTER:                  -6.739
REMARK INTRA:                  -2.164
REMARK UNBOUND:                -1.942
REMARK SMILES O=C([O-])CCCCCCCCCCCCCCC(=O)[O-]
REMARK SMILES IDX 10 1 9 2 8 3 7 4 6 5 5 6 4 7 2 8 1 9 3 10 11 11 12 12 13 13
REMARK SMILES IDX 14 14 15 15 16 16 17 17 18 18 19 19 20 20
REMARK H PARENT
REMARK Flexibility Score: inf
ROOT
ATOM      1  C   UNL     1      -7.716 -63.882  -1.877  1.00  0.00     0.000 C 
ENDROOT
BRANCH   1   2
ATOM      2  C   UNL     1      -6.825 -62.772  -1.293  1.00  0.00     0.000 C 
BRANCH   2   3
ATOM      3  C   UNL     1      -5.687 -63.303  -0.395  1.00  0.00     0.000 C 
BRANCH   3   4
ATOM      4  C   UNL     1      -4.650 -64.112  -1.189  1.00  0.00     0.000 C 
BRANCH   4   5
ATOM      5  C   UNL     1      -4.528 -65.540  -0.637  1.00  0.00     0.000 C 
BRANCH   5   6
ATOM      6  C   UNL     1      -4.932 -66.609  -1.664  1.00  0.00     0.006 C 
BRANCH   6   7
ATOM      7  C   UNL     1      -4.462 -66.271  -3.085  1.00  0.00     0.053 C 
BRANCH   7   8
ATOM      8  C   UNL     1      -4.376 -67.512  -3.915  1.00  0.00     0.041 C 
ATOM      9  O   UNL     1      -3.579 -67.570  -4.888  1.00  0.00    -0.550 OA
ATOM     10  O   UNL     1      -5.213 -68.589  -3.646  1.00  0.00    -0.550 OA
ENDBRANCH   7   8
ENDBRANCH   6   7
ENDBRANCH   5   6
ENDBRANCH   4   5
ENDBRANCH   3   4
ENDBRANCH   2   3
ENDBRANCH   1   2
BRANCH   1  11
ATOM     11  C   UNL     1      -8.700 -64.462  -0.848  1.00  0.00     0.000 C 
BRANCH  11  12
ATOM     12  C   UNL     1      -8.648 -65.997  -0.779  1.00  0.00     0.000 C 
BRANCH  12  13
ATOM     13  C   UNL     1      -7.836 -66.507   0.419  1.00  0.00     0.000 C 
BRANCH  13  14
ATOM     14  C   UNL     1      -8.721 -66.650   1.662  1.00  0.00     0.000 C 
BRANCH  14  15
ATOM     15  C   UNL     1      -8.083 -65.965   2.876  1.00  0.00     0.000 C 
BRANCH  15  16
ATOM     16  C   UNL     1      -6.941 -65.033   2.445  1.00  0.00     0.006 C 
BRANCH  16  17
ATOM     17  C   UNL     1      -6.634 -63.964   3.502  1.00  0.00     0.053 C 
BRANCH  17  18
ATOM     18  C   UNL     1      -7.199 -62.629   3.122  1.00  0.00     0.041 C 
ATOM     19  O   UNL     1      -7.946 -62.521   2.116  1.00  0.00    -0.550 OA
ATOM     20  O   UNL     1      -6.924 -61.511   3.899  1.00  0.00    -0.550 OA
ENDBRANCH  17  18
ENDBRANCH  16  17
ENDBRANCH  15  16
ENDBRANCH  14  15
ENDBRANCH  13  14
ENDBRANCH  12  13
ENDBRANCH  11  12
ENDBRANCH   1  11
TORSDOF 15
ENDMDL
MODEL 3
REMARK VINA RESULT:    -3.626      3.787      5.821
REMARK INTER + INTRA:          -8.747
REMARK INTER:                  -7.697
REMARK INTRA:                  -1.051
REMARK UNBOUND:                -1.942
REMARK SMILES O=C([O-])CCCCCCCCCCCCCCC(=O)[O-]
REMARK SMILES IDX 10 1 9 2 8 3 7 4 6 5 5 6 4 7 2 8 1 9 3 10 11 11 12 12 13 13
REMARK SMILES IDX 14 14 15 15 16 16 17 17 18 18 19 19 20 20
REMARK H PARENT
REMARK Flexibility Score: inf
ROOT
ATOM      1  C   UNL     1      -8.498 -66.766   2.644  1.00  0.00     0.000 C 
ENDROOT
BRANCH   1   2
ATOM      2  C   UNL     1      -8.800 -65.978   1.357  1.00  0.00     0.000 C 
BRANCH   2   3
ATOM      3  C   UNL     1      -8.978 -66.875   0.113  1.00  0.00     0.000 C 
BRANCH   3   4
ATOM      4  C   UNL     1      -7.744 -66.852  -0.801  1.00  0.00     0.000 C 
BRANCH   4   5
ATOM      5  C   UNL     1      -6.866 -65.626  -0.509  1.00  0.00     0.000 C 
BRANCH   5   6
ATOM      6  C   UNL     1      -5.376 -65.887  -0.779  1.00  0.00     0.006 C 
BRANCH   6   7
ATOM      7  C   UNL     1      -5.148 -66.878  -1.928  1.00  0.00     0.053 C 
BRANCH   7   8
ATOM      8  C   UNL     1      -4.469 -66.200  -3.075  1.00  0.00     0.041 C 
ATOM      9  O   UNL     1      -4.615 -64.963  -3.258  1.00  0.00    -0.550 OA
ATOM     10  O   UNL     1      -3.715 -66.944  -3.975  1.00  0.00    -0.550 OA
ENDBRANCH   7   8
ENDBRANCH   6   7
ENDBRANCH   5   6
ENDBRANCH   4   5
ENDBRANCH   3   4
ENDBRANCH   2   3
ENDBRANCH   1   2
BRANCH   1  11
ATOM     11  C   UNL     1      -7.418 -66.100   3.512  1.00  0.00     0.000 C 
BRANCH  11  12
ATOM     12  C   UNL     1      -7.276 -66.764   4.891  1.00  0.00     0.000 C 
BRANCH  12  13
ATOM     13  C   UNL     1      -8.581 -67.417   5.369  1.00  0.00     0.000 C 
BRANCH  13  14
ATOM     14  C   UNL     1      -8.330 -68.843   5.871  1.00  0.00     0.000 C 
BRANCH  14  15
ATOM     15  C   UNL     1      -7.762 -69.729   4.756  1.00  0.00     0.000 C 
BRANCH  15  16
ATOM     16  C   UNL     1      -8.043 -71.213   5.033  1.00  0.00     0.006 C 
BRANCH  16  17
ATOM     17  C   UNL     1      -9.443 -71.438   5.620  1.00  0.00     0.053 C 
BRANCH  17  18
ATOM     18  C   UNL     1      -9.908 -72.848   5.419  1.00  0.00     0.041 C 
ATOM     19  O   UNL     1      -9.176 -73.678   4.821  1.00  0.00    -0.550 OA
ATOM     20  O   UNL     1     -11.139 -73.252   5.921  1.00  0.00    -0.550 OA
ENDBRANCH  17  18
ENDBRANCH  16  17
ENDBRANCH  15  16
ENDBRANCH  14  15
ENDBRANCH  13  14
ENDBRANCH  12  13
ENDBRANCH  11  12
ENDBRANCH   1  11
TORSDOF 15
ENDMDL
MODEL 4
REMARK VINA RESULT:    -3.590      2.936      7.258
REMARK INTER + INTRA:          -8.679
REMARK INTER:                  -6.587
REMARK INTRA:                  -2.092
REMARK UNBOUND:                -1.942
REMARK SMILES O=C([O-])CCCCCCCCCCCCCCC(=O)[O-]
REMARK SMILES IDX 10 1 9 2 8 3 7 4 6 5 5 6 4 7 2 8 1 9 3 10 11 11 12 12 13 13
REMARK SMILES IDX 14 14 15 15 16 16 17 17 18 18 19 19 20 20
REMARK H PARENT
REMARK Flexibility Score: inf
ROOT
ATOM      1  C   UNL     1      -9.094 -66.086   1.669  1.00  0.00     0.000 C 
ENDROOT
BRANCH   1   2
ATOM      2  C   UNL     1      -7.672 -65.793   2.178  1.00  0.00     0.000 C 
BRANCH   2   3
ATOM      3  C   UNL     1      -7.451 -64.317   2.573  1.00  0.00     0.000 C 
BRANCH   3   4
ATOM      4  C   UNL     1      -6.059 -63.809   2.166  1.00  0.00     0.000 C 
BRANCH   4   5
ATOM      5  C   UNL     1      -6.151 -62.421   1.514  1.00  0.00     0.000 C 
BRANCH   5   6
ATOM      6  C   UNL     1      -7.601 -61.960   1.304  1.00  0.00     0.006 C 
BRANCH   6   7
ATOM      7  C   UNL     1      -7.864 -60.559   1.871  1.00  0.00     0.053 C 
BRANCH   7   8
ATOM      8  C   UNL     1      -8.306 -59.631   0.784  1.00  0.00     0.041 C 
ATOM      9  O   UNL     1      -7.573 -59.435  -0.220  1.00  0.00    -0.550 OA
ATOM     10  O   UNL     1      -9.506 -58.941   0.905  1.00  0.00    -0.550 OA
ENDBRANCH   7   8
ENDBRANCH   6   7
ENDBRANCH   5   6
ENDBRANCH   4   5
ENDBRANCH   3   4
ENDBRANCH   2   3
ENDBRANCH   1   2
BRANCH   1  11
ATOM     11  C   UNL     1      -9.436 -65.324   0.378  1.00  0.00     0.000 C 
BRANCH  11  12
ATOM     12  C   UNL     1      -8.482 -65.663  -0.779  1.00  0.00     0.000 C 
BRANCH  12  13
ATOM     13  C   UNL     1      -7.876 -64.412  -1.430  1.00  0.00     0.000 C 
BRANCH  13  14
ATOM     14  C   UNL     1      -6.354 -64.540  -1.554  1.00  0.00     0.000 C 
BRANCH  14  15
ATOM     15  C   UNL     1      -5.850 -65.816  -0.869  1.00  0.00     0.000 C 
BRANCH  15  16
ATOM     16  C   UNL     1      -5.196 -66.764  -1.884  1.00  0.00     0.006 C 
BRANCH  16  17
ATOM     17  C   UNL     1      -4.434 -66.006  -2.979  1.00  0.00     0.053 C 
BRANCH  17  18
ATOM     18  C   UNL     1      -4.263 -66.839  -4.213  1.00  0.00     0.041 C 
ATOM     19  O   UNL     1      -3.704 -66.355  -5.232  1.00  0.00    -0.550 OA
ATOM     20  O   UNL     1      -4.694 -68.159  -4.227  1.00  0.00    -0.550 OA
ENDBRANCH  17  18
ENDBRANCH  16  17
ENDBRANCH  15  16
ENDBRANCH  14  15
ENDBRANCH  13  14
ENDBRANCH  12  13
ENDBRANCH  11  12
ENDBRANCH   1  11
TORSDOF 15
ENDMDL
MODEL 5
REMARK VINA RESULT:    -3.584      1.158      7.550
REMARK INTER + INTRA:          -8.668
REMARK INTER:                  -6.829
REMARK INTRA:                  -1.839
REMARK UNBOUND:                -1.942
REMARK SMILES O=C([O-])CCCCCCCCCCCCCCC(=O)[O-]
REMARK SMILES IDX 10 1 9 2 8 3 7 4 6 5 5 6 4 7 2 8 1 9 3 10 11 11 12 12 13 13
REMARK SMILES IDX 14 14 15 15 16 16 17 17 18 18 19 19 20 20
REMARK H PARENT
REMARK Flexibility Score: inf
ROOT
ATOM      1  C   UNL     1      -6.841 -63.181  -2.458  1.00  0.00     0.000 C 
ENDROOT
BRANCH   1   2
ATOM      2  C   UNL     1      -7.434 -63.452  -1.064  1.00  0.00     0.000 C 
BRANCH   2   3
ATOM      3  C   UNL     1      -8.381 -64.670  -1.023  1.00  0.00     0.000 C 
BRANCH   3   4
ATOM      4  C   UNL     1      -7.985 -65.676   0.069  1.00  0.00     0.000 C 
BRANCH   4   5
ATOM      5  C   UNL     1      -7.269 -64.972   1.231  1.00  0.00     0.000 C 
BRANCH   5   6
ATOM      6  C   UNL     1      -7.876 -65.320   2.599  1.00  0.00     0.006 C 
BRANCH   6   7
ATOM      7  C   UNL     1      -8.466 -66.735   2.641  1.00  0.00     0.053 C 
BRANCH   7   8
ATOM      8  C   UNL     1      -8.410 -67.284   4.031  1.00  0.00     0.041 C 
ATOM      9  O   UNL     1      -8.920 -66.643   4.987  1.00  0.00    -0.550 OA
ATOM     10  O   UNL     1      -7.749 -68.481   4.280  1.00  0.00    -0.550 OA
ENDBRANCH   7   8
ENDBRANCH   6   7
ENDBRANCH   5   6
ENDBRANCH   4   5
ENDBRANCH   3   4
ENDBRANCH   2   3
ENDBRANCH   1   2
BRANCH   1  11
ATOM     11  C   UNL     1      -5.319 -62.971  -2.430  1.00  0.00     0.000 C 
BRANCH  11  12
ATOM     12  C   UNL     1      -4.673 -63.504  -1.141  1.00  0.00     0.000 C 
BRANCH  12  13
ATOM     13  C   UNL     1      -3.843 -64.774  -1.378  1.00  0.00     0.000 C 
BRANCH  13  14
ATOM     14  C   UNL     1      -4.578 -66.015  -0.860  1.00  0.00     0.000 C 
BRANCH  14  15
ATOM     15  C   UNL     1      -5.106 -66.867  -2.020  1.00  0.00     0.000 C 
BRANCH  15  16
ATOM     16  C   UNL     1      -4.396 -66.511  -3.334  1.00  0.00     0.006 C 
BRANCH  16  17
ATOM     17  C   UNL     1      -4.396 -67.679  -4.329  1.00  0.00     0.053 C 
BRANCH  17  18
ATOM     18  C   UNL     1      -4.378 -67.198  -5.748  1.00  0.00     0.041 C 
ATOM     19  O   UNL     1      -3.929 -67.937  -6.662  1.00  0.00    -0.550 OA
ATOM     20  O   UNL     1      -4.885 -65.944  -6.064  1.00  0.00    -0.550 OA
ENDBRANCH  17  18
ENDBRANCH  16  17
ENDBRANCH  15  16
ENDBRANCH  14  15
ENDBRANCH  13  14
ENDBRANCH  12  13
ENDBRANCH  11  12
ENDBRANCH   1  11
TORSDOF 15
ENDMDL
MODEL 6
REMARK VINA RESULT:    -3.525      1.574      2.559
REMARK INTER + INTRA:          -8.558
REMARK INTER:                  -6.703
REMARK INTRA:                  -1.855
REMARK UNBOUND:                -1.942
REMARK SMILES O=C([O-])CCCCCCCCCCCCCCC(=O)[O-]
REMARK SMILES IDX 10 1 9 2 8 3 7 4 6 5 5 6 4 7 2 8 1 9 3 10 11 11 12 12 13 13
REMARK SMILES IDX 14 14 15 15 16 16 17 17 18 18 19 19 20 20
REMARK H PARENT
REMARK Flexibility Score: inf
ROOT
ATOM      1  C   UNL     1      -4.002 -65.325  -2.580  1.00  0.00     0.000 C 
ENDROOT
BRANCH   1   2
ATOM      2  C   UNL     1      -4.814 -66.597  -2.277  1.00  0.00     0.000 C 
BRANCH   2   3
ATOM      3  C   UNL     1      -4.762 -67.646  -3.407  1.00  0.00     0.000 C 
BRANCH   3   4
ATOM      4  C   UNL     1      -3.736 -67.281  -4.492  1.00  0.00     0.000 C 
BRANCH   4   5
ATOM      5  C   UNL     1      -4.408 -67.178  -5.870  1.00  0.00     0.000 C 
BRANCH   5   6
ATOM      6  C   UNL     1      -4.791 -65.735  -6.235  1.00  0.00     0.006 C 
BRANCH   6   7
ATOM      7  C   UNL     1      -5.399 -65.623  -7.639  1.00  0.00     0.053 C 
BRANCH   7   8
ATOM      8  C   UNL     1      -4.367 -65.917  -8.681  1.00  0.00     0.041 C 
ATOM      9  O   UNL     1      -3.458 -65.083  -8.926  1.00  0.00    -0.550 OA
ATOM     10  O   UNL     1      -4.439 -67.094  -9.418  1.00  0.00    -0.550 OA
ENDBRANCH   7   8
ENDBRANCH   6   7
ENDBRANCH   5   6
ENDBRANCH   4   5
ENDBRANCH   3   4
ENDBRANCH   2   3
ENDBRANCH   1   2
BRANCH   1  11
ATOM     11  C   UNL     1      -4.764 -64.035  -2.236  1.00  0.00     0.000 C 
BRANCH  11  12
ATOM     12  C   UNL     1      -5.947 -63.776  -3.183  1.00  0.00     0.000 C 
BRANCH  12  13
ATOM     13  C   UNL     1      -7.105 -63.040  -2.493  1.00  0.00     0.000 C 
BRANCH  13  14
ATOM     14  C   UNL     1      -7.452 -63.697  -1.152  1.00  0.00     0.000 C 
BRANCH  14  15
ATOM     15  C   UNL     1      -8.470 -64.828  -1.339  1.00  0.00     0.000 C 
BRANCH  15  16
ATOM     16  C   UNL     1      -8.050 -66.082  -0.559  1.00  0.00     0.006 C 
BRANCH  16  17
ATOM     17  C   UNL     1      -7.123 -65.750   0.618  1.00  0.00     0.053 C 
BRANCH  17  18
ATOM     18  C   UNL     1      -7.833 -65.861   1.932  1.00  0.00     0.041 C 
ATOM     19  O   UNL     1      -8.480 -66.902   2.217  1.00  0.00    -0.550 OA
ATOM     20  O   UNL     1      -7.753 -64.826   2.855  1.00  0.00    -0.550 OA
ENDBRANCH  17  18
ENDBRANCH  16  17
ENDBRANCH  15  16
ENDBRANCH  14  15
ENDBRANCH  13  14
ENDBRANCH  12  13
ENDBRANCH  11  12
ENDBRANCH   1  11
TORSDOF 15
ENDMDL
MODEL 7
REMARK VINA RESULT:    -3.511      2.988      4.392
REMARK INTER + INTRA:          -8.531
REMARK INTER:                  -7.321
REMARK INTRA:                  -1.209
REMARK UNBOUND:                -1.942
REMARK SMILES O=C([O-])CCCCCCCCCCCCCCC(=O)[O-]
REMARK SMILES IDX 10 1 9 2 8 3 7 4 6 5 5 6 4 7 2 8 1 9 3 10 11 11 12 12 13 13
REMARK SMILES IDX 14 14 15 15 16 16 17 17 18 18 19 19 20 20
REMARK H PARENT
REMARK Flexibility Score: inf
ROOT
ATOM      1  C   UNL     1      -4.381 -67.244  -3.568  1.00  0.00     0.000 C 
ENDROOT
BRANCH   1   2
ATOM      2  C   UNL     1      -3.887 -65.870  -4.053  1.00  0.00     0.000 C 
BRANCH   2   3
ATOM      3  C   UNL     1      -4.389 -65.497  -5.464  1.00  0.00     0.000 C 
BRANCH   3   4
ATOM      4  C   UNL     1      -3.975 -66.533  -6.521  1.00  0.00     0.000 C 
BRANCH   4   5
ATOM      5  C   UNL     1      -5.105 -66.765  -7.535  1.00  0.00     0.000 C 
BRANCH   5   6
ATOM      6  C   UNL     1      -5.663 -65.454  -8.109  1.00  0.00     0.006 C 
BRANCH   6   7
ATOM      7  C   UNL     1      -7.176 -65.312  -7.896  1.00  0.00     0.053 C 
BRANCH   7   8
ATOM      8  C   UNL     1      -7.827 -64.756  -9.122  1.00  0.00     0.041 C 
ATOM      9  O   UNL     1      -7.909 -65.452 -10.167  1.00  0.00    -0.550 OA
ATOM     10  O   UNL     1      -8.299 -63.449  -9.127  1.00  0.00    -0.550 OA
ENDBRANCH   7   8
ENDBRANCH   6   7
ENDBRANCH   5   6
ENDBRANCH   4   5
ENDBRANCH   3   4
ENDBRANCH   2   3
ENDBRANCH   1   2
BRANCH   1  11
ATOM     11  C   UNL     1      -5.146 -67.167  -2.237  1.00  0.00     0.000 C 
BRANCH  11  12
ATOM     12  C   UNL     1      -5.346 -65.722  -1.752  1.00  0.00     0.000 C 
BRANCH  12  13
ATOM     13  C   UNL     1      -4.827 -65.503  -0.323  1.00  0.00     0.000 C 
BRANCH  13  14
ATOM     14  C   UNL     1      -5.651 -64.434   0.402  1.00  0.00     0.000 C 
BRANCH  14  15
ATOM     15  C   UNL     1      -6.371 -65.025   1.620  1.00  0.00     0.000 C 
BRANCH  15  16
ATOM     16  C   UNL     1      -7.884 -65.114   1.376  1.00  0.00     0.006 C 
BRANCH  16  17
ATOM     17  C   UNL     1      -8.319 -66.517   0.932  1.00  0.00     0.053 C 
BRANCH  17  18
ATOM     18  C   UNL     1      -8.748 -66.536  -0.504  1.00  0.00     0.041 C 
ATOM     19  O   UNL     1      -9.061 -67.621  -1.058  1.00  0.00    -0.550 OA
ATOM     20  O   UNL     1      -8.832 -65.348  -1.220  1.00  0.00    -0.550 OA
ENDBRANCH  17  18
ENDBRANCH  16  17
ENDBRANCH  15  16
ENDBRANCH  14  15
ENDBRANCH  13  14
ENDBRANCH  12  13
ENDBRANCH  11  12
ENDBRANCH   1  11
TORSDOF 15
ENDMDL
MODEL 8
REMARK VINA RESULT:    -3.508      3.926      6.472
REMARK INTER + INTRA:          -8.526
REMARK INTER:                  -6.854
REMARK INTRA:                  -1.672
REMARK UNBOUND:                -1.942
REMARK SMILES O=C([O-])CCCCCCCCCCCCCCC(=O)[O-]
REMARK SMILES IDX 10 1 9 2 8 3 7 4 6 5 5 6 4 7 2 8 1 9 3 10 11 11 12 12 13 13
REMARK SMILES IDX 14 14 15 15 16 16 17 17 18 18 19 19 20 20
REMARK H PARENT
REMARK Flexibility Score: inf
ROOT
ATOM      1  C   UNL     1      -9.127 -65.678   0.827  1.00  0.00     0.000 C 
ENDROOT
BRANCH   1   2
ATOM      2  C   UNL     1      -8.572 -65.597  -0.605  1.00  0.00     0.000 C 
BRANCH   2   3
ATOM      3  C   UNL     1      -7.353 -66.512  -0.847  1.00  0.00     0.000 C 
BRANCH   3   4
ATOM      4  C   UNL     1      -6.079 -65.713  -1.161  1.00  0.00     0.000 C 
BRANCH   4   5
ATOM      5  C   UNL     1      -5.317 -65.366   0.128  1.00  0.00     0.000 C 
BRANCH   5   6
ATOM      6  C   UNL     1      -5.236 -63.853   0.378  1.00  0.00     0.006 C 
BRANCH   6   7
ATOM      7  C   UNL     1      -6.163 -63.390   1.509  1.00  0.00     0.053 C 
BRANCH   7   8
ATOM      8  C   UNL     1      -7.228 -62.486   0.975  1.00  0.00     0.041 C 
ATOM      9  O   UNL     1      -8.080 -61.982   1.752  1.00  0.00    -0.550 OA
ATOM     10  O   UNL     1      -7.311 -62.240  -0.391  1.00  0.00    -0.550 OA
ENDBRANCH   7   8
ENDBRANCH   6   7
ENDBRANCH   5   6
ENDBRANCH   4   5
ENDBRANCH   3   4
ENDBRANCH   2   3
ENDBRANCH   1   2
BRANCH   1  11
ATOM     11  C   UNL     1      -8.477 -66.797   1.657  1.00  0.00     0.000 C 
BRANCH  11  12
ATOM     12  C   UNL     1      -7.931 -66.294   3.003  1.00  0.00     0.000 C 
BRANCH  12  13
ATOM     13  C   UNL     1      -8.321 -67.204   4.176  1.00  0.00     0.000 C 
BRANCH  13  14
ATOM     14  C   UNL     1      -7.088 -67.610   4.990  1.00  0.00     0.000 C 
BRANCH  14  15
ATOM     15  C   UNL     1      -7.009 -69.133   5.151  1.00  0.00     0.000 C 
BRANCH  15  16
ATOM     16  C   UNL     1      -8.382 -69.782   4.921  1.00  0.00     0.006 C 
BRANCH  16  17
ATOM     17  C   UNL     1      -8.264 -71.188   4.315  1.00  0.00     0.053 C 
BRANCH  17  18
ATOM     18  C   UNL     1      -9.281 -72.126   4.890  1.00  0.00     0.041 C 
ATOM     19  O   UNL     1      -9.388 -73.297   4.442  1.00  0.00    -0.550 OA
ATOM     20  O   UNL     1     -10.089 -71.715   5.943  1.00  0.00    -0.550 OA
ENDBRANCH  17  18
ENDBRANCH  16  17
ENDBRANCH  15  16
ENDBRANCH  14  15
ENDBRANCH  13  14
ENDBRANCH  12  13
ENDBRANCH  11  12
ENDBRANCH   1  11
TORSDOF 15
ENDMDL
MODEL 9
REMARK VINA RESULT:    -3.476      4.583      7.224
REMARK INTER + INTRA:          -8.465
REMARK INTER:                  -6.772
REMARK INTRA:                  -1.693
REMARK UNBOUND:                -1.942
REMARK SMILES O=C([O-])CCCCCCCCCCCCCCC(=O)[O-]
REMARK SMILES IDX 10 1 9 2 8 3 7 4 6 5 5 6 4 7 2 8 1 9 3 10 11 11 12 12 13 13
REMARK SMILES IDX 14 14 15 15 16 16 17 17 18 18 19 19 20 20
REMARK H PARENT
REMARK Flexibility Score: inf
ROOT
ATOM      1  C   UNL     1      -8.815 -64.922   5.225  1.00  0.00     0.000 C 
ENDROOT
BRANCH   1   2
ATOM      2  C   UNL     1      -7.462 -65.608   5.480  1.00  0.00     0.000 C 
BRANCH   2   3
ATOM      3  C   UNL     1      -6.720 -66.007   4.187  1.00  0.00     0.000 C 
BRANCH   3   4
ATOM      4  C   UNL     1      -6.700 -64.869   3.154  1.00  0.00     0.000 C 
BRANCH   4   5
ATOM      5  C   UNL     1      -7.049 -65.394   1.753  1.00  0.00     0.000 C 
BRANCH   5   6
ATOM      6  C   UNL     1      -8.253 -66.349   1.762  1.00  0.00     0.006 C 
BRANCH   6   7
ATOM      7  C   UNL     1      -9.128 -66.207   0.510  1.00  0.00     0.053 C 
BRANCH   7   8
ATOM      8  C   UNL     1      -8.806 -67.285  -0.477  1.00  0.00     0.041 C 
ATOM      9  O   UNL     1      -7.704 -67.280  -1.085  1.00  0.00    -0.550 OA
ATOM     10  O   UNL     1      -9.746 -68.268  -0.763  1.00  0.00    -0.550 OA
ENDBRANCH   7   8
ENDBRANCH   6   7
ENDBRANCH   5   6
ENDBRANCH   4   5
ENDBRANCH   3   4
ENDBRANCH   2   3
ENDBRANCH   1   2
BRANCH   1  11
ATOM     11  C   UNL     1     -10.003 -65.894   5.314  1.00  0.00     0.000 C 
BRANCH  11  12
ATOM     12  C   UNL     1     -10.015 -66.695   6.626  1.00  0.00     0.000 C 
BRANCH  12  13
ATOM     13  C   UNL     1     -10.263 -68.194   6.399  1.00  0.00     0.000 C 
BRANCH  13  14
ATOM     14  C   UNL     1      -8.947 -68.978   6.422  1.00  0.00     0.000 C 
BRANCH  14  15
ATOM     15  C   UNL     1      -8.451 -69.264   4.999  1.00  0.00     0.000 C 
BRANCH  15  16
ATOM     16  C   UNL     1      -7.544 -70.502   4.970  1.00  0.00     0.006 C 
BRANCH  16  17
ATOM     17  C   UNL     1      -8.213 -71.727   5.610  1.00  0.00     0.053 C 
BRANCH  17  18
ATOM     18  C   UNL     1      -8.874 -72.597   4.585  1.00  0.00     0.041 C 
ATOM     19  O   UNL     1     -10.127 -72.702   4.556  1.00  0.00    -0.550 OA
ATOM     20  O   UNL     1      -8.105 -73.267   3.642  1.00  0.00    -0.550 OA
ENDBRANCH  17  18
ENDBRANCH  16  17
ENDBRANCH  15  16
ENDBRANCH  14  15
ENDBRANCH  13  14
ENDBRANCH  12  13
ENDBRANCH  11  12
ENDBRANCH   1  11
TORSDOF 15
ENDMDL
