MODEL 1
REMARK VINA RESULT:    -3.969      0.000      0.000
REMARK INTER + INTRA:         -12.388
REMARK INTER:                  -8.609
REMARK INTRA:                  -3.779
REMARK UNBOUND:                -3.779
REMARK SMILES CCCCCCCCCCCCCCCCCCCCCC(=O)[O-]
REMARK SMILES IDX 12 1 11 2 10 3 9 4 8 5 7 6 6 7 5 8 4 9 3 10 2 11 1 12 13 13
REMARK SMILES IDX 14 14 15 15 16 16 17 17 18 18 19 19 20 20 21 21 22 22 23 23
REMARK SMILES IDX 24 24
REMARK H PARENT
REMARK Flexibility Score: inf
ROOT
ATOM      1  C   UNL     1      -5.672  -1.854   9.126  1.00  0.00     0.000 C 
ENDROOT
BRANCH   1   2
ATOM      2  C   UNL     1      -6.253  -0.681   8.326  1.00  0.00     0.000 C 
BRANCH   2   3
ATOM      3  C   UNL     1      -6.974   0.312   9.251  1.00  0.00     0.000 C 
BRANCH   3   4
ATOM      4  C   UNL     1      -8.489   0.384   8.988  1.00  0.00    -0.000 C 
BRANCH   4   5
ATOM      5  C   UNL     1      -9.372  -0.084  10.159  1.00  0.00    -0.000 C 
BRANCH   5   6
ATOM      6  C   UNL     1      -8.969  -1.469  10.694  1.00  0.00    -0.000 C 
BRANCH   6   7
ATOM      7  C   UNL     1      -9.820  -2.602  10.102  1.00  0.00    -0.000 C 
BRANCH   7   8
ATOM      8  C   UNL     1      -9.103  -3.352   8.966  1.00  0.00    -0.000 C 
BRANCH   8   9
ATOM      9  C   UNL     1      -9.426  -2.755   7.581  1.00  0.00    -0.000 C 
BRANCH   9  10
ATOM     10  C   UNL     1      -8.619  -3.385   6.433  1.00  0.00    -0.000 C 
BRANCH  10  11
ATOM     11  C   UNL     1      -7.967  -2.341   5.516  1.00  0.00    -0.003 C 
ATOM     12  C   UNL     1      -8.748  -1.029   5.534  1.00  0.00     0.004 C 
ENDBRANCH  10  11
ENDBRANCH   9  10
ENDBRANCH   8   9
ENDBRANCH   7   8
ENDBRANCH   6   7
ENDBRANCH   5   6
ENDBRANCH   4   5
ENDBRANCH   3   4
ENDBRANCH   2   3
ENDBRANCH   1   2
BRANCH   1  13
ATOM     13  C   UNL     1      -5.507  -3.097   8.240  1.00  0.00     0.000 C 
BRANCH  13  14
ATOM     14  C   UNL     1      -5.541  -4.408   9.042  1.00  0.00     0.000 C 
BRANCH  14  15
ATOM     15  C   UNL     1      -4.141  -4.893   9.448  1.00  0.00     0.000 C 
BRANCH  15  16
ATOM     16  C   UNL     1      -3.147  -4.731   8.287  1.00  0.00     0.000 C 
BRANCH  16  17
ATOM     17  C   UNL     1      -1.685  -4.666   8.761  1.00  0.00     0.000 C 
BRANCH  17  18
ATOM     18  C   UNL     1      -1.002  -3.339   8.390  1.00  0.00     0.000 C 
BRANCH  18  19
ATOM     19  C   UNL     1      -1.714  -2.600   7.242  1.00  0.00     0.000 C 
BRANCH  19  20
ATOM     20  C   UNL     1      -2.357  -1.251   7.628  1.00  0.00     0.006 C 
BRANCH  20  21
ATOM     21  C   UNL     1      -2.129  -0.832   9.089  1.00  0.00     0.053 C 
BRANCH  21  22
ATOM     22  C   UNL     1      -2.332   0.639   9.286  1.00  0.00     0.041 C 
ATOM     23  O   UNL     1      -3.380   1.197   8.866  1.00  0.00    -0.550 OA
ATOM     24  O   UNL     1      -1.376   1.389   9.959  1.00  0.00    -0.550 OA
ENDBRANCH  21  22
ENDBRANCH  20  21
ENDBRANCH  19  20
ENDBRANCH  18  19
ENDBRANCH  17  18
ENDBRANCH  16  17
ENDBRANCH  15  16
ENDBRANCH  14  15
ENDBRANCH  13  14
ENDBRANCH   1  13
TORSDOF 20
ENDMDL
MODEL 2
REMARK VINA RESULT:    -3.965      9.173     12.079
REMARK INTER + INTRA:         -12.379
REMARK INTER:                  -8.421
REMARK INTRA:                  -3.957
REMARK UNBOUND:                -3.779
REMARK SMILES CCCCCCCCCCCCCCCCCCCCCC(=O)[O-]
REMARK SMILES IDX 12 1 11 2 10 3 9 4 8 5 7 6 6 7 5 8 4 9 3 10 2 11 1 12 13 13
REMARK SMILES IDX 14 14 15 15 16 16 17 17 18 18 19 19 20 20 21 21 22 22 23 23
REMARK SMILES IDX 24 24
REMARK H PARENT
REMARK Flexibility Score: inf
ROOT
ATOM      1  C   UNL     1       5.289   3.899   8.928  1.00  0.00     0.000 C 
ENDROOT
BRANCH   1   2
ATOM      2  C   UNL     1       4.426   5.151   9.131  1.00  0.00     0.000 C 
BRANCH   2   3
ATOM      3  C   UNL     1       3.353   5.263   8.038  1.00  0.00     0.000 C 
BRANCH   3   4
ATOM      4  C   UNL     1       1.920   5.176   8.593  1.00  0.00    -0.000 C 
BRANCH   4   5
ATOM      5  C   UNL     1       1.032   4.109   7.928  1.00  0.00    -0.000 C 
BRANCH   5   6
ATOM      6  C   UNL     1       0.614   2.990   8.899  1.00  0.00    -0.000 C 
BRANCH   6   7
ATOM      7  C   UNL     1       1.682   1.896   9.033  1.00  0.00    -0.000 C 
BRANCH   7   8
ATOM      8  C   UNL     1       1.923   1.478  10.494  1.00  0.00    -0.000 C 
BRANCH   8   9
ATOM      9  C   UNL     1       3.034   2.315  11.162  1.00  0.00    -0.000 C 
BRANCH   9  10
ATOM     10  C   UNL     1       2.537   3.177  12.336  1.00  0.00    -0.000 C 
BRANCH  10  11
ATOM     11  C   UNL     1       1.027   3.044  12.577  1.00  0.00    -0.003 C 
ATOM     12  C   UNL     1       0.327   4.394  12.440  1.00  0.00     0.004 C 
ENDBRANCH  10  11
ENDBRANCH   9  10
ENDBRANCH   8   9
ENDBRANCH   7   8
ENDBRANCH   6   7
ENDBRANCH   5   6
ENDBRANCH   4   5
ENDBRANCH   3   4
ENDBRANCH   2   3
ENDBRANCH   1   2
BRANCH   1  13
ATOM     13  C   UNL     1       4.822   3.102   7.701  1.00  0.00     0.000 C 
BRANCH  13  14
ATOM     14  C   UNL     1       5.503   1.729   7.590  1.00  0.00     0.000 C 
BRANCH  14  15
ATOM     15  C   UNL     1       5.729   1.065   8.958  1.00  0.00     0.000 C 
BRANCH  15  16
ATOM     16  C   UNL     1       7.160   0.520   9.073  1.00  0.00     0.000 C 
BRANCH  16  17
ATOM     17  C   UNL     1       7.927   1.113  10.268  1.00  0.00     0.000 C 
BRANCH  17  18
ATOM     18  C   UNL     1       8.656   2.420   9.914  1.00  0.00     0.000 C 
BRANCH  18  19
ATOM     19  C   UNL     1       9.021   2.516   8.421  1.00  0.00     0.000 C 
BRANCH  19  20
ATOM     20  C   UNL     1       8.919   3.928   7.809  1.00  0.00     0.006 C 
BRANCH  20  21
ATOM     21  C   UNL     1       8.179   3.987   6.462  1.00  0.00     0.053 C 
BRANCH  21  22
ATOM     22  C   UNL     1       7.768   5.384   6.112  1.00  0.00     0.041 C 
ATOM     23  O   UNL     1       7.121   6.081   6.936  1.00  0.00    -0.550 OA
ATOM     24  O   UNL     1       8.124   5.925   4.882  1.00  0.00    -0.550 OA
ENDBRANCH  21  22
ENDBRANCH  20  21
ENDBRANCH  19  20
ENDBRANCH  18  19
ENDBRANCH  17  18
ENDBRANCH  16  17
ENDBRANCH  15  16
ENDBRANCH  14  15
ENDBRANCH  13  14
ENDBRANCH   1  13
TORSDOF 20
ENDMDL
MODEL 3
REMARK VINA RESULT:    -3.886      9.560     13.304
REMARK INTER + INTRA:         -12.207
REMARK INTER:                  -8.248
REMARK INTRA:                  -3.959
REMARK UNBOUND:                -3.779
REMARK SMILES CCCCCCCCCCCCCCCCCCCCCC(=O)[O-]
REMARK SMILES IDX 12 1 11 2 10 3 9 4 8 5 7 6 6 7 5 8 4 9 3 10 2 11 1 12 13 13
REMARK SMILES IDX 14 14 15 15 16 16 17 17 18 18 19 19 20 20 21 21 22 22 23 23
REMARK SMILES IDX 24 24
REMARK H PARENT
REMARK Flexibility Score: inf
ROOT
ATOM      1  C   UNL     1       7.034   0.163   9.194  1.00  0.00     0.000 C 
ENDROOT
BRANCH   1   2
ATOM      2  C   UNL     1       5.588   0.609   9.442  1.00  0.00     0.000 C 
BRANCH   2   3
ATOM      3  C   UNL     1       5.429   2.118   9.204  1.00  0.00     0.000 C 
BRANCH   3   4
ATOM      4  C   UNL     1       5.209   2.472   7.722  1.00  0.00    -0.000 C 
BRANCH   4   5
ATOM      5  C   UNL     1       4.940   3.962   7.446  1.00  0.00    -0.000 C 
BRANCH   5   6
ATOM      6  C   UNL     1       5.424   4.878   8.584  1.00  0.00    -0.000 C 
BRANCH   6   7
ATOM      7  C   UNL     1       4.279   5.672   9.229  1.00  0.00    -0.000 C 
BRANCH   7   8
ATOM      8  C   UNL     1       2.892   5.213   8.747  1.00  0.00    -0.000 C 
BRANCH   8   9
ATOM      9  C   UNL     1       2.216   4.256   9.751  1.00  0.00    -0.000 C 
BRANCH   9  10
ATOM     10  C   UNL     1       1.572   3.023   9.092  1.00  0.00    -0.000 C 
BRANCH  10  11
ATOM     11  C   UNL     1       1.320   3.212   7.589  1.00  0.00    -0.003 C 
ATOM     12  C   UNL     1       1.554   1.912   6.825  1.00  0.00     0.004 C 
ENDBRANCH  10  11
ENDBRANCH   9  10
ENDBRANCH   8   9
ENDBRANCH   7   8
ENDBRANCH   6   7
ENDBRANCH   5   6
ENDBRANCH   4   5
ENDBRANCH   3   4
ENDBRANCH   2   3
ENDBRANCH   1   2
BRANCH   1  13
ATOM     13  C   UNL     1       7.959   0.642  10.322  1.00  0.00     0.000 C 
BRANCH  13  14
ATOM     14  C   UNL     1       9.119   1.512   9.811  1.00  0.00     0.000 C 
BRANCH  14  15
ATOM     15  C   UNL     1       9.018   2.972  10.281  1.00  0.00     0.000 C 
BRANCH  15  16
ATOM     16  C   UNL     1       8.981   3.932   9.083  1.00  0.00     0.000 C 
BRANCH  16  17
ATOM     17  C   UNL     1       9.419   3.261   7.770  1.00  0.00     0.000 C 
BRANCH  17  18
ATOM     18  C   UNL     1       8.506   3.627   6.587  1.00  0.00     0.000 C 
BRANCH  18  19
ATOM     19  C   UNL     1       8.293   2.457   5.610  1.00  0.00     0.000 C 
BRANCH  19  20
ATOM     20  C   UNL     1       8.729   1.074   6.136  1.00  0.00     0.006 C 
BRANCH  20  21
ATOM     21  C   UNL     1       7.752  -0.068   5.812  1.00  0.00     0.053 C 
BRANCH  21  22
ATOM     22  C   UNL     1       8.171  -0.834   4.595  1.00  0.00     0.041 C 
ATOM     23  O   UNL     1       7.413  -1.712   4.105  1.00  0.00    -0.550 OA
ATOM     24  O   UNL     1       9.389  -0.558   3.985  1.00  0.00    -0.550 OA
ENDBRANCH  21  22
ENDBRANCH  20  21
ENDBRANCH  19  20
ENDBRANCH  18  19
ENDBRANCH  17  18
ENDBRANCH  16  17
ENDBRANCH  15  16
ENDBRANCH  14  15
ENDBRANCH  13  14
ENDBRANCH   1  13
TORSDOF 20
ENDMDL
MODEL 4
REMARK VINA RESULT:    -3.877      1.424      2.743
REMARK INTER + INTRA:         -12.189
REMARK INTER:                  -8.638
REMARK INTRA:                  -3.551
REMARK UNBOUND:                -3.779
REMARK SMILES CCCCCCCCCCCCCCCCCCCCCC(=O)[O-]
REMARK SMILES IDX 12 1 11 2 10 3 9 4 8 5 7 6 6 7 5 8 4 9 3 10 2 11 1 12 13 13
REMARK SMILES IDX 14 14 15 15 16 16 17 17 18 18 19 19 20 20 21 21 22 22 23 23
REMARK SMILES IDX 24 24
REMARK H PARENT
REMARK Flexibility Score: inf
ROOT
ATOM      1  C   UNL     1      -6.408  -4.831   8.752  1.00  0.00     0.000 C 
ENDROOT
BRANCH   1   2
ATOM      2  C   UNL     1      -7.643  -4.731   7.848  1.00  0.00     0.000 C 
BRANCH   2   3
ATOM      3  C   UNL     1      -8.379  -3.400   8.068  1.00  0.00     0.000 C 
BRANCH   3   4
ATOM      4  C   UNL     1      -9.379  -3.454   9.237  1.00  0.00    -0.000 C 
BRANCH   4   5
ATOM      5  C   UNL     1      -9.166  -2.381  10.321  1.00  0.00    -0.000 C 
BRANCH   5   6
ATOM      6  C   UNL     1      -9.022  -0.964   9.738  1.00  0.00    -0.000 C 
BRANCH   6   7
ATOM      7  C   UNL     1      -7.608  -0.393   9.918  1.00  0.00    -0.000 C 
BRANCH   7   8
ATOM      8  C   UNL     1      -7.005   0.125   8.600  1.00  0.00    -0.000 C 
BRANCH   8   9
ATOM      9  C   UNL     1      -8.065   0.248   7.485  1.00  0.00    -0.000 C 
BRANCH   9  10
ATOM     10  C   UNL     1      -7.488   0.107   6.066  1.00  0.00    -0.000 C 
BRANCH  10  11
ATOM     11  C   UNL     1      -7.955  -1.170   5.354  1.00  0.00    -0.003 C 
ATOM     12  C   UNL     1      -6.770  -2.060   4.987  1.00  0.00     0.004 C 
ENDBRANCH  10  11
ENDBRANCH   9  10
ENDBRANCH   8   9
ENDBRANCH   7   8
ENDBRANCH   6   7
ENDBRANCH   5   6
ENDBRANCH   4   5
ENDBRANCH   3   4
ENDBRANCH   2   3
ENDBRANCH   1   2
BRANCH   1  13
ATOM     13  C   UNL     1      -5.716  -3.466   8.892  1.00  0.00     0.000 C 
BRANCH  13  14
ATOM     14  C   UNL     1      -4.626  -3.241   7.833  1.00  0.00     0.000 C 
BRANCH  14  15
ATOM     15  C   UNL     1      -3.662  -4.432   7.710  1.00  0.00     0.000 C 
BRANCH  15  16
ATOM     16  C   UNL     1      -2.923  -4.677   9.034  1.00  0.00     0.000 C 
BRANCH  16  17
ATOM     17  C   UNL     1      -1.577  -3.934   9.110  1.00  0.00     0.000 C 
BRANCH  17  18
ATOM     18  C   UNL     1      -1.360  -3.243  10.467  1.00  0.00     0.000 C 
BRANCH  18  19
ATOM     19  C   UNL     1      -2.679  -2.903  11.184  1.00  0.00     0.000 C 
BRANCH  19  20
ATOM     20  C   UNL     1      -3.276  -1.522  10.843  1.00  0.00     0.006 C 
BRANCH  20  21
ATOM     21  C   UNL     1      -2.270  -0.522  10.249  1.00  0.00     0.053 C 
BRANCH  21  22
ATOM     22  C   UNL     1      -2.677  -0.065   8.882  1.00  0.00     0.041 C 
ATOM     23  O   UNL     1      -2.244  -0.658   7.859  1.00  0.00    -0.550 OA
ATOM     24  O   UNL     1      -3.559   0.999   8.739  1.00  0.00    -0.550 OA
ENDBRANCH  21  22
ENDBRANCH  20  21
ENDBRANCH  19  20
ENDBRANCH  18  19
ENDBRANCH  17  18
ENDBRANCH  16  17
ENDBRANCH  15  16
ENDBRANCH  14  15
ENDBRANCH  13  14
ENDBRANCH   1  13
TORSDOF 20
ENDMDL
MODEL 5
REMARK VINA RESULT:    -3.854      2.252      6.545
REMARK INTER + INTRA:         -12.139
REMARK INTER:                  -8.362
REMARK INTRA:                  -3.778
REMARK UNBOUND:                -3.779
REMARK SMILES CCCCCCCCCCCCCCCCCCCCCC(=O)[O-]
REMARK SMILES IDX 12 1 11 2 10 3 9 4 8 5 7 6 6 7 5 8 4 9 3 10 2 11 1 12 13 13
REMARK SMILES IDX 14 14 15 15 16 16 17 17 18 18 19 19 20 20 21 21 22 22 23 23
REMARK SMILES IDX 24 24
REMARK H PARENT
REMARK Flexibility Score: inf
ROOT
ATOM      1  C   UNL     1      -5.567  -0.185   9.495  1.00  0.00     0.000 C 
ENDROOT
BRANCH   1   2
ATOM      2  C   UNL     1      -5.722  -1.025   8.221  1.00  0.00     0.000 C 
BRANCH   2   3
ATOM      3  C   UNL     1      -4.864  -2.298   8.293  1.00  0.00     0.000 C 
BRANCH   3   4
ATOM      4  C   UNL     1      -5.457  -3.369   9.225  1.00  0.00    -0.000 C 
BRANCH   4   5
ATOM      5  C   UNL     1      -4.520  -4.551   9.531  1.00  0.00    -0.000 C 
BRANCH   5   6
ATOM      6  C   UNL     1      -3.607  -4.912   8.347  1.00  0.00    -0.000 C 
BRANCH   6   7
ATOM      7  C   UNL     1      -2.126  -4.990   8.745  1.00  0.00    -0.000 C 
BRANCH   7   8
ATOM      8  C   UNL     1      -1.408  -3.634   8.631  1.00  0.00    -0.000 C 
BRANCH   8   9
ATOM      9  C   UNL     1      -0.965  -3.094  10.007  1.00  0.00    -0.000 C 
BRANCH   9  10
ATOM     10  C   UNL     1      -1.597  -1.739  10.372  1.00  0.00    -0.000 C 
BRANCH  10  11
ATOM     11  C   UNL     1      -2.766  -1.871  11.358  1.00  0.00    -0.003 C 
ATOM     12  C   UNL     1      -2.524  -3.007  12.349  1.00  0.00     0.004 C 
ENDBRANCH  10  11
ENDBRANCH   9  10
ENDBRANCH   8   9
ENDBRANCH   7   8
ENDBRANCH   6   7
ENDBRANCH   5   6
ENDBRANCH   4   5
ENDBRANCH   3   4
ENDBRANCH   2   3
ENDBRANCH   1   2
BRANCH   1  13
ATOM     13  C   UNL     1      -6.931   0.319   9.991  1.00  0.00     0.000 C 
BRANCH  13  14
ATOM     14  C   UNL     1      -8.110  -0.336   9.255  1.00  0.00     0.000 C 
BRANCH  14  15
ATOM     15  C   UNL     1      -9.014  -1.154  10.190  1.00  0.00     0.000 C 
BRANCH  15  16
ATOM     16  C   UNL     1      -9.126  -2.609   9.711  1.00  0.00     0.000 C 
BRANCH  16  17
ATOM     17  C   UNL     1      -9.334  -2.720   8.190  1.00  0.00     0.000 C 
BRANCH  17  18
ATOM     18  C   UNL     1      -8.383  -3.736   7.536  1.00  0.00     0.000 C 
BRANCH  18  19
ATOM     19  C   UNL     1      -8.217  -3.512   6.022  1.00  0.00     0.000 C 
BRANCH  19  20
ATOM     20  C   UNL     1      -6.793  -3.745   5.475  1.00  0.00     0.006 C 
BRANCH  20  21
ATOM     21  C   UNL     1      -6.284  -2.641   4.534  1.00  0.00     0.053 C 
BRANCH  21  22
ATOM     22  C   UNL     1      -4.792  -2.512   4.581  1.00  0.00     0.041 C 
ATOM     23  O   UNL     1      -4.227  -1.500   4.089  1.00  0.00    -0.550 OA
ATOM     24  O   UNL     1      -4.028  -3.498   5.192  1.00  0.00    -0.550 OA
ENDBRANCH  21  22
ENDBRANCH  20  21
ENDBRANCH  19  20
ENDBRANCH  18  19
ENDBRANCH  17  18
ENDBRANCH  16  17
ENDBRANCH  15  16
ENDBRANCH  14  15
ENDBRANCH  13  14
ENDBRANCH   1  13
TORSDOF 20
ENDMDL
MODEL 6
REMARK VINA RESULT:    -3.837      8.674     13.727
REMARK INTER + INTRA:         -12.103
REMARK INTER:                  -8.312
REMARK INTRA:                  -3.791
REMARK UNBOUND:                -3.779
REMARK SMILES CCCCCCCCCCCCCCCCCCCCCC(=O)[O-]
REMARK SMILES IDX 12 1 11 2 10 3 9 4 8 5 7 6 6 7 5 8 4 9 3 10 2 11 1 12 13 13
REMARK SMILES IDX 14 14 15 15 16 16 17 17 18 18 19 19 20 20 21 21 22 22 23 23
REMARK SMILES IDX 24 24
REMARK H PARENT
REMARK Flexibility Score: inf
ROOT
ATOM      1  C   UNL     1       5.321   2.422   7.549  1.00  0.00     0.000 C 
ENDROOT
BRANCH   1   2
ATOM      2  C   UNL     1       5.115   3.408   6.392  1.00  0.00     0.000 C 
BRANCH   2   3
ATOM      3  C   UNL     1       5.173   2.686   5.037  1.00  0.00     0.000 C 
BRANCH   3   4
ATOM      4  C   UNL     1       6.471   2.970   4.261  1.00  0.00    -0.000 C 
BRANCH   4   5
ATOM      5  C   UNL     1       7.379   4.042   4.889  1.00  0.00    -0.000 C 
BRANCH   5   6
ATOM      6  C   UNL     1       8.770   3.501   5.266  1.00  0.00    -0.000 C 
BRANCH   6   7
ATOM      7  C   UNL     1       8.907   3.223   6.770  1.00  0.00    -0.000 C 
BRANCH   7   8
ATOM      8  C   UNL     1       8.419   4.396   7.638  1.00  0.00    -0.000 C 
BRANCH   8   9
ATOM      9  C   UNL     1       8.466   4.063   9.144  1.00  0.00    -0.000 C 
BRANCH   9  10
ATOM     10  C   UNL     1       9.486   2.969   9.503  1.00  0.00    -0.000 C 
BRANCH  10  11
ATOM     11  C   UNL     1       8.892   1.863  10.387  1.00  0.00    -0.003 C 
ATOM     12  C   UNL     1       8.105   0.856   9.552  1.00  0.00     0.004 C 
ENDBRANCH  10  11
ENDBRANCH   9  10
ENDBRANCH   8   9
ENDBRANCH   7   8
ENDBRANCH   6   7
ENDBRANCH   5   6
ENDBRANCH   4   5
ENDBRANCH   3   4
ENDBRANCH   2   3
ENDBRANCH   1   2
BRANCH   1  13
ATOM     13  C   UNL     1       4.968   3.072   8.895  1.00  0.00     0.000 C 
BRANCH  13  14
ATOM     14  C   UNL     1       4.800   4.596   8.793  1.00  0.00     0.000 C 
BRANCH  14  15
ATOM     15  C   UNL     1       3.429   5.078   9.293  1.00  0.00     0.000 C 
BRANCH  15  16
ATOM     16  C   UNL     1       2.471   5.322   8.117  1.00  0.00     0.000 C 
BRANCH  16  17
ATOM     17  C   UNL     1       1.297   4.328   8.090  1.00  0.00     0.000 C 
BRANCH  17  18
ATOM     18  C   UNL     1       1.575   3.111   7.191  1.00  0.00     0.000 C 
BRANCH  18  19
ATOM     19  C   UNL     1       1.161   1.778   7.842  1.00  0.00     0.000 C 
BRANCH  19  20
ATOM     20  C   UNL     1       1.775   1.507   9.231  1.00  0.00     0.006 C 
BRANCH  20  21
ATOM     21  C   UNL     1       2.260   0.064   9.443  1.00  0.00     0.053 C 
BRANCH  21  22
ATOM     22  C   UNL     1       3.546   0.014  10.209  1.00  0.00     0.041 C 
ATOM     23  O   UNL     1       3.586   0.395  11.409  1.00  0.00    -0.550 OA
ATOM     24  O   UNL     1       4.696  -0.479   9.605  1.00  0.00    -0.550 OA
ENDBRANCH  21  22
ENDBRANCH  20  21
ENDBRANCH  19  20
ENDBRANCH  18  19
ENDBRANCH  17  18
ENDBRANCH  16  17
ENDBRANCH  15  16
ENDBRANCH  14  15
ENDBRANCH  13  14
ENDBRANCH   1  13
TORSDOF 20
ENDMDL
MODEL 7
REMARK VINA RESULT:    -3.827      1.989      2.963
REMARK INTER + INTRA:         -12.079
REMARK INTER:                  -8.270
REMARK INTRA:                  -3.809
REMARK UNBOUND:                -3.779
REMARK SMILES CCCCCCCCCCCCCCCCCCCCCC(=O)[O-]
REMARK SMILES IDX 12 1 11 2 10 3 9 4 8 5 7 6 6 7 5 8 4 9 3 10 2 11 1 12 13 13
REMARK SMILES IDX 14 14 15 15 16 16 17 17 18 18 19 19 20 20 21 21 22 22 23 23
REMARK SMILES IDX 24 24
REMARK H PARENT
REMARK Flexibility Score: inf
ROOT
ATOM      1  C   UNL     1      -6.309  -0.128   9.186  1.00  0.00     0.000 C 
ENDROOT
BRANCH   1   2
ATOM      2  C   UNL     1      -7.524   0.266   8.336  1.00  0.00     0.000 C 
BRANCH   2   3
ATOM      3  C   UNL     1      -8.825  -0.264   8.958  1.00  0.00     0.000 C 
BRANCH   3   4
ATOM      4  C   UNL     1      -8.581  -1.177  10.172  1.00  0.00    -0.000 C 
BRANCH   4   5
ATOM      5  C   UNL     1      -8.932  -2.659   9.948  1.00  0.00    -0.000 C 
BRANCH   5   6
ATOM      6  C   UNL     1      -9.421  -2.948   8.518  1.00  0.00    -0.000 C 
BRANCH   6   7
ATOM      7  C   UNL     1      -8.369  -3.678   7.671  1.00  0.00    -0.000 C 
BRANCH   7   8
ATOM      8  C   UNL     1      -7.995  -2.906   6.393  1.00  0.00    -0.000 C 
BRANCH   8   9
ATOM      9  C   UNL     1      -6.727  -3.474   5.721  1.00  0.00    -0.000 C 
BRANCH   9  10
ATOM     10  C   UNL     1      -6.194  -2.601   4.572  1.00  0.00    -0.000 C 
BRANCH  10  11
ATOM     11  C   UNL     1      -4.799  -2.027   4.856  1.00  0.00    -0.003 C 
ATOM     12  C   UNL     1      -3.922  -3.044   5.582  1.00  0.00     0.004 C 
ENDBRANCH  10  11
ENDBRANCH   9  10
ENDBRANCH   8   9
ENDBRANCH   7   8
ENDBRANCH   6   7
ENDBRANCH   5   6
ENDBRANCH   4   5
ENDBRANCH   3   4
ENDBRANCH   2   3
ENDBRANCH   1   2
BRANCH   1  13
ATOM     13  C   UNL     1      -5.396  -1.100   8.424  1.00  0.00     0.000 C 
BRANCH  13  14
ATOM     14  C   UNL     1      -4.719  -2.126   9.347  1.00  0.00     0.000 C 
BRANCH  14  15
ATOM     15  C   UNL     1      -5.290  -3.543   9.179  1.00  0.00     0.000 C 
BRANCH  15  16
ATOM     16  C   UNL     1      -4.261  -4.602   9.600  1.00  0.00     0.000 C 
BRANCH  16  17
ATOM     17  C   UNL     1      -3.382  -5.075   8.429  1.00  0.00     0.000 C 
BRANCH  17  18
ATOM     18  C   UNL     1      -1.880  -4.905   8.711  1.00  0.00     0.000 C 
BRANCH  18  19
ATOM     19  C   UNL     1      -1.365  -3.492   8.379  1.00  0.00     0.000 C 
BRANCH  19  20
ATOM     20  C   UNL     1      -0.946  -2.642   9.597  1.00  0.00     0.006 C 
BRANCH  20  21
ATOM     21  C   UNL     1      -1.111  -3.347  10.953  1.00  0.00     0.053 C 
BRANCH  21  22
ATOM     22  C   UNL     1      -1.974  -2.560  11.890  1.00  0.00     0.041 C 
ATOM     23  O   UNL     1      -2.461  -3.107  12.914  1.00  0.00    -0.550 OA
ATOM     24  O   UNL     1      -2.218  -1.214  11.646  1.00  0.00    -0.550 OA
ENDBRANCH  21  22
ENDBRANCH  20  21
ENDBRANCH  19  20
ENDBRANCH  18  19
ENDBRANCH  17  18
ENDBRANCH  16  17
ENDBRANCH  15  16
ENDBRANCH  14  15
ENDBRANCH  13  14
ENDBRANCH   1  13
TORSDOF 20
ENDMDL
MODEL 8
REMARK VINA RESULT:    -3.818      2.735      5.175
REMARK INTER + INTRA:         -12.060
REMARK INTER:                  -8.838
REMARK INTRA:                  -3.222
REMARK UNBOUND:                -3.779
REMARK SMILES CCCCCCCCCCCCCCCCCCCCCC(=O)[O-]
REMARK SMILES IDX 12 1 11 2 10 3 9 4 8 5 7 6 6 7 5 8 4 9 3 10 2 11 1 12 13 13
REMARK SMILES IDX 14 14 15 15 16 16 17 17 18 18 19 19 20 20 21 21 22 22 23 23
REMARK SMILES IDX 24 24
REMARK H PARENT
REMARK Flexibility Score: inf
ROOT
ATOM      1  C   UNL     1      -7.457   0.163   8.828  1.00  0.00     0.000 C 
ENDROOT
BRANCH   1   2
ATOM      2  C   UNL     1      -8.623   0.442   7.871  1.00  0.00     0.000 C 
BRANCH   2   3
ATOM      3  C   UNL     1      -8.458  -0.342   6.559  1.00  0.00     0.000 C 
BRANCH   3   4
ATOM      4  C   UNL     1      -7.100  -1.058   6.456  1.00  0.00    -0.000 C 
BRANCH   4   5
ATOM      5  C   UNL     1      -7.031  -2.163   5.386  1.00  0.00    -0.000 C 
BRANCH   5   6
ATOM      6  C   UNL     1      -8.362  -2.355   4.640  1.00  0.00    -0.000 C 
BRANCH   6   7
ATOM      7  C   UNL     1      -9.009  -3.718   4.927  1.00  0.00    -0.000 C 
BRANCH   7   8
ATOM      8  C   UNL     1      -7.987  -4.868   4.948  1.00  0.00    -0.000 C 
BRANCH   8   9
ATOM      9  C   UNL     1      -8.314  -5.955   3.902  1.00  0.00    -0.000 C 
BRANCH   9  10
ATOM     10  C   UNL     1      -9.052  -5.417   2.664  1.00  0.00    -0.000 C 
BRANCH  10  11
ATOM     11  C   UNL     1      -8.227  -5.539   1.376  1.00  0.00    -0.003 C 
ATOM     12  C   UNL     1      -7.566  -4.210   1.018  1.00  0.00     0.004 C 
ENDBRANCH  10  11
ENDBRANCH   9  10
ENDBRANCH   8   9
ENDBRANCH   7   8
ENDBRANCH   6   7
ENDBRANCH   5   6
ENDBRANCH   4   5
ENDBRANCH   3   4
ENDBRANCH   2   3
ENDBRANCH   1   2
BRANCH   1  13
ATOM     13  C   UNL     1      -7.968  -0.120  10.249  1.00  0.00     0.000 C 
BRANCH  13  14
ATOM     14  C   UNL     1      -9.373  -0.742  10.262  1.00  0.00     0.000 C 
BRANCH  14  15
ATOM     15  C   UNL     1      -9.360  -2.233  10.633  1.00  0.00     0.000 C 
BRANCH  15  16
ATOM     16  C   UNL     1      -9.929  -3.087   9.490  1.00  0.00     0.000 C 
BRANCH  16  17
ATOM     17  C   UNL     1      -8.848  -3.548   8.497  1.00  0.00     0.000 C 
BRANCH  17  18
ATOM     18  C   UNL     1      -7.451  -3.619   9.136  1.00  0.00     0.000 C 
BRANCH  18  19
ATOM     19  C   UNL     1      -6.491  -4.553   8.377  1.00  0.00     0.000 C 
BRANCH  19  20
ATOM     20  C   UNL     1      -5.129  -4.792   9.059  1.00  0.00     0.006 C 
BRANCH  20  21
ATOM     21  C   UNL     1      -4.023  -3.812   8.635  1.00  0.00     0.053 C 
BRANCH  21  22
ATOM     22  C   UNL     1      -2.662  -4.304   9.022  1.00  0.00     0.041 C 
ATOM     23  O   UNL     1      -2.124  -5.249   8.387  1.00  0.00    -0.550 OA
ATOM     24  O   UNL     1      -1.976  -3.700  10.068  1.00  0.00    -0.550 OA
ENDBRANCH  21  22
ENDBRANCH  20  21
ENDBRANCH  19  20
ENDBRANCH  18  19
ENDBRANCH  17  18
ENDBRANCH  16  17
ENDBRANCH  15  16
ENDBRANCH  14  15
ENDBRANCH  13  14
ENDBRANCH   1  13
TORSDOF 20
ENDMDL
MODEL 9
REMARK VINA RESULT:    -3.815      1.994      4.289
REMARK INTER + INTRA:         -12.054
REMARK INTER:                  -8.063
REMARK INTRA:                  -3.991
REMARK UNBOUND:                -3.779
REMARK SMILES CCCCCCCCCCCCCCCCCCCCCC(=O)[O-]
REMARK SMILES IDX 12 1 11 2 10 3 9 4 8 5 7 6 6 7 5 8 4 9 3 10 2 11 1 12 13 13
REMARK SMILES IDX 14 14 15 15 16 16 17 17 18 18 19 19 20 20 21 21 22 22 23 23
REMARK SMILES IDX 24 24
REMARK H PARENT
REMARK Flexibility Score: inf
ROOT
ATOM      1  C   UNL     1      -9.022  -0.756  10.457  1.00  0.00     0.000 C 
ENDROOT
BRANCH   1   2
ATOM      2  C   UNL     1      -9.712  -2.127  10.472  1.00  0.00     0.000 C 
BRANCH   2   3
ATOM      3  C   UNL     1      -9.356  -2.935   9.214  1.00  0.00     0.000 C 
BRANCH   3   4
ATOM      4  C   UNL     1      -8.022  -3.691   9.344  1.00  0.00    -0.000 C 
BRANCH   4   5
ATOM      5  C   UNL     1      -7.460  -4.244   8.022  1.00  0.00    -0.000 C 
BRANCH   5   6
ATOM      6  C   UNL     1      -8.198  -3.701   6.786  1.00  0.00    -0.000 C 
BRANCH   6   7
ATOM      7  C   UNL     1      -7.251  -3.411   5.613  1.00  0.00    -0.000 C 
BRANCH   7   8
ATOM      8  C   UNL     1      -7.644  -2.145   4.832  1.00  0.00    -0.000 C 
BRANCH   8   9
ATOM      9  C   UNL     1      -8.970  -1.538   5.338  1.00  0.00    -0.000 C 
BRANCH   9  10
ATOM     10  C   UNL     1      -9.426  -0.301   4.545  1.00  0.00    -0.000 C 
BRANCH  10  11
ATOM     11  C   UNL     1      -9.456   0.976   5.394  1.00  0.00    -0.003 C 
ATOM     12  C   UNL     1      -8.407   1.978   4.918  1.00  0.00     0.004 C 
ENDBRANCH  10  11
ENDBRANCH   9  10
ENDBRANCH   8   9
ENDBRANCH   7   8
ENDBRANCH   6   7
ENDBRANCH   5   6
ENDBRANCH   4   5
ENDBRANCH   3   4
ENDBRANCH   2   3
ENDBRANCH   1   2
BRANCH   1  13
ATOM     13  C   UNL     1      -9.011  -0.161   9.041  1.00  0.00     0.000 C 
BRANCH  13  14
ATOM     14  C   UNL     1      -7.677   0.518   8.693  1.00  0.00     0.000 C 
BRANCH  14  15
ATOM     15  C   UNL     1      -6.668  -0.448   8.052  1.00  0.00     0.000 C 
BRANCH  15  16
ATOM     16  C   UNL     1      -5.468  -0.684   8.982  1.00  0.00     0.000 C 
BRANCH  16  17
ATOM     17  C   UNL     1      -4.741  -2.008   8.690  1.00  0.00     0.000 C 
BRANCH  17  18
ATOM     18  C   UNL     1      -4.240  -2.099   7.238  1.00  0.00     0.000 C 
BRANCH  18  19
ATOM     19  C   UNL     1      -3.683  -3.489   6.883  1.00  0.00     0.000 C 
BRANCH  19  20
ATOM     20  C   UNL     1      -3.665  -4.507   8.043  1.00  0.00     0.006 C 
BRANCH  20  21
ATOM     21  C   UNL     1      -2.261  -4.974   8.459  1.00  0.00     0.053 C 
BRANCH  21  22
ATOM     22  C   UNL     1      -1.452  -3.859   9.047  1.00  0.00     0.041 C 
ATOM     23  O   UNL     1      -1.811  -3.313  10.123  1.00  0.00    -0.550 OA
ATOM     24  O   UNL     1      -0.286  -3.441   8.418  1.00  0.00    -0.550 OA
ENDBRANCH  21  22
ENDBRANCH  20  21
ENDBRANCH  19  20
ENDBRANCH  18  19
ENDBRANCH  17  18
ENDBRANCH  16  17
ENDBRANCH  15  16
ENDBRANCH  14  15
ENDBRANCH  13  14
ENDBRANCH   1  13
TORSDOF 20
ENDMDL
