MODEL 1
REMARK VINA RESULT:    -4.676      0.000      0.000
REMARK INTER + INTRA:          -5.308
REMARK INTER:                  -5.223
REMARK INTRA:                  -0.085
REMARK UNBOUND:                -0.085
REMARK SMILES CCc1ccc(O)cc1O
REMARK SMILES IDX 3 1 9 2 8 3 6 4 5 5 4 6 2 7 1 8 10 9 7 11
REMARK H PARENT 10 10 7 12
REMARK Flexibility Score: inf
ROOT
ATOM      1  C   UNL     1      23.915   5.371  24.175  1.00  0.00    -0.006 A 
ATOM      2  C   UNL     1      22.690   4.660  24.230  1.00  0.00     0.122 A 
ATOM      3  C   UNL     1      22.388   3.721  23.234  1.00  0.00     0.092 A 
ATOM      4  C   UNL     1      23.290   3.467  22.195  1.00  0.00     0.119 A 
ATOM      5  C   UNL     1      24.505   4.154  22.149  1.00  0.00     0.047 A 
ATOM      6  C   UNL     1      24.818   5.094  23.132  1.00  0.00     0.011 A 
ENDROOT
BRANCH   1   7
ATOM      7  C   UNL     1      24.303   6.387  25.223  1.00  0.00     0.036 C 
ATOM      8  C   UNL     1      25.768   6.787  25.079  1.00  0.00     0.009 C 
ENDBRANCH   1   7
BRANCH   2   9
ATOM      9  O   UNL     1      21.757   4.852  25.251  1.00  0.00    -0.508 OA
ATOM     10  H   UNL     1      21.161   4.118  25.610  1.00  0.00     0.293 HD
ENDBRANCH   2   9
BRANCH   4  11
ATOM     11  O   UNL     1      22.991   2.533  21.206  1.00  0.00    -0.508 OA
ATOM     12  H   UNL     1      23.721   2.043  20.702  1.00  0.00     0.293 HD
ENDBRANCH   4  11
TORSDOF 3
ENDMDL
MODEL 2
REMARK VINA RESULT:    -4.649      3.724      4.645
REMARK INTER + INTRA:          -5.278
REMARK INTER:                  -5.193
REMARK INTRA:                  -0.085
REMARK UNBOUND:                -0.085
REMARK SMILES CCc1ccc(O)cc1O
REMARK SMILES IDX 3 1 9 2 8 3 6 4 5 5 4 6 2 7 1 8 10 9 7 11
REMARK H PARENT 10 10 7 12
REMARK Flexibility Score: inf
ROOT
ATOM      1  C   UNL     1      24.800   3.499  20.415  1.00  0.00    -0.006 A 
ATOM      2  C   UNL     1      23.708   2.996  19.664  1.00  0.00     0.122 A 
ATOM      3  C   UNL     1      23.147   3.780  18.647  1.00  0.00     0.092 A 
ATOM      4  C   UNL     1      23.664   5.047  18.354  1.00  0.00     0.119 A 
ATOM      5  C   UNL     1      24.751   5.536  19.081  1.00  0.00     0.047 A 
ATOM      6  C   UNL     1      25.318   4.768  20.100  1.00  0.00     0.011 A 
ENDROOT
BRANCH   1   7
ATOM      7  C   UNL     1      25.455   2.699  21.516  1.00  0.00     0.036 C 
ATOM      8  C   UNL     1      26.351   3.585  22.376  1.00  0.00     0.009 C 
ENDBRANCH   1   7
BRANCH   2   9
ATOM      9  O   UNL     1      23.160   1.732  19.893  1.00  0.00    -0.508 OA
ATOM     10  H   UNL     1      22.636   1.216  19.200  1.00  0.00     0.293 HD
ENDBRANCH   2   9
BRANCH   4  11
ATOM     11  O   UNL     1      23.108   5.825  17.342  1.00  0.00    -0.508 OA
ATOM     12  H   UNL     1      22.996   5.468  16.401  1.00  0.00     0.293 HD
ENDBRANCH   4  11
TORSDOF 3
ENDMDL
MODEL 3
REMARK VINA RESULT:    -4.637      3.905      4.484
REMARK INTER + INTRA:          -5.264
REMARK INTER:                  -5.179
REMARK INTRA:                  -0.085
REMARK UNBOUND:                -0.085
REMARK SMILES CCc1ccc(O)cc1O
REMARK SMILES IDX 3 1 9 2 8 3 6 4 5 5 4 6 2 7 1 8 10 9 7 11
REMARK H PARENT 10 10 7 12
REMARK Flexibility Score: inf
ROOT
ATOM      1  C   UNL     1      23.514   8.968  22.399  1.00  0.00    -0.006 A 
ATOM      2  C   UNL     1      22.110   9.033  22.213  1.00  0.00     0.122 A 
ATOM      3  C   UNL     1      21.295   8.013  22.722  1.00  0.00     0.092 A 
ATOM      4  C   UNL     1      21.852   6.938  23.424  1.00  0.00     0.119 A 
ATOM      5  C   UNL     1      23.233   6.881  23.623  1.00  0.00     0.047 A 
ATOM      6  C   UNL     1      24.057   7.889  23.119  1.00  0.00     0.011 A 
ENDROOT
BRANCH   1   7
ATOM      7  C   UNL     1      24.444  10.041  21.885  1.00  0.00     0.036 C 
ATOM      8  C   UNL     1      25.895   9.574  21.932  1.00  0.00     0.009 C 
ENDBRANCH   1   7
BRANCH   2   9
ATOM      9  O   UNL     1      21.491  10.089  21.540  1.00  0.00    -0.508 OA
ATOM     10  H   UNL     1      21.049  10.868  22.008  1.00  0.00     0.293 HD
ENDBRANCH   2   9
BRANCH   4  11
ATOM     11  O   UNL     1      21.043   5.924  23.931  1.00  0.00    -0.508 OA
ATOM     12  H   UNL     1      21.117   4.970  23.598  1.00  0.00     0.293 HD
ENDBRANCH   4  11
TORSDOF 3
ENDMDL
MODEL 4
REMARK VINA RESULT:    -4.616      5.061      6.221
REMARK INTER + INTRA:          -5.241
REMARK INTER:                  -5.155
REMARK INTRA:                  -0.085
REMARK UNBOUND:                -0.085
REMARK SMILES CCc1ccc(O)cc1O
REMARK SMILES IDX 3 1 9 2 8 3 6 4 5 5 4 6 2 7 1 8 10 9 7 11
REMARK H PARENT 10 10 7 12
REMARK Flexibility Score: inf
ROOT
ATOM      1  C   UNL     1      25.262   7.177  19.238  1.00  0.00    -0.006 A 
ATOM      2  C   UNL     1      24.248   7.523  18.310  1.00  0.00     0.122 A 
ATOM      3  C   UNL     1      23.151   8.285  18.735  1.00  0.00     0.092 A 
ATOM      4  C   UNL     1      23.056   8.721  20.061  1.00  0.00     0.119 A 
ATOM      5  C   UNL     1      24.063   8.397  20.971  1.00  0.00     0.047 A 
ATOM      6  C   UNL     1      25.160   7.635  20.564  1.00  0.00     0.011 A 
ENDROOT
BRANCH   1   7
ATOM      7  C   UNL     1      26.474   6.368  18.840  1.00  0.00     0.036 C 
ATOM      8  C   UNL     1      27.533   6.394  19.938  1.00  0.00     0.009 C 
ENDBRANCH   1   7
BRANCH   2   9
ATOM      9  O   UNL     1      24.295   7.137  16.969  1.00  0.00    -0.508 OA
ATOM     10  H   UNL     1      24.071   7.754  16.201  1.00  0.00     0.293 HD
ENDBRANCH   2   9
BRANCH   4  11
ATOM     11  O   UNL     1      21.966   9.480  20.483  1.00  0.00    -0.508 OA
ATOM     12  H   UNL     1      22.069  10.453  20.747  1.00  0.00     0.293 HD
ENDBRANCH   4  11
TORSDOF 3
ENDMDL
MODEL 5
REMARK VINA RESULT:    -4.614      5.155      5.870
REMARK INTER + INTRA:          -5.239
REMARK INTER:                  -5.154
REMARK INTRA:                  -0.085
REMARK UNBOUND:                -0.085
REMARK SMILES CCc1ccc(O)cc1O
REMARK SMILES IDX 3 1 9 2 8 3 6 4 5 5 4 6 2 7 1 8 10 9 7 11
REMARK H PARENT 10 10 7 12
REMARK Flexibility Score: inf
ROOT
ATOM      1  C   UNL     1      25.810   6.901  19.517  1.00  0.00    -0.006 A 
ATOM      2  C   UNL     1      24.834   7.586  20.284  1.00  0.00     0.122 A 
ATOM      3  C   UNL     1      23.749   8.195  19.640  1.00  0.00     0.092 A 
ATOM      4  C   UNL     1      23.612   8.121  18.249  1.00  0.00     0.119 A 
ATOM      5  C   UNL     1      24.563   7.432  17.494  1.00  0.00     0.047 A 
ATOM      6  C   UNL     1      25.651   6.823  18.122  1.00  0.00     0.011 A 
ENDROOT
BRANCH   1   7
ATOM      7  C   UNL     1      26.997   6.215  20.153  1.00  0.00     0.036 C 
ATOM      8  C   UNL     1      28.250   6.392  19.302  1.00  0.00     0.009 C 
ENDBRANCH   1   7
BRANCH   2   9
ATOM      9  O   UNL     1      24.903   7.677  21.676  1.00  0.00    -0.508 OA
ATOM     10  H   UNL     1      24.237   7.241  22.298  1.00  0.00     0.293 HD
ENDBRANCH   2   9
BRANCH   4  11
ATOM     11  O   UNL     1      22.532   8.726  17.608  1.00  0.00    -0.508 OA
ATOM     12  H   UNL     1      22.587   9.676  17.261  1.00  0.00     0.293 HD
ENDBRANCH   4  11
TORSDOF 3
ENDMDL
MODEL 6
REMARK VINA RESULT:    -4.609      1.507      3.689
REMARK INTER + INTRA:          -5.233
REMARK INTER:                  -5.149
REMARK INTRA:                  -0.084
REMARK UNBOUND:                -0.085
REMARK SMILES CCc1ccc(O)cc1O
REMARK SMILES IDX 3 1 9 2 8 3 6 4 5 5 4 6 2 7 1 8 10 9 7 11
REMARK H PARENT 10 10 7 12
REMARK Flexibility Score: inf
ROOT
ATOM      1  C   UNL     1      23.336   3.847  22.382  1.00  0.00    -0.006 A 
ATOM      2  C   UNL     1      22.392   3.749  23.436  1.00  0.00     0.122 A 
ATOM      3  C   UNL     1      22.509   4.589  24.551  1.00  0.00     0.092 A 
ATOM      4  C   UNL     1      23.537   5.535  24.628  1.00  0.00     0.119 A 
ATOM      5  C   UNL     1      24.456   5.645  23.583  1.00  0.00     0.047 A 
ATOM      6  C   UNL     1      24.355   4.812  22.467  1.00  0.00     0.011 A 
ENDROOT
BRANCH   1   7
ATOM      7  C   UNL     1      23.258   2.978  21.149  1.00  0.00     0.036 C 
ATOM      8  C   UNL     1      24.653   2.606  20.655  1.00  0.00     0.009 C 
ENDBRANCH   1   7
BRANCH   2   9
ATOM      9  O   UNL     1      21.331   2.841  23.409  1.00  0.00    -0.508 OA
ATOM     10  H   UNL     1      20.427   3.049  23.010  1.00  0.00     0.293 HD
ENDBRANCH   2   9
BRANCH   4  11
ATOM     11  O   UNL     1      23.652   6.371  25.736  1.00  0.00    -0.508 OA
ATOM     12  H   UNL     1      23.085   7.205  25.831  1.00  0.00     0.293 HD
ENDBRANCH   4  11
TORSDOF 3
ENDMDL
MODEL 7
REMARK VINA RESULT:    -4.606      5.432      6.068
REMARK INTER + INTRA:          -5.230
REMARK INTER:                  -5.146
REMARK INTRA:                  -0.085
REMARK UNBOUND:                -0.085
REMARK SMILES CCc1ccc(O)cc1O
REMARK SMILES IDX 3 1 9 2 8 3 6 4 5 5 4 6 2 7 1 8 10 9 7 11
REMARK H PARENT 10 10 7 12
REMARK Flexibility Score: inf
ROOT
ATOM      1  C   UNL     1      23.211   8.412  19.694  1.00  0.00    -0.006 A 
ATOM      2  C   UNL     1      23.172   8.260  18.285  1.00  0.00     0.122 A 
ATOM      3  C   UNL     1      24.220   7.600  17.630  1.00  0.00     0.092 A 
ATOM      4  C   UNL     1      25.298   7.077  18.354  1.00  0.00     0.119 A 
ATOM      5  C   UNL     1      25.329   7.211  19.743  1.00  0.00     0.047 A 
ATOM      6  C   UNL     1      24.293   7.869  20.409  1.00  0.00     0.011 A 
ENDROOT
BRANCH   1   7
ATOM      7  C   UNL     1      22.107   9.103  20.459  1.00  0.00     0.036 C 
ATOM      8  C   UNL     1      22.597   9.561  21.829  1.00  0.00     0.009 C 
ENDBRANCH   1   7
BRANCH   2   9
ATOM      9  O   UNL     1      22.115   8.740  17.508  1.00  0.00    -0.508 OA
ATOM     10  H   UNL     1      22.144   8.799  16.500  1.00  0.00     0.293 HD
ENDBRANCH   2   9
BRANCH   4  11
ATOM     11  O   UNL     1      26.339   6.421  17.703  1.00  0.00    -0.508 OA
ATOM     12  H   UNL     1      26.710   5.543  18.048  1.00  0.00     0.293 HD
ENDBRANCH   4  11
TORSDOF 3
ENDMDL
MODEL 8
REMARK VINA RESULT:    -4.601      4.378      5.174
REMARK INTER + INTRA:          -5.224
REMARK INTER:                  -5.138
REMARK INTRA:                  -0.086
REMARK UNBOUND:                -0.085
REMARK SMILES CCc1ccc(O)cc1O
REMARK SMILES IDX 3 1 9 2 8 3 6 4 5 5 4 6 2 7 1 8 10 9 7 11
REMARK H PARENT 10 10 7 12
REMARK Flexibility Score: inf
ROOT
ATOM      1  C   UNL     1      23.948   8.395  22.538  1.00  0.00    -0.006 A 
ATOM      2  C   UNL     1      23.460   9.679  22.188  1.00  0.00     0.122 A 
ATOM      3  C   UNL     1      22.082   9.928  22.216  1.00  0.00     0.092 A 
ATOM      4  C   UNL     1      21.183   8.926  22.600  1.00  0.00     0.119 A 
ATOM      5  C   UNL     1      21.664   7.666  22.962  1.00  0.00     0.047 A 
ATOM      6  C   UNL     1      23.035   7.403  22.936  1.00  0.00     0.011 A 
ENDROOT
BRANCH   1   7
ATOM      7  C   UNL     1      25.423   8.068  22.539  1.00  0.00     0.036 C 
ATOM      8  C   UNL     1      25.788   7.194  23.735  1.00  0.00     0.009 C 
ENDBRANCH   1   7
BRANCH   2   9
ATOM      9  O   UNL     1      24.306  10.727  21.817  1.00  0.00    -0.508 OA
ATOM     10  H   UNL     1      25.289  10.606  21.612  1.00  0.00     0.293 HD
ENDBRANCH   2   9
BRANCH   4  11
ATOM     11  O   UNL     1      19.813   9.173  22.629  1.00  0.00    -0.508 OA
ATOM     12  H   UNL     1      19.334   9.401  23.492  1.00  0.00     0.293 HD
ENDBRANCH   4  11
TORSDOF 3
ENDMDL
MODEL 9
REMARK VINA RESULT:    -4.457      3.082      4.675
REMARK INTER + INTRA:          -5.063
REMARK INTER:                  -4.957
REMARK INTRA:                  -0.106
REMARK UNBOUND:                -0.085
REMARK SMILES CCc1ccc(O)cc1O
REMARK SMILES IDX 3 1 9 2 8 3 6 4 5 5 4 6 2 7 1 8 10 9 7 11
REMARK H PARENT 10 10 7 12
REMARK Flexibility Score: inf
ROOT
ATOM      1  C   UNL     1      25.000   7.060  23.791  1.00  0.00    -0.006 A 
ATOM      2  C   UNL     1      24.835   6.704  25.154  1.00  0.00     0.122 A 
ATOM      3  C   UNL     1      25.938   6.740  26.017  1.00  0.00     0.092 A 
ATOM      4  C   UNL     1      27.196   7.139  25.552  1.00  0.00     0.119 A 
ATOM      5  C   UNL     1      27.356   7.507  24.215  1.00  0.00     0.047 A 
ATOM      6  C   UNL     1      26.267   7.472  23.342  1.00  0.00     0.011 A 
ENDROOT
BRANCH   1   7
ATOM      7  C   UNL     1      23.848   7.052  22.813  1.00  0.00     0.036 C 
ATOM      8  C   UNL     1      23.197   8.429  22.726  1.00  0.00     0.009 C 
ENDBRANCH   1   7
BRANCH   2   9
ATOM      9  O   UNL     1      23.602   6.319  25.684  1.00  0.00    -0.508 OA
ATOM     10  H   UNL     1      23.495   5.593  26.380  1.00  0.00     0.293 HD
ENDBRANCH   2   9
BRANCH   4  11
ATOM     11  O   UNL     1      28.293   7.176  26.411  1.00  0.00    -0.508 OA
ATOM     12  H   UNL     1      28.272   6.723  27.316  1.00  0.00     0.293 HD
ENDBRANCH   4  11
TORSDOF 3
ENDMDL
