MODEL 1
REMARK VINA RESULT:    -3.388      0.000      0.000
REMARK INTER + INTRA:          -5.527
REMARK INTER:                  -5.170
REMARK INTRA:                  -0.357
REMARK UNBOUND:                -0.357
REMARK SMILES CC1=CCC[C@H](C)C(=O)C[C@H](C(C)C)C(=O)C1
REMARK SMILES IDX 8 1 9 2 6 3 7 4 5 5 4 6 3 7 2 8 1 9 10 11 11 12 15 13 16 14
REMARK SMILES IDX 17 15 12 17 13 18 14 19
REMARK H PARENT
REMARK Flexibility Score: 70.00
ROOT
ATOM      1  C   UNL     1      -5.276  -4.352  15.268  1.00  0.00     0.136 C 
ATOM      2  O   UNL     1      -6.284  -4.898  14.842  1.00  0.00    -0.299 OA
ENDROOT
BRANCH   1   3
ATOM      3  C   UNL     1      -5.384  -3.434  16.470  1.00  0.00     0.053 C 
ATOM      4  C   UNL     1      -4.292  -3.755  17.498  1.00  0.00     0.016 C 
BRANCH   3   5
ATOM      5  C   UNL     1      -5.306  -1.955  16.000  1.00  0.00     0.015 C 
BRANCH   5   6
ATOM      6  C   UNL     1      -4.117  -1.154  16.565  1.00  0.00     0.028 C 
BRANCH   6   7
ATOM      7  C   UNL     1      -3.329  -0.335  15.564  1.00  0.00    -0.028 C 
ATOM      8  C   UNL     1      -2.328  -0.778  14.767  1.00  0.00    -0.070 CG0
ATOM      9  C   UNL     1      -1.617   0.227  13.895  1.00  0.00     0.039 C 
ATOM     10  G   UNL     1      -1.927  -2.237  14.656  1.00  0.00     0.000 G0
ENDBRANCH   6   7
ENDBRANCH   5   6
ENDBRANCH   3   5
ENDBRANCH   1   3
BRANCH   1  11
ATOM     11  C   UNL     1      -3.955  -4.618  14.575  1.00  0.00     0.087 C 
BRANCH  11  12
ATOM     12  C   UNL     1      -3.709  -3.732  13.323  1.00  0.00     0.066 C 
BRANCH  12  13
ATOM     13  C   UNL     1      -2.392  -2.958  13.408  1.00  0.00     0.140 C 
ATOM     14  O   UNL     1      -1.690  -2.881  12.410  1.00  0.00    -0.299 OA
BRANCH  13  15
ATOM     15  C   UNL     1      -1.910  -2.251  14.665  1.00  0.00     0.106 CG0
ATOM     16  G   UNL     1      -2.322  -0.794  14.761  1.00  0.00     0.000 G0
ENDBRANCH  13  15
ENDBRANCH  12  13
BRANCH  12  17
ATOM     17  C   UNL     1      -3.809  -4.505  11.971  1.00  0.00    -0.006 C 
ATOM     18  C   UNL     1      -5.248  -4.522  11.429  1.00  0.00     0.008 C 
ATOM     19  C   UNL     1      -3.249  -5.938  12.013  1.00  0.00     0.008 C 
ENDBRANCH  12  17
ENDBRANCH  11  12
ENDBRANCH   1  11
TORSDOF 1
ENDMDL
MODEL 2
REMARK VINA RESULT:    -3.365     10.907     12.145
REMARK INTER + INTRA:          -5.493
REMARK INTER:                  -5.346
REMARK INTRA:                  -0.147
REMARK UNBOUND:                -0.357
REMARK SMILES CC1=CCC[C@H](C)C(=O)C[C@H](C(C)C)C(=O)C1
REMARK SMILES IDX 8 1 9 2 6 3 7 4 5 5 4 6 3 7 2 8 1 9 10 11 11 12 15 13 16 14
REMARK SMILES IDX 17 15 12 17 13 18 14 19
REMARK H PARENT
REMARK Flexibility Score: 70.00
ROOT
ATOM      1  C   UNL     1      -5.503  -3.605   3.647  1.00  0.00     0.136 C 
ATOM      2  O   UNL     1      -5.553  -3.201   4.801  1.00  0.00    -0.299 OA
ENDROOT
BRANCH   1   3
ATOM      3  C   UNL     1      -6.580  -4.549   3.147  1.00  0.00     0.053 C 
ATOM      4  C   UNL     1      -6.751  -4.420   1.629  1.00  0.00     0.016 C 
BRANCH   3   5
ATOM      5  C   UNL     1      -6.224  -6.004   3.559  1.00  0.00     0.015 C 
BRANCH   5   6
ATOM      6  C   UNL     1      -5.198  -6.705   2.649  1.00  0.00     0.028 C 
BRANCH   6   7
ATOM      7  C   UNL     1      -3.919  -7.167   3.317  1.00  0.00    -0.028 C 
ATOM      8  C   UNL     1      -2.684  -6.637   3.152  1.00  0.00    -0.070 CG0
ATOM      9  C   UNL     1      -1.527  -7.302   3.854  1.00  0.00     0.039 C 
ATOM     10  G   UNL     1      -2.412  -5.376   2.355  1.00  0.00     0.000 G0
ENDBRANCH   6   7
ENDBRANCH   5   6
ENDBRANCH   3   5
ENDBRANCH   1   3
BRANCH   1  11
ATOM     11  C   UNL     1      -4.365  -3.142   2.762  1.00  0.00     0.087 C 
BRANCH  11  12
ATOM     12  C   UNL     1      -3.009  -2.985   3.506  1.00  0.00     0.066 C 
BRANCH  12  13
ATOM     13  C   UNL     1      -2.053  -4.144   3.222  1.00  0.00     0.140 C 
ATOM     14  O   UNL     1      -0.936  -4.120   3.719  1.00  0.00    -0.299 OA
BRANCH  13  15
ATOM     15  C   UNL     1      -2.419  -5.350   2.371  1.00  0.00     0.106 CG0
ATOM     16  G   UNL     1      -2.674  -6.620   3.160  1.00  0.00     0.000 G0
ENDBRANCH  13  15
ENDBRANCH  12  13
BRANCH  12  17
ATOM     17  C   UNL     1      -2.306  -1.614   3.258  1.00  0.00    -0.006 C 
ATOM     18  C   UNL     1      -2.867  -0.511   4.170  1.00  0.00     0.008 C 
ATOM     19  C   UNL     1      -2.327  -1.143   1.793  1.00  0.00     0.008 C 
ENDBRANCH  12  17
ENDBRANCH  11  12
ENDBRANCH   1  11
TORSDOF 1
ENDMDL
MODEL 3
REMARK VINA RESULT:    -3.295      1.795      3.962
REMARK INTER + INTRA:          -5.386
REMARK INTER:                  -5.234
REMARK INTRA:                  -0.151
REMARK UNBOUND:                -0.357
REMARK SMILES CC1=CCC[C@H](C)C(=O)C[C@H](C(C)C)C(=O)C1
REMARK SMILES IDX 8 1 9 2 6 3 7 4 5 5 4 6 3 7 2 8 1 9 10 11 11 12 15 13 16 14
REMARK SMILES IDX 17 15 12 17 13 18 14 19
REMARK H PARENT
REMARK Flexibility Score: 70.00
ROOT
ATOM      1  C   UNL     1      -2.475  -4.531  12.244  1.00  0.00     0.136 C 
ATOM      2  O   UNL     1      -2.198  -5.693  11.984  1.00  0.00    -0.299 OA
ENDROOT
BRANCH   1   3
ATOM      3  C   UNL     1      -1.377  -3.485  12.221  1.00  0.00     0.053 C 
ATOM      4  C   UNL     1      -0.948  -3.181  10.781  1.00  0.00     0.016 C 
BRANCH   3   5
ATOM      5  C   UNL     1      -1.867  -2.205  12.952  1.00  0.00     0.015 C 
BRANCH   5   6
ATOM      6  C   UNL     1      -1.750  -2.247  14.487  1.00  0.00     0.028 C 
BRANCH   6   7
ATOM      7  C   UNL     1      -2.956  -1.755  15.262  1.00  0.00    -0.028 C 
ATOM      8  C   UNL     1      -3.950  -2.516  15.778  1.00  0.00    -0.070 CG0
ATOM      9  C   UNL     1      -5.106  -1.816  16.448  1.00  0.00     0.039 C 
ATOM     10  G   UNL     1      -3.932  -4.033  15.776  1.00  0.00     0.000 G0
ENDBRANCH   6   7
ENDBRANCH   5   6
ENDBRANCH   3   5
ENDBRANCH   1   3
BRANCH   1  11
ATOM     11  C   UNL     1      -3.911  -4.182  12.577  1.00  0.00     0.087 C 
BRANCH  11  12
ATOM     12  C   UNL     1      -4.629  -5.238  13.462  1.00  0.00     0.066 C 
BRANCH  12  13
ATOM     13  C   UNL     1      -4.960  -4.701  14.854  1.00  0.00     0.140 C 
ATOM     14  O   UNL     1      -6.105  -4.814  15.271  1.00  0.00    -0.299 OA
BRANCH  13  15
ATOM     15  C   UNL     1      -3.938  -4.051  15.773  1.00  0.00     0.106 CG0
ATOM     16  G   UNL     1      -3.958  -2.535  15.759  1.00  0.00     0.000 G0
ENDBRANCH  13  15
ENDBRANCH  12  13
BRANCH  12  17
ATOM     17  C   UNL     1      -5.893  -5.868  12.796  1.00  0.00    -0.006 C 
ATOM     18  C   UNL     1      -5.846  -7.404  12.822  1.00  0.00     0.008 C 
ATOM     19  C   UNL     1      -6.170  -5.376  11.364  1.00  0.00     0.008 C 
ENDBRANCH  12  17
ENDBRANCH  11  12
ENDBRANCH   1  11
TORSDOF 1
ENDMDL
MODEL 4
REMARK VINA RESULT:    -3.251      8.818     10.341
REMARK INTER + INTRA:          -5.318
REMARK INTER:                  -4.991
REMARK INTRA:                  -0.328
REMARK UNBOUND:                -0.357
REMARK SMILES CC1=CCC[C@H](C)C(=O)C[C@H](C(C)C)C(=O)C1
REMARK SMILES IDX 8 1 9 2 6 3 7 4 5 5 4 6 3 7 2 8 1 9 10 11 11 12 15 13 16 14
REMARK SMILES IDX 17 15 12 17 13 18 14 19
REMARK H PARENT
REMARK Flexibility Score: 70.00
ROOT
ATOM      1  C   UNL     1       0.234  -4.922   5.475  1.00  0.00     0.136 C 
ATOM      2  O   UNL     1       0.198  -6.140   5.580  1.00  0.00    -0.299 OA
ENDROOT
BRANCH   1   3
ATOM      3  C   UNL     1       0.585  -4.085   6.690  1.00  0.00     0.053 C 
ATOM      4  C   UNL     1       0.966  -4.981   7.874  1.00  0.00     0.016 C 
BRANCH   3   5
ATOM      5  C   UNL     1       1.733  -3.103   6.327  1.00  0.00     0.015 C 
BRANCH   5   6
ATOM      6  C   UNL     1       1.297  -1.639   6.127  1.00  0.00     0.028 C 
BRANCH   6   7
ATOM      7  C   UNL     1      -0.132  -1.310   6.507  1.00  0.00    -0.028 C 
ATOM      8  C   UNL     1      -1.184  -1.186   5.664  1.00  0.00    -0.070 CG0
ATOM      9  C   UNL     1      -2.514  -0.772   6.244  1.00  0.00     0.039 C 
ATOM     10  G   UNL     1      -1.114  -1.501   4.182  1.00  0.00     0.000 G0
ENDBRANCH   6   7
ENDBRANCH   5   6
ENDBRANCH   3   5
ENDBRANCH   1   3
BRANCH   1  11
ATOM     11  C   UNL     1      -0.073  -4.297   4.130  1.00  0.00     0.087 C 
BRANCH  11  12
ATOM     12  C   UNL     1      -1.592  -4.131   3.842  1.00  0.00     0.066 C 
BRANCH  12  13
ATOM     13  C   UNL     1      -2.000  -2.664   3.707  1.00  0.00     0.140 C 
ATOM     14  O   UNL     1      -3.095  -2.400   3.231  1.00  0.00    -0.299 OA
BRANCH  13  15
ATOM     15  C   UNL     1      -1.129  -1.502   4.157  1.00  0.00     0.106 CG0
ATOM     16  G   UNL     1      -1.186  -1.216   5.646  1.00  0.00     0.000 G0
ENDBRANCH  13  15
ENDBRANCH  12  13
BRANCH  12  17
ATOM     17  C   UNL     1      -2.099  -4.962   2.621  1.00  0.00    -0.006 C 
ATOM     18  C   UNL     1      -2.184  -6.461   2.948  1.00  0.00     0.008 C 
ATOM     19  C   UNL     1      -1.290  -4.752   1.329  1.00  0.00     0.008 C 
ENDBRANCH  12  17
ENDBRANCH  11  12
ENDBRANCH   1  11
TORSDOF 1
ENDMDL
MODEL 5
REMARK VINA RESULT:    -3.161      4.678      6.296
REMARK INTER + INTRA:          -5.182
REMARK INTER:                  -4.795
REMARK INTRA:                  -0.386
REMARK UNBOUND:                -0.357
REMARK SMILES CC1=CCC[C@H](C)C(=O)C[C@H](C(C)C)C(=O)C1
REMARK SMILES IDX 8 1 9 2 6 3 7 4 5 5 4 6 3 7 2 8 1 9 10 11 11 12 15 13 16 14
REMARK SMILES IDX 17 15 12 17 13 18 14 19
REMARK H PARENT
REMARK Flexibility Score: 70.00
ROOT
ATOM      1  C   UNL     1       1.998  -1.673  18.837  1.00  0.00     0.136 C 
ATOM      2  O   UNL     1       2.699  -1.227  19.734  1.00  0.00    -0.299 OA
ENDROOT
BRANCH   1   3
ATOM      3  C   UNL     1       1.113  -2.873  19.116  1.00  0.00     0.053 C 
ATOM      4  C   UNL     1       1.959  -4.135  19.324  1.00  0.00     0.016 C 
BRANCH   3   5
ATOM      5  C   UNL     1       0.218  -2.579  20.352  1.00  0.00     0.015 C 
BRANCH   5   6
ATOM      6  C   UNL     1      -1.241  -2.211  20.025  1.00  0.00     0.028 C 
BRANCH   6   7
ATOM      7  C   UNL     1      -1.480  -0.796  19.537  1.00  0.00    -0.028 C 
ATOM      8  C   UNL     1      -1.477  -0.374  18.251  1.00  0.00    -0.070 CG0
ATOM      9  C   UNL     1      -1.658   1.100  17.987  1.00  0.00     0.039 C 
ATOM     10  G   UNL     1      -1.370  -1.309  17.061  1.00  0.00     0.000 G0
ENDBRANCH   6   7
ENDBRANCH   5   6
ENDBRANCH   3   5
ENDBRANCH   1   3
BRANCH   1  11
ATOM     11  C   UNL     1       2.041  -1.005  17.478  1.00  0.00     0.087 C 
BRANCH  11  12
ATOM     12  C   UNL     1       1.203  -1.731  16.390  1.00  0.00     0.066 C 
BRANCH  12  13
ATOM     13  C   UNL     1      -0.155  -1.066  16.163  1.00  0.00     0.140 C 
ATOM     14  O   UNL     1      -0.292  -0.320  15.204  1.00  0.00    -0.299 OA
BRANCH  13  15
ATOM     15  C   UNL     1      -1.367  -1.298  17.052  1.00  0.00     0.106 CG0
ATOM     16  G   UNL     1      -1.460  -0.361  18.241  1.00  0.00     0.000 G0
ENDBRANCH  13  15
ENDBRANCH  12  13
BRANCH  12  17
ATOM     17  C   UNL     1       1.956  -1.927  15.037  1.00  0.00    -0.006 C 
ATOM     18  C   UNL     1       2.434  -3.376  14.855  1.00  0.00     0.008 C 
ATOM     19  C   UNL     1       3.130  -0.957  14.815  1.00  0.00     0.008 C 
ENDBRANCH  12  17
ENDBRANCH  11  12
ENDBRANCH   1  11
TORSDOF 1
ENDMDL
MODEL 6
REMARK VINA RESULT:    -3.101      6.028      7.597
REMARK INTER + INTRA:          -5.089
REMARK INTER:                  -4.692
REMARK INTRA:                  -0.397
REMARK UNBOUND:                -0.357
REMARK SMILES CC1=CCC[C@H](C)C(=O)C[C@H](C(C)C)C(=O)C1
REMARK SMILES IDX 8 1 9 2 6 3 7 4 5 5 4 6 3 7 2 8 1 9 10 11 11 12 15 13 16 14
REMARK SMILES IDX 17 15 12 17 13 18 14 19
REMARK H PARENT
REMARK Flexibility Score: 70.00
ROOT
ATOM      1  C   UNL     1       1.584  -1.231  16.299  1.00  0.00     0.136 C 
ATOM      2  O   UNL     1       0.588  -1.094  15.604  1.00  0.00    -0.299 OA
ENDROOT
BRANCH   1   3
ATOM      3  C   UNL     1       2.777  -0.323  16.071  1.00  0.00     0.053 C 
ATOM      4  C   UNL     1       3.462  -0.651  14.739  1.00  0.00     0.016 C 
BRANCH   3   5
ATOM      5  C   UNL     1       2.315   1.160  16.123  1.00  0.00     0.015 C 
BRANCH   5   6
ATOM      6  C   UNL     1       1.890   1.660  17.516  1.00  0.00     0.028 C 
BRANCH   6   7
ATOM      7  C   UNL     1       0.409   1.911  17.712  1.00  0.00    -0.028 C 
ATOM      8  C   UNL     1      -0.407   1.284  18.592  1.00  0.00    -0.070 CG0
ATOM      9  C   UNL     1      -1.875   1.629  18.569  1.00  0.00     0.039 C 
ATOM     10  G   UNL     1       0.084   0.303  19.639  1.00  0.00     0.000 G0
ENDBRANCH   6   7
ENDBRANCH   5   6
ENDBRANCH   3   5
ENDBRANCH   1   3
BRANCH   1  11
ATOM     11  C   UNL     1       1.584  -2.306  17.366  1.00  0.00     0.087 C 
BRANCH  11  12
ATOM     12  C   UNL     1       1.564  -1.755  18.819  1.00  0.00     0.066 C 
BRANCH  12  13
ATOM     13  C   UNL     1       0.221  -1.121  19.182  1.00  0.00     0.140 C 
ATOM     14  O   UNL     1      -0.791  -1.802  19.101  1.00  0.00    -0.299 OA
BRANCH  13  15
ATOM     15  C   UNL     1       0.068   0.312  19.666  1.00  0.00     0.106 CG0
ATOM     16  G   UNL     1      -0.392   1.288  18.600  1.00  0.00     0.000 G0
ENDBRANCH  13  15
ENDBRANCH  12  13
BRANCH  12  17
ATOM     17  C   UNL     1       1.993  -2.798  19.898  1.00  0.00    -0.006 C 
ATOM     18  C   UNL     1       3.150  -2.277  20.767  1.00  0.00     0.008 C 
ATOM     19  C   UNL     1       2.345  -4.187  19.337  1.00  0.00     0.008 C 
ENDBRANCH  12  17
ENDBRANCH  11  12
ENDBRANCH   1  11
TORSDOF 1
ENDMDL
MODEL 7
REMARK VINA RESULT:    -3.071      5.270      7.219
REMARK INTER + INTRA:          -5.044
REMARK INTER:                  -4.510
REMARK INTRA:                  -0.534
REMARK UNBOUND:                -0.357
REMARK SMILES CC1=CCC[C@H](C)C(=O)C[C@H](C(C)C)C(=O)C1
REMARK SMILES IDX 8 1 9 2 6 3 7 4 5 5 4 6 3 7 2 8 1 9 10 11 11 12 15 13 16 14
REMARK SMILES IDX 17 15 12 17 13 18 14 19
REMARK H PARENT
REMARK Flexibility Score: 70.00
ROOT
ATOM      1  C   UNL     1      -1.788   2.390  19.051  1.00  0.00     0.136 C 
ATOM      2  O   UNL     1      -2.510   2.193  20.018  1.00  0.00    -0.299 OA
ENDROOT
BRANCH   1   3
ATOM      3  C   UNL     1      -1.112   3.738  18.895  1.00  0.00     0.053 C 
ATOM      4  C   UNL     1      -2.118   4.876  19.099  1.00  0.00     0.016 C 
BRANCH   3   5
ATOM      5  C   UNL     1       0.073   3.841  19.895  1.00  0.00     0.015 C 
BRANCH   5   6
ATOM      6  C   UNL     1       1.234   2.863  19.630  1.00  0.00     0.028 C 
BRANCH   6   7
ATOM      7  C   UNL     1       2.060   3.129  18.388  1.00  0.00    -0.028 C 
ATOM      8  C   UNL     1       2.133   2.348  17.284  1.00  0.00    -0.070 CG0
ATOM      9  C   UNL     1       3.083   2.757  16.187  1.00  0.00     0.039 C 
ATOM     10  G   UNL     1       1.266   1.123  17.065  1.00  0.00     0.000 G0
ENDBRANCH   6   7
ENDBRANCH   5   6
ENDBRANCH   3   5
ENDBRANCH   1   3
BRANCH   1  11
ATOM     11  C   UNL     1      -1.596   1.273  18.046  1.00  0.00     0.087 C 
BRANCH  11  12
ATOM     12  C   UNL     1      -1.287   1.766  16.605  1.00  0.00     0.066 C 
BRANCH  12  13
ATOM     13  C   UNL     1       0.091   1.315  16.120  1.00  0.00     0.140 C 
ATOM     14  O   UNL     1       0.263   1.132  14.923  1.00  0.00    -0.299 OA
BRANCH  13  15
ATOM     15  C   UNL     1       1.282   1.103  17.042  1.00  0.00     0.106 CG0
ATOM     16  G   UNL     1       2.125   2.342  17.271  1.00  0.00     0.000 G0
ENDBRANCH  13  15
ENDBRANCH  12  13
BRANCH  12  17
ATOM     17  C   UNL     1      -2.388   1.400  15.561  1.00  0.00    -0.006 C 
ATOM     18  C   UNL     1      -3.308   2.594  15.260  1.00  0.00     0.008 C 
ATOM     19  C   UNL     1      -3.233   0.168  15.932  1.00  0.00     0.008 C 
ENDBRANCH  12  17
ENDBRANCH  11  12
ENDBRANCH   1  11
TORSDOF 1
ENDMDL
MODEL 8
REMARK VINA RESULT:    -3.058      5.923      8.041
REMARK INTER + INTRA:          -5.025
REMARK INTER:                  -5.039
REMARK INTRA:                   0.014
REMARK UNBOUND:                -0.357
REMARK SMILES CC1=CCC[C@H](C)C(=O)C[C@H](C(C)C)C(=O)C1
REMARK SMILES IDX 8 1 9 2 6 3 7 4 5 5 4 6 3 7 2 8 1 9 10 11 11 12 15 13 16 14
REMARK SMILES IDX 17 15 12 17 13 18 14 19
REMARK H PARENT
REMARK Flexibility Score: 70.00
ROOT
ATOM      1  C   UNL     1       2.561  -0.882  15.231  1.00  0.00     0.136 C 
ATOM      2  O   UNL     1       2.831  -0.675  14.056  1.00  0.00    -0.299 OA
ENDROOT
BRANCH   1   3
ATOM      3  C   UNL     1       1.736  -2.101  15.597  1.00  0.00     0.053 C 
ATOM      4  C   UNL     1       2.415  -3.384  15.104  1.00  0.00     0.016 C 
BRANCH   3   5
ATOM      5  C   UNL     1       1.511  -2.130  17.134  1.00  0.00     0.015 C 
BRANCH   5   6
ATOM      6  C   UNL     1       0.180  -1.517  17.608  1.00  0.00     0.028 C 
BRANCH   6   7
ATOM      7  C   UNL     1       0.260  -0.594  18.807  1.00  0.00    -0.028 C 
ATOM      8  C   UNL     1       0.438   0.748  18.782  1.00  0.00    -0.070 CG0
ATOM      9  C   UNL     1       0.570   1.471  20.099  1.00  0.00     0.039 C 
ATOM     10  G   UNL     1       0.445   1.570  17.507  1.00  0.00     0.000 G0
ENDBRANCH   6   7
ENDBRANCH   5   6
ENDBRANCH   3   5
ENDBRANCH   1   3
BRANCH   1  11
ATOM     11  C   UNL     1       3.068   0.090  16.276  1.00  0.00     0.087 C 
BRANCH  11  12
ATOM     12  C   UNL     1       2.678   1.570  16.004  1.00  0.00     0.066 C 
BRANCH  12  13
ATOM     13  C   UNL     1       1.801   2.153  17.112  1.00  0.00     0.140 C 
ATOM     14  O   UNL     1       2.192   3.143  17.713  1.00  0.00    -0.299 OA
BRANCH  13  15
ATOM     15  C   UNL     1       0.444   1.585  17.499  1.00  0.00     0.106 CG0
ATOM     16  G   UNL     1       0.451   0.757  18.769  1.00  0.00     0.000 G0
ENDBRANCH  13  15
ENDBRANCH  12  13
BRANCH  12  17
ATOM     17  C   UNL     1       3.897   2.502  15.715  1.00  0.00    -0.006 C 
ATOM     18  C   UNL     1       3.491   3.729  14.883  1.00  0.00     0.008 C 
ATOM     19  C   UNL     1       5.096   1.797  15.057  1.00  0.00     0.008 C 
ENDBRANCH  12  17
ENDBRANCH  11  12
ENDBRANCH   1  11
TORSDOF 1
ENDMDL
MODEL 9
REMARK VINA RESULT:    -2.891      8.330     10.530
REMARK INTER + INTRA:          -4.769
REMARK INTER:                  -4.348
REMARK INTRA:                  -0.421
REMARK UNBOUND:                -0.357
REMARK SMILES CC1=CCC[C@H](C)C(=O)C[C@H](C(C)C)C(=O)C1
REMARK SMILES IDX 8 1 9 2 6 3 7 4 5 5 4 6 3 7 2 8 1 9 10 11 11 12 15 13 16 14
REMARK SMILES IDX 17 15 12 17 13 18 14 19
REMARK H PARENT
REMARK Flexibility Score: 70.00
ROOT
ATOM      1  C   UNL     1      -4.848  -1.451   3.923  1.00  0.00     0.136 C 
ATOM      2  O   UNL     1      -5.286  -1.057   2.851  1.00  0.00    -0.299 OA
ENDROOT
BRANCH   1   3
ATOM      3  C   UNL     1      -4.452  -2.907   4.070  1.00  0.00     0.053 C 
ATOM      4  C   UNL     1      -5.683  -3.816   3.979  1.00  0.00     0.016 C 
BRANCH   3   5
ATOM      5  C   UNL     1      -3.397  -3.268   2.988  1.00  0.00     0.015 C 
BRANCH   5   6
ATOM      6  C   UNL     1      -1.934  -3.229   3.467  1.00  0.00     0.028 C 
BRANCH   6   7
ATOM      7  C   UNL     1      -1.121  -2.027   3.030  1.00  0.00    -0.028 C 
ATOM      8  C   UNL     1      -0.761  -0.973   3.801  1.00  0.00    -0.070 CG0
ATOM      9  C   UNL     1      -0.016   0.163   3.146  1.00  0.00     0.039 C 
ATOM     10  G   UNL     1      -1.008  -0.903   5.295  1.00  0.00     0.000 G0
ENDBRANCH   6   7
ENDBRANCH   5   6
ENDBRANCH   3   5
ENDBRANCH   1   3
BRANCH   1  11
ATOM     11  C   UNL     1      -4.716  -0.462   5.063  1.00  0.00     0.087 C 
BRANCH  11  12
ATOM     12  C   UNL     1      -3.582  -0.805   6.069  1.00  0.00     0.066 C 
BRANCH  12  13
ATOM     13  C   UNL     1      -2.257  -0.136   5.700  1.00  0.00     0.140 C 
ATOM     14  O   UNL     1      -2.182   1.083   5.745  1.00  0.00    -0.299 OA
BRANCH  13  15
ATOM     15  C   UNL     1      -1.007  -0.905   5.300  1.00  0.00     0.106 CG0
ATOM     16  G   UNL     1      -0.763  -0.970   3.805  1.00  0.00     0.000 G0
ENDBRANCH  13  15
ENDBRANCH  12  13
BRANCH  12  17
ATOM     17  C   UNL     1      -3.949  -0.521   7.559  1.00  0.00    -0.006 C 
ATOM     18  C   UNL     1      -3.255  -1.504   8.515  1.00  0.00     0.008 C 
ATOM     19  C   UNL     1      -5.461  -0.490   7.847  1.00  0.00     0.008 C 
ENDBRANCH  12  17
ENDBRANCH  11  12
ENDBRANCH   1  11
TORSDOF 1
ENDMDL
