MODEL 1
REMARK VINA RESULT:    -5.917      0.000      0.000
REMARK INTER + INTRA:          -8.071
REMARK INTER:                  -7.474
REMARK INTRA:                  -0.597
REMARK UNBOUND:                -0.597
REMARK SMILES O=C(C=Cc1ccc(O)cc1)c1ccc(O)cc1O
REMARK SMILES IDX 4 1 3 2 5 3 6 4 7 5 8 6 11 7 10 8 9 9 2 11 1 12 12 13 18 14
REMARK SMILES IDX 13 15 17 16 14 17 15 18 19 19 16 21
REMARK H PARENT 9 10 19 20 16 22
REMARK Flexibility Score: inf
ROOT
ATOM      1  C   UNL     1      22.628  30.035  21.484  1.00  0.00     0.012 C 
ATOM      2  C   UNL     1      21.943  29.276  22.352  1.00  0.00     0.053 C 
ENDROOT
BRANCH   1   3
ATOM      3  C   UNL     1      22.364  30.064  20.025  1.00  0.00    -0.025 A 
ATOM      4  C   UNL     1      23.425  29.785  19.145  1.00  0.00     0.012 A 
ATOM      5  C   UNL     1      23.222  29.792  17.761  1.00  0.00     0.047 A 
ATOM      6  C   UNL     1      21.954  30.068  17.237  1.00  0.00     0.115 A 
ATOM      7  C   UNL     1      21.087  30.327  19.488  1.00  0.00     0.012 A 
ATOM      8  C   UNL     1      20.889  30.332  18.103  1.00  0.00     0.047 A 
BRANCH   6   9
ATOM      9  O   UNL     1      21.741  30.078  15.861  1.00  0.00    -0.508 OA
ATOM     10  H   UNL     1      22.234  29.444  15.243  1.00  0.00     0.293 HD
ENDBRANCH   6   9
ENDBRANCH   1   3
BRANCH   2  11
ATOM     11  C   UNL     1      22.221  29.264  23.804  1.00  0.00     0.189 C 
ATOM     12  O   UNL     1      22.391  30.367  24.390  1.00  0.00    -0.289 OA
BRANCH  11  13
ATOM     13  C   UNL     1      22.352  28.013  24.583  1.00  0.00     0.064 A 
ATOM     14  C   UNL     1      22.072  27.969  25.969  1.00  0.00     0.130 A 
ATOM     15  C   UNL     1      22.813  26.851  23.940  1.00  0.00     0.020 A 
ATOM     16  C   UNL     1      22.267  26.778  26.679  1.00  0.00     0.093 A 
ATOM     17  C   UNL     1      22.995  25.667  24.656  1.00  0.00     0.047 A 
ATOM     18  C   UNL     1      22.725  25.627  26.026  1.00  0.00     0.119 A 
BRANCH  14  19
ATOM     19  O   UNL     1      21.581  29.078  26.662  1.00  0.00    -0.507 OA
ATOM     20  H   UNL     1      21.781  29.250  27.639  1.00  0.00     0.293 HD
ENDBRANCH  14  19
BRANCH  18  21
ATOM     21  O   UNL     1      22.915  24.439  26.729  1.00  0.00    -0.508 OA
ATOM     22  H   UNL     1      23.163  24.439  27.712  1.00  0.00     0.293 HD
ENDBRANCH  18  21
ENDBRANCH  11  13
ENDBRANCH   2  11
TORSDOF 6
ENDMDL
MODEL 2
REMARK VINA RESULT:    -5.671      2.188      2.896
REMARK INTER + INTRA:          -7.760
REMARK INTER:                  -7.448
REMARK INTRA:                  -0.312
REMARK UNBOUND:                -0.597
REMARK SMILES O=C(C=Cc1ccc(O)cc1)c1ccc(O)cc1O
REMARK SMILES IDX 4 1 3 2 5 3 6 4 7 5 8 6 11 7 10 8 9 9 2 11 1 12 12 13 18 14
REMARK SMILES IDX 13 15 17 16 14 17 15 18 19 19 16 21
REMARK H PARENT 9 10 19 20 16 22
REMARK Flexibility Score: inf
ROOT
ATOM      1  C   UNL     1      22.838  29.296  21.037  1.00  0.00     0.012 C 
ATOM      2  C   UNL     1      22.027  29.338  22.104  1.00  0.00     0.053 C 
ENDROOT
BRANCH   1   3
ATOM      3  C   UNL     1      22.431  29.714  19.673  1.00  0.00    -0.025 A 
ATOM      4  C   UNL     1      23.375  29.626  18.634  1.00  0.00     0.012 A 
ATOM      5  C   UNL     1      23.034  30.001  17.331  1.00  0.00     0.047 A 
ATOM      6  C   UNL     1      21.743  30.458  17.044  1.00  0.00     0.115 A 
ATOM      7  C   UNL     1      21.129  30.162  19.372  1.00  0.00     0.012 A 
ATOM      8  C   UNL     1      20.792  30.534  18.066  1.00  0.00     0.047 A 
BRANCH   6   9
ATOM      9  O   UNL     1      21.394  30.834  15.749  1.00  0.00    -0.508 OA
ATOM     10  H   UNL     1      20.527  30.526  15.323  1.00  0.00     0.293 HD
ENDBRANCH   6   9
ENDBRANCH   1   3
BRANCH   2  11
ATOM     11  C   UNL     1      22.454  28.919  23.456  1.00  0.00     0.189 C 
ATOM     12  O   UNL     1      23.497  28.219  23.564  1.00  0.00    -0.289 OA
BRANCH  11  13
ATOM     13  C   UNL     1      21.685  29.249  24.676  1.00  0.00     0.064 A 
ATOM     14  C   UNL     1      20.365  28.778  24.872  1.00  0.00     0.130 A 
ATOM     15  C   UNL     1      22.264  30.090  25.643  1.00  0.00     0.020 A 
ATOM     16  C   UNL     1      19.653  29.165  26.014  1.00  0.00     0.093 A 
ATOM     17  C   UNL     1      21.547  30.461  26.783  1.00  0.00     0.047 A 
ATOM     18  C   UNL     1      20.241  30.002  26.971  1.00  0.00     0.119 A 
BRANCH  14  19
ATOM     19  O   UNL     1      19.744  27.915  23.968  1.00  0.00    -0.507 OA
ATOM     20  H   UNL     1      18.924  27.369  24.201  1.00  0.00     0.293 HD
ENDBRANCH  14  19
BRANCH  18  21
ATOM     21  O   UNL     1      19.537  30.384  28.110  1.00  0.00    -0.508 OA
ATOM     22  H   UNL     1      20.013  30.719  28.940  1.00  0.00     0.293 HD
ENDBRANCH  18  21
ENDBRANCH  11  13
ENDBRANCH   2  11
TORSDOF 6
ENDMDL
MODEL 3
REMARK VINA RESULT:    -5.556      2.734      7.761
REMARK INTER + INTRA:          -7.614
REMARK INTER:                  -7.018
REMARK INTRA:                  -0.596
REMARK UNBOUND:                -0.597
REMARK SMILES O=C(C=Cc1ccc(O)cc1)c1ccc(O)cc1O
REMARK SMILES IDX 4 1 3 2 5 3 6 4 7 5 8 6 11 7 10 8 9 9 2 11 1 12 12 13 18 14
REMARK SMILES IDX 13 15 17 16 14 17 15 18 19 19 16 21
REMARK H PARENT 9 10 19 20 16 22
REMARK Flexibility Score: inf
ROOT
ATOM      1  C   UNL     1      21.717  28.744  22.973  1.00  0.00     0.012 C 
ATOM      2  C   UNL     1      22.653  29.382  22.254  1.00  0.00     0.053 C 
ENDROOT
BRANCH   1   3
ATOM      3  C   UNL     1      21.237  29.205  24.299  1.00  0.00    -0.025 A 
ATOM      4  C   UNL     1      19.979  28.766  24.748  1.00  0.00     0.012 A 
ATOM      5  C   UNL     1      19.489  29.168  25.994  1.00  0.00     0.047 A 
ATOM      6  C   UNL     1      20.253  30.005  26.814  1.00  0.00     0.115 A 
ATOM      7  C   UNL     1      22.006  30.037  25.138  1.00  0.00     0.012 A 
ATOM      8  C   UNL     1      21.512  30.435  26.385  1.00  0.00     0.047 A 
BRANCH   6   9
ATOM      9  O   UNL     1      19.773  30.412  28.057  1.00  0.00    -0.508 OA
ATOM     10  H   UNL     1      20.367  30.419  28.878  1.00  0.00     0.293 HD
ENDBRANCH   6   9
ENDBRANCH   1   3
BRANCH   2  11
ATOM     11  C   UNL     1      23.115  28.905  20.933  1.00  0.00     0.189 C 
ATOM     12  O   UNL     1      24.095  28.113  20.892  1.00  0.00    -0.289 OA
BRANCH  11  13
ATOM     13  C   UNL     1      22.505  29.353  19.663  1.00  0.00     0.064 A 
ATOM     14  C   UNL     1      22.692  28.638  18.456  1.00  0.00     0.130 A 
ATOM     15  C   UNL     1      21.760  30.545  19.644  1.00  0.00     0.020 A 
ATOM     16  C   UNL     1      22.145  29.132  17.265  1.00  0.00     0.093 A 
ATOM     17  C   UNL     1      21.211  31.022  18.452  1.00  0.00     0.047 A 
ATOM     18  C   UNL     1      21.404  30.320  17.260  1.00  0.00     0.119 A 
BRANCH  14  19
ATOM     19  O   UNL     1      23.394  27.432  18.410  1.00  0.00    -0.507 OA
ATOM     20  H   UNL     1      23.595  26.880  19.234  1.00  0.00     0.293 HD
ENDBRANCH  14  19
BRANCH  18  21
ATOM     21  O   UNL     1      20.854  30.810  16.078  1.00  0.00    -0.508 OA
ATOM     22  H   UNL     1      20.384  30.199  15.419  1.00  0.00     0.293 HD
ENDBRANCH  18  21
ENDBRANCH  11  13
ENDBRANCH   2  11
TORSDOF 6
ENDMDL
MODEL 4
REMARK VINA RESULT:    -5.529      4.910      8.440
REMARK INTER + INTRA:          -7.580
REMARK INTER:                  -6.965
REMARK INTRA:                  -0.616
REMARK UNBOUND:                -0.597
REMARK SMILES O=C(C=Cc1ccc(O)cc1)c1ccc(O)cc1O
REMARK SMILES IDX 4 1 3 2 5 3 6 4 7 5 8 6 11 7 10 8 9 9 2 11 1 12 12 13 18 14
REMARK SMILES IDX 13 15 17 16 14 17 15 18 19 19 16 21
REMARK H PARENT 9 10 19 20 16 22
REMARK Flexibility Score: inf
ROOT
ATOM      1  C   UNL     1      20.511  30.940  28.839  1.00  0.00     0.012 C 
ATOM      2  C   UNL     1      20.628  30.664  27.532  1.00  0.00     0.053 C 
ENDROOT
BRANCH   1   3
ATOM      3  C   UNL     1      19.282  31.489  29.461  1.00  0.00    -0.025 A 
ATOM      4  C   UNL     1      18.873  32.788  29.109  1.00  0.00     0.012 A 
ATOM      5  C   UNL     1      17.716  33.344  29.662  1.00  0.00     0.047 A 
ATOM      6  C   UNL     1      16.944  32.607  30.567  1.00  0.00     0.115 A 
ATOM      7  C   UNL     1      18.490  30.749  30.362  1.00  0.00     0.012 A 
ATOM      8  C   UNL     1      17.332  31.309  30.912  1.00  0.00     0.047 A 
BRANCH   6   9
ATOM      9  O   UNL     1      15.790  33.152  31.125  1.00  0.00    -0.508 OA
ATOM     10  H   UNL     1      15.064  33.560  30.548  1.00  0.00     0.293 HD
ENDBRANCH   6   9
ENDBRANCH   1   3
BRANCH   2  11
ATOM     11  C   UNL     1      21.864  30.115  26.933  1.00  0.00     0.189 C 
ATOM     12  O   UNL     1      22.705  30.920  26.452  1.00  0.00    -0.289 OA
BRANCH  11  13
ATOM     13  C   UNL     1      22.129  28.663  26.838  1.00  0.00     0.064 A 
ATOM     14  C   UNL     1      22.463  28.048  25.608  1.00  0.00     0.130 A 
ATOM     15  C   UNL     1      21.999  27.866  27.990  1.00  0.00     0.020 A 
ATOM     16  C   UNL     1      22.647  26.661  25.554  1.00  0.00     0.093 A 
ATOM     17  C   UNL     1      22.196  26.485  27.924  1.00  0.00     0.047 A 
ATOM     18  C   UNL     1      22.517  25.879  26.708  1.00  0.00     0.119 A 
BRANCH  14  19
ATOM     19  O   UNL     1      22.639  28.784  24.435  1.00  0.00    -0.507 OA
ATOM     20  H   UNL     1      22.151  28.573  23.574  1.00  0.00     0.293 HD
ENDBRANCH  14  19
BRANCH  18  21
ATOM     21  O   UNL     1      22.705  24.499  26.657  1.00  0.00    -0.508 OA
ATOM     22  H   UNL     1      22.081  23.898  26.131  1.00  0.00     0.293 HD
ENDBRANCH  18  21
ENDBRANCH  11  13
ENDBRANCH   2  11
TORSDOF 6
ENDMDL
MODEL 5
REMARK VINA RESULT:    -5.472      5.317      9.048
REMARK INTER + INTRA:          -7.508
REMARK INTER:                  -6.910
REMARK INTRA:                  -0.598
REMARK UNBOUND:                -0.597
REMARK SMILES O=C(C=Cc1ccc(O)cc1)c1ccc(O)cc1O
REMARK SMILES IDX 4 1 3 2 5 3 6 4 7 5 8 6 11 7 10 8 9 9 2 11 1 12 12 13 18 14
REMARK SMILES IDX 13 15 17 16 14 17 15 18 19 19 16 21
REMARK H PARENT 9 10 19 20 16 22
REMARK Flexibility Score: inf
ROOT
ATOM      1  C   UNL     1      19.862  30.882  29.705  1.00  0.00     0.012 C 
ATOM      2  C   UNL     1      19.994  30.218  28.547  1.00  0.00     0.053 C 
ENDROOT
BRANCH   1   3
ATOM      3  C   UNL     1      18.651  31.649  30.084  1.00  0.00    -0.025 A 
ATOM      4  C   UNL     1      18.552  32.992  29.681  1.00  0.00     0.012 A 
ATOM      5  C   UNL     1      17.425  33.752  30.008  1.00  0.00     0.047 A 
ATOM      6  C   UNL     1      16.375  33.178  30.733  1.00  0.00     0.115 A 
ATOM      7  C   UNL     1      17.581  31.075  30.802  1.00  0.00     0.012 A 
ATOM      8  C   UNL     1      16.455  31.839  31.125  1.00  0.00     0.047 A 
BRANCH   6   9
ATOM      9  O   UNL     1      15.248  33.927  31.064  1.00  0.00    -0.508 OA
ATOM     10  H   UNL     1      14.823  33.867  31.981  1.00  0.00     0.293 HD
ENDBRANCH   6   9
ENDBRANCH   1   3
BRANCH   2  11
ATOM     11  C   UNL     1      21.211  29.458  28.190  1.00  0.00     0.189 C 
ATOM     12  O   UNL     1      22.039  29.191  29.102  1.00  0.00    -0.289 OA
BRANCH  11  13
ATOM     13  C   UNL     1      21.515  29.039  26.805  1.00  0.00     0.064 A 
ATOM     14  C   UNL     1      21.864  27.704  26.492  1.00  0.00     0.130 A 
ATOM     15  C   UNL     1      21.503  30.002  25.780  1.00  0.00     0.020 A 
ATOM     16  C   UNL     1      22.202  27.365  25.176  1.00  0.00     0.093 A 
ATOM     17  C   UNL     1      21.832  29.650  24.470  1.00  0.00     0.047 A 
ATOM     18  C   UNL     1      22.185  28.333  24.164  1.00  0.00     0.119 A 
BRANCH  14  19
ATOM     19  O   UNL     1      21.865  26.693  27.455  1.00  0.00    -0.507 OA
ATOM     20  H   UNL     1      22.274  25.781  27.297  1.00  0.00     0.293 HD
ENDBRANCH  14  19
BRANCH  18  21
ATOM     21  O   UNL     1      22.516  27.997  22.853  1.00  0.00    -0.508 OA
ATOM     22  H   UNL     1      22.591  28.703  22.129  1.00  0.00     0.293 HD
ENDBRANCH  18  21
ENDBRANCH  11  13
ENDBRANCH   2  11
TORSDOF 6
ENDMDL
MODEL 6
REMARK VINA RESULT:    -5.468      5.149      8.969
REMARK INTER + INTRA:          -7.504
REMARK INTER:                  -6.892
REMARK INTRA:                  -0.612
REMARK UNBOUND:                -0.597
REMARK SMILES O=C(C=Cc1ccc(O)cc1)c1ccc(O)cc1O
REMARK SMILES IDX 4 1 3 2 5 3 6 4 7 5 8 6 11 7 10 8 9 9 2 11 1 12 12 13 18 14
REMARK SMILES IDX 13 15 17 16 14 17 15 18 19 19 16 21
REMARK H PARENT 9 10 19 20 16 22
REMARK Flexibility Score: inf
ROOT
ATOM      1  C   UNL     1      19.795  30.731  29.154  1.00  0.00     0.012 C 
ATOM      2  C   UNL     1      19.768  30.132  27.954  1.00  0.00     0.053 C 
ENDROOT
BRANCH   1   3
ATOM      3  C   UNL     1      18.679  31.544  29.696  1.00  0.00    -0.025 A 
ATOM      4  C   UNL     1      18.516  32.859  29.225  1.00  0.00     0.012 A 
ATOM      5  C   UNL     1      17.474  33.661  29.700  1.00  0.00     0.047 A 
ATOM      6  C   UNL     1      16.573  33.157  30.645  1.00  0.00     0.115 A 
ATOM      7  C   UNL     1      17.757  31.041  30.637  1.00  0.00     0.012 A 
ATOM      8  C   UNL     1      16.716  31.846  31.108  1.00  0.00     0.047 A 
BRANCH   6   9
ATOM      9  O   UNL     1      15.531  33.948  31.125  1.00  0.00    -0.508 OA
ATOM     10  H   UNL     1      14.630  33.975  30.663  1.00  0.00     0.293 HD
ENDBRANCH   6   9
ENDBRANCH   1   3
BRANCH   2  11
ATOM     11  C   UNL     1      20.892  29.323  27.435  1.00  0.00     0.189 C 
ATOM     12  O   UNL     1      21.602  28.686  28.258  1.00  0.00    -0.289 OA
BRANCH  11  13
ATOM     13  C   UNL     1      21.240  29.268  25.998  1.00  0.00     0.064 A 
ATOM     14  C   UNL     1      22.559  29.508  25.544  1.00  0.00     0.130 A 
ATOM     15  C   UNL     1      20.226  29.018  25.057  1.00  0.00     0.020 A 
ATOM     16  C   UNL     1      22.830  29.505  24.170  1.00  0.00     0.093 A 
ATOM     17  C   UNL     1      20.512  29.007  23.690  1.00  0.00     0.047 A 
ATOM     18  C   UNL     1      21.812  29.252  23.243  1.00  0.00     0.119 A 
BRANCH  14  19
ATOM     19  O   UNL     1      23.617  29.732  26.426  1.00  0.00    -0.507 OA
ATOM     20  H   UNL     1      23.733  30.595  26.941  1.00  0.00     0.293 HD
ENDBRANCH  14  19
BRANCH  18  21
ATOM     21  O   UNL     1      22.081  29.243  21.876  1.00  0.00    -0.508 OA
ATOM     22  H   UNL     1      22.296  28.383  21.384  1.00  0.00     0.293 HD
ENDBRANCH  18  21
ENDBRANCH  11  13
ENDBRANCH   2  11
TORSDOF 6
ENDMDL
MODEL 7
REMARK VINA RESULT:    -5.390      1.503      7.624
REMARK INTER + INTRA:          -7.405
REMARK INTER:                  -6.964
REMARK INTRA:                  -0.442
REMARK UNBOUND:                -0.597
REMARK SMILES O=C(C=Cc1ccc(O)cc1)c1ccc(O)cc1O
REMARK SMILES IDX 4 1 3 2 5 3 6 4 7 5 8 6 11 7 10 8 9 9 2 11 1 12 12 13 18 14
REMARK SMILES IDX 13 15 17 16 14 17 15 18 19 19 16 21
REMARK H PARENT 9 10 19 20 16 22
REMARK Flexibility Score: inf
ROOT
ATOM      1  C   UNL     1      22.589  28.917  23.090  1.00  0.00     0.012 C 
ATOM      2  C   UNL     1      22.960  28.836  21.803  1.00  0.00     0.053 C 
ENDROOT
BRANCH   1   3
ATOM      3  C   UNL     1      22.639  27.776  24.037  1.00  0.00    -0.025 A 
ATOM      4  C   UNL     1      23.020  26.514  23.549  1.00  0.00     0.012 A 
ATOM      5  C   UNL     1      23.089  25.411  24.406  1.00  0.00     0.047 A 
ATOM      6  C   UNL     1      22.789  25.556  25.765  1.00  0.00     0.115 A 
ATOM      7  C   UNL     1      22.353  27.916  25.410  1.00  0.00     0.012 A 
ATOM      8  C   UNL     1      22.426  26.810  26.264  1.00  0.00     0.047 A 
BRANCH   6   9
ATOM      9  O   UNL     1      22.855  24.464  26.627  1.00  0.00    -0.508 OA
ATOM     10  H   UNL     1      22.615  23.530  26.318  1.00  0.00     0.293 HD
ENDBRANCH   6   9
ENDBRANCH   1   3
BRANCH   2  11
ATOM     11  C   UNL     1      22.904  29.987  20.877  1.00  0.00     0.189 C 
ATOM     12  O   UNL     1      22.942  31.149  21.362  1.00  0.00    -0.289 OA
BRANCH  11  13
ATOM     13  C   UNL     1      22.763  29.829  19.412  1.00  0.00     0.064 A 
ATOM     14  C   UNL     1      21.494  29.815  18.786  1.00  0.00     0.130 A 
ATOM     15  C   UNL     1      23.915  29.640  18.630  1.00  0.00     0.020 A 
ATOM     16  C   UNL     1      21.404  29.602  17.405  1.00  0.00     0.093 A 
ATOM     17  C   UNL     1      23.813  29.439  17.252  1.00  0.00     0.047 A 
ATOM     18  C   UNL     1      22.560  29.417  16.636  1.00  0.00     0.119 A 
BRANCH  14  19
ATOM     19  O   UNL     1      20.313  30.027  19.500  1.00  0.00    -0.507 OA
ATOM     20  H   UNL     1      20.106  30.896  19.977  1.00  0.00     0.293 HD
ENDBRANCH  14  19
BRANCH  18  21
ATOM     21  O   UNL     1      22.473  29.211  15.261  1.00  0.00    -0.508 OA
ATOM     22  H   UNL     1      23.224  29.482  14.637  1.00  0.00     0.293 HD
ENDBRANCH  18  21
ENDBRANCH  11  13
ENDBRANCH   2  11
TORSDOF 6
ENDMDL
MODEL 8
REMARK VINA RESULT:    -5.290      4.118      7.874
REMARK INTER + INTRA:          -7.278
REMARK INTER:                  -6.666
REMARK INTRA:                  -0.612
REMARK UNBOUND:                -0.597
REMARK SMILES O=C(C=Cc1ccc(O)cc1)c1ccc(O)cc1O
REMARK SMILES IDX 4 1 3 2 5 3 6 4 7 5 8 6 11 7 10 8 9 9 2 11 1 12 12 13 18 14
REMARK SMILES IDX 13 15 17 16 14 17 15 18 19 19 16 21
REMARK H PARENT 9 10 19 20 16 22
REMARK Flexibility Score: inf
ROOT
ATOM      1  C   UNL     1      21.385  29.336  28.656  1.00  0.00     0.012 C 
ATOM      2  C   UNL     1      21.194  28.448  27.669  1.00  0.00     0.053 C 
ENDROOT
BRANCH   1   3
ATOM      3  C   UNL     1      20.433  30.424  28.983  1.00  0.00    -0.025 A 
ATOM      4  C   UNL     1      20.287  31.486  28.073  1.00  0.00     0.012 A 
ATOM      5  C   UNL     1      19.396  32.530  28.334  1.00  0.00     0.047 A 
ATOM      6  C   UNL     1      18.628  32.524  29.504  1.00  0.00     0.115 A 
ATOM      7  C   UNL     1      19.645  30.420  30.152  1.00  0.00     0.012 A 
ATOM      8  C   UNL     1      18.753  31.466  30.409  1.00  0.00     0.047 A 
BRANCH   6   9
ATOM      9  O   UNL     1      17.737  33.560  29.775  1.00  0.00    -0.508 OA
ATOM     10  H   UNL     1      18.004  34.531  29.666  1.00  0.00     0.293 HD
ENDBRANCH   6   9
ENDBRANCH   1   3
BRANCH   2  11
ATOM     11  C   UNL     1      22.156  27.368  27.361  1.00  0.00     0.189 C 
ATOM     12  O   UNL     1      22.788  26.839  28.315  1.00  0.00    -0.289 OA
BRANCH  11  13
ATOM     13  C   UNL     1      22.437  26.917  25.981  1.00  0.00     0.064 A 
ATOM     14  C   UNL     1      22.812  25.582  25.697  1.00  0.00     0.130 A 
ATOM     15  C   UNL     1      22.378  27.849  24.930  1.00  0.00     0.020 A 
ATOM     16  C   UNL     1      23.127  25.214  24.384  1.00  0.00     0.093 A 
ATOM     17  C   UNL     1      22.684  27.467  23.623  1.00  0.00     0.047 A 
ATOM     18  C   UNL     1      23.062  26.151  23.346  1.00  0.00     0.119 A 
BRANCH  14  19
ATOM     19  O   UNL     1      22.860  24.599  26.688  1.00  0.00    -0.507 OA
ATOM     20  H   UNL     1      22.095  24.423  27.327  1.00  0.00     0.293 HD
ENDBRANCH  14  19
BRANCH  18  21
ATOM     21  O   UNL     1      23.370  25.786  22.037  1.00  0.00    -0.508 OA
ATOM     22  H   UNL     1      22.788  25.139  21.517  1.00  0.00     0.293 HD
ENDBRANCH  18  21
ENDBRANCH  11  13
ENDBRANCH   2  11
TORSDOF 6
ENDMDL
MODEL 9
REMARK VINA RESULT:    -5.207      5.373      7.773
REMARK INTER + INTRA:          -7.173
REMARK INTER:                  -6.596
REMARK INTRA:                  -0.577
REMARK UNBOUND:                -0.597
REMARK SMILES O=C(C=Cc1ccc(O)cc1)c1ccc(O)cc1O
REMARK SMILES IDX 4 1 3 2 5 3 6 4 7 5 8 6 11 7 10 8 9 9 2 11 1 12 12 13 18 14
REMARK SMILES IDX 13 15 17 16 14 17 15 18 19 19 16 21
REMARK H PARENT 9 10 19 20 16 22
REMARK Flexibility Score: inf
ROOT
ATOM      1  C   UNL     1      19.978  30.084  27.576  1.00  0.00     0.012 C 
ATOM      2  C   UNL     1      20.778  30.165  28.650  1.00  0.00     0.053 C 
ENDROOT
BRANCH   1   3
ATOM      3  C   UNL     1      20.460  29.763  26.210  1.00  0.00    -0.025 A 
ATOM      4  C   UNL     1      21.799  30.041  25.888  1.00  0.00     0.012 A 
ATOM      5  C   UNL     1      22.301  29.747  24.616  1.00  0.00     0.047 A 
ATOM      6  C   UNL     1      21.473  29.162  23.651  1.00  0.00     0.115 A 
ATOM      7  C   UNL     1      19.637  29.160  25.237  1.00  0.00     0.012 A 
ATOM      8  C   UNL     1      20.143  28.867  23.966  1.00  0.00     0.047 A 
BRANCH   6   9
ATOM      9  O   UNL     1      21.962  28.866  22.381  1.00  0.00    -0.508 OA
ATOM     10  H   UNL     1      22.931  29.030  22.134  1.00  0.00     0.293 HD
ENDBRANCH   6   9
ENDBRANCH   1   3
BRANCH   2  11
ATOM     11  C   UNL     1      20.276  30.485  30.004  1.00  0.00     0.189 C 
ATOM     12  O   UNL     1      20.850  29.959  30.995  1.00  0.00    -0.289 OA
BRANCH  11  13
ATOM     13  C   UNL     1      19.105  31.358  30.237  1.00  0.00     0.064 A 
ATOM     14  C   UNL     1      19.197  32.767  30.138  1.00  0.00     0.130 A 
ATOM     15  C   UNL     1      17.881  30.776  30.613  1.00  0.00     0.020 A 
ATOM     16  C   UNL     1      18.078  33.557  30.427  1.00  0.00     0.093 A 
ATOM     17  C   UNL     1      16.769  31.575  30.888  1.00  0.00     0.047 A 
ATOM     18  C   UNL     1      16.865  32.966  30.798  1.00  0.00     0.119 A 
BRANCH  14  19
ATOM     19  O   UNL     1      20.373  33.406  29.740  1.00  0.00    -0.507 OA
ATOM     20  H   UNL     1      21.250  32.918  29.614  1.00  0.00     0.293 HD
ENDBRANCH  14  19
BRANCH  18  21
ATOM     21  O   UNL     1      15.749  33.750  31.080  1.00  0.00    -0.508 OA
ATOM     22  H   UNL     1      15.500  33.995  32.032  1.00  0.00     0.293 HD
ENDBRANCH  18  21
ENDBRANCH  11  13
ENDBRANCH   2  11
TORSDOF 6
ENDMDL
