MODEL 1
REMARK VINA RESULT:    -5.839      0.000      0.000
REMARK INTER + INTRA:         -11.562
REMARK INTER:                 -10.617
REMARK INTRA:                  -0.944
REMARK UNBOUND:                -0.944
REMARK SMILES CCCCCCCCCCCCCCCC(=O)[O-]
REMARK SMILES IDX 9 1 10 2 11 3 12 4 13 5 14 6 15 7 16 8 17 9 18 10 8 11 7 12
REMARK SMILES IDX 6 13 5 14 4 15 3 16 2 17 1 18
REMARK H PARENT
REMARK Flexibility Score: inf
ROOT
ATOM      1  C   UNL     1     -10.604  -0.599  -9.332  1.00  0.00     0.000 C 
ENDROOT
BRANCH   1   2
ATOM      2  C   UNL     1     -11.515  -0.318 -10.544  1.00  0.00     0.000 C 
BRANCH   2   3
ATOM      3  C   UNL     1     -12.927  -0.932 -10.460  1.00  0.00     0.000 C 
BRANCH   3   4
ATOM      4  C   UNL     1     -14.083   0.076 -10.594  1.00  0.00     0.000 C 
BRANCH   4   5
ATOM      5  C   UNL     1     -14.410   0.788  -9.271  1.00  0.00     0.000 C 
BRANCH   5   6
ATOM      6  C   UNL     1     -14.229   2.317  -9.365  1.00  0.00     0.006 C 
BRANCH   6   7
ATOM      7  C   UNL     1     -12.763   2.755  -9.519  1.00  0.00     0.053 C 
BRANCH   7   8
ATOM      8  C   UNL     1     -12.389   3.842  -8.561  1.00  0.00     0.041 C 
ATOM      9  O   UNL     1     -13.268   4.632  -8.126  1.00  0.00    -0.550 OA
ATOM     10  O   UNL     1     -11.074   3.969  -8.131  1.00  0.00    -0.550 OA
ENDBRANCH   7   8
ENDBRANCH   6   7
ENDBRANCH   5   6
ENDBRANCH   4   5
ENDBRANCH   3   4
ENDBRANCH   2   3
ENDBRANCH   1   2
BRANCH   1  11
ATOM     11  C   UNL     1     -10.262  -2.082  -9.099  1.00  0.00     0.000 C 
BRANCH  11  12
ATOM     12  C   UNL     1      -9.594  -2.333  -7.737  1.00  0.00    -0.000 C 
BRANCH  12  13
ATOM     13  C   UNL     1      -9.616  -3.817  -7.327  1.00  0.00    -0.000 C 
BRANCH  13  14
ATOM     14  C   UNL     1     -10.348  -4.760  -8.303  1.00  0.00    -0.000 C 
BRANCH  14  15
ATOM     15  C   UNL     1     -10.949  -6.025  -7.664  1.00  0.00    -0.000 C 
BRANCH  15  16
ATOM     16  C   UNL     1     -10.598  -6.165  -6.176  1.00  0.00    -0.000 C 
BRANCH  16  17
ATOM     17  C   UNL     1     -11.861  -6.365  -5.331  1.00  0.00    -0.003 C 
ATOM     18  C   UNL     1     -13.120  -6.265  -6.189  1.00  0.00     0.004 C 
ENDBRANCH  16  17
ENDBRANCH  15  16
ENDBRANCH  14  15
ENDBRANCH  13  14
ENDBRANCH  12  13
ENDBRANCH  11  12
ENDBRANCH   1  11
TORSDOF 14
ENDMDL
MODEL 2
REMARK VINA RESULT:    -5.609      3.747      8.111
REMARK INTER + INTRA:         -11.143
REMARK INTER:                  -9.964
REMARK INTRA:                  -1.179
REMARK UNBOUND:                -0.944
REMARK SMILES CCCCCCCCCCCCCCCC(=O)[O-]
REMARK SMILES IDX 9 1 10 2 11 3 12 4 13 5 14 6 15 7 16 8 17 9 18 10 8 11 7 12
REMARK SMILES IDX 6 13 5 14 4 15 3 16 2 17 1 18
REMARK H PARENT
REMARK Flexibility Score: inf
ROOT
ATOM      1  C   UNL     1     -10.638  -0.544  -9.270  1.00  0.00     0.000 C 
ENDROOT
BRANCH   1   2
ATOM      2  C   UNL     1     -10.293  -1.944  -8.721  1.00  0.00     0.000 C 
BRANCH   2   3
ATOM      3  C   UNL     1      -9.538  -2.865  -9.699  1.00  0.00     0.000 C 
BRANCH   3   4
ATOM      4  C   UNL     1      -9.914  -4.355  -9.611  1.00  0.00     0.000 C 
BRANCH   4   5
ATOM      5  C   UNL     1     -11.274  -4.588  -8.930  1.00  0.00     0.000 C 
BRANCH   5   6
ATOM      6  C   UNL     1     -11.502  -6.068  -8.561  1.00  0.00     0.006 C 
BRANCH   6   7
ATOM      7  C   UNL     1     -10.253  -6.760  -7.992  1.00  0.00     0.053 C 
BRANCH   7   8
ATOM      8  C   UNL     1     -10.238  -6.768  -6.495  1.00  0.00     0.041 C 
ATOM      9  O   UNL     1     -10.050  -7.845  -5.870  1.00  0.00    -0.550 OA
ATOM     10  O   UNL     1     -10.408  -5.583  -5.791  1.00  0.00    -0.550 OA
ENDBRANCH   7   8
ENDBRANCH   6   7
ENDBRANCH   5   6
ENDBRANCH   4   5
ENDBRANCH   3   4
ENDBRANCH   2   3
ENDBRANCH   1   2
BRANCH   1  11
ATOM     11  C   UNL     1     -11.425  -0.535 -10.593  1.00  0.00     0.000 C 
BRANCH  11  12
ATOM     12  C   UNL     1     -12.791  -1.232 -10.480  1.00  0.00    -0.000 C 
BRANCH  12  13
ATOM     13  C   UNL     1     -13.972  -0.265 -10.676  1.00  0.00    -0.000 C 
BRANCH  13  14
ATOM     14  C   UNL     1     -14.383   0.536  -9.423  1.00  0.00    -0.000 C 
BRANCH  14  15
ATOM     15  C   UNL     1     -14.308   2.066  -9.572  1.00  0.00    -0.000 C 
BRANCH  15  16
ATOM     16  C   UNL     1     -12.867   2.597  -9.552  1.00  0.00    -0.000 C 
BRANCH  16  17
ATOM     17  C   UNL     1     -12.763   3.868  -8.700  1.00  0.00    -0.003 C 
ATOM     18  C   UNL     1     -11.361   4.028  -8.118  1.00  0.00     0.004 C 
ENDBRANCH  16  17
ENDBRANCH  15  16
ENDBRANCH  14  15
ENDBRANCH  13  14
ENDBRANCH  12  13
ENDBRANCH  11  12
ENDBRANCH   1  11
TORSDOF 14
ENDMDL
MODEL 3
REMARK VINA RESULT:    -5.477      3.699      8.191
REMARK INTER + INTRA:         -10.903
REMARK INTER:                  -9.727
REMARK INTRA:                  -1.175
REMARK UNBOUND:                -0.944
REMARK SMILES CCCCCCCCCCCCCCCC(=O)[O-]
REMARK SMILES IDX 9 1 10 2 11 3 12 4 13 5 14 6 15 7 16 8 17 9 18 10 8 11 7 12
REMARK SMILES IDX 6 13 5 14 4 15 3 16 2 17 1 18
REMARK H PARENT
REMARK Flexibility Score: inf
ROOT
ATOM      1  C   UNL     1      -9.792  -2.422  -7.834  1.00  0.00     0.000 C 
ENDROOT
BRANCH   1   2
ATOM      2  C   UNL     1      -9.864  -3.922  -7.481  1.00  0.00     0.000 C 
BRANCH   2   3
ATOM      3  C   UNL     1     -10.699  -4.785  -8.447  1.00  0.00     0.000 C 
BRANCH   3   4
ATOM      4  C   UNL     1     -10.094  -6.161  -8.777  1.00  0.00     0.000 C 
BRANCH   4   5
ATOM      5  C   UNL     1     -10.827  -7.319  -8.078  1.00  0.00     0.000 C 
BRANCH   5   6
ATOM      6  C   UNL     1     -10.140  -7.742  -6.764  1.00  0.00     0.006 C 
BRANCH   6   7
ATOM      7  C   UNL     1     -11.119  -7.950  -5.596  1.00  0.00     0.053 C 
BRANCH   7   8
ATOM      8  C   UNL     1     -12.047  -6.790  -5.416  1.00  0.00     0.041 C 
ATOM      9  O   UNL     1     -11.596  -5.664  -5.077  1.00  0.00    -0.550 OA
ATOM     10  O   UNL     1     -13.408  -6.946  -5.646  1.00  0.00    -0.550 OA
ENDBRANCH   7   8
ENDBRANCH   6   7
ENDBRANCH   5   6
ENDBRANCH   4   5
ENDBRANCH   3   4
ENDBRANCH   2   3
ENDBRANCH   1   2
BRANCH   1  11
ATOM     11  C   UNL     1     -10.263  -2.060  -9.254  1.00  0.00     0.000 C 
BRANCH  11  12
ATOM     12  C   UNL     1     -10.664  -0.582  -9.391  1.00  0.00    -0.000 C 
BRANCH  12  13
ATOM     13  C   UNL     1     -11.609  -0.329 -10.580  1.00  0.00    -0.000 C 
BRANCH  13  14
ATOM     14  C   UNL     1     -13.006  -0.970 -10.460  1.00  0.00    -0.000 C 
BRANCH  14  15
ATOM     15  C   UNL     1     -14.065  -0.104  -9.754  1.00  0.00    -0.000 C 
BRANCH  15  16
ATOM     16  C   UNL     1     -14.089   1.343 -10.267  1.00  0.00    -0.000 C 
BRANCH  16  17
ATOM     17  C   UNL     1     -13.845   2.335  -9.123  1.00  0.00    -0.003 C 
ATOM     18  C   UNL     1     -12.516   3.064  -9.300  1.00  0.00     0.004 C 
ENDBRANCH  16  17
ENDBRANCH  15  16
ENDBRANCH  14  15
ENDBRANCH  13  14
ENDBRANCH  12  13
ENDBRANCH  11  12
ENDBRANCH   1  11
TORSDOF 14
ENDMDL
MODEL 4
REMARK VINA RESULT:    -5.268      1.903      3.841
REMARK INTER + INTRA:         -10.524
REMARK INTER:                  -9.110
REMARK INTRA:                  -1.415
REMARK UNBOUND:                -0.944
REMARK SMILES CCCCCCCCCCCCCCCC(=O)[O-]
REMARK SMILES IDX 9 1 10 2 11 3 12 4 13 5 14 6 15 7 16 8 17 9 18 10 8 11 7 12
REMARK SMILES IDX 6 13 5 14 4 15 3 16 2 17 1 18
REMARK H PARENT
REMARK Flexibility Score: inf
ROOT
ATOM      1  C   UNL     1      -9.050  -4.503  -7.903  1.00  0.00     0.000 C 
ENDROOT
BRANCH   1   2
ATOM      2  C   UNL     1      -9.417  -3.991  -9.311  1.00  0.00     0.000 C 
BRANCH   2   3
ATOM      3  C   UNL     1     -10.603  -3.008  -9.364  1.00  0.00     0.000 C 
BRANCH   3   4
ATOM      4  C   UNL     1     -10.250  -1.545  -9.037  1.00  0.00     0.000 C 
BRANCH   4   5
ATOM      5  C   UNL     1     -10.566  -0.582 -10.194  1.00  0.00     0.000 C 
BRANCH   5   6
ATOM      6  C   UNL     1     -12.083  -0.394 -10.404  1.00  0.00     0.006 C 
BRANCH   6   7
ATOM      7  C   UNL     1     -12.636   0.894  -9.772  1.00  0.00     0.053 C 
BRANCH   7   8
ATOM      8  C   UNL     1     -14.127   0.874  -9.649  1.00  0.00     0.041 C 
ATOM      9  O   UNL     1     -14.754  -0.216  -9.716  1.00  0.00    -0.550 OA
ATOM     10  O   UNL     1     -14.825   2.057  -9.437  1.00  0.00    -0.550 OA
ENDBRANCH   7   8
ENDBRANCH   6   7
ENDBRANCH   5   6
ENDBRANCH   4   5
ENDBRANCH   3   4
ENDBRANCH   2   3
ENDBRANCH   1   2
BRANCH   1  11
ATOM     11  C   UNL     1     -10.181  -4.424  -6.861  1.00  0.00     0.000 C 
BRANCH  11  12
ATOM     12  C   UNL     1     -10.313  -5.709  -6.027  1.00  0.00    -0.000 C 
BRANCH  12  13
ATOM     13  C   UNL     1     -11.642  -5.783  -5.254  1.00  0.00    -0.000 C 
BRANCH  13  14
ATOM     14  C   UNL     1     -12.644  -6.840  -5.763  1.00  0.00    -0.000 C 
BRANCH  14  15
ATOM     15  C   UNL     1     -13.829  -6.282  -6.571  1.00  0.00    -0.000 C 
BRANCH  15  16
ATOM     16  C   UNL     1     -13.598  -6.344  -8.088  1.00  0.00    -0.000 C 
BRANCH  16  17
ATOM     17  C   UNL     1     -12.552  -7.408  -8.440  1.00  0.00    -0.003 C 
ATOM     18  C   UNL     1     -11.606  -6.912  -9.531  1.00  0.00     0.004 C 
ENDBRANCH  16  17
ENDBRANCH  15  16
ENDBRANCH  14  15
ENDBRANCH  13  14
ENDBRANCH  12  13
ENDBRANCH  11  12
ENDBRANCH   1  11
TORSDOF 14
ENDMDL
MODEL 5
REMARK VINA RESULT:    -5.259     15.670     18.142
REMARK INTER + INTRA:         -10.507
REMARK INTER:                  -9.113
REMARK INTRA:                  -1.394
REMARK UNBOUND:                -0.944
REMARK SMILES CCCCCCCCCCCCCCCC(=O)[O-]
REMARK SMILES IDX 9 1 10 2 11 3 12 4 13 5 14 6 15 7 16 8 17 9 18 10 8 11 7 12
REMARK SMILES IDX 6 13 5 14 4 15 3 16 2 17 1 18
REMARK H PARENT
REMARK Flexibility Score: inf
ROOT
ATOM      1  C   UNL     1      -9.576   6.799   7.789  1.00  0.00     0.000 C 
ENDROOT
BRANCH   1   2
ATOM      2  C   UNL     1     -10.211   5.819   8.796  1.00  0.00     0.000 C 
BRANCH   2   3
ATOM      3  C   UNL     1     -10.436   4.388   8.267  1.00  0.00     0.000 C 
BRANCH   3   4
ATOM      4  C   UNL     1     -11.901   4.032   7.959  1.00  0.00     0.000 C 
BRANCH   4   5
ATOM      5  C   UNL     1     -12.222   4.073   6.455  1.00  0.00     0.000 C 
BRANCH   5   6
ATOM      6  C   UNL     1     -12.825   5.423   6.018  1.00  0.00     0.006 C 
BRANCH   6   7
ATOM      7  C   UNL     1     -12.536   5.782   4.551  1.00  0.00     0.053 C 
BRANCH   7   8
ATOM      8  C   UNL     1     -13.771   6.182   3.808  1.00  0.00     0.041 C 
ATOM      9  O   UNL     1     -13.785   6.167   2.549  1.00  0.00    -0.550 OA
ATOM     10  O   UNL     1     -14.915   6.550   4.506  1.00  0.00    -0.550 OA
ENDBRANCH   7   8
ENDBRANCH   6   7
ENDBRANCH   5   6
ENDBRANCH   4   5
ENDBRANCH   3   4
ENDBRANCH   2   3
ENDBRANCH   1   2
BRANCH   1  11
ATOM     11  C   UNL     1      -9.157   6.178   6.443  1.00  0.00     0.000 C 
BRANCH  11  12
ATOM     12  C   UNL     1      -8.961   7.227   5.337  1.00  0.00    -0.000 C 
BRANCH  12  13
ATOM     13  C   UNL     1      -8.343   8.536   5.860  1.00  0.00    -0.000 C 
BRANCH  13  14
ATOM     14  C   UNL     1      -8.120   9.631   4.796  1.00  0.00    -0.000 C 
BRANCH  14  15
ATOM     15  C   UNL     1      -6.950  10.590   5.081  1.00  0.00    -0.000 C 
BRANCH  15  16
ATOM     16  C   UNL     1      -6.052  10.110   6.230  1.00  0.00    -0.000 C 
BRANCH  16  17
ATOM     17  C   UNL     1      -5.864  11.214   7.278  1.00  0.00    -0.003 C 
ATOM     18  C   UNL     1      -7.078  11.314   8.197  1.00  0.00     0.004 C 
ENDBRANCH  16  17
ENDBRANCH  15  16
ENDBRANCH  14  15
ENDBRANCH  13  14
ENDBRANCH  12  13
ENDBRANCH  11  12
ENDBRANCH   1  11
TORSDOF 14
ENDMDL
MODEL 6
REMARK VINA RESULT:    -5.203      3.910      7.635
REMARK INTER + INTRA:         -10.405
REMARK INTER:                  -9.006
REMARK INTRA:                  -1.398
REMARK UNBOUND:                -0.944
REMARK SMILES CCCCCCCCCCCCCCCC(=O)[O-]
REMARK SMILES IDX 9 1 10 2 11 3 12 4 13 5 14 6 15 7 16 8 17 9 18 10 8 11 7 12
REMARK SMILES IDX 6 13 5 14 4 15 3 16 2 17 1 18
REMARK H PARENT
REMARK Flexibility Score: inf
ROOT
ATOM      1  C   UNL     1      -8.756  -3.480  -8.245  1.00  0.00     0.000 C 
ENDROOT
BRANCH   1   2
ATOM      2  C   UNL     1      -9.286  -4.819  -7.694  1.00  0.00     0.000 C 
BRANCH   2   3
ATOM      3  C   UNL     1     -10.221  -4.703  -6.473  1.00  0.00     0.000 C 
BRANCH   3   4
ATOM      4  C   UNL     1     -10.714  -6.044  -5.902  1.00  0.00     0.000 C 
BRANCH   4   5
ATOM      5  C   UNL     1     -12.232  -6.066  -5.657  1.00  0.00     0.000 C 
BRANCH   5   6
ATOM      6  C   UNL     1     -12.997  -6.812  -6.770  1.00  0.00     0.006 C 
BRANCH   6   7
ATOM      7  C   UNL     1     -13.250  -5.957  -8.023  1.00  0.00     0.053 C 
BRANCH   7   8
ATOM      8  C   UNL     1     -12.811  -6.641  -9.279  1.00  0.00     0.041 C 
ATOM      9  O   UNL     1     -13.659  -7.180 -10.036  1.00  0.00    -0.550 OA
ATOM     10  O   UNL     1     -11.465  -6.664  -9.625  1.00  0.00    -0.550 OA
ENDBRANCH   7   8
ENDBRANCH   6   7
ENDBRANCH   5   6
ENDBRANCH   4   5
ENDBRANCH   3   4
ENDBRANCH   2   3
ENDBRANCH   1   2
BRANCH   1  11
ATOM     11  C   UNL     1      -9.763  -2.316  -8.221  1.00  0.00     0.000 C 
BRANCH  11  12
ATOM     12  C   UNL     1     -10.469  -2.109  -9.572  1.00  0.00    -0.000 C 
BRANCH  12  13
ATOM     13  C   UNL     1     -11.748  -2.954  -9.711  1.00  0.00    -0.000 C 
BRANCH  13  14
ATOM     14  C   UNL     1     -12.873  -2.314 -10.550  1.00  0.00    -0.000 C 
BRANCH  14  15
ATOM     15  C   UNL     1     -12.783  -0.786 -10.708  1.00  0.00    -0.000 C 
BRANCH  15  16
ATOM     16  C   UNL     1     -13.996  -0.053 -10.117  1.00  0.00    -0.000 C 
BRANCH  16  17
ATOM     17  C   UNL     1     -13.608   1.351  -9.638  1.00  0.00    -0.003 C 
ATOM     18  C   UNL     1     -12.101   1.466  -9.430  1.00  0.00     0.004 C 
ENDBRANCH  16  17
ENDBRANCH  15  16
ENDBRANCH  14  15
ENDBRANCH  13  14
ENDBRANCH  12  13
ENDBRANCH  11  12
ENDBRANCH   1  11
TORSDOF 14
ENDMDL
MODEL 7
REMARK VINA RESULT:    -5.180      1.570      2.973
REMARK INTER + INTRA:         -10.365
REMARK INTER:                  -9.360
REMARK INTRA:                  -1.004
REMARK UNBOUND:                -0.944
REMARK SMILES CCCCCCCCCCCCCCCC(=O)[O-]
REMARK SMILES IDX 9 1 10 2 11 3 12 4 13 5 14 6 15 7 16 8 17 9 18 10 8 11 7 12
REMARK SMILES IDX 6 13 5 14 4 15 3 16 2 17 1 18
REMARK H PARENT
REMARK Flexibility Score: inf
ROOT
ATOM      1  C   UNL     1     -14.106  -3.738  -9.860  1.00  0.00     0.000 C 
ENDROOT
BRANCH   1   2
ATOM      2  C   UNL     1     -13.048  -2.648 -10.123  1.00  0.00     0.000 C 
BRANCH   2   3
ATOM      3  C   UNL     1     -13.568  -1.389 -10.846  1.00  0.00     0.000 C 
BRANCH   3   4
ATOM      4  C   UNL     1     -13.112  -0.052 -10.233  1.00  0.00     0.000 C 
BRANCH   4   5
ATOM      5  C   UNL     1     -14.257   0.708  -9.542  1.00  0.00     0.000 C 
BRANCH   5   6
ATOM      6  C   UNL     1     -14.000   2.228  -9.480  1.00  0.00     0.006 C 
BRANCH   6   7
ATOM      7  C   UNL     1     -12.509   2.599  -9.429  1.00  0.00     0.053 C 
BRANCH   7   8
ATOM      8  C   UNL     1     -12.255   3.830  -8.617  1.00  0.00     0.041 C 
ATOM      9  O   UNL     1     -11.107   4.058  -8.153  1.00  0.00    -0.550 OA
ATOM     10  O   UNL     1     -13.283   4.739  -8.391  1.00  0.00    -0.550 OA
ENDBRANCH   7   8
ENDBRANCH   6   7
ENDBRANCH   5   6
ENDBRANCH   4   5
ENDBRANCH   3   4
ENDBRANCH   2   3
ENDBRANCH   1   2
BRANCH   1  11
ATOM     11  C   UNL     1     -13.639  -4.902  -8.966  1.00  0.00     0.000 C 
BRANCH  11  12
ATOM     12  C   UNL     1     -13.237  -6.149  -9.771  1.00  0.00    -0.000 C 
BRANCH  12  13
ATOM     13  C   UNL     1     -11.759  -6.531  -9.578  1.00  0.00    -0.000 C 
BRANCH  13  14
ATOM     14  C   UNL     1     -11.409  -7.144  -8.206  1.00  0.00    -0.000 C 
BRANCH  14  15
ATOM     15  C   UNL     1     -10.214  -6.496  -7.485  1.00  0.00    -0.000 C 
BRANCH  15  16
ATOM     16  C   UNL     1     -10.610  -5.252  -6.677  1.00  0.00    -0.000 C 
BRANCH  16  17
ATOM     17  C   UNL     1      -9.872  -4.008  -7.188  1.00  0.00    -0.003 C 
ATOM     18  C   UNL     1      -8.866  -4.373  -8.277  1.00  0.00     0.004 C 
ENDBRANCH  16  17
ENDBRANCH  15  16
ENDBRANCH  14  15
ENDBRANCH  13  14
ENDBRANCH  12  13
ENDBRANCH  11  12
ENDBRANCH   1  11
TORSDOF 14
ENDMDL
MODEL 8
REMARK VINA RESULT:    -5.114     16.022     17.965
REMARK INTER + INTRA:         -10.244
REMARK INTER:                  -8.967
REMARK INTRA:                  -1.277
REMARK UNBOUND:                -0.944
REMARK SMILES CCCCCCCCCCCCCCCC(=O)[O-]
REMARK SMILES IDX 9 1 10 2 11 3 12 4 13 5 14 6 15 7 16 8 17 9 18 10 8 11 7 12
REMARK SMILES IDX 6 13 5 14 4 15 3 16 2 17 1 18
REMARK H PARENT
REMARK Flexibility Score: inf
ROOT
ATOM      1  C   UNL     1      -9.374   6.593   7.949  1.00  0.00     0.000 C 
ENDROOT
BRANCH   1   2
ATOM      2  C   UNL     1      -9.136   6.003   6.544  1.00  0.00     0.000 C 
BRANCH   2   3
ATOM      3  C   UNL     1      -9.132   7.029   5.393  1.00  0.00     0.000 C 
BRANCH   3   4
ATOM      4  C   UNL     1      -8.776   8.469   5.807  1.00  0.00     0.000 C 
BRANCH   4   5
ATOM      5  C   UNL     1      -7.951   9.209   4.741  1.00  0.00     0.000 C 
BRANCH   5   6
ATOM      6  C   UNL     1      -7.159  10.395   5.329  1.00  0.00     0.006 C 
BRANCH   6   7
ATOM      7  C   UNL     1      -6.678  10.159   6.771  1.00  0.00     0.053 C 
BRANCH   7   8
ATOM      8  C   UNL     1      -7.233  11.166   7.729  1.00  0.00     0.041 C 
ATOM      9  O   UNL     1      -8.244  11.848   7.416  1.00  0.00    -0.550 OA
ATOM     10  O   UNL     1      -6.647  11.336   8.977  1.00  0.00    -0.550 OA
ENDBRANCH   7   8
ENDBRANCH   6   7
ENDBRANCH   5   6
ENDBRANCH   4   5
ENDBRANCH   3   4
ENDBRANCH   2   3
ENDBRANCH   1   2
BRANCH   1  11
ATOM     11  C   UNL     1     -10.467   5.892   8.778  1.00  0.00     0.000 C 
BRANCH  11  12
ATOM     12  C   UNL     1     -10.545   4.381   8.505  1.00  0.00    -0.000 C 
BRANCH  12  13
ATOM     13  C   UNL     1     -11.912   3.945   7.949  1.00  0.00    -0.000 C 
BRANCH  13  14
ATOM     14  C   UNL     1     -12.140   4.243   6.453  1.00  0.00    -0.000 C 
BRANCH  14  15
ATOM     15  C   UNL     1     -12.930   5.531   6.155  1.00  0.00    -0.000 C 
BRANCH  15  16
ATOM     16  C   UNL     1     -12.610   6.120   4.773  1.00  0.00    -0.000 C 
BRANCH  16  17
ATOM     17  C   UNL     1     -13.870   6.698   4.119  1.00  0.00    -0.003 C 
ATOM     18  C   UNL     1     -14.087   6.112   2.726  1.00  0.00     0.004 C 
ENDBRANCH  16  17
ENDBRANCH  15  16
ENDBRANCH  14  15
ENDBRANCH  13  14
ENDBRANCH  12  13
ENDBRANCH  11  12
ENDBRANCH   1  11
TORSDOF 14
ENDMDL
MODEL 9
REMARK VINA RESULT:    -5.106      3.227      7.449
REMARK INTER + INTRA:         -10.230
REMARK INTER:                  -8.940
REMARK INTRA:                  -1.289
REMARK UNBOUND:                -0.944
REMARK SMILES CCCCCCCCCCCCCCCC(=O)[O-]
REMARK SMILES IDX 9 1 10 2 11 3 12 4 13 5 14 6 15 7 16 8 17 9 18 10 8 11 7 12
REMARK SMILES IDX 6 13 5 14 4 15 3 16 2 17 1 18
REMARK H PARENT
REMARK Flexibility Score: inf
ROOT
ATOM      1  C   UNL     1     -13.415  -6.279  -8.686  1.00  0.00     0.000 C 
ENDROOT
BRANCH   1   2
ATOM      2  C   UNL     1     -14.299  -6.415  -7.430  1.00  0.00     0.000 C 
BRANCH   2   3
ATOM      3  C   UNL     1     -13.556  -6.285  -6.086  1.00  0.00     0.000 C 
BRANCH   3   4
ATOM      4  C   UNL     1     -12.061  -6.652  -6.131  1.00  0.00     0.000 C 
BRANCH   4   5
ATOM      5  C   UNL     1     -11.156  -5.531  -5.593  1.00  0.00     0.000 C 
BRANCH   5   6
ATOM      6  C   UNL     1     -10.010  -5.182  -6.564  1.00  0.00     0.006 C 
BRANCH   6   7
ATOM      7  C   UNL     1     -10.237  -3.874  -7.340  1.00  0.00     0.053 C 
BRANCH   7   8
ATOM      8  C   UNL     1      -9.328  -3.747  -8.522  1.00  0.00     0.041 C 
ATOM      9  O   UNL     1      -8.090  -3.593  -8.356  1.00  0.00    -0.550 OA
ATOM     10  O   UNL     1      -9.846  -3.822  -9.810  1.00  0.00    -0.550 OA
ENDBRANCH   7   8
ENDBRANCH   6   7
ENDBRANCH   5   6
ENDBRANCH   4   5
ENDBRANCH   3   4
ENDBRANCH   2   3
ENDBRANCH   1   2
BRANCH   1  11
ATOM     11  C   UNL     1     -13.296  -4.852  -9.252  1.00  0.00     0.000 C 
BRANCH  11  12
ATOM     12  C   UNL     1     -14.656  -4.146  -9.380  1.00  0.00    -0.000 C 
BRANCH  12  13
ATOM     13  C   UNL     1     -14.671  -3.074 -10.484  1.00  0.00    -0.000 C 
BRANCH  13  14
ATOM     14  C   UNL     1     -14.734  -1.615  -9.988  1.00  0.00    -0.000 C 
BRANCH  14  15
ATOM     15  C   UNL     1     -13.833  -0.626 -10.748  1.00  0.00    -0.000 C 
BRANCH  15  16
ATOM     16  C   UNL     1     -13.548   0.655  -9.950  1.00  0.00    -0.000 C 
BRANCH  16  17
ATOM     17  C   UNL     1     -12.049   0.801  -9.664  1.00  0.00    -0.003 C 
ATOM     18  C   UNL     1     -11.253  -0.334 -10.302  1.00  0.00     0.004 C 
ENDBRANCH  16  17
ENDBRANCH  15  16
ENDBRANCH  14  15
ENDBRANCH  13  14
ENDBRANCH  12  13
ENDBRANCH  11  12
ENDBRANCH   1  11
TORSDOF 14
ENDMDL
