MODEL 1
REMARK VINA RESULT:    -8.090      0.000      0.000
REMARK INTER + INTRA:         -10.190
REMARK INTER:                  -9.982
REMARK INTRA:                  -0.208
REMARK UNBOUND:                -0.208
REMARK SMILES O=c1c(O)c(-c2cc(O)c(O)c(O)c2)oc2cc(O)cc(O)c12
REMARK SMILES IDX 5 1 3 2 2 3 1 4 23 5 21 6 20 7 18 8 17 9 16 10 15 11 6 12
REMARK SMILES IDX 7 13 8 14 14 15 10 16 12 17 9 18 11 20 13 22 4 24 22 26
REMARK SMILES IDX 19 28
REMARK H PARENT 9 19 11 21 13 23 4 25 22 27 19 29
REMARK Flexibility Score: inf
ROOT
ATOM      1  C   UNL     1       3.585 -14.530  21.792  1.00  0.00     0.180 A 
ATOM      2  C   UNL     1       3.015 -13.251  21.675  1.00  0.00     0.208 A 
ATOM      3  C   UNL     1       1.845 -13.094  20.915  1.00  0.00     0.238 A 
ATOM      4  O   UNL     1       1.381 -11.935  20.753  1.00  0.00    -0.285 OA
ATOM      5  C   UNL     1       1.227 -14.225  20.327  1.00  0.00     0.111 A 
ATOM      6  C   UNL     1       0.016 -14.190  19.574  1.00  0.00     0.134 A 
ATOM      7  C   UNL     1      -0.445 -15.357  18.950  1.00  0.00     0.093 A 
ATOM      8  C   UNL     1       0.229 -16.571  19.105  1.00  0.00     0.123 A 
ATOM      9  C   UNL     1       1.383 -16.626  19.884  1.00  0.00     0.094 A 
ATOM     10  C   UNL     1       1.887 -15.472  20.487  1.00  0.00     0.146 A 
ATOM     11  O   UNL     1       3.002 -15.567  21.202  1.00  0.00    -0.452 OA
ENDROOT
BRANCH   1  12
ATOM     12  C   UNL     1       4.825 -14.773  22.563  1.00  0.00     0.029 A 
ATOM     13  C   UNL     1       6.004 -15.207  21.936  1.00  0.00     0.062 A 
ATOM     14  C   UNL     1       7.162 -15.454  22.686  1.00  0.00     0.162 A 
ATOM     15  C   UNL     1       4.810 -14.623  23.958  1.00  0.00     0.062 A 
ATOM     16  C   UNL     1       7.144 -15.279  24.081  1.00  0.00     0.200 A 
ATOM     17  C   UNL     1       5.960 -14.864  24.715  1.00  0.00     0.162 A 
BRANCH  14  18
ATOM     18  O   UNL     1       8.329 -15.878  22.053  1.00  0.00    -0.504 OA
ATOM     19  H   UNL     1       8.972 -15.219  21.629  1.00  0.00     0.293 HD
ENDBRANCH  14  18
BRANCH  16  20
ATOM     20  O   UNL     1       8.289 -15.515  24.843  1.00  0.00    -0.502 OA
ATOM     21  H   UNL     1       8.702 -16.435  24.924  1.00  0.00     0.293 HD
ENDBRANCH  16  20
BRANCH  17  22
ATOM     22  O   UNL     1       5.908 -14.689  26.098  1.00  0.00    -0.504 OA
ATOM     23  H   UNL     1       5.031 -14.577  26.594  1.00  0.00     0.293 HD
ENDBRANCH  17  22
ENDBRANCH   1  12
BRANCH   2  24
ATOM     24  O   UNL     1       3.596 -12.159  22.326  1.00  0.00    -0.502 OA
ATOM     25  H   UNL     1       3.242 -11.798  23.203  1.00  0.00     0.293 HD
ENDBRANCH   2  24
BRANCH   6  26
ATOM     26  O   UNL     1      -0.784 -13.051  19.428  1.00  0.00    -0.507 OA
ATOM     27  H   UNL     1      -0.689 -12.370  18.692  1.00  0.00     0.293 HD
ENDBRANCH   6  26
BRANCH   8  28
ATOM     28  O   UNL     1      -0.245 -17.729  18.496  1.00  0.00    -0.508 OA
ATOM     29  H   UNL     1      -1.083 -17.724  17.926  1.00  0.00     0.293 HD
ENDBRANCH   8  28
TORSDOF 7
ENDMDL
MODEL 2
REMARK VINA RESULT:    -8.073      0.240      1.766
REMARK INTER + INTRA:         -10.170
REMARK INTER:                  -9.899
REMARK INTRA:                  -0.270
REMARK UNBOUND:                -0.208
REMARK SMILES O=c1c(O)c(-c2cc(O)c(O)c(O)c2)oc2cc(O)cc(O)c12
REMARK SMILES IDX 5 1 3 2 2 3 1 4 23 5 21 6 20 7 18 8 17 9 16 10 15 11 6 12
REMARK SMILES IDX 7 13 8 14 14 15 10 16 12 17 9 18 11 20 13 22 4 24 22 26
REMARK SMILES IDX 19 28
REMARK H PARENT 9 19 11 21 13 23 4 25 22 27 19 29
REMARK Flexibility Score: inf
ROOT
ATOM      1  C   UNL     1       3.380 -14.533  21.757  1.00  0.00     0.180 A 
ATOM      2  C   UNL     1       2.804 -13.261  21.597  1.00  0.00     0.208 A 
ATOM      3  C   UNL     1       1.647 -13.131  20.811  1.00  0.00     0.238 A 
ATOM      4  O   UNL     1       1.179 -11.980  20.612  1.00  0.00    -0.285 OA
ATOM      5  C   UNL     1       1.049 -14.281  20.240  1.00  0.00     0.111 A 
ATOM      6  C   UNL     1      -0.148 -14.273  19.463  1.00  0.00     0.134 A 
ATOM      7  C   UNL     1      -0.589 -15.458  18.860  1.00  0.00     0.093 A 
ATOM      8  C   UNL     1       0.090 -16.663  19.058  1.00  0.00     0.123 A 
ATOM      9  C   UNL     1       1.229 -16.691  19.859  1.00  0.00     0.094 A 
ATOM     10  C   UNL     1       1.714 -15.519  20.443  1.00  0.00     0.146 A 
ATOM     11  O   UNL     1       2.815 -15.588  21.182  1.00  0.00    -0.452 OA
ENDROOT
BRANCH   1  12
ATOM     12  C   UNL     1       4.606 -14.747  22.557  1.00  0.00     0.029 A 
ATOM     13  C   UNL     1       4.592 -14.652  23.959  1.00  0.00     0.062 A 
ATOM     14  C   UNL     1       5.769 -14.835  24.698  1.00  0.00     0.162 A 
ATOM     15  C   UNL     1       5.823 -14.994  21.903  1.00  0.00     0.062 A 
ATOM     16  C   UNL     1       6.978 -15.105  24.034  1.00  0.00     0.200 A 
ATOM     17  C   UNL     1       7.001 -15.180  22.631  1.00  0.00     0.162 A 
BRANCH  14  18
ATOM     18  O   UNL     1       5.742 -14.746  26.089  1.00  0.00    -0.504 OA
ATOM     19  H   UNL     1       4.871 -14.776  26.606  1.00  0.00     0.293 HD
ENDBRANCH  14  18
BRANCH  16  20
ATOM     20  O   UNL     1       8.158 -15.295  24.755  1.00  0.00    -0.502 OA
ATOM     21  H   UNL     1       8.911 -14.618  24.746  1.00  0.00     0.293 HD
ENDBRANCH  16  20
BRANCH  17  22
ATOM     22  O   UNL     1       8.187 -15.438  21.943  1.00  0.00    -0.504 OA
ATOM     23  H   UNL     1       9.020 -15.776  22.412  1.00  0.00     0.293 HD
ENDBRANCH  17  22
ENDBRANCH   1  12
BRANCH   2  24
ATOM     24  O   UNL     1       3.365 -12.149  22.232  1.00  0.00    -0.502 OA
ATOM     25  H   UNL     1       2.807 -11.371  22.559  1.00  0.00     0.293 HD
ENDBRANCH   2  24
BRANCH   6  26
ATOM     26  O   UNL     1      -0.953 -13.144  19.274  1.00  0.00    -0.507 OA
ATOM     27  H   UNL     1      -0.799 -12.437  18.573  1.00  0.00     0.293 HD
ENDBRANCH   6  26
BRANCH   8  28
ATOM     28  O   UNL     1      -0.365 -17.840  18.468  1.00  0.00    -0.508 OA
ATOM     29  H   UNL     1      -0.940 -17.827  17.634  1.00  0.00     0.293 HD
ENDBRANCH   8  28
TORSDOF 7
ENDMDL
MODEL 3
REMARK VINA RESULT:    -7.489      4.964      7.881
REMARK INTER + INTRA:          -9.448
REMARK INTER:                  -9.241
REMARK INTRA:                  -0.207
REMARK UNBOUND:                -0.208
REMARK SMILES O=c1c(O)c(-c2cc(O)c(O)c(O)c2)oc2cc(O)cc(O)c12
REMARK SMILES IDX 5 1 3 2 2 3 1 4 23 5 21 6 20 7 18 8 17 9 16 10 15 11 6 12
REMARK SMILES IDX 7 13 8 14 14 15 10 16 12 17 9 18 11 20 13 22 4 24 22 26
REMARK SMILES IDX 19 28
REMARK H PARENT 9 19 11 21 13 23 4 25 22 27 19 29
REMARK Flexibility Score: inf
ROOT
ATOM      1  C   UNL     1       2.401 -12.044  26.112  1.00  0.00     0.180 A 
ATOM      2  C   UNL     1       3.248 -11.493  27.089  1.00  0.00     0.208 A 
ATOM      3  C   UNL     1       3.040 -11.827  28.437  1.00  0.00     0.238 A 
ATOM      4  O   UNL     1       3.753 -11.273  29.313  1.00  0.00    -0.285 OA
ATOM      5  C   UNL     1       2.026 -12.751  28.787  1.00  0.00     0.111 A 
ATOM      6  C   UNL     1       1.755 -13.197  30.116  1.00  0.00     0.134 A 
ATOM      7  C   UNL     1       0.657 -14.033  30.355  1.00  0.00     0.093 A 
ATOM      8  C   UNL     1      -0.143 -14.490  29.305  1.00  0.00     0.123 A 
ATOM      9  C   UNL     1       0.145 -14.104  27.998  1.00  0.00     0.094 A 
ATOM     10  C   UNL     1       1.211 -13.241  27.732  1.00  0.00     0.146 A 
ATOM     11  O   UNL     1       1.437 -12.882  26.474  1.00  0.00    -0.452 OA
ENDROOT
BRANCH   1  12
ATOM     12  C   UNL     1       2.547 -11.728  24.673  1.00  0.00     0.029 A 
ATOM     13  C   UNL     1       3.688 -12.114  23.951  1.00  0.00     0.062 A 
ATOM     14  C   UNL     1       3.819 -11.785  22.595  1.00  0.00     0.162 A 
ATOM     15  C   UNL     1       1.553 -10.976  24.028  1.00  0.00     0.062 A 
ATOM     16  C   UNL     1       2.808 -11.052  21.951  1.00  0.00     0.200 A 
ATOM     17  C   UNL     1       1.674 -10.645  22.675  1.00  0.00     0.162 A 
BRANCH  14  18
ATOM     18  O   UNL     1       4.953 -12.179  21.886  1.00  0.00    -0.504 OA
ATOM     19  H   UNL     1       5.471 -13.014  22.135  1.00  0.00     0.293 HD
ENDBRANCH  14  18
BRANCH  16  20
ATOM     20  O   UNL     1       2.919 -10.719  20.600  1.00  0.00    -0.502 OA
ATOM     21  H   UNL     1       2.589  -9.836  20.233  1.00  0.00     0.293 HD
ENDBRANCH  16  20
BRANCH  17  22
ATOM     22  O   UNL     1       0.656  -9.909  22.067  1.00  0.00    -0.504 OA
ATOM     23  H   UNL     1       0.489  -8.935  22.290  1.00  0.00     0.293 HD
ENDBRANCH  17  22
ENDBRANCH   1  12
BRANCH   2  24
ATOM     24  O   UNL     1       4.292 -10.642  26.716  1.00  0.00    -0.502 OA
ATOM     25  H   UNL     1       5.208 -10.987  26.458  1.00  0.00     0.293 HD
ENDBRANCH   2  24
BRANCH   6  26
ATOM     26  O   UNL     1       2.543 -12.873  31.226  1.00  0.00    -0.507 OA
ATOM     27  H   UNL     1       2.355 -13.167  32.172  1.00  0.00     0.293 HD
ENDBRANCH   6  26
BRANCH   8  28
ATOM     28  O   UNL     1      -1.223 -15.334  29.550  1.00  0.00    -0.508 OA
ATOM     29  H   UNL     1      -2.059 -15.004  30.017  1.00  0.00     0.293 HD
ENDBRANCH   8  28
TORSDOF 7
ENDMDL
MODEL 4
REMARK VINA RESULT:    -7.470      4.814      6.864
REMARK INTER + INTRA:          -9.425
REMARK INTER:                  -9.143
REMARK INTRA:                  -0.282
REMARK UNBOUND:                -0.208
REMARK SMILES O=c1c(O)c(-c2cc(O)c(O)c(O)c2)oc2cc(O)cc(O)c12
REMARK SMILES IDX 5 1 3 2 2 3 1 4 23 5 21 6 20 7 18 8 17 9 16 10 15 11 6 12
REMARK SMILES IDX 7 13 8 14 14 15 10 16 12 17 9 18 11 20 13 22 4 24 22 26
REMARK SMILES IDX 19 28
REMARK H PARENT 9 19 11 21 13 23 4 25 22 27 19 29
REMARK Flexibility Score: inf
ROOT
ATOM      1  C   UNL     1       2.031 -12.775  26.118  1.00  0.00     0.180 A 
ATOM      2  C   UNL     1       1.855 -11.501  25.550  1.00  0.00     0.208 A 
ATOM      3  C   UNL     1       2.548 -11.180  24.371  1.00  0.00     0.238 A 
ATOM      4  O   UNL     1       2.445 -10.014  23.909  1.00  0.00    -0.285 OA
ATOM      5  C   UNL     1       3.364 -12.153  23.744  1.00  0.00     0.111 A 
ATOM      6  C   UNL     1       4.077 -11.952  22.524  1.00  0.00     0.134 A 
ATOM      7  C   UNL     1       4.938 -12.952  22.054  1.00  0.00     0.093 A 
ATOM      8  C   UNL     1       5.064 -14.170  22.727  1.00  0.00     0.123 A 
ATOM      9  C   UNL     1       4.330 -14.397  23.889  1.00  0.00     0.094 A 
ATOM     10  C   UNL     1       3.492 -13.405  24.403  1.00  0.00     0.146 A 
ATOM     11  O   UNL     1       2.829 -13.655  25.526  1.00  0.00    -0.452 OA
ENDROOT
BRANCH   1  12
ATOM     12  C   UNL     1       1.347 -13.182  27.366  1.00  0.00     0.029 A 
ATOM     13  C   UNL     1       1.719 -12.651  28.612  1.00  0.00     0.062 A 
ATOM     14  C   UNL     1       1.076 -13.066  29.785  1.00  0.00     0.162 A 
ATOM     15  C   UNL     1       0.344 -14.162  27.314  1.00  0.00     0.062 A 
ATOM     16  C   UNL     1       0.056 -14.031  29.721  1.00  0.00     0.200 A 
ATOM     17  C   UNL     1      -0.305 -14.581  28.480  1.00  0.00     0.162 A 
BRANCH  14  18
ATOM     18  O   UNL     1       1.448 -12.527  31.016  1.00  0.00    -0.504 OA
ATOM     19  H   UNL     1       1.318 -13.039  31.881  1.00  0.00     0.293 HD
ENDBRANCH  14  18
BRANCH  16  20
ATOM     20  O   UNL     1      -0.599 -14.453  30.879  1.00  0.00    -0.502 OA
ATOM     21  H   UNL     1      -0.174 -14.383  31.795  1.00  0.00     0.293 HD
ENDBRANCH  16  20
BRANCH  17  22
ATOM     22  O   UNL     1      -1.307 -15.547  28.383  1.00  0.00    -0.504 OA
ATOM     23  H   UNL     1      -1.610 -16.090  29.183  1.00  0.00     0.293 HD
ENDBRANCH  17  22
ENDBRANCH   1  12
BRANCH   2  24
ATOM     24  O   UNL     1       0.986 -10.581  26.141  1.00  0.00    -0.502 OA
ATOM     25  H   UNL     1       0.542 -10.750  27.035  1.00  0.00     0.293 HD
ENDBRANCH   2  24
BRANCH   6  26
ATOM     26  O   UNL     1       3.958 -10.810  21.726  1.00  0.00    -0.507 OA
ATOM     27  H   UNL     1       4.194 -10.762  20.748  1.00  0.00     0.293 HD
ENDBRANCH   6  26
BRANCH   8  28
ATOM     28  O   UNL     1       5.909 -15.166  22.242  1.00  0.00    -0.508 OA
ATOM     29  H   UNL     1       6.230 -15.167  21.282  1.00  0.00     0.293 HD
ENDBRANCH   8  28
TORSDOF 7
ENDMDL
MODEL 5
REMARK VINA RESULT:    -7.455      3.645      4.623
REMARK INTER + INTRA:          -9.406
REMARK INTER:                  -9.481
REMARK INTRA:                   0.074
REMARK UNBOUND:                -0.208
REMARK SMILES O=c1c(O)c(-c2cc(O)c(O)c(O)c2)oc2cc(O)cc(O)c12
REMARK SMILES IDX 5 1 3 2 2 3 1 4 23 5 21 6 20 7 18 8 17 9 16 10 15 11 6 12
REMARK SMILES IDX 7 13 8 14 14 15 10 16 12 17 9 18 11 20 13 22 4 24 22 26
REMARK SMILES IDX 19 28
REMARK H PARENT 9 19 11 21 13 23 4 25 22 27 19 29
REMARK Flexibility Score: inf
ROOT
ATOM      1  C   UNL     1       4.550 -13.138  23.737  1.00  0.00     0.180 A 
ATOM      2  C   UNL     1       3.807 -12.899  24.906  1.00  0.00     0.208 A 
ATOM      3  C   UNL     1       2.779 -11.943  24.875  1.00  0.00     0.238 A 
ATOM      4  O   UNL     1       2.167 -11.680  25.943  1.00  0.00    -0.285 OA
ATOM      5  C   UNL     1       2.469 -11.278  23.664  1.00  0.00     0.111 A 
ATOM      6  C   UNL     1       1.419 -10.323  23.506  1.00  0.00     0.134 A 
ATOM      7  C   UNL     1       1.273  -9.651  22.286  1.00  0.00     0.093 A 
ATOM      8  C   UNL     1       2.100  -9.944  21.198  1.00  0.00     0.123 A 
ATOM      9  C   UNL     1       3.092 -10.914  21.326  1.00  0.00     0.094 A 
ATOM     10  C   UNL     1       3.286 -11.574  22.541  1.00  0.00     0.146 A 
ATOM     11  O   UNL     1       4.258 -12.475  22.625  1.00  0.00    -0.452 OA
ENDROOT
BRANCH   1  12
ATOM     12  C   UNL     1       5.658 -14.118  23.695  1.00  0.00     0.029 A 
ATOM     13  C   UNL     1       6.579 -14.229  24.750  1.00  0.00     0.062 A 
ATOM     14  C   UNL     1       7.635 -15.148  24.682  1.00  0.00     0.162 A 
ATOM     15  C   UNL     1       5.831 -14.914  22.553  1.00  0.00     0.062 A 
ATOM     16  C   UNL     1       7.786 -15.957  23.543  1.00  0.00     0.200 A 
ATOM     17  C   UNL     1       6.881 -15.835  22.476  1.00  0.00     0.162 A 
BRANCH  14  18
ATOM     18  O   UNL     1       8.538 -15.255  25.738  1.00  0.00    -0.504 OA
ATOM     19  H   UNL     1       8.999 -14.440  26.127  1.00  0.00     0.293 HD
ENDBRANCH  14  18
BRANCH  16  20
ATOM     20  O   UNL     1       8.830 -16.881  23.460  1.00  0.00    -0.502 OA
ATOM     21  H   UNL     1       8.691 -17.869  23.630  1.00  0.00     0.293 HD
ENDBRANCH  16  20
BRANCH  17  22
ATOM     22  O   UNL     1       7.008 -16.619  21.329  1.00  0.00    -0.504 OA
ATOM     23  H   UNL     1       6.227 -16.796  20.708  1.00  0.00     0.293 HD
ENDBRANCH  17  22
ENDBRANCH   1  12
BRANCH   2  24
ATOM     24  O   UNL     1       4.078 -13.620  26.072  1.00  0.00    -0.502 OA
ATOM     25  H   UNL     1       4.869 -14.247  26.151  1.00  0.00     0.293 HD
ENDBRANCH   2  24
BRANCH   6  26
ATOM     26  O   UNL     1       0.481 -10.019  24.499  1.00  0.00    -0.507 OA
ATOM     27  H   UNL     1       0.356 -10.539  25.353  1.00  0.00     0.293 HD
ENDBRANCH   6  26
BRANCH   8  28
ATOM     28  O   UNL     1       1.937  -9.284  19.983  1.00  0.00    -0.508 OA
ATOM     29  H   UNL     1       1.031  -9.215  19.534  1.00  0.00     0.293 HD
ENDBRANCH   8  28
TORSDOF 7
ENDMDL
MODEL 6
REMARK VINA RESULT:    -7.446      3.715      4.955
REMARK INTER + INTRA:          -9.395
REMARK INTER:                  -9.562
REMARK INTRA:                   0.166
REMARK UNBOUND:                -0.208
REMARK SMILES O=c1c(O)c(-c2cc(O)c(O)c(O)c2)oc2cc(O)cc(O)c12
REMARK SMILES IDX 5 1 3 2 2 3 1 4 23 5 21 6 20 7 18 8 17 9 16 10 15 11 6 12
REMARK SMILES IDX 7 13 8 14 14 15 10 16 12 17 9 18 11 20 13 22 4 24 22 26
REMARK SMILES IDX 19 28
REMARK H PARENT 9 19 11 21 13 23 4 25 22 27 19 29
REMARK Flexibility Score: inf
ROOT
ATOM      1  C   UNL     1       4.781 -12.986  23.557  1.00  0.00     0.180 A 
ATOM      2  C   UNL     1       4.366 -12.343  22.378  1.00  0.00     0.208 A 
ATOM      3  C   UNL     1       3.341 -11.385  22.449  1.00  0.00     0.238 A 
ATOM      4  O   UNL     1       2.924 -10.868  21.380  1.00  0.00    -0.285 OA
ATOM      5  C   UNL     1       2.781 -11.042  23.703  1.00  0.00     0.111 A 
ATOM      6  C   UNL     1       1.769 -10.055  23.899  1.00  0.00     0.134 A 
ATOM      7  C   UNL     1       1.215  -9.875  25.173  1.00  0.00     0.093 A 
ATOM      8  C   UNL     1       1.682 -10.602  26.271  1.00  0.00     0.123 A 
ATOM      9  C   UNL     1       2.707 -11.529  26.100  1.00  0.00     0.094 A 
ATOM     10  C   UNL     1       3.253 -11.758  24.835  1.00  0.00     0.146 A 
ATOM     11  O   UNL     1       4.214 -12.667  24.715  1.00  0.00    -0.452 OA
ENDROOT
BRANCH   1  12
ATOM     12  C   UNL     1       5.844 -14.015  23.561  1.00  0.00     0.029 A 
ATOM     13  C   UNL     1       6.011 -14.900  22.483  1.00  0.00     0.062 A 
ATOM     14  C   UNL     1       7.008 -15.884  22.515  1.00  0.00     0.162 A 
ATOM     15  C   UNL     1       6.667 -14.153  24.689  1.00  0.00     0.062 A 
ATOM     16  C   UNL     1       7.843 -15.998  23.639  1.00  0.00     0.200 A 
ATOM     17  C   UNL     1       7.666 -15.130  24.730  1.00  0.00     0.162 A 
BRANCH  14  18
ATOM     18  O   UNL     1       7.170 -16.751  21.436  1.00  0.00    -0.504 OA
ATOM     19  H   UNL     1       7.721 -17.599  21.514  1.00  0.00     0.293 HD
ENDBRANCH  14  18
BRANCH  16  20
ATOM     20  O   UNL     1       8.845 -16.969  23.686  1.00  0.00    -0.502 OA
ATOM     21  H   UNL     1       8.698 -17.913  23.351  1.00  0.00     0.293 HD
ENDBRANCH  16  20
BRANCH  17  22
ATOM     22  O   UNL     1       8.473 -15.223  25.864  1.00  0.00    -0.504 OA
ATOM     23  H   UNL     1       8.243 -14.749  26.730  1.00  0.00     0.293 HD
ENDBRANCH  17  22
ENDBRANCH   1  12
BRANCH   2  24
ATOM     24  O   UNL     1       4.984 -12.640  21.160  1.00  0.00    -0.502 OA
ATOM     25  H   UNL     1       5.024 -11.978  20.395  1.00  0.00     0.293 HD
ENDBRANCH   2  24
BRANCH   6  26
ATOM     26  O   UNL     1       1.293  -9.211  22.890  1.00  0.00    -0.507 OA
ATOM     27  H   UNL     1       0.559  -8.530  23.006  1.00  0.00     0.293 HD
ENDBRANCH   6  26
BRANCH   8  28
ATOM     28  O   UNL     1       1.138 -10.405  27.537  1.00  0.00    -0.508 OA
ATOM     29  H   UNL     1       0.139 -10.459  27.700  1.00  0.00     0.293 HD
ENDBRANCH   8  28
TORSDOF 7
ENDMDL
MODEL 7
REMARK VINA RESULT:    -7.328      8.117     10.796
REMARK INTER + INTRA:          -9.250
REMARK INTER:                  -9.352
REMARK INTRA:                   0.101
REMARK UNBOUND:                -0.208
REMARK SMILES O=c1c(O)c(-c2cc(O)c(O)c(O)c2)oc2cc(O)cc(O)c12
REMARK SMILES IDX 5 1 3 2 2 3 1 4 23 5 21 6 20 7 18 8 17 9 16 10 15 11 6 12
REMARK SMILES IDX 7 13 8 14 14 15 10 16 12 17 9 18 11 20 13 22 4 24 22 26
REMARK SMILES IDX 19 28
REMARK H PARENT 9 19 11 21 13 23 4 25 22 27 19 29
REMARK Flexibility Score: inf
ROOT
ATOM      1  C   UNL     1       0.070 -14.223  29.633  1.00  0.00     0.180 A 
ATOM      2  C   UNL     1       0.218 -13.950  28.261  1.00  0.00     0.208 A 
ATOM      3  C   UNL     1       1.267 -13.115  27.843  1.00  0.00     0.238 A 
ATOM      4  O   UNL     1       1.349 -12.815  26.623  1.00  0.00    -0.285 OA
ATOM      5  C   UNL     1       2.188 -12.608  28.792  1.00  0.00     0.111 A 
ATOM      6  C   UNL     1       3.313 -11.790  28.475  1.00  0.00     0.134 A 
ATOM      7  C   UNL     1       4.095 -11.259  29.509  1.00  0.00     0.093 A 
ATOM      8  C   UNL     1       3.829 -11.569  30.845  1.00  0.00     0.123 A 
ATOM      9  C   UNL     1       2.765 -12.411  31.161  1.00  0.00     0.094 A 
ATOM     10  C   UNL     1       1.945 -12.925  30.155  1.00  0.00     0.146 A 
ATOM     11  O   UNL     1       0.929 -13.706  30.503  1.00  0.00    -0.452 OA
ENDROOT
BRANCH   1  12
ATOM     12  C   UNL     1      -1.018 -15.081  30.152  1.00  0.00     0.029 A 
ATOM     13  C   UNL     1      -1.401 -16.260  29.491  1.00  0.00     0.062 A 
ATOM     14  C   UNL     1      -2.450 -17.047  29.985  1.00  0.00     0.162 A 
ATOM     15  C   UNL     1      -1.724 -14.682  31.297  1.00  0.00     0.062 A 
ATOM     16  C   UNL     1      -3.136 -16.651  31.146  1.00  0.00     0.200 A 
ATOM     17  C   UNL     1      -2.771 -15.461  31.799  1.00  0.00     0.162 A 
BRANCH  14  18
ATOM     18  O   UNL     1      -2.816 -18.219  29.325  1.00  0.00    -0.504 OA
ATOM     19  H   UNL     1      -3.725 -18.645  29.465  1.00  0.00     0.293 HD
ENDBRANCH  14  18
BRANCH  16  20
ATOM     20  O   UNL     1      -4.179 -17.425  31.655  1.00  0.00    -0.502 OA
ATOM     21  H   UNL     1      -4.683 -17.167  32.494  1.00  0.00     0.293 HD
ENDBRANCH  16  20
BRANCH  17  22
ATOM     22  O   UNL     1      -3.437 -15.036  32.949  1.00  0.00    -0.504 OA
ATOM     23  H   UNL     1      -4.423 -14.803  32.944  1.00  0.00     0.293 HD
ENDBRANCH  17  22
ENDBRANCH   1  12
BRANCH   2  24
ATOM     24  O   UNL     1      -0.655 -14.522  27.332  1.00  0.00    -0.502 OA
ATOM     25  H   UNL     1      -1.646 -14.312  27.317  1.00  0.00     0.293 HD
ENDBRANCH   2  24
BRANCH   6  26
ATOM     26  O   UNL     1       3.722 -11.490  27.171  1.00  0.00    -0.507 OA
ATOM     27  H   UNL     1       3.427 -11.987  26.345  1.00  0.00     0.293 HD
ENDBRANCH   6  26
BRANCH   8  28
ATOM     28  O   UNL     1       4.622 -11.051  31.866  1.00  0.00    -0.508 OA
ATOM     29  H   UNL     1       5.547 -10.679  31.683  1.00  0.00     0.293 HD
ENDBRANCH   8  28
TORSDOF 7
ENDMDL
MODEL 8
REMARK VINA RESULT:    -7.302      4.450      5.888
REMARK INTER + INTRA:          -9.218
REMARK INTER:                  -8.856
REMARK INTRA:                  -0.362
REMARK UNBOUND:                -0.208
REMARK SMILES O=c1c(O)c(-c2cc(O)c(O)c(O)c2)oc2cc(O)cc(O)c12
REMARK SMILES IDX 5 1 3 2 2 3 1 4 23 5 21 6 20 7 18 8 17 9 16 10 15 11 6 12
REMARK SMILES IDX 7 13 8 14 14 15 10 16 12 17 9 18 11 20 13 22 4 24 22 26
REMARK SMILES IDX 19 28
REMARK H PARENT 9 19 11 21 13 23 4 25 22 27 19 29
REMARK Flexibility Score: inf
ROOT
ATOM      1  C   UNL     1       2.116 -11.933  25.915  1.00  0.00     0.180 A 
ATOM      2  C   UNL     1       1.534 -10.805  25.310  1.00  0.00     0.208 A 
ATOM      3  C   UNL     1       1.390 -10.781  23.914  1.00  0.00     0.238 A 
ATOM      4  O   UNL     1       0.937  -9.739  23.372  1.00  0.00    -0.285 OA
ATOM      5  C   UNL     1       1.778 -11.904  23.144  1.00  0.00     0.111 A 
ATOM      6  C   UNL     1       1.637 -12.007  21.727  1.00  0.00     0.134 A 
ATOM      7  C   UNL     1       2.153 -13.125  21.060  1.00  0.00     0.093 A 
ATOM      8  C   UNL     1       2.750 -14.173  21.765  1.00  0.00     0.123 A 
ATOM      9  C   UNL     1       2.843 -14.107  23.153  1.00  0.00     0.094 A 
ATOM     10  C   UNL     1       2.371 -12.988  23.843  1.00  0.00     0.146 A 
ATOM     11  O   UNL     1       2.501 -12.958  25.164  1.00  0.00    -0.452 OA
ENDROOT
BRANCH   1  12
ATOM     12  C   UNL     1       2.315 -12.027  27.379  1.00  0.00     0.029 A 
ATOM     13  C   UNL     1       3.452 -11.484  28.000  1.00  0.00     0.062 A 
ATOM     14  C   UNL     1       3.634 -11.603  29.385  1.00  0.00     0.162 A 
ATOM     15  C   UNL     1       1.379 -12.723  28.159  1.00  0.00     0.062 A 
ATOM     16  C   UNL     1       2.679 -12.282  30.160  1.00  0.00     0.200 A 
ATOM     17  C   UNL     1       1.551 -12.845  29.541  1.00  0.00     0.162 A 
BRANCH  14  18
ATOM     18  O   UNL     1       4.763 -11.054  29.991  1.00  0.00    -0.504 OA
ATOM     19  H   UNL     1       5.683 -11.139  29.575  1.00  0.00     0.293 HD
ENDBRANCH  14  18
BRANCH  16  20
ATOM     20  O   UNL     1       2.842 -12.406  31.541  1.00  0.00    -0.502 OA
ATOM     21  H   UNL     1       2.252 -11.915  32.201  1.00  0.00     0.293 HD
ENDBRANCH  16  20
BRANCH  17  22
ATOM     22  O   UNL     1       0.589 -13.532  30.282  1.00  0.00    -0.504 OA
ATOM     23  H   UNL     1       0.349 -13.267  31.230  1.00  0.00     0.293 HD
ENDBRANCH  17  22
ENDBRANCH   1  12
BRANCH   2  24
ATOM     24  O   UNL     1       1.087  -9.738  26.094  1.00  0.00    -0.502 OA
ATOM     25  H   UNL     1       1.659  -8.924  26.280  1.00  0.00     0.293 HD
ENDBRANCH   2  24
BRANCH   6  26
ATOM     26  O   UNL     1       0.979 -11.059  20.935  1.00  0.00    -0.507 OA
ATOM     27  H   UNL     1       0.190 -10.507  21.231  1.00  0.00     0.293 HD
ENDBRANCH   6  26
BRANCH   8  28
ATOM     28  O   UNL     1       3.245 -15.289  21.095  1.00  0.00    -0.508 OA
ATOM     29  H   UNL     1       3.975 -15.866  21.495  1.00  0.00     0.293 HD
ENDBRANCH   8  28
TORSDOF 7
ENDMDL
MODEL 9
REMARK VINA RESULT:    -7.202      2.867      6.904
REMARK INTER + INTRA:          -9.095
REMARK INTER:                  -8.928
REMARK INTRA:                  -0.167
REMARK UNBOUND:                -0.208
REMARK SMILES O=c1c(O)c(-c2cc(O)c(O)c(O)c2)oc2cc(O)cc(O)c12
REMARK SMILES IDX 5 1 3 2 2 3 1 4 23 5 21 6 20 7 18 8 17 9 16 10 15 11 6 12
REMARK SMILES IDX 7 13 8 14 14 15 10 16 12 17 9 18 11 20 13 22 4 24 22 26
REMARK SMILES IDX 19 28
REMARK H PARENT 9 19 11 21 13 23 4 25 22 27 19 29
REMARK Flexibility Score: inf
ROOT
ATOM      1  C   UNL     1       2.399 -13.278  22.113  1.00  0.00     0.180 A 
ATOM      2  C   UNL     1       3.778 -13.294  22.386  1.00  0.00     0.208 A 
ATOM      3  C   UNL     1       4.297 -12.381  23.318  1.00  0.00     0.238 A 
ATOM      4  O   UNL     1       5.542 -12.350  23.503  1.00  0.00    -0.285 OA
ATOM      5  C   UNL     1       3.427 -11.501  24.007  1.00  0.00     0.111 A 
ATOM      6  C   UNL     1       3.837 -10.566  25.003  1.00  0.00     0.134 A 
ATOM      7  C   UNL     1       2.902  -9.672  25.541  1.00  0.00     0.093 A 
ATOM      8  C   UNL     1       1.557  -9.723  25.163  1.00  0.00     0.123 A 
ATOM      9  C   UNL     1       1.136 -10.669  24.231  1.00  0.00     0.094 A 
ATOM     10  C   UNL     1       2.053 -11.548  23.650  1.00  0.00     0.146 A 
ATOM     11  O   UNL     1       1.612 -12.419  22.750  1.00  0.00    -0.452 OA
ENDROOT
BRANCH   1  12
ATOM     12  C   UNL     1       1.779 -14.198  21.134  1.00  0.00     0.029 A 
ATOM     13  C   UNL     1       1.114 -13.715  19.994  1.00  0.00     0.062 A 
ATOM     14  C   UNL     1       0.513 -14.602  19.090  1.00  0.00     0.162 A 
ATOM     15  C   UNL     1       1.804 -15.580  21.374  1.00  0.00     0.062 A 
ATOM     16  C   UNL     1       0.563 -15.986  19.328  1.00  0.00     0.200 A 
ATOM     17  C   UNL     1       1.209 -16.473  20.477  1.00  0.00     0.162 A 
BRANCH  14  18
ATOM     18  O   UNL     1      -0.139 -14.112  17.959  1.00  0.00    -0.504 OA
ATOM     19  H   UNL     1      -1.019 -13.614  18.028  1.00  0.00     0.293 HD
ENDBRANCH  14  18
BRANCH  16  20
ATOM     20  O   UNL     1      -0.025 -16.883  18.436  1.00  0.00    -0.502 OA
ATOM     21  H   UNL     1      -0.904 -16.687  17.973  1.00  0.00     0.293 HD
ENDBRANCH  16  20
BRANCH  17  22
ATOM     22  O   UNL     1       1.269 -17.840  20.746  1.00  0.00    -0.504 OA
ATOM     23  H   UNL     1       1.579 -18.512  20.053  1.00  0.00     0.293 HD
ENDBRANCH  17  22
ENDBRANCH   1  12
BRANCH   2  24
ATOM     24  O   UNL     1       4.610 -14.221  21.753  1.00  0.00    -0.502 OA
ATOM     25  H   UNL     1       4.247 -14.997  21.214  1.00  0.00     0.293 HD
ENDBRANCH   2  24
BRANCH   6  26
ATOM     26  O   UNL     1       5.136 -10.489  25.518  1.00  0.00    -0.507 OA
ATOM     27  H   UNL     1       5.879 -11.137  25.309  1.00  0.00     0.293 HD
ENDBRANCH   6  26
BRANCH   8  28
ATOM     28  O   UNL     1       0.631  -8.843  25.715  1.00  0.00    -0.508 OA
ATOM     29  H   UNL     1       0.910  -8.118  26.366  1.00  0.00     0.293 HD
ENDBRANCH   8  28
TORSDOF 7
ENDMDL
