MODEL 1
REMARK VINA RESULT:     8.759      0.000      0.000
REMARK INTER + INTRA:          27.547
REMARK INTER:                  13.368
REMARK INTRA:                  14.179
REMARK UNBOUND:                14.179
REMARK SMILES CC1=CCC[C@H](C)C(=O)C[C@@H](C(C)C)C(=O)C1
REMARK SMILES IDX 8 1 9 2 6 3 7 4 5 5 4 6 3 7 2 8 1 9 10 11 11 12 15 13 16 14
REMARK SMILES IDX 17 15 12 17 13 18 14 19
REMARK H PARENT
REMARK Flexibility Score: 70.00
ROOT
ATOM      1  C   UNL     1      20.758  21.885  47.701  1.00  0.00     0.136 C 
ATOM      2  O   UNL     1      20.245  20.774  47.682  1.00  0.00    -0.299 OA
ENDROOT
BRANCH   1   3
ATOM      3  C   UNL     1      19.901  23.093  48.029  1.00  0.00     0.053 C 
ATOM      4  C   UNL     1      20.399  24.324  47.261  1.00  0.00     0.016 C 
BRANCH   3   5
ATOM      5  C   UNL     1      18.416  22.806  47.708  1.00  0.00     0.015 C 
BRANCH   5   6
ATOM      6  C   UNL     1      17.653  24.097  47.352  1.00  0.00     0.028 C 
BRANCH   6   7
ATOM      7  C   UNL     1      18.195  24.795  46.127  1.00  0.00    -0.028 C 
ATOM      8  C   UNL     1      19.181  24.327  45.321  1.00  0.00    -0.070 CG0
ATOM      9  C   UNL     1      19.508  25.124  44.084  1.00  0.00     0.039 C 
ATOM     10  G   UNL     1      20.001  23.078  45.624  1.00  0.00     0.000 G0
ENDBRANCH   6   7
ENDBRANCH   5   6
ENDBRANCH   3   5
ENDBRANCH   1   3
BRANCH   1  11
ATOM     11  C   UNL     1      22.228  22.018  47.370  1.00  0.00     0.087 C 
BRANCH  11  12
ATOM     12  C   UNL     1      22.504  23.215  46.419  1.00  0.00     0.066 C 
BRANCH  12  13
ATOM     13  C   UNL     1      21.486  23.207  45.289  1.00  0.00     0.140 C 
ATOM     14  O   UNL     1      21.859  23.330  44.129  1.00  0.00    -0.299 OA
BRANCH  13  15
ATOM     15  C   UNL     1      20.013  23.097  45.597  1.00  0.00     0.106 CG0
ATOM     16  G   UNL     1      19.214  24.355  45.278  1.00  0.00     0.000 G0
ENDBRANCH  13  15
ENDBRANCH  12  13
BRANCH  12  17
ATOM     17  C   UNL     1      23.967  23.234  45.863  1.00  0.00    -0.006 C 
ATOM     18  C   UNL     1      24.299  21.981  45.031  1.00  0.00     0.008 C 
ATOM     19  C   UNL     1      24.991  23.347  47.010  1.00  0.00     0.008 C 
ENDBRANCH  12  17
ENDBRANCH  11  12
ENDBRANCH   1  11
TORSDOF 1
ENDMDL
MODEL 2
REMARK VINA RESULT:    10.762     16.653     18.030
REMARK INTER + INTRA:          30.604
REMARK INTER:                  27.724
REMARK INTRA:                   2.879
REMARK UNBOUND:                14.179
REMARK SMILES CC1=CCC[C@H](C)C(=O)C[C@@H](C(C)C)C(=O)C1
REMARK SMILES IDX 8 1 9 2 6 3 7 4 5 5 4 6 3 7 2 8 1 9 10 11 11 12 15 13 16 14
REMARK SMILES IDX 17 15 12 17 13 18 14 19
REMARK H PARENT
REMARK Flexibility Score: 70.00
ROOT
ATOM      1  C   UNL     1      33.381  11.225  41.940  1.00  0.00     0.136 C 
ATOM      2  O   UNL     1      32.243  11.250  42.390  1.00  0.00    -0.299 OA
ENDROOT
BRANCH   1   3
ATOM      3  C   UNL     1      33.640  10.544  40.610  1.00  0.00     0.053 C 
ATOM      4  C   UNL     1      32.558   9.493  40.330  1.00  0.00     0.016 C 
BRANCH   3   5
ATOM      5  C   UNL     1      33.702  11.589  39.471  1.00  0.00     0.015 C 
BRANCH   5   6
ATOM      6  C   UNL     1      32.469  12.515  39.484  1.00  0.00     0.028 C 
BRANCH   6   7
ATOM      7  C   UNL     1      32.822  13.979  39.598  1.00  0.00    -0.028 C 
ATOM      8  C   UNL     1      34.078  14.490  39.635  1.00  0.00    -0.070 CG0
ATOM      9  C   UNL     1      34.221  15.991  39.644  1.00  0.00     0.039 C 
ATOM     10  G   UNL     1      35.337  13.636  39.719  1.00  0.00     0.000 G0
ENDBRANCH   6   7
ENDBRANCH   5   6
ENDBRANCH   3   5
ENDBRANCH   1   3
BRANCH   1  11
ATOM     11  C   UNL     1      34.498  11.855  42.743  1.00  0.00     0.087 C 
BRANCH  11  12
ATOM     12  C   UNL     1      34.855  13.276  42.225  1.00  0.00     0.066 C 
BRANCH  12  13
ATOM     13  C   UNL     1      35.799  13.159  41.038  1.00  0.00     0.140 C 
ATOM     14  O   UNL     1      36.920  12.691  41.190  1.00  0.00    -0.299 OA
BRANCH  13  15
ATOM     15  C   UNL     1      35.374  13.663  39.680  1.00  0.00     0.106 CG0
ATOM     16  G   UNL     1      34.083  14.473  39.693  1.00  0.00     0.000 G0
ENDBRANCH  13  15
ENDBRANCH  12  13
BRANCH  12  17
ATOM     17  C   UNL     1      35.455  14.202  43.335  1.00  0.00    -0.006 C 
ATOM     18  C   UNL     1      34.926  15.647  43.250  1.00  0.00     0.008 C 
ATOM     19  C   UNL     1      36.994  14.238  43.251  1.00  0.00     0.008 C 
ENDBRANCH  12  17
ENDBRANCH  11  12
ENDBRANCH   1  11
TORSDOF 1
ENDMDL
MODEL 3
REMARK VINA RESULT:    10.896     17.095     19.121
REMARK INTER + INTRA:          30.808
REMARK INTER:                  26.797
REMARK INTRA:                   4.011
REMARK UNBOUND:                14.179
REMARK SMILES CC1=CCC[C@H](C)C(=O)C[C@@H](C(C)C)C(=O)C1
REMARK SMILES IDX 8 1 9 2 6 3 7 4 5 5 4 6 3 7 2 8 1 9 10 11 11 12 15 13 16 14
REMARK SMILES IDX 17 15 12 17 13 18 14 19
REMARK H PARENT
REMARK Flexibility Score: 70.00
ROOT
ATOM      1  C   UNL     1      33.736  11.346  42.471  1.00  0.00     0.136 C 
ATOM      2  O   UNL     1      34.375  10.350  42.787  1.00  0.00    -0.299 OA
ENDROOT
BRANCH   1   3
ATOM      3  C   UNL     1      32.608  11.217  41.465  1.00  0.00     0.053 C 
ATOM      4  C   UNL     1      32.737  12.292  40.378  1.00  0.00     0.016 C 
BRANCH   3   5
ATOM      5  C   UNL     1      32.598   9.801  40.843  1.00  0.00     0.015 C 
BRANCH   5   6
ATOM      6  C   UNL     1      33.270   9.787  39.455  1.00  0.00     0.028 C 
BRANCH   6   7
ATOM      7  C   UNL     1      34.763   9.573  39.514  1.00  0.00    -0.028 C 
ATOM      8  C   UNL     1      35.686  10.518  39.821  1.00  0.00    -0.070 CG0
ATOM      9  C   UNL     1      37.125  10.079  39.931  1.00  0.00     0.039 C 
ATOM     10  G   UNL     1      35.357  11.994  40.008  1.00  0.00     0.000 G0
ENDBRANCH   6   7
ENDBRANCH   5   6
ENDBRANCH   3   5
ENDBRANCH   1   3
BRANCH   1  11
ATOM     11  C   UNL     1      34.113  12.680  43.078  1.00  0.00     0.087 C 
BRANCH  11  12
ATOM     12  C   UNL     1      34.991  13.528  42.117  1.00  0.00     0.066 C 
BRANCH  12  13
ATOM     13  C   UNL     1      35.893  12.605  41.310  1.00  0.00     0.140 C 
ATOM     14  O   UNL     1      37.033  12.376  41.692  1.00  0.00    -0.299 OA
BRANCH  13  15
ATOM     15  C   UNL     1      35.401  12.010  40.014  1.00  0.00     0.106 CG0
ATOM     16  G   UNL     1      35.653  10.513  39.881  1.00  0.00     0.000 G0
ENDBRANCH  13  15
ENDBRANCH  12  13
BRANCH  12  17
ATOM     17  C   UNL     1      35.824  14.629  42.855  1.00  0.00    -0.006 C 
ATOM     18  C   UNL     1      36.764  14.041  43.924  1.00  0.00     0.008 C 
ATOM     19  C   UNL     1      34.898  15.660  43.529  1.00  0.00     0.008 C 
ENDBRANCH  12  17
ENDBRANCH  11  12
ENDBRANCH   1  11
TORSDOF 1
ENDMDL
MODEL 4
REMARK VINA RESULT:    11.674     16.039     17.508
REMARK INTER + INTRA:          31.996
REMARK INTER:                  29.787
REMARK INTRA:                   2.208
REMARK UNBOUND:                14.179
REMARK SMILES CC1=CCC[C@H](C)C(=O)C[C@@H](C(C)C)C(=O)C1
REMARK SMILES IDX 8 1 9 2 6 3 7 4 5 5 4 6 3 7 2 8 1 9 10 11 11 12 15 13 16 14
REMARK SMILES IDX 17 15 12 17 13 18 14 19
REMARK H PARENT
REMARK Flexibility Score: 70.00
ROOT
ATOM      1  C   UNL     1      35.792  13.418  42.777  1.00  0.00     0.136 C 
ATOM      2  O   UNL     1      36.843  13.089  42.241  1.00  0.00    -0.299 OA
ENDROOT
BRANCH   1   3
ATOM      3  C   UNL     1      35.774  14.619  43.702  1.00  0.00     0.053 C 
ATOM      4  C   UNL     1      37.099  15.386  43.606  1.00  0.00     0.016 C 
BRANCH   3   5
ATOM      5  C   UNL     1      34.578  15.541  43.369  1.00  0.00     0.015 C 
BRANCH   5   6
ATOM      6  C   UNL     1      35.004  16.721  42.473  1.00  0.00     0.028 C 
BRANCH   6   7
ATOM      7  C   UNL     1      34.151  16.874  41.237  1.00  0.00    -0.028 C 
ATOM      8  C   UNL     1      34.014  15.952  40.251  1.00  0.00    -0.070 CG0
ATOM      9  C   UNL     1      33.030  16.250  39.148  1.00  0.00     0.039 C 
ATOM     10  G   UNL     1      34.831  14.668  40.174  1.00  0.00     0.000 G0
ENDBRANCH   6   7
ENDBRANCH   5   6
ENDBRANCH   3   5
ENDBRANCH   1   3
BRANCH   1  11
ATOM     11  C   UNL     1      34.549  12.595  42.516  1.00  0.00     0.087 C 
BRANCH  11  12
ATOM     12  C   UNL     1      34.433  12.176  41.024  1.00  0.00     0.066 C 
BRANCH  12  13
ATOM     13  C   UNL     1      33.970  13.369  40.200  1.00  0.00     0.140 C 
ATOM     14  O   UNL     1      32.955  13.286  39.521  1.00  0.00    -0.299 OA
BRANCH  13  15
ATOM     15  C   UNL     1      34.787  14.637  40.179  1.00  0.00     0.106 CG0
ATOM     16  G   UNL     1      33.958  15.913  40.258  1.00  0.00     0.000 G0
ENDBRANCH  13  15
ENDBRANCH  12  13
BRANCH  12  17
ATOM     17  C   UNL     1      33.499  10.940  40.803  1.00  0.00    -0.006 C 
ATOM     18  C   UNL     1      33.003  10.826  39.349  1.00  0.00     0.008 C 
ATOM     19  C   UNL     1      32.274  11.001  41.737  1.00  0.00     0.008 C 
ENDBRANCH  12  17
ENDBRANCH  11  12
ENDBRANCH   1  11
TORSDOF 1
ENDMDL
