MODEL 1
REMARK VINA RESULT:    -6.701      0.000      0.000
REMARK INTER + INTRA:          -7.092
REMARK INTER:                  -7.092
REMARK INTRA:                   0.000
REMARK UNBOUND:                 0.000
REMARK SMILES O=c1ccc2cc(O)c(O)cc2o1
REMARK SMILES IDX 4 1 3 2 2 3 1 4 13 5 12 6 11 7 9 8 7 9 6 10 5 11 8 12 10 14
REMARK H PARENT 8 13 10 15
REMARK Flexibility Score: inf
ROOT
ATOM      1  C   UNL     1      82.234  61.629   7.436  1.00  0.00     0.019 A 
ATOM      2  C   UNL     1      83.468  61.415   6.824  1.00  0.00     0.094 A 
ATOM      3  C   UNL     1      84.637  61.694   7.540  1.00  0.00     0.336 A 
ATOM      4  O   UNL     1      85.761  61.508   7.005  1.00  0.00    -0.246 OA
ATOM      5  O   UNL     1      84.570  62.157   8.786  1.00  0.00    -0.423 OA
ATOM      6  C   UNL     1      83.412  62.374   9.407  1.00  0.00     0.142 A 
ATOM      7  C   UNL     1      83.404  62.861  10.717  1.00  0.00     0.098 A 
ATOM      8  C   UNL     1      82.187  63.093  11.377  1.00  0.00     0.161 A 
ATOM      9  C   UNL     1      80.971  62.835  10.717  1.00  0.00     0.158 A 
ATOM     10  C   UNL     1      80.977  62.347   9.405  1.00  0.00     0.062 A 
ATOM     11  C   UNL     1      82.192  62.115   8.746  1.00  0.00     0.022 A 
ENDROOT
BRANCH   9  12
ATOM     12  O   UNL     1      79.748  63.056  11.350  1.00  0.00    -0.504 OA
ATOM     13  H   UNL     1      79.654  63.044  12.359  1.00  0.00     0.293 HD
ENDBRANCH   9  12
BRANCH   8  14
ATOM     14  O   UNL     1      82.183  63.579  12.684  1.00  0.00    -0.504 OA
ATOM     15  H   UNL     1      81.341  63.580  13.247  1.00  0.00     0.293 HD
ENDBRANCH   8  14
TORSDOF 2
ENDMDL
MODEL 2
REMARK VINA RESULT:    -6.568      1.875      3.707
REMARK INTER + INTRA:          -6.952
REMARK INTER:                  -6.952
REMARK INTRA:                   0.000
REMARK UNBOUND:                 0.000
REMARK SMILES O=c1ccc2cc(O)c(O)cc2o1
REMARK SMILES IDX 4 1 3 2 2 3 1 4 13 5 12 6 11 7 9 8 7 9 6 10 5 11 8 12 10 14
REMARK H PARENT 8 13 10 15
REMARK Flexibility Score: inf
ROOT
ATOM      1  C   UNL     1      81.486  61.490   7.208  1.00  0.00     0.019 A 
ATOM      2  C   UNL     1      80.164  61.201   6.871  1.00  0.00     0.094 A 
ATOM      3  C   UNL     1      79.163  61.391   7.828  1.00  0.00     0.336 A 
ATOM      4  O   UNL     1      77.964  61.135   7.543  1.00  0.00    -0.246 OA
ATOM      5  O   UNL     1      79.469  61.842   9.042  1.00  0.00    -0.423 OA
ATOM      6  C   UNL     1      80.717  62.132   9.405  1.00  0.00     0.142 A 
ATOM      7  C   UNL     1      80.978  62.602  10.695  1.00  0.00     0.098 A 
ATOM      8  C   UNL     1      82.291  62.909  11.083  1.00  0.00     0.161 A 
ATOM      9  C   UNL     1      83.350  62.741  10.170  1.00  0.00     0.158 A 
ATOM     10  C   UNL     1      83.091  62.270   8.878  1.00  0.00     0.062 A 
ATOM     11  C   UNL     1      81.779  61.963   8.490  1.00  0.00     0.022 A 
ENDROOT
BRANCH   9  12
ATOM     12  O   UNL     1      84.664  63.039  10.530  1.00  0.00    -0.504 OA
ATOM     13  H   UNL     1      85.452  62.791   9.943  1.00  0.00     0.293 HD
ENDBRANCH   9  12
BRANCH   8  14
ATOM     14  O   UNL     1      82.547  63.378  12.370  1.00  0.00    -0.504 OA
ATOM     15  H   UNL     1      81.854  63.316  13.106  1.00  0.00     0.293 HD
ENDBRANCH   8  14
TORSDOF 2
ENDMDL
MODEL 3
REMARK VINA RESULT:    -6.539      1.509      2.122
REMARK INTER + INTRA:          -6.921
REMARK INTER:                  -6.921
REMARK INTRA:                   0.000
REMARK UNBOUND:                 0.000
REMARK SMILES O=c1ccc2cc(O)c(O)cc2o1
REMARK SMILES IDX 4 1 3 2 2 3 1 4 13 5 12 6 11 7 9 8 7 9 6 10 5 11 8 12 10 14
REMARK H PARENT 8 13 10 15
REMARK Flexibility Score: inf
ROOT
ATOM      1  C   UNL     1      82.168  61.503   6.999  1.00  0.00     0.019 A 
ATOM      2  C   UNL     1      83.540  61.720   7.115  1.00  0.00     0.094 A 
ATOM      3  C   UNL     1      84.044  62.247   8.308  1.00  0.00     0.336 A 
ATOM      4  O   UNL     1      85.280  62.451   8.433  1.00  0.00    -0.246 OA
ATOM      5  O   UNL     1      83.225  62.537   9.316  1.00  0.00    -0.423 OA
ATOM      6  C   UNL     1      81.909  62.345   9.246  1.00  0.00     0.142 A 
ATOM      7  C   UNL     1      81.098  62.668  10.337  1.00  0.00     0.098 A 
ATOM      8  C   UNL     1      79.711  62.468  10.270  1.00  0.00     0.161 A 
ATOM      9  C   UNL     1      79.134  61.940   9.100  1.00  0.00     0.158 A 
ATOM     10  C   UNL     1      79.945  61.616   8.006  1.00  0.00     0.062 A 
ATOM     11  C   UNL     1      81.330  61.816   8.073  1.00  0.00     0.022 A 
ENDROOT
BRANCH   9  12
ATOM     12  O   UNL     1      77.758  61.731   9.007  1.00  0.00    -0.504 OA
ATOM     13  H   UNL     1      77.229  61.990   8.183  1.00  0.00     0.293 HD
ENDBRANCH   9  12
BRANCH   8  14
ATOM     14  O   UNL     1      78.905  62.792  11.361  1.00  0.00    -0.504 OA
ATOM     15  H   UNL     1      78.513  63.719  11.475  1.00  0.00     0.293 HD
ENDBRANCH   8  14
TORSDOF 2
ENDMDL
MODEL 4
REMARK VINA RESULT:    -6.460      2.028      2.818
REMARK INTER + INTRA:          -6.838
REMARK INTER:                  -6.838
REMARK INTRA:                   0.000
REMARK UNBOUND:                 0.000
REMARK SMILES O=c1ccc2cc(O)c(O)cc2o1
REMARK SMILES IDX 4 1 3 2 2 3 1 4 13 5 12 6 11 7 9 8 7 9 6 10 5 11 8 12 10 14
REMARK H PARENT 8 13 10 15
REMARK Flexibility Score: inf
ROOT
ATOM      1  C   UNL     1      83.206  61.882   7.801  1.00  0.00     0.019 A 
ATOM      2  C   UNL     1      82.653  61.402   6.615  1.00  0.00     0.094 A 
ATOM      3  C   UNL     1      81.267  61.226   6.535  1.00  0.00     0.336 A 
ATOM      4  O   UNL     1      80.749  60.793   5.473  1.00  0.00    -0.246 OA
ATOM      5  O   UNL     1      80.491  61.513   7.576  1.00  0.00    -0.423 OA
ATOM      6  C   UNL     1      80.978  61.974   8.727  1.00  0.00     0.142 A 
ATOM      7  C   UNL     1      80.113  62.258   9.787  1.00  0.00     0.098 A 
ATOM      8  C   UNL     1      80.620  62.744  11.002  1.00  0.00     0.161 A 
ATOM      9  C   UNL     1      82.005  62.946  11.154  1.00  0.00     0.158 A 
ATOM     10  C   UNL     1      82.873  62.662  10.093  1.00  0.00     0.062 A 
ATOM     11  C   UNL     1      82.367  62.176   8.879  1.00  0.00     0.022 A 
ENDROOT
BRANCH   9  12
ATOM     12  O   UNL     1      82.535  63.428  12.350  1.00  0.00    -0.504 OA
ATOM     13  H   UNL     1      82.312  64.351  12.704  1.00  0.00     0.293 HD
ENDBRANCH   9  12
BRANCH   8  14
ATOM     14  O   UNL     1      79.754  63.027  12.057  1.00  0.00    -0.504 OA
ATOM     15  H   UNL     1      79.257  63.907  12.115  1.00  0.00     0.293 HD
ENDBRANCH   8  14
TORSDOF 2
ENDMDL
MODEL 5
REMARK VINA RESULT:    -6.459      2.523      4.000
REMARK INTER + INTRA:          -6.837
REMARK INTER:                  -6.837
REMARK INTRA:                   0.000
REMARK UNBOUND:                 0.000
REMARK SMILES O=c1ccc2cc(O)c(O)cc2o1
REMARK SMILES IDX 4 1 3 2 2 3 1 4 13 5 12 6 11 7 9 8 7 9 6 10 5 11 8 12 10 14
REMARK H PARENT 8 13 10 15
REMARK Flexibility Score: inf
ROOT
ATOM      1  C   UNL     1      80.177  61.627   8.357  1.00  0.00     0.019 A 
ATOM      2  C   UNL     1      79.513  61.223   7.200  1.00  0.00     0.094 A 
ATOM      3  C   UNL     1      80.243  61.071   6.017  1.00  0.00     0.336 A 
ATOM      4  O   UNL     1      79.662  60.708   4.961  1.00  0.00    -0.246 OA
ATOM      5  O   UNL     1      81.552  61.309   5.998  1.00  0.00    -0.423 OA
ATOM      6  C   UNL     1      82.225  61.696   7.080  1.00  0.00     0.142 A 
ATOM      7  C   UNL     1      83.600  61.931   7.000  1.00  0.00     0.098 A 
ATOM      8  C   UNL     1      84.314  62.339   8.137  1.00  0.00     0.161 A 
ATOM      9  C   UNL     1      83.644  62.512   9.362  1.00  0.00     0.158 A 
ATOM     10  C   UNL     1      82.266  62.277   9.445  1.00  0.00     0.062 A 
ATOM     11  C   UNL     1      81.553  61.869   8.309  1.00  0.00     0.022 A 
ENDROOT
BRANCH   9  12
ATOM     12  O   UNL     1      84.330  62.916  10.507  1.00  0.00    -0.504 OA
ATOM     13  H   UNL     1      85.313  63.162  10.487  1.00  0.00     0.293 HD
ENDBRANCH   9  12
BRANCH   8  14
ATOM     14  O   UNL     1      85.686  62.572   8.053  1.00  0.00    -0.504 OA
ATOM     15  H   UNL     1      86.055  63.445   7.694  1.00  0.00     0.293 HD
ENDBRANCH   8  14
TORSDOF 2
ENDMDL
MODEL 6
REMARK VINA RESULT:    -6.369      2.130      3.652
REMARK INTER + INTRA:          -6.742
REMARK INTER:                  -6.742
REMARK INTRA:                   0.000
REMARK UNBOUND:                 0.000
REMARK SMILES O=c1ccc2cc(O)c(O)cc2o1
REMARK SMILES IDX 4 1 3 2 2 3 1 4 13 5 12 6 11 7 9 8 7 9 6 10 5 11 8 12 10 14
REMARK H PARENT 8 13 10 15
REMARK Flexibility Score: inf
ROOT
ATOM      1  C   UNL     1      81.875  62.892  11.726  1.00  0.00     0.019 A 
ATOM      2  C   UNL     1      83.187  62.903  11.254  1.00  0.00     0.094 A 
ATOM      3  C   UNL     1      83.426  62.598   9.911  1.00  0.00     0.336 A 
ATOM      4  O   UNL     1      84.604  62.603   9.465  1.00  0.00    -0.246 OA
ATOM      5  O   UNL     1      82.417  62.301   9.097  1.00  0.00    -0.423 OA
ATOM      6  C   UNL     1      81.150  62.279   9.507  1.00  0.00     0.142 A 
ATOM      7  C   UNL     1      80.130  61.959   8.606  1.00  0.00     0.098 A 
ATOM      8  C   UNL     1      78.793  61.934   9.032  1.00  0.00     0.161 A 
ATOM      9  C   UNL     1      78.478  62.231  10.371  1.00  0.00     0.158 A 
ATOM     10  C   UNL     1      79.498  62.551  11.275  1.00  0.00     0.062 A 
ATOM     11  C   UNL     1      80.833  62.577  10.850  1.00  0.00     0.022 A 
ENDROOT
BRANCH   9  12
ATOM     12  O   UNL     1      77.158  62.214  10.821  1.00  0.00    -0.504 OA
ATOM     13  H   UNL     1      76.551  61.415  10.678  1.00  0.00     0.293 HD
ENDBRANCH   9  12
BRANCH   8  14
ATOM     14  O   UNL     1      77.779  61.615   8.131  1.00  0.00    -0.504 OA
ATOM     15  H   UNL     1      77.003  62.243   7.960  1.00  0.00     0.293 HD
ENDBRANCH   8  14
TORSDOF 2
ENDMDL
MODEL 7
REMARK VINA RESULT:    -6.332      1.852      4.914
REMARK INTER + INTRA:          -6.702
REMARK INTER:                  -6.702
REMARK INTRA:                   0.000
REMARK UNBOUND:                 0.000
REMARK SMILES O=c1ccc2cc(O)c(O)cc2o1
REMARK SMILES IDX 4 1 3 2 2 3 1 4 13 5 12 6 11 7 9 8 7 9 6 10 5 11 8 12 10 14
REMARK H PARENT 8 13 10 15
REMARK Flexibility Score: inf
ROOT
ATOM      1  C   UNL     1      79.013  61.918   9.180  1.00  0.00     0.019 A 
ATOM      2  C   UNL     1      77.830  61.874   9.917  1.00  0.00     0.094 A 
ATOM      3  C   UNL     1      77.881  62.117  11.294  1.00  0.00     0.336 A 
ATOM      4  O   UNL     1      76.824  62.081  11.977  1.00  0.00    -0.246 OA
ATOM      5  O   UNL     1      79.040  62.385  11.889  1.00  0.00    -0.423 OA
ATOM      6  C   UNL     1      80.191  62.437  11.222  1.00  0.00     0.142 A 
ATOM      7  C   UNL     1      81.379  62.724  11.900  1.00  0.00     0.098 A 
ATOM      8  C   UNL     1      82.595  62.780  11.203  1.00  0.00     0.161 A 
ATOM      9  C   UNL     1      82.621  62.546   9.816  1.00  0.00     0.158 A 
ATOM     10  C   UNL     1      81.432  62.259   9.134  1.00  0.00     0.062 A 
ATOM     11  C   UNL     1      80.217  62.203   9.830  1.00  0.00     0.022 A 
ENDROOT
BRANCH   9  12
ATOM     12  O   UNL     1      83.815  62.597   9.099  1.00  0.00    -0.504 OA
ATOM     13  H   UNL     1      84.584  61.964   9.288  1.00  0.00     0.293 HD
ENDBRANCH   9  12
BRANCH   8  14
ATOM     14  O   UNL     1      83.778  63.066  11.884  1.00  0.00    -0.504 OA
ATOM     15  H   UNL     1      83.793  63.206  12.887  1.00  0.00     0.293 HD
ENDBRANCH   8  14
TORSDOF 2
ENDMDL
MODEL 8
REMARK VINA RESULT:    -6.325      3.144      4.130
REMARK INTER + INTRA:          -6.694
REMARK INTER:                  -6.694
REMARK INTRA:                   0.000
REMARK UNBOUND:                 0.000
REMARK SMILES O=c1ccc2cc(O)c(O)cc2o1
REMARK SMILES IDX 4 1 3 2 2 3 1 4 13 5 12 6 11 7 9 8 7 9 6 10 5 11 8 12 10 14
REMARK H PARENT 8 13 10 15
REMARK Flexibility Score: inf
ROOT
ATOM      1  C   UNL     1      81.418  61.273   7.454  1.00  0.00     0.019 A 
ATOM      2  C   UNL     1      81.169  60.990   6.112  1.00  0.00     0.094 A 
ATOM      3  C   UNL     1      79.910  61.284   5.579  1.00  0.00     0.336 A 
ATOM      4  O   UNL     1      79.666  61.035   4.370  1.00  0.00    -0.246 OA
ATOM      5  O   UNL     1      78.964  61.825   6.344  1.00  0.00    -0.423 OA
ATOM      6  C   UNL     1      79.161  62.111   7.629  1.00  0.00     0.142 A 
ATOM      7  C   UNL     1      78.130  62.679   8.383  1.00  0.00     0.098 A 
ATOM      8  C   UNL     1      78.330  62.983   9.738  1.00  0.00     0.161 A 
ATOM      9  C   UNL     1      79.573  62.715  10.341  1.00  0.00     0.158 A 
ATOM     10  C   UNL     1      80.607  62.146   9.588  1.00  0.00     0.062 A 
ATOM     11  C   UNL     1      80.407  61.842   8.234  1.00  0.00     0.022 A 
ENDROOT
BRANCH   9  12
ATOM     12  O   UNL     1      79.799  63.008  11.686  1.00  0.00    -0.504 OA
ATOM     13  H   UNL     1      79.159  63.577  12.227  1.00  0.00     0.293 HD
ENDBRANCH   9  12
BRANCH   8  14
ATOM     14  O   UNL     1      77.299  63.550  10.486  1.00  0.00    -0.504 OA
ATOM     15  H   UNL     1      77.339  64.511  10.803  1.00  0.00     0.293 HD
ENDBRANCH   8  14
TORSDOF 2
ENDMDL
MODEL 9
REMARK VINA RESULT:    -6.184      1.600      2.909
REMARK INTER + INTRA:          -6.545
REMARK INTER:                  -6.545
REMARK INTRA:                   0.000
REMARK UNBOUND:                 0.000
REMARK SMILES O=c1ccc2cc(O)c(O)cc2o1
REMARK SMILES IDX 4 1 3 2 2 3 1 4 13 5 12 6 11 7 9 8 7 9 6 10 5 11 8 12 10 14
REMARK H PARENT 8 13 10 15
REMARK Flexibility Score: inf
ROOT
ATOM      1  C   UNL     1      83.179  62.796  10.806  1.00  0.00     0.019 A 
ATOM      2  C   UNL     1      84.085  62.628   9.759  1.00  0.00     0.094 A 
ATOM      3  C   UNL     1      83.602  62.276   8.495  1.00  0.00     0.336 A 
ATOM      4  O   UNL     1      84.403  62.120   7.537  1.00  0.00    -0.246 OA
ATOM      5  O   UNL     1      82.297  62.104   8.296  1.00  0.00    -0.423 OA
ATOM      6  C   UNL     1      81.399  62.255   9.267  1.00  0.00     0.142 A 
ATOM      7  C   UNL     1      80.041  62.061   8.999  1.00  0.00     0.098 A 
ATOM      8  C   UNL     1      79.090  62.218  10.018  1.00  0.00     0.161 A 
ATOM      9  C   UNL     1      79.504  62.572  11.316  1.00  0.00     0.158 A 
ATOM     10  C   UNL     1      80.864  62.767  11.587  1.00  0.00     0.062 A 
ATOM     11  C   UNL     1      81.814  62.610  10.569  1.00  0.00     0.022 A 
ENDROOT
BRANCH   9  12
ATOM     12  O   UNL     1      78.580  62.735  12.347  1.00  0.00    -0.504 OA
ATOM     13  H   UNL     1      78.843  63.110  13.251  1.00  0.00     0.293 HD
ENDBRANCH   9  12
BRANCH   8  14
ATOM     14  O   UNL     1      77.737  62.024   9.746  1.00  0.00    -0.504 OA
ATOM     15  H   UNL     1      77.056  62.760   9.888  1.00  0.00     0.293 HD
ENDBRANCH   8  14
TORSDOF 2
ENDMDL
