MODEL 1
REMARK VINA RESULT:    -6.471      0.000      0.000
REMARK INTER + INTRA:          -8.718
REMARK INTER:                  -8.173
REMARK INTRA:                  -0.544
REMARK UNBOUND:                -0.544
REMARK SMILES Oc1cc(O)cc(CCc2ccccc2O)c1
REMARK SMILES IDX 9 1 10 2 12 3 13 4 11 5 14 6 15 7 16 8 8 10 7 11 6 12 17 13
REMARK SMILES IDX 4 14 2 15 3 16 5 17 1 19
REMARK H PARENT 16 9 5 18 1 20
REMARK Flexibility Score: inf
ROOT
ATOM      1  C   UNL     1       4.366   9.870   9.428  1.00  0.00     0.044 C 
ENDROOT
BRANCH   1   2
ATOM      2  C   UNL     1       3.247  10.868   9.574  1.00  0.00    -0.006 A 
ATOM      3  C   UNL     1       2.399  13.125   9.250  1.00  0.00     0.001 A 
ATOM      4  C   UNL     1       1.209  12.775   9.891  1.00  0.00     0.004 A 
ATOM      5  C   UNL     1       3.416  12.179   9.095  1.00  0.00     0.007 A 
ATOM      6  C   UNL     1       1.035  11.480  10.385  1.00  0.00     0.046 A 
ATOM      7  C   UNL     1       2.050  10.524  10.236  1.00  0.00     0.118 A 
BRANCH   7   8
ATOM      8  O   UNL     1       1.875   9.236  10.744  1.00  0.00    -0.508 OA
ATOM      9  H   UNL     1       2.240   8.422  10.263  1.00  0.00     0.293 HD
ENDBRANCH   7   8
ENDBRANCH   1   2
BRANCH   1  10
ATOM     10  C   UNL     1       4.519   9.438   7.967  1.00  0.00     0.040 C 
BRANCH  10  11
ATOM     11  C   UNL     1       5.533  10.299   7.263  1.00  0.00    -0.040 A 
ATOM     12  C   UNL     1       5.297  10.738   5.950  1.00  0.00     0.050 A 
ATOM     13  C   UNL     1       6.693  10.719   7.933  1.00  0.00     0.050 A 
ATOM     14  C   UNL     1       6.226  11.568   5.305  1.00  0.00     0.119 A 
ATOM     15  C   UNL     1       7.621  11.549   7.289  1.00  0.00     0.119 A 
ATOM     16  C   UNL     1       7.385  11.969   5.976  1.00  0.00     0.092 A 
BRANCH  14  17
ATOM     17  O   UNL     1       6.002  12.001   4.000  1.00  0.00    -0.508 OA
ATOM     18  H   UNL     1       6.018  12.985   3.759  1.00  0.00     0.293 HD
ENDBRANCH  14  17
BRANCH  15  19
ATOM     19  O   UNL     1       8.778  11.964   7.945  1.00  0.00    -0.508 OA
ATOM     20  H   UNL     1       9.029  12.944   8.005  1.00  0.00     0.293 HD
ENDBRANCH  15  19
ENDBRANCH  10  11
ENDBRANCH   1  10
TORSDOF 6
ENDMDL
MODEL 2
REMARK VINA RESULT:    -6.443      1.453      6.187
REMARK INTER + INTRA:          -8.682
REMARK INTER:                  -8.242
REMARK INTRA:                  -0.440
REMARK UNBOUND:                -0.544
REMARK SMILES Oc1cc(O)cc(CCc2ccccc2O)c1
REMARK SMILES IDX 9 1 10 2 12 3 13 4 11 5 14 6 15 7 16 8 8 10 7 11 6 12 17 13
REMARK SMILES IDX 4 14 2 15 3 16 5 17 1 19
REMARK H PARENT 16 9 5 18 1 20
REMARK Flexibility Score: inf
ROOT
ATOM      1  C   UNL     1       5.610  10.406   7.666  1.00  0.00     0.044 C 
ENDROOT
BRANCH   1   2
ATOM      2  C   UNL     1       6.337  10.973   6.473  1.00  0.00    -0.006 A 
ATOM      3  C   UNL     1       6.273  11.856   4.207  1.00  0.00     0.001 A 
ATOM      4  C   UNL     1       7.665  11.966   4.206  1.00  0.00     0.004 A 
ATOM      5  C   UNL     1       5.611  11.358   5.333  1.00  0.00     0.007 A 
ATOM      6  C   UNL     1       8.399  11.572   5.327  1.00  0.00     0.046 A 
ATOM      7  C   UNL     1       7.745  11.069   6.461  1.00  0.00     0.118 A 
BRANCH   7   8
ATOM      8  O   UNL     1       8.485  10.665   7.572  1.00  0.00    -0.508 OA
ATOM      9  H   UNL     1       8.049  10.516   8.474  1.00  0.00     0.293 HD
ENDBRANCH   7   8
ENDBRANCH   1   2
BRANCH   1  10
ATOM     10  C   UNL     1       5.306  11.507   8.685  1.00  0.00     0.040 C 
BRANCH  10  11
ATOM     11  C   UNL     1       3.932  11.323   9.269  1.00  0.00    -0.040 A 
ATOM     12  C   UNL     1       2.956  12.321   9.109  1.00  0.00     0.050 A 
ATOM     13  C   UNL     1       3.594  10.129   9.927  1.00  0.00     0.050 A 
ATOM     14  C   UNL     1       1.665  12.136   9.623  1.00  0.00     0.119 A 
ATOM     15  C   UNL     1       2.304   9.944  10.442  1.00  0.00     0.119 A 
ATOM     16  C   UNL     1       1.343  10.950  10.290  1.00  0.00     0.092 A 
BRANCH  14  17
ATOM     17  O   UNL     1       0.694  13.125   9.474  1.00  0.00    -0.508 OA
ATOM     18  H   UNL     1       0.409  13.454   8.559  1.00  0.00     0.293 HD
ENDBRANCH  14  17
BRANCH  15  19
ATOM     19  O   UNL     1       1.965   8.765  11.101  1.00  0.00    -0.508 OA
ATOM     20  H   UNL     1       2.672   8.165  11.510  1.00  0.00     0.293 HD
ENDBRANCH  15  19
ENDBRANCH  10  11
ENDBRANCH   1  10
TORSDOF 6
ENDMDL
MODEL 3
REMARK VINA RESULT:    -6.231      1.845      6.356
REMARK INTER + INTRA:          -8.415
REMARK INTER:                  -7.948
REMARK INTRA:                  -0.467
REMARK UNBOUND:                -0.544
REMARK SMILES Oc1cc(O)cc(CCc2ccccc2O)c1
REMARK SMILES IDX 9 1 10 2 12 3 13 4 11 5 14 6 15 7 16 8 8 10 7 11 6 12 17 13
REMARK SMILES IDX 4 14 2 15 3 16 5 17 1 19
REMARK H PARENT 16 9 5 18 1 20
REMARK Flexibility Score: inf
ROOT
ATOM      1  C   UNL     1       5.936  10.057   6.511  1.00  0.00     0.044 C 
ENDROOT
BRANCH   1   2
ATOM      2  C   UNL     1       6.929  10.983   5.856  1.00  0.00    -0.006 A 
ATOM      3  C   UNL     1       7.501  12.488   4.033  1.00  0.00     0.001 A 
ATOM      4  C   UNL     1       8.779  12.661   4.570  1.00  0.00     0.004 A 
ATOM      5  C   UNL     1       6.581  11.651   4.669  1.00  0.00     0.007 A 
ATOM      6  C   UNL     1       9.141  11.991   5.741  1.00  0.00     0.046 A 
ATOM      7  C   UNL     1       8.226  11.147   6.386  1.00  0.00     0.118 A 
BRANCH   7   8
ATOM      8  O   UNL     1       8.600  10.470   7.547  1.00  0.00    -0.508 OA
ATOM      9  H   UNL     1       8.794  10.965   8.410  1.00  0.00     0.293 HD
ENDBRANCH   7   8
ENDBRANCH   1   2
BRANCH   1  10
ATOM     10  C   UNL     1       4.503  10.500   6.207  1.00  0.00     0.040 C 
BRANCH  10  11
ATOM     11  C   UNL     1       3.677  10.526   7.465  1.00  0.00    -0.040 A 
ATOM     12  C   UNL     1       4.279  10.282   8.711  1.00  0.00     0.050 A 
ATOM     13  C   UNL     1       2.313  10.854   7.411  1.00  0.00     0.050 A 
ATOM     14  C   UNL     1       3.518  10.339   9.886  1.00  0.00     0.119 A 
ATOM     15  C   UNL     1       1.552  10.911   8.587  1.00  0.00     0.119 A 
ATOM     16  C   UNL     1       2.157  10.652   9.821  1.00  0.00     0.092 A 
BRANCH  14  17
ATOM     17  O   UNL     1       4.107  10.091  11.125  1.00  0.00    -0.508 OA
ATOM     18  H   UNL     1       4.140  10.800  11.847  1.00  0.00     0.293 HD
ENDBRANCH  14  17
BRANCH  15  19
ATOM     19  O   UNL     1       0.196  11.229   8.540  1.00  0.00    -0.508 OA
ATOM     20  H   UNL     1      -0.138  12.053   8.053  1.00  0.00     0.293 HD
ENDBRANCH  15  19
ENDBRANCH  10  11
ENDBRANCH   1  10
TORSDOF 6
ENDMDL
MODEL 4
REMARK VINA RESULT:    -6.140      1.991      6.211
REMARK INTER + INTRA:          -8.300
REMARK INTER:                  -7.743
REMARK INTRA:                  -0.557
REMARK UNBOUND:                -0.544
REMARK SMILES Oc1cc(O)cc(CCc2ccccc2O)c1
REMARK SMILES IDX 9 1 10 2 12 3 13 4 11 5 14 6 15 7 16 8 8 10 7 11 6 12 17 13
REMARK SMILES IDX 4 14 2 15 3 16 5 17 1 19
REMARK H PARENT 16 9 5 18 1 20
REMARK Flexibility Score: inf
ROOT
ATOM      1  C   UNL     1       7.736  10.988   8.081  1.00  0.00     0.044 C 
ENDROOT
BRANCH   1   2
ATOM      2  C   UNL     1       8.372  11.459   6.799  1.00  0.00    -0.006 A 
ATOM      3  C   UNL     1      10.036  12.826   5.666  1.00  0.00     0.001 A 
ATOM      4  C   UNL     1       9.538  12.414   4.428  1.00  0.00     0.004 A 
ATOM      5  C   UNL     1       9.455  12.355   6.847  1.00  0.00     0.007 A 
ATOM      6  C   UNL     1       8.453  11.537   4.368  1.00  0.00     0.046 A 
ATOM      7  C   UNL     1       7.861  11.060   5.547  1.00  0.00     0.118 A 
BRANCH   7   8
ATOM      8  O   UNL     1       6.769  10.194   5.478  1.00  0.00    -0.508 OA
ATOM      9  H   UNL     1       6.731   9.345   6.029  1.00  0.00     0.293 HD
ENDBRANCH   7   8
ENDBRANCH   1   2
BRANCH   1  10
ATOM     10  C   UNL     1       6.867  12.092   8.690  1.00  0.00     0.040 C 
BRANCH  10  11
ATOM     11  C   UNL     1       5.425  11.665   8.738  1.00  0.00    -0.040 A 
ATOM     12  C   UNL     1       5.075  10.325   8.500  1.00  0.00     0.050 A 
ATOM     13  C   UNL     1       4.423  12.589   9.079  1.00  0.00     0.050 A 
ATOM     14  C   UNL     1       3.735   9.920   8.578  1.00  0.00     0.119 A 
ATOM     15  C   UNL     1       3.083  12.184   9.157  1.00  0.00     0.119 A 
ATOM     16  C   UNL     1       2.744  10.851   8.904  1.00  0.00     0.092 A 
BRANCH  14  17
ATOM     17  O   UNL     1       3.380   8.594   8.336  1.00  0.00    -0.508 OA
ATOM     18  H   UNL     1       2.792   8.078   8.979  1.00  0.00     0.293 HD
ENDBRANCH  14  17
BRANCH  15  19
ATOM     19  O   UNL     1       2.084  13.096   9.489  1.00  0.00    -0.508 OA
ATOM     20  H   UNL     1       1.171  13.064   9.049  1.00  0.00     0.293 HD
ENDBRANCH  15  19
ENDBRANCH  10  11
ENDBRANCH   1  10
TORSDOF 6
ENDMDL
MODEL 5
REMARK VINA RESULT:    -6.128      1.113      1.241
REMARK INTER + INTRA:          -8.284
REMARK INTER:                  -7.756
REMARK INTRA:                  -0.528
REMARK UNBOUND:                -0.544
REMARK SMILES Oc1cc(O)cc(CCc2ccccc2O)c1
REMARK SMILES IDX 9 1 10 2 12 3 13 4 11 5 14 6 15 7 16 8 8 10 7 11 6 12 17 13
REMARK SMILES IDX 4 14 2 15 3 16 5 17 1 19
REMARK H PARENT 16 9 5 18 1 20
REMARK Flexibility Score: inf
ROOT
ATOM      1  C   UNL     1       4.405  10.078   8.802  1.00  0.00     0.044 C 
ENDROOT
BRANCH   1   2
ATOM      2  C   UNL     1       3.258  10.941   9.261  1.00  0.00    -0.006 A 
ATOM      3  C   UNL     1       2.191  13.125   9.364  1.00  0.00     0.001 A 
ATOM      4  C   UNL     1       1.173  12.595  10.159  1.00  0.00     0.004 A 
ATOM      5  C   UNL     1       3.232  12.305   8.920  1.00  0.00     0.007 A 
ATOM      6  C   UNL     1       1.197  11.246  10.518  1.00  0.00     0.046 A 
ATOM      7  C   UNL     1       2.237  10.414  10.079  1.00  0.00     0.118 A 
BRANCH   7   8
ATOM      8  O   UNL     1       2.261   9.071  10.453  1.00  0.00    -0.508 OA
ATOM      9  H   UNL     1       2.706   8.767  11.311  1.00  0.00     0.293 HD
ENDBRANCH   7   8
ENDBRANCH   1   2
BRANCH   1  10
ATOM     10  C   UNL     1       4.758  10.380   7.343  1.00  0.00     0.040 C 
BRANCH  10  11
ATOM     11  C   UNL     1       6.165  10.905   7.236  1.00  0.00    -0.040 A 
ATOM     12  C   UNL     1       6.847  10.854   6.009  1.00  0.00     0.050 A 
ATOM     13  C   UNL     1       6.785  11.502   8.345  1.00  0.00     0.050 A 
ATOM     14  C   UNL     1       8.145  11.373   5.900  1.00  0.00     0.119 A 
ATOM     15  C   UNL     1       8.083  12.021   8.236  1.00  0.00     0.119 A 
ATOM     16  C   UNL     1       8.759  11.953   7.014  1.00  0.00     0.092 A 
BRANCH  14  17
ATOM     17  O   UNL     1       8.830  11.320   4.687  1.00  0.00    -0.508 OA
ATOM     18  H   UNL     1       8.573  10.660   3.962  1.00  0.00     0.293 HD
ENDBRANCH  14  17
BRANCH  15  19
ATOM     19  O   UNL     1       8.706  12.610   9.334  1.00  0.00    -0.508 OA
ATOM     20  H   UNL     1       9.508  12.179   9.781  1.00  0.00     0.293 HD
ENDBRANCH  15  19
ENDBRANCH  10  11
ENDBRANCH   1  10
TORSDOF 6
ENDMDL
MODEL 6
REMARK VINA RESULT:    -6.122      1.984      6.200
REMARK INTER + INTRA:          -8.276
REMARK INTER:                  -7.723
REMARK INTRA:                  -0.553
REMARK UNBOUND:                -0.544
REMARK SMILES Oc1cc(O)cc(CCc2ccccc2O)c1
REMARK SMILES IDX 9 1 10 2 12 3 13 4 11 5 14 6 15 7 16 8 8 10 7 11 6 12 17 13
REMARK SMILES IDX 4 14 2 15 3 16 5 17 1 19
REMARK H PARENT 16 9 5 18 1 20
REMARK Flexibility Score: inf
ROOT
ATOM      1  C   UNL     1       7.706  10.995   8.086  1.00  0.00     0.044 C 
ENDROOT
BRANCH   1   2
ATOM      2  C   UNL     1       8.325  11.457   6.792  1.00  0.00    -0.006 A 
ATOM      3  C   UNL     1       9.979  12.807   5.626  1.00  0.00     0.001 A 
ATOM      4  C   UNL     1       9.457  12.395   4.398  1.00  0.00     0.004 A 
ATOM      5  C   UNL     1       9.414  12.345   6.818  1.00  0.00     0.007 A 
ATOM      6  C   UNL     1       8.365  11.525   4.359  1.00  0.00     0.046 A 
ATOM      7  C   UNL     1       7.790  11.056   5.549  1.00  0.00     0.118 A 
BRANCH   7   8
ATOM      8  O   UNL     1       6.691  10.198   5.502  1.00  0.00    -0.508 OA
ATOM      9  H   UNL     1       6.656   9.351   6.057  1.00  0.00     0.293 HD
ENDBRANCH   7   8
ENDBRANCH   1   2
BRANCH   1  10
ATOM     10  C   UNL     1       6.846  12.103   8.699  1.00  0.00     0.040 C 
BRANCH  10  11
ATOM     11  C   UNL     1       5.408  11.668   8.792  1.00  0.00    -0.040 A 
ATOM     12  C   UNL     1       4.406  12.602   9.102  1.00  0.00     0.050 A 
ATOM     13  C   UNL     1       5.050  10.339   8.513  1.00  0.00     0.050 A 
ATOM     14  C   UNL     1       3.062  12.205   9.156  1.00  0.00     0.119 A 
ATOM     15  C   UNL     1       3.707   9.942   8.566  1.00  0.00     0.119 A 
ATOM     16  C   UNL     1       2.717  10.876   8.890  1.00  0.00     0.092 A 
BRANCH  14  17
ATOM     17  O   UNL     1       2.063  13.125   9.469  1.00  0.00    -0.508 OA
ATOM     18  H   UNL     1       1.124  13.032   9.101  1.00  0.00     0.293 HD
ENDBRANCH  14  17
BRANCH  15  19
ATOM     19  O   UNL     1       3.345   8.625   8.296  1.00  0.00    -0.508 OA
ATOM     20  H   UNL     1       2.608   8.161   8.815  1.00  0.00     0.293 HD
ENDBRANCH  15  19
ENDBRANCH  10  11
ENDBRANCH   1  10
TORSDOF 6
ENDMDL
MODEL 7
REMARK VINA RESULT:    -5.901      1.818      2.486
REMARK INTER + INTRA:          -7.998
REMARK INTER:                  -7.438
REMARK INTRA:                  -0.560
REMARK UNBOUND:                -0.544
REMARK SMILES Oc1cc(O)cc(CCc2ccccc2O)c1
REMARK SMILES IDX 9 1 10 2 12 3 13 4 11 5 14 6 15 7 16 8 8 10 7 11 6 12 17 13
REMARK SMILES IDX 4 14 2 15 3 16 5 17 1 19
REMARK H PARENT 16 9 5 18 1 20
REMARK Flexibility Score: inf
ROOT
ATOM      1  C   UNL     1       5.454  10.402   6.942  1.00  0.00     0.044 C 
ENDROOT
BRANCH   1   2
ATOM      2  C   UNL     1       4.479  11.161   7.803  1.00  0.00    -0.006 A 
ATOM      3  C   UNL     1       3.955  13.124   9.142  1.00  0.00     0.001 A 
ATOM      4  C   UNL     1       2.714  12.574   9.471  1.00  0.00     0.004 A 
ATOM      5  C   UNL     1       4.836  12.421   8.315  1.00  0.00     0.007 A 
ATOM      6  C   UNL     1       2.355  11.317   8.981  1.00  0.00     0.046 A 
ATOM      7  C   UNL     1       3.232  10.602   8.153  1.00  0.00     0.118 A 
BRANCH   7   8
ATOM      8  O   UNL     1       2.871   9.341   7.678  1.00  0.00    -0.508 OA
ATOM      9  H   UNL     1       3.560   8.696   7.308  1.00  0.00     0.293 HD
ENDBRANCH   7   8
ENDBRANCH   1   2
BRANCH   1  10
ATOM     10  C   UNL     1       5.598  11.069   5.572  1.00  0.00     0.040 C 
BRANCH  10  11
ATOM     11  C   UNL     1       7.015  11.526   5.351  1.00  0.00    -0.040 A 
ATOM     12  C   UNL     1       7.431  11.949   4.077  1.00  0.00     0.050 A 
ATOM     13  C   UNL     1       7.915  11.590   6.427  1.00  0.00     0.050 A 
ATOM     14  C   UNL     1       8.741  12.407   3.878  1.00  0.00     0.119 A 
ATOM     15  C   UNL     1       9.225  12.048   6.228  1.00  0.00     0.119 A 
ATOM     16  C   UNL     1       9.634  12.453   4.954  1.00  0.00     0.092 A 
BRANCH  14  17
ATOM     17  O   UNL     1       9.164  12.821   2.616  1.00  0.00    -0.508 OA
ATOM     18  H   UNL     1       8.522  13.243   1.956  1.00  0.00     0.293 HD
ENDBRANCH  14  17
BRANCH  15  19
ATOM     19  O   UNL     1      10.124  12.108   7.290  1.00  0.00    -0.508 OA
ATOM     20  H   UNL     1       9.880  12.557   8.166  1.00  0.00     0.293 HD
ENDBRANCH  15  19
ENDBRANCH  10  11
ENDBRANCH   1  10
TORSDOF 6
ENDMDL
MODEL 8
REMARK VINA RESULT:    -3.548      0.160      2.029
REMARK INTER + INTRA:          -5.026
REMARK INTER:                  -4.493
REMARK INTRA:                  -0.534
REMARK UNBOUND:                -0.544
REMARK SMILES Oc1cc(O)cc(CCc2ccccc2O)c1
REMARK SMILES IDX 9 1 10 2 12 3 13 4 11 5 14 6 15 7 16 8 8 10 7 11 6 12 17 13
REMARK SMILES IDX 4 14 2 15 3 16 5 17 1 19
REMARK H PARENT 16 9 5 18 1 20
REMARK Flexibility Score: inf
ROOT
ATOM      1  C   UNL     1       4.366   9.876   9.345  1.00  0.00     0.044 C 
ENDROOT
BRANCH   1   2
ATOM      2  C   UNL     1       3.244  10.867   9.524  1.00  0.00    -0.006 A 
ATOM      3  C   UNL     1       2.382  13.125   9.251  1.00  0.00     0.001 A 
ATOM      4  C   UNL     1       1.203  12.759   9.905  1.00  0.00     0.004 A 
ATOM      5  C   UNL     1       3.400  12.186   9.064  1.00  0.00     0.007 A 
ATOM      6  C   UNL     1       1.043  11.455  10.380  1.00  0.00     0.046 A 
ATOM      7  C   UNL     1       2.059  10.506  10.199  1.00  0.00     0.118 A 
BRANCH   7   8
ATOM      8  O   UNL     1       1.898   9.210  10.689  1.00  0.00    -0.508 OA
ATOM      9  H   UNL     1       2.192   8.956  11.625  1.00  0.00     0.293 HD
ENDBRANCH   7   8
ENDBRANCH   1   2
BRANCH   1  10
ATOM     10  C   UNL     1       4.506   9.480   7.872  1.00  0.00     0.040 C 
BRANCH  10  11
ATOM     11  C   UNL     1       5.535  10.339   7.188  1.00  0.00    -0.040 A 
ATOM     12  C   UNL     1       6.775  10.581   7.802  1.00  0.00     0.050 A 
ATOM     13  C   UNL     1       5.287  10.856   5.906  1.00  0.00     0.050 A 
ATOM     14  C   UNL     1       7.747  11.353   7.150  1.00  0.00     0.119 A 
ATOM     15  C   UNL     1       6.259  11.628   5.254  1.00  0.00     0.119 A 
ATOM     16  C   UNL     1       7.485  11.875   5.880  1.00  0.00     0.092 A 
BRANCH  14  17
ATOM     17  O   UNL     1       8.977  11.603   7.756  1.00  0.00    -0.508 OA
ATOM     18  H   UNL     1       9.813  11.098   7.486  1.00  0.00     0.293 HD
ENDBRANCH  14  17
BRANCH  15  19
ATOM     19  O   UNL     1       6.018  12.149   3.986  1.00  0.00    -0.508 OA
ATOM     20  H   UNL     1       5.624  13.075   3.860  1.00  0.00     0.293 HD
ENDBRANCH  15  19
ENDBRANCH  10  11
ENDBRANCH   1  10
TORSDOF 6
ENDMDL
