MODEL 1
REMARK VINA RESULT:    13.765      0.000      0.000
REMARK INTER + INTRA:          22.823
REMARK INTER:                  21.007
REMARK INTRA:                   1.815
REMARK UNBOUND:                 1.815
REMARK SMILES CC1=CCC[C@@H](C)C(=O)C[C@H](C(C)C)C(=O)C1
REMARK SMILES IDX 8 1 9 2 6 3 7 4 5 5 4 6 3 7 2 8 1 9 10 11 11 12 15 13 16 14
REMARK SMILES IDX 17 15 12 17 13 18 14 19
REMARK H PARENT
REMARK Flexibility Score: 70.00
ROOT
ATOM      1  C   UNL     1     146.239  57.467  16.563  1.00  0.00     0.136 C 
ATOM      2  O   UNL     1     147.176  57.558  15.783  1.00  0.00    -0.299 OA
ENDROOT
BRANCH   1   3
ATOM      3  C   UNL     1     144.935  58.182  16.266  1.00  0.00     0.053 C 
ATOM      4  C   UNL     1     144.711  59.275  17.317  1.00  0.00     0.016 C 
BRANCH   3   5
ATOM      5  C   UNL     1     143.721  57.224  16.222  1.00  0.00     0.015 C 
BRANCH   5   6
ATOM      6  C   UNL     1     143.260  56.868  14.797  1.00  0.00     0.028 C 
BRANCH   6   7
ATOM      7  C   UNL     1     144.432  56.551  13.899  1.00  0.00    -0.028 C 
ATOM      8  C   UNL     1     145.261  55.491  14.032  1.00  0.00    -0.070 CG0
ATOM      9  C   UNL     1     146.385  55.342  13.038  1.00  0.00     0.039 C 
ATOM     10  G   UNL     1     145.107  54.453  15.129  1.00  0.00     0.000 G0
ENDBRANCH   6   7
ENDBRANCH   5   6
ENDBRANCH   3   5
ENDBRANCH   1   3
BRANCH   1  11
ATOM     11  C   UNL     1     146.373  56.584  17.779  1.00  0.00     0.087 C 
BRANCH  11  12
ATOM     12  C   UNL     1     145.681  55.215  17.576  1.00  0.00     0.066 C 
BRANCH  12  13
ATOM     13  C   UNL     1     146.096  54.597  16.250  1.00  0.00     0.140 C 
ATOM     14  O   UNL     1     147.243  54.202  16.096  1.00  0.00    -0.299 OA
BRANCH  13  15
ATOM     15  C   UNL     1     145.112  54.426  15.121  1.00  0.00     0.106 CG0
ATOM     16  G   UNL     1     145.271  55.490  14.050  1.00  0.00     0.000 G0
ENDBRANCH  13  15
ENDBRANCH  12  13
BRANCH  12  17
ATOM     17  C   UNL     1     145.907  54.214  18.753  1.00  0.00    -0.006 C 
ATOM     18  C   UNL     1     144.614  53.779  19.464  1.00  0.00     0.008 C 
ATOM     19  C   UNL     1     146.694  52.974  18.296  1.00  0.00     0.008 C 
ENDBRANCH  12  17
ENDBRANCH  11  12
ENDBRANCH   1  11
TORSDOF 1
ENDMDL
MODEL 2
REMARK VINA RESULT:    14.189      2.026      4.502
REMARK INTER + INTRA:          23.470
REMARK INTER:                  20.273
REMARK INTRA:                   3.197
REMARK UNBOUND:                 1.815
REMARK SMILES CC1=CCC[C@@H](C)C(=O)C[C@H](C(C)C)C(=O)C1
REMARK SMILES IDX 8 1 9 2 6 3 7 4 5 5 4 6 3 7 2 8 1 9 10 11 11 12 15 13 16 14
REMARK SMILES IDX 17 15 12 17 13 18 14 19
REMARK H PARENT
REMARK Flexibility Score: 70.00
ROOT
ATOM      1  C   UNL     1     145.875  54.309  15.862  1.00  0.00     0.136 C 
ATOM      2  O   UNL     1     146.203  53.258  15.330  1.00  0.00    -0.299 OA
ENDROOT
BRANCH   1   3
ATOM      3  C   UNL     1     146.444  54.682  17.217  1.00  0.00     0.053 C 
ATOM      4  C   UNL     1     146.475  53.436  18.109  1.00  0.00     0.016 C 
BRANCH   3   5
ATOM      5  C   UNL     1     145.653  55.817  17.910  1.00  0.00     0.015 C 
BRANCH   5   6
ATOM      6  C   UNL     1     146.293  57.208  17.754  1.00  0.00     0.028 C 
BRANCH   6   7
ATOM      7  C   UNL     1     147.764  57.106  17.423  1.00  0.00    -0.028 C 
ATOM      8  C   UNL     1     148.338  57.500  16.263  1.00  0.00    -0.070 CG0
ATOM      9  C   UNL     1     149.827  57.313  16.112  1.00  0.00     0.039 C 
ATOM     10  G   UNL     1     147.555  58.119  15.120  1.00  0.00     0.000 G0
ENDBRANCH   6   7
ENDBRANCH   5   6
ENDBRANCH   3   5
ENDBRANCH   1   3
BRANCH   1  11
ATOM     11  C   UNL     1     144.957  55.253  15.126  1.00  0.00     0.087 C 
BRANCH  11  12
ATOM     12  C   UNL     1     145.315  56.733  15.399  1.00  0.00     0.066 C 
BRANCH  12  13
ATOM     13  C   UNL     1     146.521  57.154  14.575  1.00  0.00     0.140 C 
ATOM     14  O   UNL     1     146.652  56.738  13.433  1.00  0.00    -0.299 OA
BRANCH  13  15
ATOM     15  C   UNL     1     147.553  58.107  15.123  1.00  0.00     0.106 CG0
ATOM     16  G   UNL     1     148.347  57.502  16.267  1.00  0.00     0.000 G0
ENDBRANCH  13  15
ENDBRANCH  12  13
BRANCH  12  17
ATOM     17  C   UNL     1     144.123  57.720  15.186  1.00  0.00    -0.006 C 
ATOM     18  C   UNL     1     142.942  57.118  14.405  1.00  0.00     0.008 C 
ATOM     19  C   UNL     1     143.625  58.301  16.520  1.00  0.00     0.008 C 
ENDBRANCH  12  17
ENDBRANCH  11  12
ENDBRANCH   1  11
TORSDOF 1
ENDMDL
MODEL 3
REMARK VINA RESULT:    14.253      1.906      3.245
REMARK INTER + INTRA:          23.567
REMARK INTER:                  21.984
REMARK INTRA:                   1.584
REMARK UNBOUND:                 1.815
REMARK SMILES CC1=CCC[C@@H](C)C(=O)C[C@H](C(C)C)C(=O)C1
REMARK SMILES IDX 8 1 9 2 6 3 7 4 5 5 4 6 3 7 2 8 1 9 10 11 11 12 15 13 16 14
REMARK SMILES IDX 17 15 12 17 13 18 14 19
REMARK H PARENT
REMARK Flexibility Score: 70.00
ROOT
ATOM      1  C   UNL     1     144.990  55.829  14.625  1.00  0.00     0.136 C 
ATOM      2  O   UNL     1     145.840  56.210  13.832  1.00  0.00    -0.299 OA
ENDROOT
BRANCH   1   3
ATOM      3  C   UNL     1     143.742  56.658  14.854  1.00  0.00     0.053 C 
ATOM      4  C   UNL     1     142.796  56.481  13.661  1.00  0.00     0.016 C 
BRANCH   3   5
ATOM      5  C   UNL     1     144.050  58.159  15.075  1.00  0.00     0.015 C 
BRANCH   5   6
ATOM      6  C   UNL     1     144.942  58.437  16.298  1.00  0.00     0.028 C 
BRANCH   6   7
ATOM      7  C   UNL     1     146.407  58.294  15.958  1.00  0.00    -0.028 C 
ATOM      8  C   UNL     1     147.298  57.525  16.626  1.00  0.00    -0.070 CG0
ATOM      9  C   UNL     1     148.726  57.512  16.141  1.00  0.00     0.039 C 
ATOM     10  G   UNL     1     146.922  56.680  17.830  1.00  0.00     0.000 G0
ENDBRANCH   6   7
ENDBRANCH   5   6
ENDBRANCH   3   5
ENDBRANCH   1   3
BRANCH   1  11
ATOM     11  C   UNL     1     145.168  54.498  15.314  1.00  0.00     0.087 C 
BRANCH  11  12
ATOM     12  C   UNL     1     146.263  54.558  16.406  1.00  0.00     0.066 C 
BRANCH  12  13
ATOM     13  C   UNL     1     145.921  55.610  17.450  1.00  0.00     0.140 C 
ATOM     14  O   UNL     1     144.845  55.564  18.029  1.00  0.00    -0.299 OA
BRANCH  13  15
ATOM     15  C   UNL     1     146.897  56.698  17.817  1.00  0.00     0.106 CG0
ATOM     16  G   UNL     1     147.316  57.528  16.617  1.00  0.00     0.000 G0
ENDBRANCH  13  15
ENDBRANCH  12  13
BRANCH  12  17
ATOM     17  C   UNL     1     146.559  53.181  17.079  1.00  0.00    -0.006 C 
ATOM     18  C   UNL     1     147.969  52.633  16.796  1.00  0.00     0.008 C 
ATOM     19  C   UNL     1     146.312  53.228  18.596  1.00  0.00     0.008 C 
ENDBRANCH  12  17
ENDBRANCH  11  12
ENDBRANCH   1  11
TORSDOF 1
ENDMDL
MODEL 4
REMARK VINA RESULT:    14.643      1.296      4.006
REMARK INTER + INTRA:          24.163
REMARK INTER:                  21.719
REMARK INTRA:                   2.444
REMARK UNBOUND:                 1.815
REMARK SMILES CC1=CCC[C@@H](C)C(=O)C[C@H](C(C)C)C(=O)C1
REMARK SMILES IDX 8 1 9 2 6 3 7 4 5 5 4 6 3 7 2 8 1 9 10 11 11 12 15 13 16 14
REMARK SMILES IDX 17 15 12 17 13 18 14 19
REMARK H PARENT
REMARK Flexibility Score: 70.00
ROOT
ATOM      1  C   UNL     1     145.878  55.268  18.200  1.00  0.00     0.136 C 
ATOM      2  O   UNL     1     146.595  55.753  19.064  1.00  0.00    -0.299 OA
ENDROOT
BRANCH   1   3
ATOM      3  C   UNL     1     145.790  53.762  18.048  1.00  0.00     0.053 C 
ATOM      4  C   UNL     1     145.874  53.111  19.433  1.00  0.00     0.016 C 
BRANCH   3   5
ATOM      5  C   UNL     1     146.885  53.187  17.118  1.00  0.00     0.015 C 
BRANCH   5   6
ATOM      6  C   UNL     1     147.156  54.046  15.870  1.00  0.00     0.028 C 
BRANCH   6   7
ATOM      7  C   UNL     1     145.878  54.373  15.134  1.00  0.00    -0.028 C 
ATOM      8  C   UNL     1     145.586  55.561  14.555  1.00  0.00    -0.070 CG0
ATOM      9  C   UNL     1     144.251  55.703  13.868  1.00  0.00     0.039 C 
ATOM     10  G   UNL     1     146.538  56.743  14.567  1.00  0.00     0.000 G0
ENDBRANCH   6   7
ENDBRANCH   5   6
ENDBRANCH   3   5
ENDBRANCH   1   3
BRANCH   1  11
ATOM     11  C   UNL     1     145.038  56.181  17.342  1.00  0.00     0.087 C 
BRANCH  11  12
ATOM     12  C   UNL     1     145.782  57.492  16.996  1.00  0.00     0.066 C 
BRANCH  12  13
ATOM     13  C   UNL     1     146.856  57.238  15.950  1.00  0.00     0.140 C 
ATOM     14  O   UNL     1     148.034  57.391  16.239  1.00  0.00    -0.299 OA
BRANCH  13  15
ATOM     15  C   UNL     1     146.504  56.765  14.562  1.00  0.00     0.106 CG0
ATOM     16  G   UNL     1     145.580  55.561  14.580  1.00  0.00     0.000 G0
ENDBRANCH  13  15
ENDBRANCH  12  13
BRANCH  12  17
ATOM     17  C   UNL     1     144.838  58.655  16.555  1.00  0.00    -0.006 C 
ATOM     18  C   UNL     1     143.606  58.196  15.758  1.00  0.00     0.008 C 
ATOM     19  C   UNL     1     144.396  59.509  17.755  1.00  0.00     0.008 C 
ENDBRANCH  12  17
ENDBRANCH  11  12
ENDBRANCH   1  11
TORSDOF 1
ENDMDL
MODEL 5
REMARK VINA RESULT:    14.718      1.849      4.292
REMARK INTER + INTRA:          24.277
REMARK INTER:                  21.031
REMARK INTRA:                   3.246
REMARK UNBOUND:                 1.815
REMARK SMILES CC1=CCC[C@@H](C)C(=O)C[C@H](C(C)C)C(=O)C1
REMARK SMILES IDX 8 1 9 2 6 3 7 4 5 5 4 6 3 7 2 8 1 9 10 11 11 12 15 13 16 14
REMARK SMILES IDX 17 15 12 17 13 18 14 19
REMARK H PARENT
REMARK Flexibility Score: 70.00
ROOT
ATOM      1  C   UNL     1     144.393  56.813  15.028  1.00  0.00     0.136 C 
ATOM      2  O   UNL     1     143.364  56.892  14.372  1.00  0.00    -0.299 OA
ENDROOT
BRANCH   1   3
ATOM      3  C   UNL     1     145.508  55.890  14.579  1.00  0.00     0.053 C 
ATOM      4  C   UNL     1     145.557  55.869  13.047  1.00  0.00     0.016 C 
BRANCH   3   5
ATOM      5  C   UNL     1     145.356  54.451  15.129  1.00  0.00     0.015 C 
BRANCH   5   6
ATOM      6  C   UNL     1     146.692  53.781  15.498  1.00  0.00     0.028 C 
BRANCH   6   7
ATOM      7  C   UNL     1     146.722  53.368  16.950  1.00  0.00    -0.028 C 
ATOM      8  C   UNL     1     146.133  54.034  17.970  1.00  0.00    -0.070 CG0
ATOM      9  C   UNL     1     146.277  53.469  19.361  1.00  0.00     0.039 C 
ATOM     10  G   UNL     1     145.339  55.313  17.774  1.00  0.00     0.000 G0
ENDBRANCH   6   7
ENDBRANCH   5   6
ENDBRANCH   3   5
ENDBRANCH   1   3
BRANCH   1  11
ATOM     11  C   UNL     1     144.562  57.691  16.244  1.00  0.00     0.087 C 
BRANCH  11  12
ATOM     12  C   UNL     1     146.014  57.660  16.778  1.00  0.00     0.066 C 
BRANCH  12  13
ATOM     13  C   UNL     1     146.175  56.568  17.824  1.00  0.00     0.140 C 
ATOM     14  O   UNL     1     146.991  56.704  18.724  1.00  0.00    -0.299 OA
BRANCH  13  15
ATOM     15  C   UNL     1     145.322  55.325  17.801  1.00  0.00     0.106 CG0
ATOM     16  G   UNL     1     146.144  54.058  17.949  1.00  0.00     0.000 G0
ENDBRANCH  13  15
ENDBRANCH  12  13
BRANCH  12  17
ATOM     17  C   UNL     1     147.095  57.524  15.660  1.00  0.00    -0.006 C 
ATOM     18  C   UNL     1     147.199  58.749  14.735  1.00  0.00     0.008 C 
ATOM     19  C   UNL     1     148.477  57.194  16.247  1.00  0.00     0.008 C 
ENDBRANCH  12  17
ENDBRANCH  11  12
ENDBRANCH   1  11
TORSDOF 1
ENDMDL
MODEL 6
REMARK VINA RESULT:    14.764      1.258      2.202
REMARK INTER + INTRA:          24.346
REMARK INTER:                  22.735
REMARK INTRA:                   1.611
REMARK UNBOUND:                 1.815
REMARK SMILES CC1=CCC[C@@H](C)C(=O)C[C@H](C(C)C)C(=O)C1
REMARK SMILES IDX 8 1 9 2 6 3 7 4 5 5 4 6 3 7 2 8 1 9 10 11 11 12 15 13 16 14
REMARK SMILES IDX 17 15 12 17 13 18 14 19
REMARK H PARENT
REMARK Flexibility Score: 70.00
ROOT
ATOM      1  C   UNL     1     147.491  57.307  16.134  1.00  0.00     0.136 C 
ATOM      2  O   UNL     1     148.114  57.890  15.258  1.00  0.00    -0.299 OA
ENDROOT
BRANCH   1   3
ATOM      3  C   UNL     1     146.568  58.084  17.052  1.00  0.00     0.053 C 
ATOM      4  C   UNL     1     146.202  57.208  18.255  1.00  0.00     0.016 C 
BRANCH   3   5
ATOM      5  C   UNL     1     145.286  58.576  16.338  1.00  0.00     0.015 C 
BRANCH   5   6
ATOM      6  C   UNL     1     144.040  57.723  16.637  1.00  0.00     0.028 C 
BRANCH   6   7
ATOM      7  C   UNL     1     143.282  57.388  15.374  1.00  0.00    -0.028 C 
ATOM      8  C   UNL     1     143.796  56.761  14.291  1.00  0.00    -0.070 CG0
ATOM      9  C   UNL     1     142.884  56.517  13.116  1.00  0.00     0.039 C 
ATOM     10  G   UNL     1     145.239  56.296  14.212  1.00  0.00     0.000 G0
ENDBRANCH   6   7
ENDBRANCH   5   6
ENDBRANCH   3   5
ENDBRANCH   1   3
BRANCH   1  11
ATOM     11  C   UNL     1     147.600  55.806  16.242  1.00  0.00     0.087 C 
BRANCH  11  12
ATOM     12  C   UNL     1     146.213  55.137  16.386  1.00  0.00     0.066 C 
BRANCH  12  13
ATOM     13  C   UNL     1     145.516  55.053  15.037  1.00  0.00     0.140 C 
ATOM     14  O   UNL     1     145.141  53.969  14.612  1.00  0.00    -0.299 OA
BRANCH  13  15
ATOM     15  C   UNL     1     145.242  56.288  14.217  1.00  0.00     0.106 CG0
ATOM     16  G   UNL     1     143.790  56.723  14.297  1.00  0.00     0.000 G0
ENDBRANCH  13  15
ENDBRANCH  12  13
BRANCH  12  17
ATOM     17  C   UNL     1     146.256  53.738  17.079  1.00  0.00    -0.006 C 
ATOM     18  C   UNL     1     147.609  53.017  16.953  1.00  0.00     0.008 C 
ATOM     19  C   UNL     1     145.848  53.827  18.559  1.00  0.00     0.008 C 
ENDBRANCH  12  17
ENDBRANCH  11  12
ENDBRANCH   1  11
TORSDOF 1
ENDMDL
MODEL 7
REMARK VINA RESULT:    14.915      1.763      4.098
REMARK INTER + INTRA:          24.577
REMARK INTER:                  20.061
REMARK INTRA:                   4.516
REMARK UNBOUND:                 1.815
REMARK SMILES CC1=CCC[C@@H](C)C(=O)C[C@H](C(C)C)C(=O)C1
REMARK SMILES IDX 8 1 9 2 6 3 7 4 5 5 4 6 3 7 2 8 1 9 10 11 11 12 15 13 16 14
REMARK SMILES IDX 17 15 12 17 13 18 14 19
REMARK H PARENT
REMARK Flexibility Score: 70.00
ROOT
ATOM      1  C   UNL     1     145.803  54.836  17.741  1.00  0.00     0.136 C 
ATOM      2  O   UNL     1     144.890  54.763  18.552  1.00  0.00    -0.299 OA
ENDROOT
BRANCH   1   3
ATOM      3  C   UNL     1     146.063  53.685  16.790  1.00  0.00     0.053 C 
ATOM      4  C   UNL     1     147.565  53.375  16.776  1.00  0.00     0.016 C 
BRANCH   3   5
ATOM      5  C   UNL     1     145.561  53.966  15.354  1.00  0.00     0.015 C 
BRANCH   5   6
ATOM      6  C   UNL     1     145.776  55.418  14.892  1.00  0.00     0.028 C 
BRANCH   6   7
ATOM      7  C   UNL     1     144.562  55.955  14.170  1.00  0.00    -0.028 C 
ATOM      8  C   UNL     1     143.606  56.743  14.716  1.00  0.00    -0.070 CG0
ATOM      9  C   UNL     1     142.461  57.178  13.837  1.00  0.00     0.039 C 
ATOM     10  G   UNL     1     143.641  57.204  16.162  1.00  0.00     0.000 G0
ENDBRANCH   6   7
ENDBRANCH   5   6
ENDBRANCH   3   5
ENDBRANCH   1   3
BRANCH   1  11
ATOM     11  C   UNL     1     146.614  56.105  17.656  1.00  0.00     0.087 C 
BRANCH  11  12
ATOM     12  C   UNL     1     146.252  56.936  16.402  1.00  0.00     0.066 C 
BRANCH  12  13
ATOM     13  C   UNL     1     144.963  57.710  16.627  1.00  0.00     0.140 C 
ATOM     14  O   UNL     1     145.001  58.814  17.153  1.00  0.00    -0.299 OA
BRANCH  13  15
ATOM     15  C   UNL     1     143.630  57.163  16.182  1.00  0.00     0.106 CG0
ATOM     16  G   UNL     1     143.624  56.783  14.713  1.00  0.00     0.000 G0
ENDBRANCH  13  15
ENDBRANCH  12  13
BRANCH  12  17
ATOM     17  C   UNL     1     147.396  57.885  15.923  1.00  0.00    -0.006 C 
ATOM     18  C   UNL     1     148.811  57.378  16.250  1.00  0.00     0.008 C 
ATOM     19  C   UNL     1     147.286  58.188  14.419  1.00  0.00     0.008 C 
ENDBRANCH  12  17
ENDBRANCH  11  12
ENDBRANCH   1  11
TORSDOF 1
ENDMDL
MODEL 8
REMARK VINA RESULT:    15.918      1.872      3.889
REMARK INTER + INTRA:          26.109
REMARK INTER:                  22.300
REMARK INTRA:                   3.809
REMARK UNBOUND:                 1.815
REMARK SMILES CC1=CCC[C@@H](C)C(=O)C[C@H](C(C)C)C(=O)C1
REMARK SMILES IDX 8 1 9 2 6 3 7 4 5 5 4 6 3 7 2 8 1 9 10 11 11 12 15 13 16 14
REMARK SMILES IDX 17 15 12 17 13 18 14 19
REMARK H PARENT
REMARK Flexibility Score: 70.00
ROOT
ATOM      1  C   UNL     1     143.649  57.278  15.057  1.00  0.00     0.136 C 
ATOM      2  O   UNL     1     142.625  57.301  14.388  1.00  0.00    -0.299 OA
ENDROOT
BRANCH   1   3
ATOM      3  C   UNL     1     143.623  57.749  16.497  1.00  0.00     0.053 C 
ATOM      4  C   UNL     1     144.695  58.826  16.693  1.00  0.00     0.016 C 
BRANCH   3   5
ATOM      5  C   UNL     1     143.830  56.597  17.510  1.00  0.00     0.015 C 
BRANCH   5   6
ATOM      6  C   UNL     1     145.292  56.417  17.958  1.00  0.00     0.028 C 
BRANCH   6   7
ATOM      7  C   UNL     1     145.519  55.055  18.572  1.00  0.00    -0.028 C 
ATOM      8  C   UNL     1     146.247  54.056  18.022  1.00  0.00    -0.070 CG0
ATOM      9  C   UNL     1     146.357  52.759  18.783  1.00  0.00     0.039 C 
ATOM     10  G   UNL     1     146.953  54.187  16.684  1.00  0.00     0.000 G0
ENDBRANCH   6   7
ENDBRANCH   5   6
ENDBRANCH   3   5
ENDBRANCH   1   3
BRANCH   1  11
ATOM     11  C   UNL     1     144.911  56.714  14.453  1.00  0.00     0.087 C 
BRANCH  11  12
ATOM     12  C   UNL     1     145.950  56.339  15.537  1.00  0.00     0.066 C 
BRANCH  12  13
ATOM     13  C   UNL     1     146.092  54.828  15.642  1.00  0.00     0.140 C 
ATOM     14  O   UNL     1     145.511  54.106  14.845  1.00  0.00    -0.299 OA
BRANCH  13  15
ATOM     15  C   UNL     1     146.966  54.193  16.694  1.00  0.00     0.106 CG0
ATOM     16  G   UNL     1     146.252  54.044  18.025  1.00  0.00     0.000 G0
ENDBRANCH  13  15
ENDBRANCH  12  13
BRANCH  12  17
ATOM     17  C   UNL     1     147.342  57.017  15.337  1.00  0.00    -0.006 C 
ATOM     18  C   UNL     1     147.319  58.232  14.394  1.00  0.00     0.008 C 
ATOM     19  C   UNL     1     147.977  57.411  16.681  1.00  0.00     0.008 C 
ENDBRANCH  12  17
ENDBRANCH  11  12
ENDBRANCH   1  11
TORSDOF 1
ENDMDL
MODEL 9
REMARK VINA RESULT:    16.401      2.007      2.991
REMARK INTER + INTRA:          26.845
REMARK INTER:                  25.472
REMARK INTRA:                   1.373
REMARK UNBOUND:                 1.815
REMARK SMILES CC1=CCC[C@@H](C)C(=O)C[C@H](C(C)C)C(=O)C1
REMARK SMILES IDX 8 1 9 2 6 3 7 4 5 5 4 6 3 7 2 8 1 9 10 11 11 12 15 13 16 14
REMARK SMILES IDX 17 15 12 17 13 18 14 19
REMARK H PARENT
REMARK Flexibility Score: 70.00
ROOT
ATOM      1  C   UNL     1     144.210  57.456  16.195  1.00  0.00     0.136 C 
ATOM      2  O   UNL     1     144.171  58.606  16.607  1.00  0.00    -0.299 OA
ENDROOT
BRANCH   1   3
ATOM      3  C   UNL     1     144.003  57.173  14.720  1.00  0.00     0.053 C 
ATOM      4  C   UNL     1     142.500  57.145  14.420  1.00  0.00     0.016 C 
BRANCH   3   5
ATOM      5  C   UNL     1     144.665  55.852  14.262  1.00  0.00     0.015 C 
BRANCH   5   6
ATOM      6  C   UNL     1     146.179  55.967  14.014  1.00  0.00     0.028 C 
BRANCH   6   7
ATOM      7  C   UNL     1     146.631  57.409  14.009  1.00  0.00    -0.028 C 
ATOM      8  C   UNL     1     147.441  57.982  14.928  1.00  0.00    -0.070 CG0
ATOM      9  C   UNL     1     147.780  59.442  14.760  1.00  0.00     0.039 C 
ATOM     10  G   UNL     1     148.021  57.224  16.108  1.00  0.00     0.000 G0
ENDBRANCH   6   7
ENDBRANCH   5   6
ENDBRANCH   3   5
ENDBRANCH   1   3
BRANCH   1  11
ATOM     11  C   UNL     1     144.533  56.338  17.156  1.00  0.00     0.087 C 
BRANCH  11  12
ATOM     12  C   UNL     1     145.967  55.797  16.947  1.00  0.00     0.066 C 
BRANCH  12  13
ATOM     13  C   UNL     1     146.991  56.901  17.157  1.00  0.00     0.140 C 
ATOM     14  O   UNL     1     147.008  57.524  18.209  1.00  0.00    -0.299 OA
BRANCH  13  15
ATOM     15  C   UNL     1     148.020  57.228  16.104  1.00  0.00     0.106 CG0
ATOM     16  G   UNL     1     147.428  58.002  14.939  1.00  0.00     0.000 G0
ENDBRANCH  13  15
ENDBRANCH  12  13
BRANCH  12  17
ATOM     17  C   UNL     1     146.304  54.550  17.825  1.00  0.00    -0.006 C 
ATOM     18  C   UNL     1     145.212  54.188  18.847  1.00  0.00     0.008 C 
ATOM     19  C   UNL     1     146.636  53.323  16.960  1.00  0.00     0.008 C 
ENDBRANCH  12  17
ENDBRANCH  11  12
ENDBRANCH   1  11
TORSDOF 1
ENDMDL
