MODEL 1
REMARK VINA RESULT:    -3.306      0.000      0.000
REMARK INTER + INTRA:          -4.000
REMARK INTER:                  -3.885
REMARK INTRA:                  -0.115
REMARK UNBOUND:                -0.115
REMARK SMILES O=C([O-])CCC(=O)[O-]
REMARK SMILES IDX 4 1 2 2 1 3 3 4 5 5 6 6 7 7 8 8
REMARK H PARENT
REMARK Flexibility Score: inf
ROOT
ATOM      1  C   UNL     1      59.230  34.282  80.079  1.00  0.00     0.059 C 
ENDROOT
BRANCH   1   2
ATOM      2  C   UNL     1      57.975  33.533  79.752  1.00  0.00     0.042 C 
ATOM      3  O   UNL     1      57.229  33.111  80.674  1.00  0.00    -0.550 OA
ATOM      4  O   UNL     1      57.649  33.267  78.427  1.00  0.00    -0.550 OA
ENDBRANCH   1   2
BRANCH   1   5
ATOM      5  C   UNL     1      58.980  35.369  81.130  1.00  0.00     0.059 C 
BRANCH   5   6
ATOM      6  C   UNL     1      58.490  36.639  80.506  1.00  0.00     0.042 C 
ATOM      7  O   UNL     1      57.543  37.280  81.035  1.00  0.00    -0.550 OA
ATOM      8  O   UNL     1      59.106  37.138  79.365  1.00  0.00    -0.550 OA
ENDBRANCH   5   6
ENDBRANCH   1   5
TORSDOF 3
ENDMDL
MODEL 2
REMARK VINA RESULT:    -3.281      1.497      1.811
REMARK INTER + INTRA:          -3.971
REMARK INTER:                  -3.846
REMARK INTRA:                  -0.125
REMARK UNBOUND:                -0.115
REMARK SMILES O=C([O-])CCC(=O)[O-]
REMARK SMILES IDX 4 1 2 2 1 3 3 4 5 5 6 6 7 7 8 8
REMARK H PARENT
REMARK Flexibility Score: inf
ROOT
ATOM      1  C   UNL     1      57.797  33.520  79.647  1.00  0.00     0.059 C 
ENDROOT
BRANCH   1   2
ATOM      2  C   UNL     1      57.895  33.207  78.186  1.00  0.00     0.042 C 
ATOM      3  O   UNL     1      57.487  34.036  77.331  1.00  0.00    -0.550 OA
ATOM      4  O   UNL     1      58.401  31.981  77.770  1.00  0.00    -0.550 OA
ENDBRANCH   1   2
BRANCH   1   5
ATOM      5  C   UNL     1      59.068  34.205  80.163  1.00  0.00     0.059 C 
BRANCH   5   6
ATOM      6  C   UNL     1      58.948  35.697  80.119  1.00  0.00     0.042 C 
ATOM      7  O   UNL     1      58.483  36.324  81.108  1.00  0.00    -0.550 OA
ATOM      8  O   UNL     1      59.388  36.400  79.004  1.00  0.00    -0.550 OA
ENDBRANCH   5   6
ENDBRANCH   1   5
TORSDOF 3
ENDMDL
MODEL 3
REMARK VINA RESULT:    -3.264      1.555      3.900
REMARK INTER + INTRA:          -3.952
REMARK INTER:                  -3.909
REMARK INTRA:                  -0.043
REMARK UNBOUND:                -0.115
REMARK SMILES O=C([O-])CCC(=O)[O-]
REMARK SMILES IDX 4 1 2 2 1 3 3 4 5 5 6 6 7 7 8 8
REMARK H PARENT
REMARK Flexibility Score: inf
ROOT
ATOM      1  C   UNL     1      57.826  35.344  79.555  1.00  0.00     0.059 C 
ENDROOT
BRANCH   1   2
ATOM      2  C   UNL     1      58.447  35.981  80.760  1.00  0.00     0.042 C 
ATOM      3  O   UNL     1      59.243  35.327  81.483  1.00  0.00    -0.550 OA
ATOM      4  O   UNL     1      58.116  37.286  81.105  1.00  0.00    -0.550 OA
ENDBRANCH   1   2
BRANCH   1   5
ATOM      5  C   UNL     1      58.116  33.840  79.500  1.00  0.00     0.059 C 
BRANCH   5   6
ATOM      6  C   UNL     1      57.924  33.291  78.120  1.00  0.00     0.042 C 
ATOM      7  O   UNL     1      57.479  34.028  77.201  1.00  0.00    -0.550 OA
ATOM      8  O   UNL     1      58.276  31.977  77.837  1.00  0.00    -0.550 OA
ENDBRANCH   5   6
ENDBRANCH   1   5
TORSDOF 3
ENDMDL
MODEL 4
REMARK VINA RESULT:    -3.244      1.542      1.974
REMARK INTER + INTRA:          -3.928
REMARK INTER:                  -3.889
REMARK INTRA:                  -0.039
REMARK UNBOUND:                -0.115
REMARK SMILES O=C([O-])CCC(=O)[O-]
REMARK SMILES IDX 4 1 2 2 1 3 3 4 5 5 6 6 7 7 8 8
REMARK H PARENT
REMARK Flexibility Score: inf
ROOT
ATOM      1  C   UNL     1      58.251  33.785  79.512  1.00  0.00     0.059 C 
ENDROOT
BRANCH   1   2
ATOM      2  C   UNL     1      57.983  33.202  78.159  1.00  0.00     0.042 C 
ATOM      3  O   UNL     1      58.185  31.978  77.945  1.00  0.00    -0.550 OA
ATOM      4  O   UNL     1      57.547  34.020  77.124  1.00  0.00    -0.550 OA
ENDBRANCH   1   2
BRANCH   1   5
ATOM      5  C   UNL     1      57.882  35.271  79.569  1.00  0.00     0.059 C 
BRANCH   5   6
ATOM      6  C   UNL     1      58.456  35.938  80.781  1.00  0.00     0.042 C 
ATOM      7  O   UNL     1      59.250  35.311  81.532  1.00  0.00    -0.550 OA
ATOM      8  O   UNL     1      58.148  37.263  81.060  1.00  0.00    -0.550 OA
ENDBRANCH   5   6
ENDBRANCH   1   5
TORSDOF 3
ENDMDL
MODEL 5
REMARK VINA RESULT:    -3.182      1.233      3.899
REMARK INTER + INTRA:          -3.855
REMARK INTER:                  -3.746
REMARK INTRA:                  -0.110
REMARK UNBOUND:                -0.115
REMARK SMILES O=C([O-])CCC(=O)[O-]
REMARK SMILES IDX 4 1 2 2 1 3 3 4 5 5 6 6 7 7 8 8
REMARK H PARENT
REMARK Flexibility Score: inf
ROOT
ATOM      1  C   UNL     1      57.376  36.267  79.045  1.00  0.00     0.059 C 
ENDROOT
BRANCH   1   2
ATOM      2  C   UNL     1      58.118  37.230  79.919  1.00  0.00     0.042 C 
ATOM      3  O   UNL     1      57.967  37.199  81.169  1.00  0.00    -0.550 OA
ATOM      4  O   UNL     1      58.947  38.190  79.350  1.00  0.00    -0.550 OA
ENDBRANCH   1   2
BRANCH   1   5
ATOM      5  C   UNL     1      58.283  35.129  78.564  1.00  0.00     0.059 C 
BRANCH   5   6
ATOM      6  C   UNL     1      58.032  33.863  79.324  1.00  0.00     0.042 C 
ATOM      7  O   UNL     1      57.652  32.826  78.718  1.00  0.00    -0.550 OA
ATOM      8  O   UNL     1      58.258  33.816  80.694  1.00  0.00    -0.550 OA
ENDBRANCH   5   6
ENDBRANCH   1   5
TORSDOF 3
ENDMDL
MODEL 6
REMARK VINA RESULT:    -3.151      1.280      1.730
REMARK INTER + INTRA:          -3.819
REMARK INTER:                  -3.695
REMARK INTRA:                  -0.123
REMARK UNBOUND:                -0.115
REMARK SMILES O=C([O-])CCC(=O)[O-]
REMARK SMILES IDX 4 1 2 2 1 3 3 4 5 5 6 6 7 7 8 8
REMARK H PARENT
REMARK Flexibility Score: inf
ROOT
ATOM      1  C   UNL     1      57.876  35.212  78.644  1.00  0.00     0.059 C 
ENDROOT
BRANCH   1   2
ATOM      2  C   UNL     1      57.955  33.895  79.353  1.00  0.00     0.042 C 
ATOM      3  O   UNL     1      58.264  33.849  80.573  1.00  0.00    -0.550 OA
ATOM      4  O   UNL     1      57.724  32.716  78.656  1.00  0.00    -0.550 OA
ENDBRANCH   1   2
BRANCH   1   5
ATOM      5  C   UNL     1      59.099  36.087  78.942  1.00  0.00     0.059 C 
BRANCH   5   6
ATOM      6  C   UNL     1      58.722  37.330  79.686  1.00  0.00     0.042 C 
ATOM      7  O   UNL     1      59.037  38.462  79.230  1.00  0.00    -0.550 OA
ATOM      8  O   UNL     1      57.986  37.243  80.862  1.00  0.00    -0.550 OA
ENDBRANCH   5   6
ENDBRANCH   1   5
TORSDOF 3
ENDMDL
MODEL 7
REMARK VINA RESULT:    -3.079      1.897      2.507
REMARK INTER + INTRA:          -3.734
REMARK INTER:                  -3.630
REMARK INTRA:                  -0.104
REMARK UNBOUND:                -0.115
REMARK SMILES O=C([O-])CCC(=O)[O-]
REMARK SMILES IDX 4 1 2 2 1 3 3 4 5 5 6 6 7 7 8 8
REMARK H PARENT
REMARK Flexibility Score: inf
ROOT
ATOM      1  C   UNL     1      57.586  35.474  79.638  1.00  0.00     0.059 C 
ENDROOT
BRANCH   1   2
ATOM      2  C   UNL     1      58.742  34.854  80.360  1.00  0.00     0.042 C 
ATOM      3  O   UNL     1      59.306  33.831  79.893  1.00  0.00    -0.550 OA
ATOM      4  O   UNL     1      59.171  35.386  81.571  1.00  0.00    -0.550 OA
ENDBRANCH   1   2
BRANCH   1   5
ATOM      5  C   UNL     1      57.421  36.954  80.002  1.00  0.00     0.059 C 
BRANCH   5   6
ATOM      6  C   UNL     1      57.995  37.850  78.948  1.00  0.00     0.042 C 
ATOM      7  O   UNL     1      57.232  38.511  78.195  1.00  0.00    -0.550 OA
ATOM      8  O   UNL     1      59.372  37.987  78.823  1.00  0.00    -0.550 OA
ENDBRANCH   5   6
ENDBRANCH   1   5
TORSDOF 3
ENDMDL
MODEL 8
REMARK VINA RESULT:    -3.056      2.408      3.455
REMARK INTER + INTRA:          -3.707
REMARK INTER:                  -3.589
REMARK INTRA:                  -0.118
REMARK UNBOUND:                -0.115
REMARK SMILES O=C([O-])CCC(=O)[O-]
REMARK SMILES IDX 4 1 2 2 1 3 3 4 5 5 6 6 7 7 8 8
REMARK H PARENT
REMARK Flexibility Score: inf
ROOT
ATOM      1  C   UNL     1      58.781  36.112  79.247  1.00  0.00     0.059 C 
ENDROOT
BRANCH   1   2
ATOM      2  C   UNL     1      58.593  36.305  80.720  1.00  0.00     0.042 C 
ATOM      3  O   UNL     1      57.960  37.304  81.153  1.00  0.00    -0.550 OA
ATOM      4  O   UNL     1      59.152  35.402  81.616  1.00  0.00    -0.550 OA
ENDBRANCH   1   2
BRANCH   1   5
ATOM      5  C   UNL     1      57.499  35.604  78.577  1.00  0.00     0.059 C 
BRANCH   5   6
ATOM      6  C   UNL     1      56.818  36.685  77.796  1.00  0.00     0.042 C 
ATOM      7  O   UNL     1      57.222  37.876  77.878  1.00  0.00    -0.550 OA
ATOM      8  O   UNL     1      55.765  36.373  76.945  1.00  0.00    -0.550 OA
ENDBRANCH   5   6
ENDBRANCH   1   5
TORSDOF 3
ENDMDL
MODEL 9
REMARK VINA RESULT:    -3.018      1.984      2.385
REMARK INTER + INTRA:          -3.663
REMARK INTER:                  -3.578
REMARK INTRA:                  -0.085
REMARK UNBOUND:                -0.115
REMARK SMILES O=C([O-])CCC(=O)[O-]
REMARK SMILES IDX 4 1 2 2 1 3 3 4 5 5 6 6 7 7 8 8
REMARK H PARENT
REMARK Flexibility Score: inf
ROOT
ATOM      1  C   UNL     1      58.853  35.887  79.327  1.00  0.00     0.059 C 
ENDROOT
BRANCH   1   2
ATOM      2  C   UNL     1      58.691  34.995  80.519  1.00  0.00     0.042 C 
ATOM      3  O   UNL     1      59.118  35.359  81.646  1.00  0.00    -0.550 OA
ATOM      4  O   UNL     1      58.102  33.744  80.377  1.00  0.00    -0.550 OA
ENDBRANCH   1   2
BRANCH   1   5
ATOM      5  C   UNL     1      57.525  36.086  78.587  1.00  0.00     0.059 C 
BRANCH   5   6
ATOM      6  C   UNL     1      56.914  37.418  78.896  1.00  0.00     0.042 C 
ATOM      7  O   UNL     1      56.194  37.562  79.920  1.00  0.00    -0.550 OA
ATOM      8  O   UNL     1      57.174  38.511  78.079  1.00  0.00    -0.550 OA
ENDBRANCH   5   6
ENDBRANCH   1   5
TORSDOF 3
ENDMDL
