MODEL 1
REMARK VINA RESULT:    -5.002      0.000      0.000
REMARK INTER + INTRA:          -5.148
REMARK INTER:                  -5.148
REMARK INTRA:                   0.000
REMARK UNBOUND:                 0.000
REMARK SMILES Cc1cccc(O)c1C
REMARK SMILES IDX 1 1 2 2 8 3 6 4 5 5 4 6 3 7 9 8 7 9
REMARK H PARENT 7 10
REMARK Flexibility Score: inf
ROOT
ATOM      1  C   UNL     1     115.750  52.423  -0.670  1.00  0.00     0.045 C 
ATOM      2  C   UNL     1     116.578  52.292  -1.923  1.00  0.00    -0.045 A 
ATOM      3  C   UNL     1     116.555  51.117  -2.725  1.00  0.00    -0.006 A 
ATOM      4  C   UNL     1     117.360  51.063  -3.891  1.00  0.00     0.118 A 
ATOM      5  C   UNL     1     118.161  52.153  -4.239  1.00  0.00     0.046 A 
ATOM      6  C   UNL     1     118.180  53.299  -3.451  1.00  0.00     0.004 A 
ATOM      7  C   UNL     1     117.396  53.371  -2.302  1.00  0.00     0.004 A 
ATOM      8  C   UNL     1     115.694  49.926  -2.366  1.00  0.00     0.048 C 
ENDROOT
BRANCH   4   9
ATOM      9  O   UNL     1     117.387  49.942  -4.726  1.00  0.00    -0.508 OA
ATOM     10  H   UNL     1     117.888  49.092  -4.502  1.00  0.00     0.293 HD
ENDBRANCH   4   9
TORSDOF 1
ENDMDL
MODEL 2
REMARK VINA RESULT:    -4.706      1.734      2.874
REMARK INTER + INTRA:          -4.844
REMARK INTER:                  -4.844
REMARK INTRA:                   0.000
REMARK UNBOUND:                 0.000
REMARK SMILES Cc1cccc(O)c1C
REMARK SMILES IDX 1 1 2 2 8 3 6 4 5 5 4 6 3 7 9 8 7 9
REMARK H PARENT 7 10
REMARK Flexibility Score: inf
ROOT
ATOM      1  C   UNL     1     117.439  50.016  -4.799  1.00  0.00     0.045 C 
ATOM      2  C   UNL     1     117.357  51.194  -3.863  1.00  0.00    -0.045 A 
ATOM      3  C   UNL     1     116.547  51.177  -2.694  1.00  0.00    -0.006 A 
ATOM      4  C   UNL     1     116.518  52.322  -1.859  1.00  0.00     0.118 A 
ATOM      5  C   UNL     1     117.279  53.448  -2.188  1.00  0.00     0.046 A 
ATOM      6  C   UNL     1     118.068  53.460  -3.333  1.00  0.00     0.004 A 
ATOM      7  C   UNL     1     118.110  52.343  -4.165  1.00  0.00     0.004 A 
ATOM      8  C   UNL     1     115.718  49.969  -2.319  1.00  0.00     0.048 C 
ENDROOT
BRANCH   4   9
ATOM      9  O   UNL     1     115.747  52.376  -0.694  1.00  0.00    -0.508 OA
ATOM     10  H   UNL     1     115.789  53.142  -0.034  1.00  0.00     0.293 HD
ENDBRANCH   4   9
TORSDOF 1
ENDMDL
MODEL 3
REMARK VINA RESULT:    -4.675      1.799      3.567
REMARK INTER + INTRA:          -4.812
REMARK INTER:                  -4.812
REMARK INTRA:                   0.000
REMARK UNBOUND:                 0.000
REMARK SMILES Cc1cccc(O)c1C
REMARK SMILES IDX 1 1 2 2 8 3 6 4 5 5 4 6 3 7 9 8 7 9
REMARK H PARENT 7 10
REMARK Flexibility Score: inf
ROOT
ATOM      1  C   UNL     1     117.279  49.946  -4.893  1.00  0.00     0.045 C 
ATOM      2  C   UNL     1     117.317  51.118  -3.947  1.00  0.00    -0.045 A 
ATOM      3  C   UNL     1     118.096  52.279  -4.212  1.00  0.00    -0.006 A 
ATOM      4  C   UNL     1     118.084  53.344  -3.277  1.00  0.00     0.118 A 
ATOM      5  C   UNL     1     117.316  53.247  -2.114  1.00  0.00     0.046 A 
ATOM      6  C   UNL     1     116.557  52.108  -1.859  1.00  0.00     0.004 A 
ATOM      7  C   UNL     1     116.555  51.052  -2.767  1.00  0.00     0.004 A 
ATOM      8  C   UNL     1     118.934  52.406  -5.465  1.00  0.00     0.048 C 
ENDROOT
BRANCH   4   9
ATOM      9  O   UNL     1     118.823  54.515  -3.471  1.00  0.00    -0.508 OA
ATOM     10  H   UNL     1     118.459  55.331  -3.944  1.00  0.00     0.293 HD
ENDBRANCH   4   9
TORSDOF 1
ENDMDL
MODEL 4
REMARK VINA RESULT:    -4.579      1.181      2.575
REMARK INTER + INTRA:          -4.713
REMARK INTER:                  -4.713
REMARK INTRA:                   0.000
REMARK UNBOUND:                 0.000
REMARK SMILES Cc1cccc(O)c1C
REMARK SMILES IDX 1 1 2 2 8 3 6 4 5 5 4 6 3 7 9 8 7 9
REMARK H PARENT 7 10
REMARK Flexibility Score: inf
ROOT
ATOM      1  C   UNL     1     115.747  52.436  -0.753  1.00  0.00     0.045 C 
ATOM      2  C   UNL     1     116.340  51.789  -1.978  1.00  0.00    -0.045 A 
ATOM      3  C   UNL     1     117.347  52.424  -2.756  1.00  0.00    -0.006 A 
ATOM      4  C   UNL     1     117.860  51.755  -3.897  1.00  0.00     0.118 A 
ATOM      5  C   UNL     1     117.376  50.491  -4.244  1.00  0.00     0.046 A 
ATOM      6  C   UNL     1     116.390  49.875  -3.479  1.00  0.00     0.004 A 
ATOM      7  C   UNL     1     115.875  50.516  -2.354  1.00  0.00     0.004 A 
ATOM      8  C   UNL     1     117.885  53.791  -2.398  1.00  0.00     0.048 C 
ENDROOT
BRANCH   4   9
ATOM      9  O   UNL     1     118.850  52.317  -4.707  1.00  0.00    -0.508 OA
ATOM     10  H   UNL     1     119.353  51.797  -5.414  1.00  0.00     0.293 HD
ENDBRANCH   4   9
TORSDOF 1
ENDMDL
MODEL 5
REMARK VINA RESULT:    -4.566      1.276      2.906
REMARK INTER + INTRA:          -4.699
REMARK INTER:                  -4.699
REMARK INTRA:                   0.000
REMARK UNBOUND:                 0.000
REMARK SMILES Cc1cccc(O)c1C
REMARK SMILES IDX 1 1 2 2 8 3 6 4 5 5 4 6 3 7 9 8 7 9
REMARK H PARENT 7 10
REMARK Flexibility Score: inf
ROOT
ATOM      1  C   UNL     1     118.856  52.338  -5.728  1.00  0.00     0.045 C 
ATOM      2  C   UNL     1     118.104  52.355  -4.422  1.00  0.00    -0.045 A 
ATOM      3  C   UNL     1     117.340  51.242  -3.975  1.00  0.00    -0.006 A 
ATOM      4  C   UNL     1     116.657  51.329  -2.735  1.00  0.00     0.118 A 
ATOM      5  C   UNL     1     116.741  52.495  -1.970  1.00  0.00     0.046 A 
ATOM      6  C   UNL     1     117.489  53.581  -2.412  1.00  0.00     0.004 A 
ATOM      7  C   UNL     1     118.167  53.514  -3.628  1.00  0.00     0.004 A 
ATOM      8  C   UNL     1     117.236  49.971  -4.787  1.00  0.00     0.048 C 
ENDROOT
BRANCH   4   9
ATOM      9  O   UNL     1     115.888  50.275  -2.233  1.00  0.00    -0.508 OA
ATOM     10  H   UNL     1     115.108  49.868  -2.732  1.00  0.00     0.293 HD
ENDBRANCH   4   9
TORSDOF 1
ENDMDL
MODEL 6
REMARK VINA RESULT:    -4.456      1.792      2.862
REMARK INTER + INTRA:          -4.586
REMARK INTER:                  -4.586
REMARK INTRA:                   0.000
REMARK UNBOUND:                 0.000
REMARK SMILES Cc1cccc(O)c1C
REMARK SMILES IDX 1 1 2 2 8 3 6 4 5 5 4 6 3 7 9 8 7 9
REMARK H PARENT 7 10
REMARK Flexibility Score: inf
ROOT
ATOM      1  C   UNL     1     115.939  50.196  -2.459  1.00  0.00     0.045 C 
ATOM      2  C   UNL     1     116.894  51.026  -3.277  1.00  0.00    -0.045 A 
ATOM      3  C   UNL     1     117.337  52.309  -2.851  1.00  0.00    -0.006 A 
ATOM      4  C   UNL     1     118.236  53.035  -3.673  1.00  0.00     0.118 A 
ATOM      5  C   UNL     1     118.675  52.490  -4.882  1.00  0.00     0.046 A 
ATOM      6  C   UNL     1     118.237  51.235  -5.295  1.00  0.00     0.004 A 
ATOM      7  C   UNL     1     117.354  50.507  -4.500  1.00  0.00     0.004 A 
ATOM      8  C   UNL     1     116.876  52.917  -1.545  1.00  0.00     0.048 C 
ENDROOT
BRANCH   4   9
ATOM      9  O   UNL     1     118.715  54.299  -3.318  1.00  0.00    -0.508 OA
ATOM     10  H   UNL     1     118.743  54.637  -2.364  1.00  0.00     0.293 HD
ENDBRANCH   4   9
TORSDOF 1
ENDMDL
MODEL 7
REMARK VINA RESULT:    -4.451      1.348      2.632
REMARK INTER + INTRA:          -4.581
REMARK INTER:                  -4.581
REMARK INTRA:                   0.000
REMARK UNBOUND:                 0.000
REMARK SMILES Cc1cccc(O)c1C
REMARK SMILES IDX 1 1 2 2 8 3 6 4 5 5 4 6 3 7 9 8 7 9
REMARK H PARENT 7 10
REMARK Flexibility Score: inf
ROOT
ATOM      1  C   UNL     1     118.461  54.004  -3.130  1.00  0.00     0.045 C 
ATOM      2  C   UNL     1     117.937  52.645  -3.517  1.00  0.00    -0.045 A 
ATOM      3  C   UNL     1     117.007  51.935  -2.708  1.00  0.00    -0.006 A 
ATOM      4  C   UNL     1     116.557  50.659  -3.133  1.00  0.00     0.118 A 
ATOM      5  C   UNL     1     117.027  50.116  -4.332  1.00  0.00     0.046 A 
ATOM      6  C   UNL     1     117.937  50.814  -5.119  1.00  0.00     0.004 A 
ATOM      7  C   UNL     1     118.390  52.069  -4.717  1.00  0.00     0.004 A 
ATOM      8  C   UNL     1     116.486  52.505  -1.408  1.00  0.00     0.048 C 
ENDROOT
BRANCH   4   9
ATOM      9  O   UNL     1     115.644  49.905  -2.391  1.00  0.00    -0.508 OA
ATOM     10  H   UNL     1     114.643  49.944  -2.535  1.00  0.00     0.293 HD
ENDBRANCH   4   9
TORSDOF 1
ENDMDL
MODEL 8
REMARK VINA RESULT:    -4.394      1.820      3.723
REMARK INTER + INTRA:          -4.522
REMARK INTER:                  -4.522
REMARK INTRA:                   0.000
REMARK UNBOUND:                 0.000
REMARK SMILES Cc1cccc(O)c1C
REMARK SMILES IDX 1 1 2 2 8 3 6 4 5 5 4 6 3 7 9 8 7 9
REMARK H PARENT 7 10
REMARK Flexibility Score: inf
ROOT
ATOM      1  C   UNL     1     118.631  52.423  -5.238  1.00  0.00     0.045 C 
ATOM      2  C   UNL     1     117.730  51.811  -4.197  1.00  0.00    -0.045 A 
ATOM      3  C   UNL     1     117.326  52.523  -3.033  1.00  0.00    -0.006 A 
ATOM      4  C   UNL     1     116.477  51.884  -2.095  1.00  0.00     0.118 A 
ATOM      5  C   UNL     1     116.047  50.573  -2.319  1.00  0.00     0.046 A 
ATOM      6  C   UNL     1     116.446  49.881  -3.459  1.00  0.00     0.004 A 
ATOM      7  C   UNL     1     117.280  50.493  -4.392  1.00  0.00     0.004 A 
ATOM      8  C   UNL     1     117.779  53.942  -2.772  1.00  0.00     0.048 C 
ENDROOT
BRANCH   4   9
ATOM      9  O   UNL     1     116.039  52.521  -0.931  1.00  0.00    -0.508 OA
ATOM     10  H   UNL     1     115.733  52.023  -0.105  1.00  0.00     0.293 HD
ENDBRANCH   4   9
TORSDOF 1
ENDMDL
MODEL 9
REMARK VINA RESULT:    -3.810      2.399      3.112
REMARK INTER + INTRA:          -3.922
REMARK INTER:                  -3.922
REMARK INTRA:                   0.000
REMARK UNBOUND:                 0.000
REMARK SMILES Cc1cccc(O)c1C
REMARK SMILES IDX 1 1 2 2 8 3 6 4 5 5 4 6 3 7 9 8 7 9
REMARK H PARENT 7 10
REMARK Flexibility Score: inf
ROOT
ATOM      1  C   UNL     1     115.153  52.526  -0.389  1.00  0.00     0.045 C 
ATOM      2  C   UNL     1     116.311  51.768  -0.985  1.00  0.00    -0.045 A 
ATOM      3  C   UNL     1     117.480  51.461  -0.233  1.00  0.00    -0.006 A 
ATOM      4  C   UNL     1     118.532  50.744  -0.858  1.00  0.00     0.118 A 
ATOM      5  C   UNL     1     118.413  50.349  -2.193  1.00  0.00     0.046 A 
ATOM      6  C   UNL     1     117.268  50.653  -2.924  1.00  0.00     0.004 A 
ATOM      7  C   UNL     1     116.224  51.356  -2.326  1.00  0.00     0.004 A 
ATOM      8  C   UNL     1     117.628  51.878   1.213  1.00  0.00     0.048 C 
ENDROOT
BRANCH   4   9
ATOM      9  O   UNL     1     119.708  50.407  -0.182  1.00  0.00    -0.508 OA
ATOM     10  H   UNL     1     120.206  51.047   0.422  1.00  0.00     0.293 HD
ENDBRANCH   4   9
TORSDOF 1
ENDMDL
