MODEL 1
REMARK VINA RESULT:    -4.022      0.000      0.000
REMARK INTER + INTRA:          -5.071
REMARK INTER:                  -5.667
REMARK INTRA:                   0.596
REMARK UNBOUND:                 0.596
REMARK SMILES CC1=CCC(=C(C)C)C(=O)CC(C)=CCC1
REMARK SMILES IDX 12 1 14 2 13 3 15 4 16 5 2 6 1 7 3 8 11 10 9 11 10 12 5 13
REMARK SMILES IDX 6 14 7 15 8 16 4 17
REMARK H PARENT
REMARK Flexibility Score: 60.00
ROOT
ATOM      1  C   UNL     1      13.874 -12.764 -43.820  1.00  0.00    -0.070 C 
ATOM      2  C   UNL     1      13.791 -14.106 -43.970  1.00  0.00    -0.027 C 
ATOM      3  C   UNL     1      15.127 -12.072 -44.293  1.00  0.00     0.039 C 
ENDROOT
BRANCH   2   4
ATOM      4  C   UNL     1      12.638 -14.965 -43.503  1.00  0.00     0.032 C 
BRANCH   4   5
ATOM      5  C   UNL     1      11.591 -15.159 -44.610  1.00  0.00     0.034 C 
BRANCH   5   6
ATOM      6  C   UNL     1      10.224 -14.586 -44.261  1.00  0.00    -0.077 C 
ATOM      7  C   UNL     1       9.294 -15.399 -43.396  1.00  0.00     0.039 C 
ATOM      8  C   UNL     1       9.785 -13.385 -44.703  1.00  0.00    -0.023 CG0
ATOM      9  G   UNL     1      10.593 -12.404 -45.521  1.00  0.00     0.000 G0
ENDBRANCH   5   6
ENDBRANCH   4   5
ENDBRANCH   2   4
BRANCH   1  10
ATOM     10  C   UNL     1      12.767 -11.932 -43.201  1.00  0.00     0.111 C 
BRANCH  10  11
ATOM     11  C   UNL     1      12.234 -10.925 -44.183  1.00  0.00     0.163 C 
ATOM     12  O   UNL     1      12.925  -9.909 -44.463  1.00  0.00    -0.294 OA
BRANCH  11  13
ATOM     13  C   UNL     1      10.898 -11.093 -44.808  1.00  0.00    -0.002 C 
ATOM     14  C   UNL     1       9.973 -10.097 -44.728  1.00  0.00    -0.069 C 
ATOM     15  C   UNL     1      10.243  -8.842 -43.929  1.00  0.00     0.039 C 
ATOM     16  C   UNL     1       8.625 -10.228 -45.400  1.00  0.00     0.039 C 
BRANCH  13  17
ATOM     17  C   UNL     1      10.576 -12.393 -45.537  1.00  0.00     0.066 CG0
ATOM     18  G   UNL     1       9.772 -13.370 -44.711  1.00  0.00     0.000 G0
ENDBRANCH  13  17
ENDBRANCH  11  13
ENDBRANCH  10  11
ENDBRANCH   1  10
TORSDOF 0
ENDMDL
MODEL 2
REMARK VINA RESULT:    -4.013      1.413      4.124
REMARK INTER + INTRA:          -5.059
REMARK INTER:                  -5.308
REMARK INTRA:                   0.248
REMARK UNBOUND:                 0.596
REMARK SMILES CC1=CCC(=C(C)C)C(=O)CC(C)=CCC1
REMARK SMILES IDX 12 1 14 2 13 3 15 4 16 5 2 6 1 7 3 8 11 10 9 11 10 12 5 13
REMARK SMILES IDX 6 14 7 15 8 16 4 17
REMARK H PARENT
REMARK Flexibility Score: 60.00
ROOT
ATOM      1  C   UNL     1       9.894  -9.668 -44.674  1.00  0.00    -0.070 C 
ATOM      2  C   UNL     1       8.893 -10.209 -45.407  1.00  0.00    -0.027 C 
ATOM      3  C   UNL     1       9.579  -8.464 -43.823  1.00  0.00     0.039 C 
ENDROOT
BRANCH   2   4
ATOM      4  C   UNL     1       9.042 -11.377 -46.355  1.00  0.00     0.032 C 
BRANCH   4   5
ATOM      5  C   UNL     1       8.878 -12.720 -45.629  1.00  0.00     0.034 C 
BRANCH   5   6
ATOM      6  C   UNL     1       9.920 -13.757 -46.026  1.00  0.00    -0.077 C 
ATOM      7  C   UNL     1       9.870 -14.346 -47.413  1.00  0.00     0.039 C 
ATOM      8  C   UNL     1      10.887 -14.198 -45.189  1.00  0.00    -0.023 CG0
ATOM      9  G   UNL     1      11.138 -13.684 -43.790  1.00  0.00     0.000 G0
ENDBRANCH   5   6
ENDBRANCH   4   5
ENDBRANCH   2   4
BRANCH   1  10
ATOM     10  C   UNL     1      11.306 -10.219 -44.671  1.00  0.00     0.111 C 
BRANCH  10  11
ATOM     11  C   UNL     1      11.522 -11.147 -43.507  1.00  0.00     0.163 C 
ATOM     12  O   UNL     1      11.231 -10.758 -42.345  1.00  0.00    -0.294 OA
BRANCH  11  13
ATOM     13  C   UNL     1      12.097 -12.502 -43.700  1.00  0.00    -0.002 C 
ATOM     14  C   UNL     1      13.443 -12.668 -43.809  1.00  0.00    -0.069 C 
ATOM     15  C   UNL     1      14.378 -11.479 -43.831  1.00  0.00     0.039 C 
ATOM     16  C   UNL     1      14.051 -14.044 -43.957  1.00  0.00     0.039 C 
BRANCH  13  17
ATOM     17  C   UNL     1      11.159 -13.702 -43.777  1.00  0.00     0.066 CG0
ATOM     18  G   UNL     1      10.888 -14.173 -45.187  1.00  0.00     0.000 G0
ENDBRANCH  13  17
ENDBRANCH  11  13
ENDBRANCH  10  11
ENDBRANCH   1  10
TORSDOF 0
ENDMDL
MODEL 3
REMARK VINA RESULT:    -3.834     10.963     12.669
REMARK INTER + INTRA:          -4.806
REMARK INTER:                  -5.259
REMARK INTRA:                   0.453
REMARK UNBOUND:                 0.596
REMARK SMILES CC1=CCC(=C(C)C)C(=O)CC(C)=CCC1
REMARK SMILES IDX 12 1 14 2 13 3 15 4 16 5 2 6 1 7 3 8 11 10 9 11 10 12 5 13
REMARK SMILES IDX 6 14 7 15 8 16 4 17
REMARK H PARENT
REMARK Flexibility Score: 60.00
ROOT
ATOM      1  C   UNL     1       9.347 -24.085 -37.033  1.00  0.00    -0.070 C 
ATOM      2  C   UNL     1       8.592 -23.483 -36.086  1.00  0.00    -0.027 C 
ATOM      3  C   UNL     1       8.662 -25.010 -38.006  1.00  0.00     0.039 C 
ENDROOT
BRANCH   2   4
ATOM      4  C   UNL     1       9.119 -22.573 -34.999  1.00  0.00     0.032 C 
BRANCH   4   5
ATOM      5  C   UNL     1       8.448 -21.193 -35.041  1.00  0.00     0.034 C 
BRANCH   5   6
ATOM      6  C   UNL     1       8.435 -20.565 -36.427  1.00  0.00    -0.077 C 
ATOM      7  C   UNL     1       7.108 -20.248 -37.070  1.00  0.00     0.039 C 
ATOM      8  C   UNL     1       9.557 -20.291 -37.131  1.00  0.00    -0.023 CG0
ATOM      9  G   UNL     1      10.971 -20.477 -36.632  1.00  0.00     0.000 G0
ENDBRANCH   5   6
ENDBRANCH   4   5
ENDBRANCH   2   4
BRANCH   1  10
ATOM     10  C   UNL     1      10.843 -23.868 -37.157  1.00  0.00     0.111 C 
BRANCH  10  11
ATOM     11  C   UNL     1      11.147 -22.668 -38.010  1.00  0.00     0.163 C 
ATOM     12  O   UNL     1      10.850 -22.689 -39.235  1.00  0.00    -0.294 OA
BRANCH  11  13
ATOM     13  C   UNL     1      11.813 -21.468 -37.442  1.00  0.00    -0.002 C 
ATOM     14  C   UNL     1      13.143 -21.262 -37.643  1.00  0.00    -0.069 C 
ATOM     15  C   UNL     1      13.992 -22.284 -38.365  1.00  0.00     0.039 C 
ATOM     16  C   UNL     1      13.830 -20.023 -37.116  1.00  0.00     0.039 C 
BRANCH  13  17
ATOM     17  C   UNL     1      10.989 -20.476 -36.630  1.00  0.00     0.066 CG0
ATOM     18  G   UNL     1       9.574 -20.304 -37.133  1.00  0.00     0.000 G0
ENDBRANCH  13  17
ENDBRANCH  11  13
ENDBRANCH  10  11
ENDBRANCH   1  10
TORSDOF 0
ENDMDL
MODEL 4
REMARK VINA RESULT:    -3.812      9.786     12.342
REMARK INTER + INTRA:          -4.775
REMARK INTER:                  -5.263
REMARK INTRA:                   0.487
REMARK UNBOUND:                 0.596
REMARK SMILES CC1=CCC(=C(C)C)C(=O)CC(C)=CCC1
REMARK SMILES IDX 12 1 14 2 13 3 15 4 16 5 2 6 1 7 3 8 11 10 9 11 10 12 5 13
REMARK SMILES IDX 6 14 7 15 8 16 4 17
REMARK H PARENT
REMARK Flexibility Score: 60.00
ROOT
ATOM      1  C   UNL     1       7.289 -21.382 -36.463  1.00  0.00    -0.070 C 
ATOM      2  C   UNL     1       7.585 -22.438 -35.670  1.00  0.00    -0.027 C 
ATOM      3  C   UNL     1       5.992 -21.413 -37.232  1.00  0.00     0.039 C 
ENDROOT
BRANCH   2   4
ATOM      4  C   UNL     1       8.861 -22.599 -34.875  1.00  0.00     0.032 C 
BRANCH   4   5
ATOM      5  C   UNL     1       9.661 -23.828 -35.331  1.00  0.00     0.034 C 
BRANCH   5   6
ATOM      6  C   UNL     1       9.836 -23.913 -36.840  1.00  0.00    -0.077 C 
ATOM      7  C   UNL     1       9.223 -25.076 -37.579  1.00  0.00     0.039 C 
ATOM      8  C   UNL     1      10.535 -23.006 -37.561  1.00  0.00    -0.023 CG0
ATOM      9  G   UNL     1      11.163 -21.747 -37.012  1.00  0.00     0.000 G0
ENDBRANCH   5   6
ENDBRANCH   4   5
ENDBRANCH   2   4
BRANCH   1  10
ATOM     10  C   UNL     1       8.199 -20.177 -36.608  1.00  0.00     0.111 C 
BRANCH  10  11
ATOM     11  C   UNL     1       9.114 -20.330 -37.791  1.00  0.00     0.163 C 
ATOM     12  O   UNL     1       8.622 -20.376 -38.950  1.00  0.00    -0.294 OA
BRANCH  11  13
ATOM     13  C   UNL     1      10.583 -20.454 -37.617  1.00  0.00    -0.002 C 
ATOM     14  C   UNL     1      11.407 -19.435 -37.987  1.00  0.00    -0.069 C 
ATOM     15  C   UNL     1      10.862 -18.197 -38.664  1.00  0.00     0.039 C 
ATOM     16  C   UNL     1      12.901 -19.521 -37.773  1.00  0.00     0.039 C 
BRANCH  13  17
ATOM     17  C   UNL     1      11.156 -21.736 -37.023  1.00  0.00     0.066 CG0
ATOM     18  G   UNL     1      10.527 -22.995 -37.574  1.00  0.00     0.000 G0
ENDBRANCH  13  17
ENDBRANCH  11  13
ENDBRANCH  10  11
ENDBRANCH   1  10
TORSDOF 0
ENDMDL
MODEL 5
REMARK VINA RESULT:    -3.714      2.094      5.054
REMARK INTER + INTRA:          -4.638
REMARK INTER:                  -5.045
REMARK INTRA:                   0.407
REMARK UNBOUND:                 0.596
REMARK SMILES CC1=CCC(=C(C)C)C(=O)CC(C)=CCC1
REMARK SMILES IDX 12 1 14 2 13 3 15 4 16 5 2 6 1 7 3 8 11 10 9 11 10 12 5 13
REMARK SMILES IDX 6 14 7 15 8 16 4 17
REMARK H PARENT
REMARK Flexibility Score: 60.00
ROOT
ATOM      1  C   UNL     1       9.978 -13.822 -46.146  1.00  0.00    -0.070 C 
ATOM      2  C   UNL     1       9.228 -12.714 -45.941  1.00  0.00    -0.027 C 
ATOM      3  C   UNL     1       9.295 -15.164 -46.078  1.00  0.00     0.039 C 
ENDROOT
BRANCH   2   4
ATOM      4  C   UNL     1       9.755 -11.297 -45.917  1.00  0.00     0.032 C 
BRANCH   4   5
ATOM      5  C   UNL     1      10.020 -10.815 -44.484  1.00  0.00     0.034 C 
BRANCH   5   6
ATOM      6  C   UNL     1      11.348 -10.089 -44.322  1.00  0.00    -0.077 C 
ATOM      7  C   UNL     1      11.411  -8.612 -44.619  1.00  0.00     0.039 C 
ATOM      8  C   UNL     1      12.492 -10.705 -43.942  1.00  0.00    -0.023 CG0
ATOM      9  G   UNL     1      12.614 -12.157 -43.541  1.00  0.00     0.000 G0
ENDBRANCH   5   6
ENDBRANCH   4   5
ENDBRANCH   2   4
BRANCH   1  10
ATOM     10  C   UNL     1      11.464 -13.770 -46.442  1.00  0.00     0.111 C 
BRANCH  10  11
ATOM     11  C   UNL     1      12.271 -14.077 -45.211  1.00  0.00     0.163 C 
ATOM     12  O   UNL     1      12.162 -15.208 -44.666  1.00  0.00    -0.294 OA
BRANCH  11  13
ATOM     13  C   UNL     1      13.176 -13.063 -44.611  1.00  0.00    -0.002 C 
ATOM     14  C   UNL     1      14.467 -12.962 -45.030  1.00  0.00    -0.069 C 
ATOM     15  C   UNL     1      15.039 -13.929 -46.042  1.00  0.00     0.039 C 
ATOM     16  C   UNL     1      15.390 -11.905 -44.466  1.00  0.00     0.039 C 
BRANCH  13  17
ATOM     17  C   UNL     1      12.640 -12.143 -43.519  1.00  0.00     0.066 CG0
ATOM     18  G   UNL     1      12.488 -10.705 -43.957  1.00  0.00     0.000 G0
ENDBRANCH  13  17
ENDBRANCH  11  13
ENDBRANCH  10  11
ENDBRANCH   1  10
TORSDOF 0
ENDMDL
MODEL 6
REMARK VINA RESULT:    -3.674      2.009      3.942
REMARK INTER + INTRA:          -4.581
REMARK INTER:                  -5.335
REMARK INTRA:                   0.754
REMARK UNBOUND:                 0.596
REMARK SMILES CC1=CCC(=C(C)C)C(=O)CC(C)=CCC1
REMARK SMILES IDX 12 1 14 2 13 3 15 4 16 5 2 6 1 7 3 8 11 10 9 11 10 12 5 13
REMARK SMILES IDX 6 14 7 15 8 16 4 17
REMARK H PARENT
REMARK Flexibility Score: 60.00
ROOT
ATOM      1  C   UNL     1      12.160 -13.918 -43.494  1.00  0.00    -0.070 C 
ATOM      2  C   UNL     1      12.910 -12.795 -43.398  1.00  0.00    -0.027 C 
ATOM      3  C   UNL     1      12.841 -15.192 -43.924  1.00  0.00     0.039 C 
ENDROOT
BRANCH   2   4
ATOM      4  C   UNL     1      12.384 -11.424 -43.037  1.00  0.00     0.032 C 
BRANCH   4   5
ATOM      5  C   UNL     1      12.185 -10.548 -44.283  1.00  0.00     0.034 C 
BRANCH   5   6
ATOM      6  C   UNL     1      10.747 -10.088 -44.479  1.00  0.00    -0.077 C 
ATOM      7  C   UNL     1      10.330  -8.749 -43.923  1.00  0.00     0.039 C 
ATOM      8  C   UNL     1       9.808 -10.828 -45.112  1.00  0.00    -0.023 CG0
ATOM      9  G   UNL     1      10.050 -12.158 -45.788  1.00  0.00     0.000 G0
ENDBRANCH   5   6
ENDBRANCH   4   5
ENDBRANCH   2   4
BRANCH   1  10
ATOM     10  C   UNL     1      10.675 -13.947 -43.188  1.00  0.00     0.111 C 
BRANCH  10  11
ATOM     11  C   UNL     1       9.880 -14.331 -44.405  1.00  0.00     0.163 C 
ATOM     12  O   UNL     1       9.798 -15.545 -44.732  1.00  0.00    -0.294 OA
BRANCH  11  13
ATOM     13  C   UNL     1       9.211 -13.303 -45.243  1.00  0.00    -0.002 C 
ATOM     14  C   UNL     1       7.879 -13.395 -45.508  1.00  0.00    -0.069 C 
ATOM     15  C   UNL     1       7.068 -14.582 -45.038  1.00  0.00     0.039 C 
ATOM     16  C   UNL     1       7.169 -12.334 -46.317  1.00  0.00     0.039 C 
BRANCH  13  17
ATOM     17  C   UNL     1      10.035 -12.150 -45.804  1.00  0.00     0.066 CG0
ATOM     18  G   UNL     1       9.811 -10.838 -45.088  1.00  0.00     0.000 G0
ENDBRANCH  13  17
ENDBRANCH  11  13
ENDBRANCH  10  11
ENDBRANCH   1  10
TORSDOF 0
ENDMDL
MODEL 7
REMARK VINA RESULT:    -3.669     11.273     12.712
REMARK INTER + INTRA:          -4.575
REMARK INTER:                  -5.022
REMARK INTRA:                   0.447
REMARK UNBOUND:                 0.596
REMARK SMILES CC1=CCC(=C(C)C)C(=O)CC(C)=CCC1
REMARK SMILES IDX 12 1 14 2 13 3 15 4 16 5 2 6 1 7 3 8 11 10 9 11 10 12 5 13
REMARK SMILES IDX 6 14 7 15 8 16 4 17
REMARK H PARENT
REMARK Flexibility Score: 60.00
ROOT
ATOM      1  C   UNL     1       8.820 -21.516 -35.948  1.00  0.00    -0.070 C 
ATOM      2  C   UNL     1       8.320 -22.769 -36.047  1.00  0.00    -0.027 C 
ATOM      3  C   UNL     1       7.858 -20.359 -36.028  1.00  0.00     0.039 C 
ENDROOT
BRANCH   2   4
ATOM      4  C   UNL     1       9.142 -24.038 -36.044  1.00  0.00     0.032 C 
BRANCH   4   5
ATOM      5  C   UNL     1       8.986 -24.818 -37.358  1.00  0.00     0.034 C 
BRANCH   5   6
ATOM      6  C   UNL     1       9.193 -23.963 -38.600  1.00  0.00    -0.077 C 
ATOM      7  C   UNL     1       8.042 -23.779 -39.557  1.00  0.00     0.039 C 
ATOM      8  C   UNL     1      10.369 -23.368 -38.907  1.00  0.00    -0.023 CG0
ATOM      9  G   UNL     1      11.610 -23.383 -38.045  1.00  0.00     0.000 G0
ENDBRANCH   5   6
ENDBRANCH   4   5
ENDBRANCH   2   4
BRANCH   1  10
ATOM     10  C   UNL     1      10.298 -21.229 -35.759  1.00  0.00     0.111 C 
BRANCH  10  11
ATOM     11  C   UNL     1      10.986 -21.044 -37.083  1.00  0.00     0.163 C 
ATOM     12  O   UNL     1      10.649 -20.083 -37.826  1.00  0.00    -0.294 OA
BRANCH  11  13
ATOM     13  C   UNL     1      12.036 -21.987 -37.543  1.00  0.00    -0.002 C 
ATOM     14  C   UNL     1      13.346 -21.617 -37.527  1.00  0.00    -0.069 C 
ATOM     15  C   UNL     1      13.758 -20.216 -37.130  1.00  0.00     0.039 C 
ATOM     16  C   UNL     1      14.435 -22.579 -37.945  1.00  0.00     0.039 C 
BRANCH  13  17
ATOM     17  C   UNL     1      11.628 -23.370 -38.037  1.00  0.00     0.066 CG0
ATOM     18  G   UNL     1      10.392 -23.366 -38.906  1.00  0.00     0.000 G0
ENDBRANCH  13  17
ENDBRANCH  11  13
ENDBRANCH  10  11
ENDBRANCH   1  10
TORSDOF 0
ENDMDL
MODEL 8
REMARK VINA RESULT:    -3.618      1.879      3.380
REMARK INTER + INTRA:          -4.503
REMARK INTER:                  -5.004
REMARK INTRA:                   0.502
REMARK UNBOUND:                 0.596
REMARK SMILES CC1=CCC(=C(C)C)C(=O)CC(C)=CCC1
REMARK SMILES IDX 12 1 14 2 13 3 15 4 16 5 2 6 1 7 3 8 11 10 9 11 10 12 5 13
REMARK SMILES IDX 6 14 7 15 8 16 4 17
REMARK H PARENT
REMARK Flexibility Score: 60.00
ROOT
ATOM      1  C   UNL     1      11.577 -10.420 -44.181  1.00  0.00    -0.070 C 
ATOM      2  C   UNL     1      12.865 -10.818 -44.063  1.00  0.00    -0.027 C 
ATOM      3  C   UNL     1      11.303  -8.954 -44.400  1.00  0.00     0.039 C 
ENDROOT
BRANCH   2   4
ATOM      4  C   UNL     1      13.318 -12.234 -43.786  1.00  0.00     0.032 C 
BRANCH   4   5
ATOM      5  C   UNL     1      13.471 -13.043 -45.081  1.00  0.00     0.034 C 
BRANCH   5   6
ATOM      6  C   UNL     1      12.616 -14.302 -45.116  1.00  0.00    -0.077 C 
ATOM      7  C   UNL     1      13.021 -15.480 -44.265  1.00  0.00     0.039 C 
ATOM      8  C   UNL     1      11.514 -14.433 -45.890  1.00  0.00    -0.023 CG0
ATOM      9  G   UNL     1      10.917 -13.348 -46.755  1.00  0.00     0.000 G0
ENDBRANCH   5   6
ENDBRANCH   4   5
ENDBRANCH   2   4
BRANCH   1  10
ATOM     10  C   UNL     1      10.406 -11.381 -44.106  1.00  0.00     0.111 C 
BRANCH  10  11
ATOM     11  C   UNL     1       9.690 -11.465 -45.425  1.00  0.00     0.163 C 
ATOM     12  O   UNL     1       9.115 -10.442 -45.883  1.00  0.00    -0.294 OA
BRANCH  11  13
ATOM     13  C   UNL     1       9.625 -12.739 -46.187  1.00  0.00    -0.002 C 
ATOM     14  C   UNL     1       8.432 -13.367 -46.374  1.00  0.00    -0.069 C 
ATOM     15  C   UNL     1       7.164 -12.840 -45.739  1.00  0.00     0.039 C 
ATOM     16  C   UNL     1       8.337 -14.638 -47.187  1.00  0.00     0.039 C 
BRANCH  13  17
ATOM     17  C   UNL     1      10.911 -13.333 -46.751  1.00  0.00     0.066 CG0
ATOM     18  G   UNL     1      11.513 -14.414 -45.884  1.00  0.00     0.000 G0
ENDBRANCH  13  17
ENDBRANCH  11  13
ENDBRANCH  10  11
ENDBRANCH   1  10
TORSDOF 0
ENDMDL
MODEL 9
REMARK VINA RESULT:    -3.601      1.824      4.489
REMARK INTER + INTRA:          -4.479
REMARK INTER:                  -4.726
REMARK INTRA:                   0.247
REMARK UNBOUND:                 0.596
REMARK SMILES CC1=CCC(=C(C)C)C(=O)CC(C)=CCC1
REMARK SMILES IDX 12 1 14 2 13 3 15 4 16 5 2 6 1 7 3 8 11 10 9 11 10 12 5 13
REMARK SMILES IDX 6 14 7 15 8 16 4 17
REMARK H PARENT
REMARK Flexibility Score: 60.00
ROOT
ATOM      1  C   UNL     1       9.937 -10.387 -44.957  1.00  0.00    -0.070 C 
ATOM      2  C   UNL     1       8.768 -10.312 -45.636  1.00  0.00    -0.027 C 
ATOM      3  C   UNL     1      10.282  -9.267 -44.010  1.00  0.00     0.039 C 
ENDROOT
BRANCH   2   4
ATOM      4  C   UNL     1       8.292 -11.313 -46.663  1.00  0.00     0.032 C 
BRANCH   4   5
ATOM      5  C   UNL     1       7.600 -12.515 -46.004  1.00  0.00     0.034 C 
BRANCH   5   6
ATOM      6  C   UNL     1       8.085 -13.859 -46.530  1.00  0.00    -0.077 C 
ATOM      7  C   UNL     1       7.792 -14.228 -47.963  1.00  0.00     0.039 C 
ATOM      8  C   UNL     1       8.754 -14.758 -45.772  1.00  0.00    -0.023 CG0
ATOM      9  G   UNL     1       9.194 -14.543 -44.342  1.00  0.00     0.000 G0
ENDBRANCH   5   6
ENDBRANCH   4   5
ENDBRANCH   2   4
BRANCH   1  10
ATOM     10  C   UNL     1      10.906 -11.544 -45.108  1.00  0.00     0.111 C 
BRANCH  10  11
ATOM     11  C   UNL     1      10.772 -12.514 -43.967  1.00  0.00     0.163 C 
ATOM     12  O   UNL     1      10.813 -12.085 -42.783  1.00  0.00    -0.294 OA
BRANCH  11  13
ATOM     13  C   UNL     1      10.618 -13.971 -44.209  1.00  0.00    -0.002 C 
ATOM     14  C   UNL     1      11.716 -14.769 -44.315  1.00  0.00    -0.069 C 
ATOM     15  C   UNL     1      13.111 -14.187 -44.284  1.00  0.00     0.039 C 
ATOM     16  C   UNL     1      11.580 -16.262 -44.512  1.00  0.00     0.039 C 
BRANCH  13  17
ATOM     17  C   UNL     1       9.217 -14.558 -44.339  1.00  0.00     0.066 CG0
ATOM     18  G   UNL     1       8.774 -14.762 -45.769  1.00  0.00     0.000 G0
ENDBRANCH  13  17
ENDBRANCH  11  13
ENDBRANCH  10  11
ENDBRANCH   1  10
TORSDOF 0
ENDMDL
