MODEL 1
REMARK VINA RESULT:    -4.829      0.000      0.000
REMARK INTER + INTRA:          -8.469
REMARK INTER:                  -7.652
REMARK INTRA:                  -0.818
REMARK UNBOUND:                -0.818
REMARK SMILES CCCCCCCCCCCC(=O)[O-]
REMARK SMILES IDX 7 1 8 2 9 3 10 4 11 5 12 6 13 7 14 8 6 9 5 10 4 11 3 12 2 13
REMARK SMILES IDX 1 14
REMARK H PARENT
REMARK Flexibility Score: inf
ROOT
ATOM      1  C   UNL     1      11.783 -21.064 -15.347  1.00  0.00     0.000 C 
ENDROOT
BRANCH   1   2
ATOM      2  C   UNL     1      11.491 -19.595 -14.970  1.00  0.00     0.000 C 
BRANCH   2   3
ATOM      3  C   UNL     1      11.352 -19.365 -13.456  1.00  0.00     0.000 C 
BRANCH   3   4
ATOM      4  C   UNL     1      12.181 -18.174 -12.954  1.00  0.00     0.006 C 
BRANCH   4   5
ATOM      5  C   UNL     1      13.516 -18.083 -13.699  1.00  0.00     0.053 C 
BRANCH   5   6
ATOM      6  C   UNL     1      13.709 -16.710 -14.261  1.00  0.00     0.041 C 
ATOM      7  O   UNL     1      13.021 -15.747 -13.830  1.00  0.00    -0.550 OA
ATOM      8  O   UNL     1      14.611 -16.502 -15.297  1.00  0.00    -0.550 OA
ENDBRANCH   5   6
ENDBRANCH   4   5
ENDBRANCH   3   4
ENDBRANCH   2   3
ENDBRANCH   1   2
BRANCH   1   9
ATOM      9  C   UNL     1      13.031 -21.609 -14.635  1.00  0.00     0.000 C 
BRANCH   9  10
ATOM     10  C   UNL     1      12.686 -22.834 -13.779  1.00  0.00    -0.000 C 
BRANCH  10  11
ATOM     11  C   UNL     1      11.301 -23.383 -14.138  1.00  0.00    -0.000 C 
BRANCH  11  12
ATOM     12  C   UNL     1      11.296 -24.916 -14.127  1.00  0.00    -0.000 C 
BRANCH  12  13
ATOM     13  C   UNL     1      12.725 -25.470 -14.157  1.00  0.00    -0.003 C 
ATOM     14  C   UNL     1      12.726 -26.980 -14.375  1.00  0.00     0.004 C 
ENDBRANCH  12  13
ENDBRANCH  11  12
ENDBRANCH  10  11
ENDBRANCH   9  10
ENDBRANCH   1   9
TORSDOF 10
ENDMDL
MODEL 2
REMARK VINA RESULT:    -4.586      1.198      2.473
REMARK INTER + INTRA:          -8.085
REMARK INTER:                  -7.168
REMARK INTRA:                  -0.917
REMARK UNBOUND:                -0.818
REMARK SMILES CCCCCCCCCCCC(=O)[O-]
REMARK SMILES IDX 7 1 8 2 9 3 10 4 11 5 12 6 13 7 14 8 6 9 5 10 4 11 3 12 2 13
REMARK SMILES IDX 1 14
REMARK H PARENT
REMARK Flexibility Score: inf
ROOT
ATOM      1  C   UNL     1      11.384 -19.423 -13.031  1.00  0.00     0.000 C 
ENDROOT
BRANCH   1   2
ATOM      2  C   UNL     1      11.610 -17.997 -12.484  1.00  0.00     0.000 C 
BRANCH   2   3
ATOM      3  C   UNL     1      12.899 -17.852 -11.657  1.00  0.00     0.000 C 
BRANCH   3   4
ATOM      4  C   UNL     1      13.887 -16.843 -12.260  1.00  0.00     0.006 C 
BRANCH   4   5
ATOM      5  C   UNL     1      13.522 -16.520 -13.712  1.00  0.00     0.053 C 
BRANCH   5   6
ATOM      6  C   UNL     1      14.491 -17.165 -14.651  1.00  0.00     0.041 C 
ATOM      7  O   UNL     1      14.938 -16.525 -15.640  1.00  0.00    -0.550 OA
ATOM      8  O   UNL     1      14.862 -18.491 -14.466  1.00  0.00    -0.550 OA
ENDBRANCH   5   6
ENDBRANCH   4   5
ENDBRANCH   3   4
ENDBRANCH   2   3
ENDBRANCH   1   2
BRANCH   1   9
ATOM      9  C   UNL     1      11.400 -19.464 -14.568  1.00  0.00     0.000 C 
BRANCH   9  10
ATOM     10  C   UNL     1      11.619 -20.894 -15.077  1.00  0.00    -0.000 C 
BRANCH  10  11
ATOM     11  C   UNL     1      12.967 -21.447 -14.602  1.00  0.00    -0.000 C 
BRANCH  11  12
ATOM     12  C   UNL     1      12.789 -22.788 -13.881  1.00  0.00    -0.000 C 
BRANCH  12  13
ATOM     13  C   UNL     1      11.382 -23.353 -14.111  1.00  0.00    -0.003 C 
ATOM     14  C   UNL     1      11.399 -24.879 -14.137  1.00  0.00     0.004 C 
ENDBRANCH  12  13
ENDBRANCH  11  12
ENDBRANCH  10  11
ENDBRANCH   9  10
ENDBRANCH   1   9
TORSDOF 10
ENDMDL
MODEL 3
REMARK VINA RESULT:    -4.552      2.957      5.738
REMARK INTER + INTRA:          -8.031
REMARK INTER:                  -6.605
REMARK INTRA:                  -1.426
REMARK UNBOUND:                -0.818
REMARK SMILES CCCCCCCCCCCC(=O)[O-]
REMARK SMILES IDX 7 1 8 2 9 3 10 4 11 5 12 6 13 7 14 8 6 9 5 10 4 11 3 12 2 13
REMARK SMILES IDX 1 14
REMARK H PARENT
REMARK Flexibility Score: inf
ROOT
ATOM      1  C   UNL     1      14.214 -18.254 -15.349  1.00  0.00     0.000 C 
ENDROOT
BRANCH   1   2
ATOM      2  C   UNL     1      13.111 -18.846 -16.253  1.00  0.00     0.000 C 
BRANCH   2   3
ATOM      3  C   UNL     1      11.874 -19.332 -15.479  1.00  0.00     0.000 C 
BRANCH   3   4
ATOM      4  C   UNL     1      11.779 -20.862 -15.404  1.00  0.00     0.006 C 
BRANCH   4   5
ATOM      5  C   UNL     1      12.008 -21.357 -13.973  1.00  0.00     0.053 C 
BRANCH   5   6
ATOM      6  C   UNL     1      13.329 -22.050 -13.864  1.00  0.00     0.041 C 
ATOM      7  O   UNL     1      13.390 -23.307 -13.898  1.00  0.00    -0.550 OA
ATOM      8  O   UNL     1      14.489 -21.310 -13.673  1.00  0.00    -0.550 OA
ENDBRANCH   5   6
ENDBRANCH   4   5
ENDBRANCH   3   4
ENDBRANCH   2   3
ENDBRANCH   1   2
BRANCH   1   9
ATOM      9  C   UNL     1      13.959 -16.775 -15.016  1.00  0.00     0.000 C 
BRANCH   9  10
ATOM     10  C   UNL     1      13.339 -16.624 -13.622  1.00  0.00    -0.000 C 
BRANCH  10  11
ATOM     11  C   UNL     1      14.010 -17.565 -12.615  1.00  0.00    -0.000 C 
BRANCH  11  12
ATOM     12  C   UNL     1      12.971 -18.437 -11.900  1.00  0.00    -0.000 C 
BRANCH  12  13
ATOM     13  C   UNL     1      11.548 -17.943 -12.186  1.00  0.00    -0.003 C 
ATOM     14  C   UNL     1      10.515 -18.768 -11.423  1.00  0.00     0.004 C 
ENDBRANCH  12  13
ENDBRANCH  11  12
ENDBRANCH  10  11
ENDBRANCH   9  10
ENDBRANCH   1   9
TORSDOF 10
ENDMDL
MODEL 4
REMARK VINA RESULT:    -4.542      4.385      7.454
REMARK INTER + INTRA:          -8.015
REMARK INTER:                  -7.302
REMARK INTRA:                  -0.714
REMARK UNBOUND:                -0.818
REMARK SMILES CCCCCCCCCCCC(=O)[O-]
REMARK SMILES IDX 7 1 8 2 9 3 10 4 11 5 12 6 13 7 14 8 6 9 5 10 4 11 3 12 2 13
REMARK SMILES IDX 1 14
REMARK H PARENT
REMARK Flexibility Score: inf
ROOT
ATOM      1  C   UNL     1      12.823 -22.614 -13.878  1.00  0.00     0.000 C 
ENDROOT
BRANCH   1   2
ATOM      2  C   UNL     1      11.447 -23.245 -14.186  1.00  0.00     0.000 C 
BRANCH   2   3
ATOM      3  C   UNL     1      11.442 -24.781 -14.101  1.00  0.00     0.000 C 
BRANCH   3   4
ATOM      4  C   UNL     1      12.854 -25.383 -14.082  1.00  0.00     0.006 C 
BRANCH   4   5
ATOM      5  C   UNL     1      12.810 -26.890 -14.354  1.00  0.00     0.053 C 
BRANCH   5   6
ATOM      6  C   UNL     1      14.174 -27.399 -14.699  1.00  0.00     0.041 C 
ATOM      7  O   UNL     1      14.427 -27.791 -15.869  1.00  0.00    -0.550 OA
ATOM      8  O   UNL     1      15.153 -27.488 -13.717  1.00  0.00    -0.550 OA
ENDBRANCH   5   6
ENDBRANCH   4   5
ENDBRANCH   3   4
ENDBRANCH   2   3
ENDBRANCH   1   2
BRANCH   1   9
ATOM      9  C   UNL     1      13.008 -21.258 -14.577  1.00  0.00     0.000 C 
BRANCH   9  10
ATOM     10  C   UNL     1      11.785 -20.906 -15.432  1.00  0.00    -0.000 C 
BRANCH  10  11
ATOM     11  C   UNL     1      11.276 -19.496 -15.111  1.00  0.00    -0.000 C 
BRANCH  11  12
ATOM     12  C   UNL     1      11.376 -19.203 -13.609  1.00  0.00    -0.000 C 
BRANCH  12  13
ATOM     13  C   UNL     1      11.783 -17.746 -13.360  1.00  0.00    -0.003 C 
ATOM     14  C   UNL     1      13.301 -17.600 -13.309  1.00  0.00     0.004 C 
ENDBRANCH  12  13
ENDBRANCH  11  12
ENDBRANCH  10  11
ENDBRANCH   9  10
ENDBRANCH   1   9
TORSDOF 10
ENDMDL
MODEL 5
REMARK VINA RESULT:    -4.542      1.069      2.419
REMARK INTER + INTRA:          -8.014
REMARK INTER:                  -7.395
REMARK INTRA:                  -0.619
REMARK UNBOUND:                -0.818
REMARK SMILES CCCCCCCCCCCC(=O)[O-]
REMARK SMILES IDX 7 1 8 2 9 3 10 4 11 5 12 6 13 7 14 8 6 9 5 10 4 11 3 12 2 13
REMARK SMILES IDX 1 14
REMARK H PARENT
REMARK Flexibility Score: inf
ROOT
ATOM      1  C   UNL     1      12.744 -22.866 -14.021  1.00  0.00     0.000 C 
ENDROOT
BRANCH   1   2
ATOM      2  C   UNL     1      12.846 -21.362 -14.355  1.00  0.00     0.000 C 
BRANCH   2   3
ATOM      3  C   UNL     1      11.941 -20.927 -15.520  1.00  0.00     0.000 C 
BRANCH   3   4
ATOM      4  C   UNL     1      11.462 -19.474 -15.395  1.00  0.00     0.006 C 
BRANCH   4   5
ATOM      5  C   UNL     1      11.933 -18.853 -14.077  1.00  0.00     0.053 C 
BRANCH   5   6
ATOM      6  C   UNL     1      12.993 -17.828 -14.330  1.00  0.00     0.041 C 
ATOM      7  O   UNL     1      13.443 -17.655 -15.494  1.00  0.00    -0.550 OA
ATOM      8  O   UNL     1      13.522 -17.098 -13.273  1.00  0.00    -0.550 OA
ENDBRANCH   5   6
ENDBRANCH   4   5
ENDBRANCH   3   4
ENDBRANCH   2   3
ENDBRANCH   1   2
BRANCH   1   9
ATOM      9  C   UNL     1      11.302 -23.388 -14.131  1.00  0.00     0.000 C 
BRANCH   9  10
ATOM     10  C   UNL     1      11.270 -24.921 -14.128  1.00  0.00    -0.000 C 
BRANCH  10  11
ATOM     11  C   UNL     1      12.685 -25.501 -14.016  1.00  0.00    -0.000 C 
BRANCH  11  12
ATOM     12  C   UNL     1      12.706 -26.983 -14.409  1.00  0.00    -0.000 C 
BRANCH  12  13
ATOM     13  C   UNL     1      14.143 -27.479 -14.609  1.00  0.00    -0.003 C 
ATOM     14  C   UNL     1      15.087 -26.320 -14.920  1.00  0.00     0.004 C 
ENDBRANCH  12  13
ENDBRANCH  11  12
ENDBRANCH  10  11
ENDBRANCH   9  10
ENDBRANCH   1   9
TORSDOF 10
ENDMDL
MODEL 6
REMARK VINA RESULT:    -4.492      1.880      3.063
REMARK INTER + INTRA:          -7.935
REMARK INTER:                  -7.269
REMARK INTRA:                  -0.666
REMARK UNBOUND:                -0.818
REMARK SMILES CCCCCCCCCCCC(=O)[O-]
REMARK SMILES IDX 7 1 8 2 9 3 10 4 11 5 12 6 13 7 14 8 6 9 5 10 4 11 3 12 2 13
REMARK SMILES IDX 1 14
REMARK H PARENT
REMARK Flexibility Score: inf
ROOT
ATOM      1  C   UNL     1      13.282 -18.753 -16.755  1.00  0.00     0.000 C 
ENDROOT
BRANCH   1   2
ATOM      2  C   UNL     1      14.107 -18.492 -15.476  1.00  0.00     0.000 C 
BRANCH   2   3
ATOM      3  C   UNL     1      14.481 -17.014 -15.276  1.00  0.00     0.000 C 
BRANCH   3   4
ATOM      4  C   UNL     1      13.698 -16.348 -14.136  1.00  0.00     0.006 C 
BRANCH   4   5
ATOM      5  C   UNL     1      13.170 -17.394 -13.149  1.00  0.00     0.053 C 
BRANCH   5   6
ATOM      6  C   UNL     1      14.222 -17.743 -12.145  1.00  0.00     0.041 C 
ATOM      7  O   UNL     1      14.289 -18.910 -11.677  1.00  0.00    -0.550 OA
ATOM      8  O   UNL     1      15.097 -16.766 -11.685  1.00  0.00    -0.550 OA
ENDBRANCH   5   6
ENDBRANCH   4   5
ENDBRANCH   3   4
ENDBRANCH   2   3
ENDBRANCH   1   2
BRANCH   1   9
ATOM      9  C   UNL     1      12.226 -19.850 -16.550  1.00  0.00     0.000 C 
BRANCH   9  10
ATOM     10  C   UNL     1      11.421 -19.607 -15.268  1.00  0.00    -0.000 C 
BRANCH  10  11
ATOM     11  C   UNL     1      11.689 -20.706 -14.233  1.00  0.00    -0.000 C 
BRANCH  11  12
ATOM     12  C   UNL     1      11.547 -22.098 -14.859  1.00  0.00    -0.000 C 
BRANCH  12  13
ATOM     13  C   UNL     1      12.004 -23.189 -13.883  1.00  0.00    -0.003 C 
ATOM     14  C   UNL     1      11.298 -24.512 -14.166  1.00  0.00     0.004 C 
ENDBRANCH  12  13
ENDBRANCH  11  12
ENDBRANCH  10  11
ENDBRANCH   9  10
ENDBRANCH   1   9
TORSDOF 10
ENDMDL
MODEL 7
REMARK VINA RESULT:    -4.406      4.176      7.468
REMARK INTER + INTRA:          -7.799
REMARK INTER:                  -7.140
REMARK INTRA:                  -0.659
REMARK UNBOUND:                -0.818
REMARK SMILES CCCCCCCCCCCC(=O)[O-]
REMARK SMILES IDX 7 1 8 2 9 3 10 4 11 5 12 6 13 7 14 8 6 9 5 10 4 11 3 12 2 13
REMARK SMILES IDX 1 14
REMARK H PARENT
REMARK Flexibility Score: inf
ROOT
ATOM      1  C   UNL     1      11.416 -23.310 -14.115  1.00  0.00     0.000 C 
ENDROOT
BRANCH   1   2
ATOM      2  C   UNL     1      11.389 -24.854 -14.097  1.00  0.00     0.000 C 
BRANCH   2   3
ATOM      3  C   UNL     1      12.788 -25.494 -14.082  1.00  0.00     0.000 C 
BRANCH   3   4
ATOM      4  C   UNL     1      12.767 -26.985 -14.445  1.00  0.00     0.006 C 
BRANCH   4   5
ATOM      5  C   UNL     1      14.167 -27.596 -14.332  1.00  0.00     0.053 C 
BRANCH   5   6
ATOM      6  C   UNL     1      14.961 -27.318 -15.568  1.00  0.00     0.041 C 
ATOM      7  O   UNL     1      14.832 -28.051 -16.584  1.00  0.00    -0.550 OA
ATOM      8  O   UNL     1      15.884 -26.279 -15.583  1.00  0.00    -0.550 OA
ENDBRANCH   5   6
ENDBRANCH   4   5
ENDBRANCH   3   4
ENDBRANCH   2   3
ENDBRANCH   1   2
BRANCH   1   9
ATOM      9  C   UNL     1      12.836 -22.752 -13.933  1.00  0.00     0.000 C 
BRANCH   9  10
ATOM     10  C   UNL     1      12.956 -21.345 -14.528  1.00  0.00    -0.000 C 
BRANCH  10  11
ATOM     11  C   UNL     1      11.619 -20.882 -15.120  1.00  0.00    -0.000 C 
BRANCH  11  12
ATOM     12  C   UNL     1      11.305 -19.439 -14.708  1.00  0.00    -0.000 C 
BRANCH  12  13
ATOM     13  C   UNL     1      12.003 -19.079 -13.391  1.00  0.00    -0.003 C 
ATOM     14  C   UNL     1      10.987 -18.794 -12.289  1.00  0.00     0.004 C 
ENDBRANCH  12  13
ENDBRANCH  11  12
ENDBRANCH  10  11
ENDBRANCH   9  10
ENDBRANCH   1   9
TORSDOF 10
ENDMDL
MODEL 8
REMARK VINA RESULT:    -4.402      3.897      5.938
REMARK INTER + INTRA:          -7.792
REMARK INTER:                  -6.612
REMARK INTRA:                  -1.180
REMARK UNBOUND:                -0.818
REMARK SMILES CCCCCCCCCCCC(=O)[O-]
REMARK SMILES IDX 7 1 8 2 9 3 10 4 11 5 12 6 13 7 14 8 6 9 5 10 4 11 3 12 2 13
REMARK SMILES IDX 1 14
REMARK H PARENT
REMARK Flexibility Score: inf
ROOT
ATOM      1  C   UNL     1      11.783 -20.325 -14.361  1.00  0.00     0.000 C 
ENDROOT
BRANCH   1   2
ATOM      2  C   UNL     1      11.908 -19.929 -12.874  1.00  0.00     0.000 C 
BRANCH   2   3
ATOM      3  C   UNL     1      11.014 -18.742 -12.476  1.00  0.00     0.000 C 
BRANCH   3   4
ATOM      4  C   UNL     1      10.660 -18.736 -10.982  1.00  0.00     0.006 C 
BRANCH   4   5
ATOM      5  C   UNL     1      11.748 -18.033 -10.163  1.00  0.00     0.053 C 
BRANCH   5   6
ATOM      6  C   UNL     1      11.211 -17.611  -8.833  1.00  0.00     0.041 C 
ATOM      7  O   UNL     1      10.816 -18.474  -8.005  1.00  0.00    -0.550 OA
ATOM      8  O   UNL     1      11.097 -16.260  -8.526  1.00  0.00    -0.550 OA
ENDBRANCH   5   6
ENDBRANCH   4   5
ENDBRANCH   3   4
ENDBRANCH   2   3
ENDBRANCH   1   2
BRANCH   1   9
ATOM      9  C   UNL     1      11.717 -19.099 -15.285  1.00  0.00     0.000 C 
BRANCH   9  10
ATOM     10  C   UNL     1      13.018 -18.937 -16.079  1.00  0.00    -0.000 C 
BRANCH  10  11
ATOM     11  C   UNL     1      14.113 -18.298 -15.217  1.00  0.00    -0.000 C 
BRANCH  11  12
ATOM     12  C   UNL     1      13.896 -16.787 -15.082  1.00  0.00    -0.000 C 
BRANCH  12  13
ATOM     13  C   UNL     1      13.583 -16.404 -13.630  1.00  0.00    -0.003 C 
ATOM     14  C   UNL     1      14.462 -17.183 -12.654  1.00  0.00     0.004 C 
ENDBRANCH  12  13
ENDBRANCH  11  12
ENDBRANCH  10  11
ENDBRANCH   9  10
ENDBRANCH   1   9
TORSDOF 10
ENDMDL
MODEL 9
REMARK VINA RESULT:    -4.395      3.495      6.179
REMARK INTER + INTRA:          -7.782
REMARK INTER:                  -6.528
REMARK INTRA:                  -1.254
REMARK UNBOUND:                -0.818
REMARK SMILES CCCCCCCCCCCC(=O)[O-]
REMARK SMILES IDX 7 1 8 2 9 3 10 4 11 5 12 6 13 7 14 8 6 9 5 10 4 11 3 12 2 13
REMARK SMILES IDX 1 14
REMARK H PARENT
REMARK Flexibility Score: inf
ROOT
ATOM      1  C   UNL     1      11.217 -19.146 -13.889  1.00  0.00     0.000 C 
ENDROOT
BRANCH   1   2
ATOM      2  C   UNL     1      11.726 -19.419 -15.321  1.00  0.00     0.000 C 
BRANCH   2   3
ATOM      3  C   UNL     1      11.954 -20.911 -15.620  1.00  0.00     0.000 C 
BRANCH   3   4
ATOM      4  C   UNL     1      12.365 -21.713 -14.377  1.00  0.00     0.006 C 
BRANCH   4   5
ATOM      5  C   UNL     1      11.405 -22.883 -14.137  1.00  0.00     0.053 C 
BRANCH   5   6
ATOM      6  C   UNL     1      12.159 -24.172 -14.066  1.00  0.00     0.041 C 
ATOM      7  O   UNL     1      11.550 -25.270 -14.165  1.00  0.00    -0.550 OA
ATOM      8  O   UNL     1      13.530 -24.165 -13.838  1.00  0.00    -0.550 OA
ENDBRANCH   5   6
ENDBRANCH   4   5
ENDBRANCH   3   4
ENDBRANCH   2   3
ENDBRANCH   1   2
BRANCH   1   9
ATOM      9  C   UNL     1      11.866 -17.898 -13.271  1.00  0.00     0.000 C 
BRANCH   9  10
ATOM     10  C   UNL     1      13.019 -17.388 -14.143  1.00  0.00    -0.000 C 
BRANCH  10  11
ATOM     11  C   UNL     1      14.275 -17.133 -13.302  1.00  0.00    -0.000 C 
BRANCH  11  12
ATOM     12  C   UNL     1      15.500 -17.815 -13.922  1.00  0.00    -0.000 C 
BRANCH  12  13
ATOM     13  C   UNL     1      15.276 -19.325 -14.063  1.00  0.00    -0.003 C 
ATOM     14  C   UNL     1      15.162 -19.995 -12.696  1.00  0.00     0.004 C 
ENDBRANCH  12  13
ENDBRANCH  11  12
ENDBRANCH  10  11
ENDBRANCH   9  10
ENDBRANCH   1   9
TORSDOF 10
ENDMDL
