MODEL 1
REMARK VINA RESULT:    -3.612      0.000      0.000
REMARK INTER + INTRA:          -8.141
REMARK INTER:                  -6.569
REMARK INTRA:                  -1.572
REMARK UNBOUND:                -1.572
REMARK SMILES CCCCCCCCCCCCCC[C@H](C)C(=O)[O-]
REMARK SMILES IDX 9 1 10 2 11 3 12 4 13 5 14 6 15 7 16 8 17 9 18 10 19 11 8 12
REMARK SMILES IDX 7 13 6 14 5 15 4 16 3 17 2 18 1 19
REMARK H PARENT
REMARK Flexibility Score: inf
ROOT
ATOM      1  C   UNL     1      11.114  -5.280  20.631  1.00  0.00     0.000 C 
ENDROOT
BRANCH   1   2
ATOM      2  C   UNL     1      10.372  -3.942  20.730  1.00  0.00     0.000 C 
BRANCH   2   3
ATOM      3  C   UNL     1      10.668  -3.057  19.511  1.00  0.00     0.000 C 
BRANCH   3   4
ATOM      4  C   UNL     1       9.405  -2.719  18.700  1.00  0.00     0.000 C 
BRANCH   4   5
ATOM      5  C   UNL     1       8.124  -2.796  19.547  1.00  0.00     0.001 C 
BRANCH   5   6
ATOM      6  C   UNL     1       6.862  -3.069  18.706  1.00  0.00     0.009 C 
BRANCH   6   7
ATOM      7  C   UNL     1       6.293  -1.841  17.956  1.00  0.00     0.032 C 
ATOM      8  C   UNL     1       4.898  -1.441  18.453  1.00  0.00     0.014 C 
BRANCH   7   9
ATOM      9  C   UNL     1       6.246  -2.128  16.479  1.00  0.00     0.044 C 
ATOM     10  O   UNL     1       5.212  -1.864  15.810  1.00  0.00    -0.550 OA
ATOM     11  O   UNL     1       7.350  -2.682  15.843  1.00  0.00    -0.550 OA
ENDBRANCH   7   9
ENDBRANCH   6   7
ENDBRANCH   5   6
ENDBRANCH   4   5
ENDBRANCH   3   4
ENDBRANCH   2   3
ENDBRANCH   1   2
BRANCH   1  12
ATOM     12  C   UNL     1      10.141  -6.431  20.345  1.00  0.00     0.000 C 
BRANCH  12  13
ATOM     13  C   UNL     1       9.966  -6.642  18.835  1.00  0.00    -0.000 C 
BRANCH  13  14
ATOM     14  C   UNL     1       8.577  -6.218  18.328  1.00  0.00    -0.000 C 
BRANCH  14  15
ATOM     15  C   UNL     1       8.346  -6.525  16.833  1.00  0.00    -0.000 C 
BRANCH  15  16
ATOM     16  C   UNL     1       8.685  -7.984  16.480  1.00  0.00    -0.000 C 
BRANCH  16  17
ATOM     17  C   UNL     1       7.760  -8.998  17.175  1.00  0.00    -0.000 C 
BRANCH  17  18
ATOM     18  C   UNL     1       7.065  -9.992  16.226  1.00  0.00    -0.003 C 
ATOM     19  C   UNL     1       6.081  -9.316  15.272  1.00  0.00     0.004 C 
ENDBRANCH  17  18
ENDBRANCH  16  17
ENDBRANCH  15  16
ENDBRANCH  14  15
ENDBRANCH  13  14
ENDBRANCH  12  13
ENDBRANCH   1  12
TORSDOF 14
ENDMDL
MODEL 2
REMARK VINA RESULT:    -3.536      1.872      4.337
REMARK INTER + INTRA:          -8.001
REMARK INTER:                  -5.904
REMARK INTRA:                  -2.097
REMARK UNBOUND:                -1.572
REMARK SMILES CCCCCCCCCCCCCC[C@H](C)C(=O)[O-]
REMARK SMILES IDX 9 1 10 2 11 3 12 4 13 5 14 6 15 7 16 8 17 9 18 10 19 11 8 12
REMARK SMILES IDX 7 13 6 14 5 15 4 16 3 17 2 18 1 19
REMARK H PARENT
REMARK Flexibility Score: inf
ROOT
ATOM      1  C   UNL     1       7.901  -3.567  17.347  1.00  0.00     0.000 C 
ENDROOT
BRANCH   1   2
ATOM      2  C   UNL     1       7.208  -3.666  18.712  1.00  0.00     0.000 C 
BRANCH   2   3
ATOM      3  C   UNL     1       6.227  -2.503  18.916  1.00  0.00     0.000 C 
BRANCH   3   4
ATOM      4  C   UNL     1       6.894  -1.266  19.543  1.00  0.00     0.000 C 
BRANCH   4   5
ATOM      5  C   UNL     1       6.328   0.052  18.989  1.00  0.00     0.001 C 
BRANCH   5   6
ATOM      6  C   UNL     1       6.966   0.465  17.648  1.00  0.00     0.009 C 
BRANCH   6   7
ATOM      7  C   UNL     1       5.993   0.518  16.446  1.00  0.00     0.032 C 
ATOM      8  C   UNL     1       4.533   0.710  16.878  1.00  0.00     0.014 C 
BRANCH   7   9
ATOM      9  C   UNL     1       6.122  -0.744  15.635  1.00  0.00     0.044 C 
ATOM     10  O   UNL     1       7.194  -1.007  15.029  1.00  0.00    -0.550 OA
ATOM     11  O   UNL     1       5.056  -1.632  15.558  1.00  0.00    -0.550 OA
ENDBRANCH   7   9
ENDBRANCH   6   7
ENDBRANCH   5   6
ENDBRANCH   4   5
ENDBRANCH   3   4
ENDBRANCH   2   3
ENDBRANCH   1   2
BRANCH   1  12
ATOM     12  C   UNL     1       8.554  -4.900  16.963  1.00  0.00     0.000 C 
BRANCH  12  13
ATOM     13  C   UNL     1       8.225  -5.991  17.990  1.00  0.00    -0.000 C 
BRANCH  13  14
ATOM     14  C   UNL     1       9.231  -7.155  17.971  1.00  0.00    -0.000 C 
BRANCH  14  15
ATOM     15  C   UNL     1      10.409  -6.968  18.951  1.00  0.00    -0.000 C 
BRANCH  15  16
ATOM     16  C   UNL     1       9.986  -6.233  20.235  1.00  0.00    -0.000 C 
BRANCH  16  17
ATOM     17  C   UNL     1      11.026  -5.200  20.703  1.00  0.00    -0.000 C 
BRANCH  17  18
ATOM     18  C   UNL     1      10.615  -3.731  20.493  1.00  0.00    -0.003 C 
ATOM     19  C   UNL     1      11.065  -3.173  19.144  1.00  0.00     0.004 C 
ENDBRANCH  17  18
ENDBRANCH  16  17
ENDBRANCH  15  16
ENDBRANCH  14  15
ENDBRANCH  13  14
ENDBRANCH  12  13
ENDBRANCH   1  12
TORSDOF 14
ENDMDL
MODEL 3
REMARK VINA RESULT:    -3.454      2.425      3.510
REMARK INTER + INTRA:          -7.852
REMARK INTER:                  -5.304
REMARK INTRA:                  -2.548
REMARK UNBOUND:                -1.572
REMARK SMILES CCCCCCCCCCCCCC[C@H](C)C(=O)[O-]
REMARK SMILES IDX 9 1 10 2 11 3 12 4 13 5 14 6 15 7 16 8 17 9 18 10 19 11 8 12
REMARK SMILES IDX 7 13 6 14 5 15 4 16 3 17 2 18 1 19
REMARK H PARENT
REMARK Flexibility Score: inf
ROOT
ATOM      1  C   UNL     1      10.579  -2.345  19.958  1.00  0.00     0.000 C 
ENDROOT
BRANCH   1   2
ATOM      2  C   UNL     1       9.172  -1.956  19.490  1.00  0.00     0.000 C 
BRANCH   2   3
ATOM      3  C   UNL     1       8.099  -2.720  20.278  1.00  0.00     0.000 C 
BRANCH   3   4
ATOM      4  C   UNL     1       6.740  -2.749  19.557  1.00  0.00     0.000 C 
BRANCH   4   5
ATOM      5  C   UNL     1       6.539  -1.537  18.632  1.00  0.00     0.001 C 
BRANCH   5   6
ATOM      6  C   UNL     1       5.370  -1.721  17.644  1.00  0.00     0.009 C 
BRANCH   6   7
ATOM      7  C   UNL     1       5.586  -1.091  16.247  1.00  0.00     0.032 C 
ATOM      8  C   UNL     1       7.069  -0.855  15.929  1.00  0.00     0.014 C 
BRANCH   7   9
ATOM      9  C   UNL     1       4.833   0.209  16.157  1.00  0.00     0.044 C 
ATOM     10  O   UNL     1       4.772   0.838  15.068  1.00  0.00    -0.550 OA
ATOM     11  O   UNL     1       4.192   0.720  17.279  1.00  0.00    -0.550 OA
ENDBRANCH   7   9
ENDBRANCH   6   7
ENDBRANCH   5   6
ENDBRANCH   4   5
ENDBRANCH   3   4
ENDBRANCH   2   3
ENDBRANCH   1   2
BRANCH   1  12
ATOM     12  C   UNL     1      10.528  -3.524  20.938  1.00  0.00     0.000 C 
BRANCH  12  13
ATOM     13  C   UNL     1      11.110  -4.793  20.304  1.00  0.00    -0.000 C 
BRANCH  13  14
ATOM     14  C   UNL     1      10.211  -6.026  20.497  1.00  0.00    -0.000 C 
BRANCH  14  15
ATOM     15  C   UNL     1       9.790  -6.698  19.172  1.00  0.00    -0.000 C 
BRANCH  15  16
ATOM     16  C   UNL     1       9.836  -5.719  17.986  1.00  0.00    -0.000 C 
BRANCH  16  17
ATOM     17  C   UNL     1       8.437  -5.321  17.484  1.00  0.00    -0.000 C 
BRANCH  17  18
ATOM     18  C   UNL     1       8.416  -4.131  16.508  1.00  0.00    -0.003 C 
ATOM     19  C   UNL     1       9.806  -3.550  16.247  1.00  0.00     0.004 C 
ENDBRANCH  17  18
ENDBRANCH  16  17
ENDBRANCH  15  16
ENDBRANCH  14  15
ENDBRANCH  13  14
ENDBRANCH  12  13
ENDBRANCH   1  12
TORSDOF 14
ENDMDL
MODEL 4
REMARK VINA RESULT:    -3.414      1.222      2.032
REMARK INTER + INTRA:          -7.781
REMARK INTER:                  -5.964
REMARK INTRA:                  -1.817
REMARK UNBOUND:                -1.572
REMARK SMILES CCCCCCCCCCCCCC[C@H](C)C(=O)[O-]
REMARK SMILES IDX 9 1 10 2 11 3 12 4 13 5 14 6 15 7 16 8 17 9 18 10 19 11 8 12
REMARK SMILES IDX 7 13 6 14 5 15 4 16 3 17 2 18 1 19
REMARK H PARENT
REMARK Flexibility Score: inf
ROOT
ATOM      1  C   UNL     1      11.094  -3.184  19.729  1.00  0.00     0.000 C 
ENDROOT
BRANCH   1   2
ATOM      2  C   UNL     1       9.796  -2.408  19.475  1.00  0.00     0.000 C 
BRANCH   2   3
ATOM      3  C   UNL     1       8.915  -2.384  20.732  1.00  0.00     0.000 C 
BRANCH   3   4
ATOM      4  C   UNL     1       7.428  -2.629  20.421  1.00  0.00     0.000 C 
BRANCH   4   5
ATOM      5  C   UNL     1       7.203  -3.138  18.987  1.00  0.00     0.001 C 
BRANCH   5   6
ATOM      6  C   UNL     1       6.387  -2.159  18.122  1.00  0.00     0.009 C 
BRANCH   6   7
ATOM      7  C   UNL     1       6.656  -2.245  16.601  1.00  0.00     0.032 C 
ATOM      8  C   UNL     1       7.989  -2.933  16.276  1.00  0.00     0.014 C 
BRANCH   7   9
ATOM      9  C   UNL     1       6.638  -0.863  16.005  1.00  0.00     0.044 C 
ATOM     10  O   UNL     1       6.745   0.153  16.742  1.00  0.00    -0.550 OA
ATOM     11  O   UNL     1       6.508  -0.701  14.631  1.00  0.00    -0.550 OA
ENDBRANCH   7   9
ENDBRANCH   6   7
ENDBRANCH   5   6
ENDBRANCH   4   5
ENDBRANCH   3   4
ENDBRANCH   2   3
ENDBRANCH   1   2
BRANCH   1  12
ATOM     12  C   UNL     1      10.870  -4.319  20.735  1.00  0.00     0.000 C 
BRANCH  12  13
ATOM     13  C   UNL     1      10.967  -5.689  20.052  1.00  0.00    -0.000 C 
BRANCH  13  14
ATOM     14  C   UNL     1       9.596  -6.247  19.631  1.00  0.00    -0.000 C 
BRANCH  14  15
ATOM     15  C   UNL     1       9.263  -6.009  18.143  1.00  0.00    -0.000 C 
BRANCH  15  16
ATOM     16  C   UNL     1       8.195  -6.986  17.623  1.00  0.00    -0.000 C 
BRANCH  16  17
ATOM     17  C   UNL     1       8.718  -8.427  17.486  1.00  0.00    -0.000 C 
BRANCH  17  18
ATOM     18  C   UNL     1       7.686  -9.441  16.961  1.00  0.00    -0.003 C 
ATOM     19  C   UNL     1       6.609  -8.797  16.088  1.00  0.00     0.004 C 
ENDBRANCH  17  18
ENDBRANCH  16  17
ENDBRANCH  15  16
ENDBRANCH  14  15
ENDBRANCH  13  14
ENDBRANCH  12  13
ENDBRANCH   1  12
TORSDOF 14
ENDMDL
MODEL 5
REMARK VINA RESULT:    -3.406      8.257     12.478
REMARK INTER + INTRA:          -7.766
REMARK INTER:                  -5.221
REMARK INTRA:                  -2.545
REMARK UNBOUND:                -1.572
REMARK SMILES CCCCCCCCCCCCCC[C@H](C)C(=O)[O-]
REMARK SMILES IDX 9 1 10 2 11 3 12 4 13 5 14 6 15 7 16 8 17 9 18 10 19 11 8 12
REMARK SMILES IDX 7 13 6 14 5 15 4 16 3 17 2 18 1 19
REMARK H PARENT
REMARK Flexibility Score: inf
ROOT
ATOM      1  C   UNL     1       2.102   5.791  17.189  1.00  0.00     0.000 C 
ENDROOT
BRANCH   1   2
ATOM      2  C   UNL     1       2.397   4.355  16.740  1.00  0.00     0.000 C 
BRANCH   2   3
ATOM      3  C   UNL     1       1.101   3.542  16.609  1.00  0.00     0.000 C 
BRANCH   3   4
ATOM      4  C   UNL     1       1.347   2.107  16.111  1.00  0.00     0.000 C 
BRANCH   4   5
ATOM      5  C   UNL     1       2.687   1.963  15.370  1.00  0.00     0.001 C 
BRANCH   5   6
ATOM      6  C   UNL     1       2.597   1.044  14.136  1.00  0.00     0.009 C 
BRANCH   6   7
ATOM      7  C   UNL     1       3.898   0.930  13.305  1.00  0.00     0.032 C 
ATOM      8  C   UNL     1       3.733   1.462  11.875  1.00  0.00     0.014 C 
BRANCH   7   9
ATOM      9  C   UNL     1       4.348  -0.505  13.267  1.00  0.00     0.044 C 
ATOM     10  O   UNL     1       4.373  -1.196  14.319  1.00  0.00    -0.550 OA
ATOM     11  O   UNL     1       4.735  -1.079  12.062  1.00  0.00    -0.550 OA
ENDBRANCH   7   9
ENDBRANCH   6   7
ENDBRANCH   5   6
ENDBRANCH   4   5
ENDBRANCH   3   4
ENDBRANCH   2   3
ENDBRANCH   1   2
BRANCH   1  12
ATOM     12  C   UNL     1       0.619   6.134  17.000  1.00  0.00     0.000 C 
BRANCH  12  13
ATOM     13  C   UNL     1       0.445   7.579  16.515  1.00  0.00    -0.000 C 
BRANCH  13  14
ATOM     14  C   UNL     1       0.079   7.669  15.023  1.00  0.00    -0.000 C 
BRANCH  14  15
ATOM     15  C   UNL     1      -0.205   6.299  14.373  1.00  0.00    -0.000 C 
BRANCH  15  16
ATOM     16  C   UNL     1       0.619   6.081  13.092  1.00  0.00    -0.000 C 
BRANCH  16  17
ATOM     17  C   UNL     1       1.391   4.750  13.095  1.00  0.00    -0.000 C 
BRANCH  17  18
ATOM     18  C   UNL     1       2.924   4.895  13.105  1.00  0.00    -0.003 C 
ATOM     19  C   UNL     1       3.392   6.242  13.653  1.00  0.00     0.004 C 
ENDBRANCH  17  18
ENDBRANCH  16  17
ENDBRANCH  15  16
ENDBRANCH  14  15
ENDBRANCH  13  14
ENDBRANCH  12  13
ENDBRANCH   1  12
TORSDOF 14
ENDMDL
MODEL 6
REMARK VINA RESULT:    -3.360      1.962      3.252
REMARK INTER + INTRA:          -7.682
REMARK INTER:                  -5.245
REMARK INTRA:                  -2.437
REMARK UNBOUND:                -1.572
REMARK SMILES CCCCCCCCCCCCCC[C@H](C)C(=O)[O-]
REMARK SMILES IDX 9 1 10 2 11 3 12 4 13 5 14 6 15 7 16 8 17 9 18 10 19 11 8 12
REMARK SMILES IDX 7 13 6 14 5 15 4 16 3 17 2 18 1 19
REMARK H PARENT
REMARK Flexibility Score: inf
ROOT
ATOM      1  C   UNL     1      10.070  -5.710  20.303  1.00  0.00     0.000 C 
ENDROOT
BRANCH   1   2
ATOM      2  C   UNL     1      11.113  -4.587  20.335  1.00  0.00     0.000 C 
BRANCH   2   3
ATOM      3  C   UNL     1      10.440  -3.209  20.264  1.00  0.00     0.000 C 
BRANCH   3   4
ATOM      4  C   UNL     1       8.931  -3.298  19.978  1.00  0.00     0.000 C 
BRANCH   4   5
ATOM      5  C   UNL     1       8.137  -2.163  20.645  1.00  0.00     0.001 C 
BRANCH   5   6
ATOM      6  C   UNL     1       7.068  -1.550  19.719  1.00  0.00     0.009 C 
BRANCH   6   7
ATOM      7  C   UNL     1       7.371  -1.657  18.205  1.00  0.00     0.032 C 
ATOM      8  C   UNL     1       8.016  -0.384  17.642  1.00  0.00     0.014 C 
BRANCH   7   9
ATOM      9  C   UNL     1       6.101  -1.960  17.456  1.00  0.00     0.044 C 
ATOM     10  O   UNL     1       6.129  -2.189  16.218  1.00  0.00    -0.550 OA
ATOM     11  O   UNL     1       4.888  -1.994  18.131  1.00  0.00    -0.550 OA
ENDBRANCH   7   9
ENDBRANCH   6   7
ENDBRANCH   5   6
ENDBRANCH   4   5
ENDBRANCH   3   4
ENDBRANCH   2   3
ENDBRANCH   1   2
BRANCH   1  12
ATOM     12  C   UNL     1      10.607  -6.941  19.563  1.00  0.00     0.000 C 
BRANCH  12  13
ATOM     13  C   UNL     1       9.829  -7.185  18.264  1.00  0.00    -0.000 C 
BRANCH  13  14
ATOM     14  C   UNL     1       8.519  -6.381  18.190  1.00  0.00    -0.000 C 
BRANCH  14  15
ATOM     15  C   UNL     1       8.509  -5.319  17.070  1.00  0.00    -0.000 C 
BRANCH  15  16
ATOM     16  C   UNL     1       9.775  -5.382  16.198  1.00  0.00    -0.000 C 
BRANCH  16  17
ATOM     17  C   UNL     1      10.836  -4.345  16.608  1.00  0.00    -0.000 C 
BRANCH  17  18
ATOM     18  C   UNL     1      10.396  -2.878  16.456  1.00  0.00    -0.003 C 
ATOM     19  C   UNL     1       9.806  -2.573  15.079  1.00  0.00     0.004 C 
ENDBRANCH  17  18
ENDBRANCH  16  17
ENDBRANCH  15  16
ENDBRANCH  14  15
ENDBRANCH  13  14
ENDBRANCH  12  13
ENDBRANCH   1  12
TORSDOF 14
ENDMDL
MODEL 7
REMARK VINA RESULT:    -3.314      2.998      5.815
REMARK INTER + INTRA:          -7.598
REMARK INTER:                  -5.003
REMARK INTRA:                  -2.595
REMARK UNBOUND:                -1.572
REMARK SMILES CCCCCCCCCCCCCC[C@H](C)C(=O)[O-]
REMARK SMILES IDX 9 1 10 2 11 3 12 4 13 5 14 6 15 7 16 8 17 9 18 10 19 11 8 12
REMARK SMILES IDX 7 13 6 14 5 15 4 16 3 17 2 18 1 19
REMARK H PARENT
REMARK Flexibility Score: inf
ROOT
ATOM      1  C   UNL     1       6.960  -2.626  17.045  1.00  0.00     0.000 C 
ENDROOT
BRANCH   1   2
ATOM      2  C   UNL     1       6.245  -2.523  18.398  1.00  0.00     0.000 C 
BRANCH   2   3
ATOM      3  C   UNL     1       4.974  -1.668  18.284  1.00  0.00     0.000 C 
BRANCH   3   4
ATOM      4  C   UNL     1       5.223  -0.186  18.612  1.00  0.00     0.000 C 
BRANCH   4   5
ATOM      5  C   UNL     1       4.447   0.761  17.682  1.00  0.00     0.001 C 
BRANCH   5   6
ATOM      6  C   UNL     1       5.339   1.421  16.612  1.00  0.00     0.009 C 
BRANCH   6   7
ATOM      7  C   UNL     1       5.877   0.462  15.524  1.00  0.00     0.032 C 
ATOM      8  C   UNL     1       6.812   1.164  14.529  1.00  0.00     0.014 C 
BRANCH   7   9
ATOM      9  C   UNL     1       4.724  -0.162  14.785  1.00  0.00     0.044 C 
ATOM     10  O   UNL     1       4.646  -1.413  14.662  1.00  0.00    -0.550 OA
ATOM     11  O   UNL     1       3.732   0.642  14.239  1.00  0.00    -0.550 OA
ENDBRANCH   7   9
ENDBRANCH   6   7
ENDBRANCH   5   6
ENDBRANCH   4   5
ENDBRANCH   3   4
ENDBRANCH   2   3
ENDBRANCH   1   2
BRANCH   1  12
ATOM     12  C   UNL     1       8.185  -3.543  17.138  1.00  0.00     0.000 C 
BRANCH  12  13
ATOM     13  C   UNL     1       8.232  -4.264  18.492  1.00  0.00    -0.000 C 
BRANCH  13  14
ATOM     14  C   UNL     1       9.666  -4.481  19.006  1.00  0.00    -0.000 C 
BRANCH  14  15
ATOM     15  C   UNL     1      10.189  -3.322  19.881  1.00  0.00    -0.000 C 
BRANCH  15  16
ATOM     16  C   UNL     1       9.056  -2.606  20.636  1.00  0.00    -0.000 C 
BRANCH  16  17
ATOM     17  C   UNL     1       9.014  -1.093  20.358  1.00  0.00    -0.000 C 
BRANCH  17  18
ATOM     18  C   UNL     1       9.744  -0.652  19.077  1.00  0.00    -0.003 C 
ATOM     19  C   UNL     1       8.889   0.243  18.181  1.00  0.00     0.004 C 
ENDBRANCH  17  18
ENDBRANCH  16  17
ENDBRANCH  15  16
ENDBRANCH  14  15
ENDBRANCH  13  14
ENDBRANCH  12  13
ENDBRANCH   1  12
TORSDOF 14
ENDMDL
MODEL 8
REMARK VINA RESULT:    -3.303      9.969     13.290
REMARK INTER + INTRA:          -7.578
REMARK INTER:                  -5.181
REMARK INTRA:                  -2.397
REMARK UNBOUND:                -1.572
REMARK SMILES CCCCCCCCCCCCCC[C@H](C)C(=O)[O-]
REMARK SMILES IDX 9 1 10 2 11 3 12 4 13 5 14 6 15 7 16 8 17 9 18 10 19 11 8 12
REMARK SMILES IDX 7 13 6 14 5 15 4 16 3 17 2 18 1 19
REMARK H PARENT
REMARK Flexibility Score: inf
ROOT
ATOM      1  C   UNL     1      -3.987  -0.937  23.253  1.00  0.00     0.000 C 
ENDROOT
BRANCH   1   2
ATOM      2  C   UNL     1      -3.698   0.345  22.461  1.00  0.00     0.000 C 
BRANCH   2   3
ATOM      3  C   UNL     1      -2.342   0.256  21.746  1.00  0.00     0.000 C 
BRANCH   3   4
ATOM      4  C   UNL     1      -1.895  -1.195  21.497  1.00  0.00     0.000 C 
BRANCH   4   5
ATOM      5  C   UNL     1      -0.375  -1.377  21.649  1.00  0.00     0.001 C 
BRANCH   5   6
ATOM      6  C   UNL     1       0.046  -1.753  23.083  1.00  0.00     0.009 C 
BRANCH   6   7
ATOM      7  C   UNL     1      -0.325  -3.189  23.522  1.00  0.00     0.032 C 
ATOM      8  C   UNL     1      -1.408  -3.211  24.610  1.00  0.00     0.014 C 
BRANCH   7   9
ATOM      9  C   UNL     1       0.906  -3.902  24.013  1.00  0.00     0.044 C 
ATOM     10  O   UNL     1       1.869  -3.252  24.499  1.00  0.00    -0.550 OA
ATOM     11  O   UNL     1       0.982  -5.287  23.939  1.00  0.00    -0.550 OA
ENDBRANCH   7   9
ENDBRANCH   6   7
ENDBRANCH   5   6
ENDBRANCH   4   5
ENDBRANCH   3   4
ENDBRANCH   2   3
ENDBRANCH   1   2
BRANCH   1  12
ATOM     12  C   UNL     1      -5.496  -1.159  23.410  1.00  0.00     0.000 C 
BRANCH  12  13
ATOM     13  C   UNL     1      -5.838  -2.654  23.386  1.00  0.00    -0.000 C 
BRANCH  13  14
ATOM     14  C   UNL     1      -5.019  -3.439  22.347  1.00  0.00    -0.000 C 
BRANCH  14  15
ATOM     15  C   UNL     1      -5.858  -3.947  21.155  1.00  0.00    -0.000 C 
BRANCH  15  16
ATOM     16  C   UNL     1      -5.293  -3.474  19.804  1.00  0.00    -0.000 C 
BRANCH  16  17
ATOM     17  C   UNL     1      -4.929  -1.979  19.797  1.00  0.00    -0.000 C 
BRANCH  17  18
ATOM     18  C   UNL     1      -6.134  -1.023  19.744  1.00  0.00    -0.003 C 
ATOM     19  C   UNL     1      -5.742   0.411  19.391  1.00  0.00     0.004 C 
ENDBRANCH  17  18
ENDBRANCH  16  17
ENDBRANCH  15  16
ENDBRANCH  14  15
ENDBRANCH  13  14
ENDBRANCH  12  13
ENDBRANCH   1  12
TORSDOF 14
ENDMDL
MODEL 9
REMARK VINA RESULT:    -3.269      2.532      5.143
REMARK INTER + INTRA:          -7.516
REMARK INTER:                  -5.421
REMARK INTRA:                  -2.095
REMARK UNBOUND:                -1.572
REMARK SMILES CCCCCCCCCCCCCC[C@H](C)C(=O)[O-]
REMARK SMILES IDX 9 1 10 2 11 3 12 4 13 5 14 6 15 7 16 8 17 9 18 10 19 11 8 12
REMARK SMILES IDX 7 13 6 14 5 15 4 16 3 17 2 18 1 19
REMARK H PARENT
REMARK Flexibility Score: inf
ROOT
ATOM      1  C   UNL     1       6.886  -3.174  18.589  1.00  0.00     0.000 C 
ENDROOT
BRANCH   1   2
ATOM      2  C   UNL     1       5.855  -2.042  18.675  1.00  0.00     0.000 C 
BRANCH   2   3
ATOM      3  C   UNL     1       6.530  -0.709  19.028  1.00  0.00     0.000 C 
BRANCH   3   4
ATOM      4  C   UNL     1       5.545   0.473  19.035  1.00  0.00     0.000 C 
BRANCH   4   5
ATOM      5  C   UNL     1       4.427   0.313  17.991  1.00  0.00     0.001 C 
BRANCH   5   6
ATOM      6  C   UNL     1       4.806   0.882  16.610  1.00  0.00     0.009 C 
BRANCH   6   7
ATOM      7  C   UNL     1       5.195  -0.175  15.549  1.00  0.00     0.032 C 
ATOM      8  C   UNL     1       6.699  -0.176  15.242  1.00  0.00     0.014 C 
BRANCH   7   9
ATOM      9  C   UNL     1       4.417   0.069  14.284  1.00  0.00     0.044 C 
ATOM     10  O   UNL     1       4.453   1.193  13.717  1.00  0.00    -0.550 OA
ATOM     11  O   UNL     1       3.656  -0.953  13.729  1.00  0.00    -0.550 OA
ENDBRANCH   7   9
ENDBRANCH   6   7
ENDBRANCH   5   6
ENDBRANCH   4   5
ENDBRANCH   3   4
ENDBRANCH   2   3
ENDBRANCH   1   2
BRANCH   1  12
ATOM     12  C   UNL     1       7.710  -3.073  17.299  1.00  0.00     0.000 C 
BRANCH  12  13
ATOM     13  C   UNL     1       8.520  -4.354  17.061  1.00  0.00    -0.000 C 
BRANCH  13  14
ATOM     14  C   UNL     1       8.103  -5.507  17.990  1.00  0.00    -0.000 C 
BRANCH  14  15
ATOM     15  C   UNL     1       9.253  -6.033  18.875  1.00  0.00    -0.000 C 
BRANCH  15  16
ATOM     16  C   UNL     1      10.407  -5.021  18.990  1.00  0.00    -0.000 C 
BRANCH  16  17
ATOM     17  C   UNL     1      10.388  -4.240  20.316  1.00  0.00    -0.000 C 
BRANCH  17  18
ATOM     18  C   UNL     1      10.239  -2.716  20.164  1.00  0.00    -0.003 C 
ATOM     19  C   UNL     1       9.297  -2.103  21.200  1.00  0.00     0.004 C 
ENDBRANCH  17  18
ENDBRANCH  16  17
ENDBRANCH  15  16
ENDBRANCH  14  15
ENDBRANCH  13  14
ENDBRANCH  12  13
ENDBRANCH   1  12
TORSDOF 14
ENDMDL
