MODEL 1
REMARK VINA RESULT:    -4.068      0.000      0.000
REMARK INTER + INTRA:          -6.311
REMARK INTER:                  -6.209
REMARK INTRA:                  -0.102
REMARK UNBOUND:                -0.102
REMARK SMILES CC1=CCC[C@@H](C)C(=O)C[C@@H](C(C)C)C(=O)C1
REMARK SMILES IDX 8 1 9 2 6 3 7 4 5 5 4 6 3 7 2 8 1 9 10 11 11 12 15 13 16 14
REMARK SMILES IDX 17 15 12 17 13 18 14 19
REMARK H PARENT
REMARK Flexibility Score: 70.00
ROOT
ATOM      1  C   UNL     1     -64.464 -77.009 222.798  1.00  0.00     0.136 C 
ATOM      2  O   UNL     1     -65.573 -76.497 222.863  1.00  0.00    -0.299 OA
ENDROOT
BRANCH   1   3
ATOM      3  C   UNL     1     -63.280 -76.173 222.355  1.00  0.00     0.053 C 
ATOM      4  C   UNL     1     -63.720 -74.715 222.188  1.00  0.00     0.016 C 
BRANCH   3   5
ATOM      5  C   UNL     1     -62.654 -76.695 221.038  1.00  0.00     0.015 C 
BRANCH   5   6
ATOM      6  C   UNL     1     -61.181 -77.113 221.166  1.00  0.00     0.028 C 
BRANCH   6   7
ATOM      7  C   UNL     1     -61.034 -78.615 221.214  1.00  0.00    -0.028 C 
ATOM      8  C   UNL     1     -61.019 -79.359 222.344  1.00  0.00    -0.070 CG0
ATOM      9  C   UNL     1     -60.884 -80.853 222.208  1.00  0.00     0.039 C 
ATOM     10  G   UNL     1     -61.139 -78.753 223.732  1.00  0.00     0.000 G0
ENDBRANCH   6   7
ENDBRANCH   5   6
ENDBRANCH   3   5
ENDBRANCH   1   3
BRANCH   1  11
ATOM     11  C   UNL     1     -64.296 -78.453 223.209  1.00  0.00     0.087 C 
BRANCH  11  12
ATOM     12  C   UNL     1     -63.676 -78.625 224.618  1.00  0.00     0.066 C 
BRANCH  12  13
ATOM     13  C   UNL     1     -62.309 -79.299 224.550  1.00  0.00     0.140 C 
ATOM     14  O   UNL     1     -62.111 -80.308 225.211  1.00  0.00    -0.299 OA
BRANCH  13  15
ATOM     15  C   UNL     1     -61.156 -78.750 223.733  1.00  0.00     0.106 CG0
ATOM     16  G   UNL     1     -61.029 -79.359 222.347  1.00  0.00     0.000 G0
ENDBRANCH  13  15
ENDBRANCH  12  13
BRANCH  12  17
ATOM     17  C   UNL     1     -64.656 -79.354 225.590  1.00  0.00    -0.006 C 
ATOM     18  C   UNL     1     -65.335 -78.428 226.616  1.00  0.00     0.008 C 
ATOM     19  C   UNL     1     -65.724 -80.145 224.818  1.00  0.00     0.008 C 
ENDBRANCH  12  17
ENDBRANCH  11  12
ENDBRANCH   1  11
TORSDOF 1
ENDMDL
MODEL 2
REMARK VINA RESULT:    -3.967      1.306      1.893
REMARK INTER + INTRA:          -6.156
REMARK INTER:                  -6.608
REMARK INTRA:                   0.451
REMARK UNBOUND:                -0.102
REMARK SMILES CC1=CCC[C@@H](C)C(=O)C[C@@H](C(C)C)C(=O)C1
REMARK SMILES IDX 8 1 9 2 6 3 7 4 5 5 4 6 3 7 2 8 1 9 10 11 11 12 15 13 16 14
REMARK SMILES IDX 17 15 12 17 13 18 14 19
REMARK H PARENT
REMARK Flexibility Score: 70.00
ROOT
ATOM      1  C   UNL     1     -64.368 -76.842 222.584  1.00  0.00     0.136 C 
ATOM      2  O   UNL     1     -65.452 -76.349 222.861  1.00  0.00    -0.299 OA
ENDROOT
BRANCH   1   3
ATOM      3  C   UNL     1     -63.354 -76.030 221.804  1.00  0.00     0.053 C 
ATOM      4  C   UNL     1     -63.500 -74.549 222.169  1.00  0.00     0.016 C 
BRANCH   3   5
ATOM      5  C   UNL     1     -63.503 -76.219 220.274  1.00  0.00     0.015 C 
BRANCH   5   6
ATOM      6  C   UNL     1     -63.110 -77.618 219.775  1.00  0.00     0.028 C 
BRANCH   6   7
ATOM      7  C   UNL     1     -61.616 -77.828 219.839  1.00  0.00    -0.028 C 
ATOM      8  C   UNL     1     -60.982 -78.641 220.715  1.00  0.00    -0.070 CG0
ATOM      9  C   UNL     1     -59.482 -78.748 220.625  1.00  0.00     0.039 C 
ATOM     10  G   UNL     1     -61.717 -79.447 221.772  1.00  0.00     0.000 G0
ENDBRANCH   6   7
ENDBRANCH   5   6
ENDBRANCH   3   5
ENDBRANCH   1   3
BRANCH   1  11
ATOM     11  C   UNL     1     -64.050 -78.236 223.073  1.00  0.00     0.087 C 
BRANCH  11  12
ATOM     12  C   UNL     1     -62.781 -78.305 223.959  1.00  0.00     0.066 C 
BRANCH  12  13
ATOM     13  C   UNL     1     -61.586 -78.855 223.185  1.00  0.00     0.140 C 
ATOM     14  O   UNL     1     -60.475 -78.799 223.692  1.00  0.00    -0.299 OA
BRANCH  13  15
ATOM     15  C   UNL     1     -61.700 -79.432 221.788  1.00  0.00     0.106 CG0
ATOM     16  G   UNL     1     -60.973 -78.631 220.722  1.00  0.00     0.000 G0
ENDBRANCH  13  15
ENDBRANCH  12  13
BRANCH  12  17
ATOM     17  C   UNL     1     -63.049 -79.086 225.283  1.00  0.00    -0.006 C 
ATOM     18  C   UNL     1     -61.853 -79.120 226.251  1.00  0.00     0.008 C 
ATOM     19  C   UNL     1     -64.290 -78.544 226.010  1.00  0.00     0.008 C 
ENDBRANCH  12  17
ENDBRANCH  11  12
ENDBRANCH   1  11
TORSDOF 1
ENDMDL
MODEL 3
REMARK VINA RESULT:    -3.911      2.085      5.158
REMARK INTER + INTRA:          -6.071
REMARK INTER:                  -5.955
REMARK INTRA:                  -0.115
REMARK UNBOUND:                -0.102
REMARK SMILES CC1=CCC[C@@H](C)C(=O)C[C@@H](C(C)C)C(=O)C1
REMARK SMILES IDX 8 1 9 2 6 3 7 4 5 5 4 6 3 7 2 8 1 9 10 11 11 12 15 13 16 14
REMARK SMILES IDX 17 15 12 17 13 18 14 19
REMARK H PARENT
REMARK Flexibility Score: 70.00
ROOT
ATOM      1  C   UNL     1     -61.812 -78.321 222.674  1.00  0.00     0.136 C 
ATOM      2  O   UNL     1     -60.854 -77.599 222.432  1.00  0.00    -0.299 OA
ENDROOT
BRANCH   1   3
ATOM      3  C   UNL     1     -61.671 -79.435 223.692  1.00  0.00     0.053 C 
ATOM      4  C   UNL     1     -62.147 -80.753 223.072  1.00  0.00     0.016 C 
BRANCH   3   5
ATOM      5  C   UNL     1     -62.460 -79.142 224.992  1.00  0.00     0.015 C 
BRANCH   5   6
ATOM      6  C   UNL     1     -63.551 -80.176 225.309  1.00  0.00     0.028 C 
BRANCH   6   7
ATOM      7  C   UNL     1     -64.804 -79.516 225.835  1.00  0.00    -0.028 C 
ATOM      8  C   UNL     1     -65.730 -78.889 225.074  1.00  0.00    -0.070 CG0
ATOM      9  C   UNL     1     -66.934 -78.301 225.764  1.00  0.00     0.039 C 
ATOM     10  G   UNL     1     -65.609 -78.762 223.566  1.00  0.00     0.000 G0
ENDBRANCH   6   7
ENDBRANCH   5   6
ENDBRANCH   3   5
ENDBRANCH   1   3
BRANCH   1  11
ATOM     11  C   UNL     1     -63.128 -78.049 221.982  1.00  0.00     0.087 C 
BRANCH  11  12
ATOM     12  C   UNL     1     -63.934 -76.892 222.623  1.00  0.00     0.066 C 
BRANCH  12  13
ATOM     13  C   UNL     1     -65.324 -77.348 223.056  1.00  0.00     0.140 C 
ATOM     14  O   UNL     1     -66.242 -76.542 223.050  1.00  0.00    -0.299 OA
BRANCH  13  15
ATOM     15  C   UNL     1     -65.618 -78.754 223.542  1.00  0.00     0.106 CG0
ATOM     16  G   UNL     1     -65.715 -78.885 225.052  1.00  0.00     0.000 G0
ENDBRANCH  13  15
ENDBRANCH  12  13
BRANCH  12  17
ATOM     17  C   UNL     1     -63.977 -75.640 221.692  1.00  0.00    -0.006 C 
ATOM     18  C   UNL     1     -63.515 -74.335 222.365  1.00  0.00     0.008 C 
ATOM     19  C   UNL     1     -63.172 -75.873 220.404  1.00  0.00     0.008 C 
ENDBRANCH  12  17
ENDBRANCH  11  12
ENDBRANCH   1  11
TORSDOF 1
ENDMDL
MODEL 4
REMARK VINA RESULT:    -3.806      2.279      5.347
REMARK INTER + INTRA:          -5.911
REMARK INTER:                  -5.882
REMARK INTRA:                  -0.030
REMARK UNBOUND:                -0.102
REMARK SMILES CC1=CCC[C@@H](C)C(=O)C[C@@H](C(C)C)C(=O)C1
REMARK SMILES IDX 8 1 9 2 6 3 7 4 5 5 4 6 3 7 2 8 1 9 10 11 11 12 15 13 16 14
REMARK SMILES IDX 17 15 12 17 13 18 14 19
REMARK H PARENT
REMARK Flexibility Score: 70.00
ROOT
ATOM      1  C   UNL     1     -62.191 -79.622 223.787  1.00  0.00     0.136 C 
ATOM      2  O   UNL     1     -61.581 -80.682 223.774  1.00  0.00    -0.299 OA
ENDROOT
BRANCH   1   3
ATOM      3  C   UNL     1     -62.300 -78.838 225.079  1.00  0.00     0.053 C 
ATOM      4  C   UNL     1     -61.038 -79.062 225.918  1.00  0.00     0.016 C 
BRANCH   3   5
ATOM      5  C   UNL     1     -63.558 -79.225 225.896  1.00  0.00     0.015 C 
BRANCH   5   6
ATOM      6  C   UNL     1     -64.657 -78.151 225.901  1.00  0.00     0.028 C 
BRANCH   6   7
ATOM      7  C   UNL     1     -66.007 -78.739 225.570  1.00  0.00    -0.028 C 
ATOM      8  C   UNL     1     -66.709 -78.489 224.441  1.00  0.00    -0.070 CG0
ATOM      9  C   UNL     1     -68.037 -79.179 224.263  1.00  0.00     0.039 C 
ATOM     10  G   UNL     1     -66.213 -77.553 223.352  1.00  0.00     0.000 G0
ENDBRANCH   6   7
ENDBRANCH   5   6
ENDBRANCH   3   5
ENDBRANCH   1   3
BRANCH   1  11
ATOM     11  C   UNL     1     -62.781 -79.098 222.498  1.00  0.00     0.087 C 
BRANCH  11  12
ATOM     12  C   UNL     1     -63.656 -77.835 222.688  1.00  0.00     0.066 C 
BRANCH  12  13
ATOM     13  C   UNL     1     -65.135 -78.138 222.468  1.00  0.00     0.140 C 
ATOM     14  O   UNL     1     -65.462 -78.843 221.524  1.00  0.00    -0.299 OA
BRANCH  13  15
ATOM     15  C   UNL     1     -66.235 -77.568 223.341  1.00  0.00     0.106 CG0
ATOM     16  G   UNL     1     -66.702 -78.501 224.445  1.00  0.00     0.000 G0
ENDBRANCH  13  15
ENDBRANCH  12  13
BRANCH  12  17
ATOM     17  C   UNL     1     -63.150 -76.649 221.808  1.00  0.00    -0.006 C 
ATOM     18  C   UNL     1     -63.588 -75.260 222.305  1.00  0.00     0.008 C 
ATOM     19  C   UNL     1     -61.622 -76.685 221.647  1.00  0.00     0.008 C 
ENDBRANCH  12  17
ENDBRANCH  11  12
ENDBRANCH   1  11
TORSDOF 1
ENDMDL
MODEL 5
REMARK VINA RESULT:    -3.783      9.876     11.911
REMARK INTER + INTRA:          -5.875
REMARK INTER:                  -5.495
REMARK INTRA:                  -0.380
REMARK UNBOUND:                -0.102
REMARK SMILES CC1=CCC[C@@H](C)C(=O)C[C@@H](C(C)C)C(=O)C1
REMARK SMILES IDX 8 1 9 2 6 3 7 4 5 5 4 6 3 7 2 8 1 9 10 11 11 12 15 13 16 14
REMARK SMILES IDX 17 15 12 17 13 18 14 19
REMARK H PARENT
REMARK Flexibility Score: 70.00
ROOT
ATOM      1  C   UNL     1     -67.004 -76.708 215.463  1.00  0.00     0.136 C 
ATOM      2  O   UNL     1     -66.066 -76.859 216.233  1.00  0.00    -0.299 OA
ENDROOT
BRANCH   1   3
ATOM      3  C   UNL     1     -67.687 -75.358 215.373  1.00  0.00     0.053 C 
ATOM      4  C   UNL     1     -66.676 -74.254 215.701  1.00  0.00     0.016 C 
BRANCH   3   5
ATOM      5  C   UNL     1     -68.911 -75.257 216.316  1.00  0.00     0.015 C 
BRANCH   5   6
ATOM      6  C   UNL     1     -70.255 -75.113 215.584  1.00  0.00     0.028 C 
BRANCH   6   7
ATOM      7  C   UNL     1     -71.098 -76.358 215.727  1.00  0.00    -0.028 C 
ATOM      8  C   UNL     1     -71.320 -77.263 214.746  1.00  0.00    -0.070 CG0
ATOM      9  C   UNL     1     -72.173 -78.463 215.068  1.00  0.00     0.039 C 
ATOM     10  G   UNL     1     -70.741 -77.123 213.349  1.00  0.00     0.000 G0
ENDBRANCH   6   7
ENDBRANCH   5   6
ENDBRANCH   3   5
ENDBRANCH   1   3
BRANCH   1  11
ATOM     11  C   UNL     1     -67.425 -77.863 214.584  1.00  0.00     0.087 C 
BRANCH  11  12
ATOM     12  C   UNL     1     -68.080 -77.417 213.253  1.00  0.00     0.066 C 
BRANCH  12  13
ATOM     13  C   UNL     1     -69.493 -77.975 213.109  1.00  0.00     0.140 C 
ATOM     14  O   UNL     1     -69.640 -79.138 212.765  1.00  0.00    -0.299 OA
BRANCH  13  15
ATOM     15  C   UNL     1     -70.739 -77.138 213.328  1.00  0.00     0.106 CG0
ATOM     16  G   UNL     1     -71.327 -77.252 214.724  1.00  0.00     0.000 G0
ENDBRANCH  13  15
ENDBRANCH  12  13
BRANCH  12  17
ATOM     17  C   UNL     1     -67.174 -77.756 212.028  1.00  0.00    -0.006 C 
ATOM     18  C   UNL     1     -66.913 -76.566 211.086  1.00  0.00     0.008 C 
ATOM     19  C   UNL     1     -65.838 -78.368 212.473  1.00  0.00     0.008 C 
ENDBRANCH  12  17
ENDBRANCH  11  12
ENDBRANCH   1  11
TORSDOF 1
ENDMDL
MODEL 6
REMARK VINA RESULT:    -3.689     10.570     12.055
REMARK INTER + INTRA:          -5.732
REMARK INTER:                  -5.276
REMARK INTRA:                  -0.456
REMARK UNBOUND:                -0.102
REMARK SMILES CC1=CCC[C@@H](C)C(=O)C[C@@H](C(C)C)C(=O)C1
REMARK SMILES IDX 8 1 9 2 6 3 7 4 5 5 4 6 3 7 2 8 1 9 10 11 11 12 15 13 16 14
REMARK SMILES IDX 17 15 12 17 13 18 14 19
REMARK H PARENT
REMARK Flexibility Score: 70.00
ROOT
ATOM      1  C   UNL     1     -71.029 -74.192 215.262  1.00  0.00     0.136 C 
ATOM      2  O   UNL     1     -70.925 -72.976 215.191  1.00  0.00    -0.299 OA
ENDROOT
BRANCH   1   3
ATOM      3  C   UNL     1     -70.273 -74.947 216.337  1.00  0.00     0.053 C 
ATOM      4  C   UNL     1     -70.686 -74.418 217.714  1.00  0.00     0.016 C 
BRANCH   3   5
ATOM      5  C   UNL     1     -68.738 -74.836 216.161  1.00  0.00     0.015 C 
BRANCH   5   6
ATOM      6  C   UNL     1     -68.176 -75.689 215.014  1.00  0.00     0.028 C 
BRANCH   6   7
ATOM      7  C   UNL     1     -68.418 -77.161 215.249  1.00  0.00    -0.028 C 
ATOM      8  C   UNL     1     -69.267 -77.933 214.533  1.00  0.00    -0.070 CG0
ATOM      9  C   UNL     1     -69.371 -79.393 214.891  1.00  0.00     0.039 C 
ATOM     10  G   UNL     1     -70.107 -77.393 213.388  1.00  0.00     0.000 G0
ENDBRANCH   6   7
ENDBRANCH   5   6
ENDBRANCH   3   5
ENDBRANCH   1   3
BRANCH   1  11
ATOM     11  C   UNL     1     -71.952 -74.907 214.301  1.00  0.00     0.087 C 
BRANCH  11  12
ATOM     12  C   UNL     1     -72.214 -76.385 214.682  1.00  0.00     0.066 C 
BRANCH  12  13
ATOM     13  C   UNL     1     -71.596 -77.343 213.669  1.00  0.00     0.140 C 
ATOM     14  O   UNL     1     -72.321 -78.131 213.078  1.00  0.00    -0.299 OA
BRANCH  13  15
ATOM     15  C   UNL     1     -70.107 -77.401 213.387  1.00  0.00     0.106 CG0
ATOM     16  G   UNL     1     -69.273 -77.920 214.545  1.00  0.00     0.000 G0
ENDBRANCH  13  15
ENDBRANCH  12  13
BRANCH  12  17
ATOM     17  C   UNL     1     -73.734 -76.655 214.914  1.00  0.00    -0.006 C 
ATOM     18  C   UNL     1     -74.077 -77.170 216.323  1.00  0.00     0.008 C 
ATOM     19  C   UNL     1     -74.578 -75.411 214.596  1.00  0.00     0.008 C 
ENDBRANCH  12  17
ENDBRANCH  11  12
ENDBRANCH   1  11
TORSDOF 1
ENDMDL
MODEL 7
REMARK VINA RESULT:    -3.614      2.351      4.056
REMARK INTER + INTRA:          -5.617
REMARK INTER:                  -5.431
REMARK INTRA:                  -0.186
REMARK UNBOUND:                -0.102
REMARK SMILES CC1=CCC[C@@H](C)C(=O)C[C@@H](C(C)C)C(=O)C1
REMARK SMILES IDX 8 1 9 2 6 3 7 4 5 5 4 6 3 7 2 8 1 9 10 11 11 12 15 13 16 14
REMARK SMILES IDX 17 15 12 17 13 18 14 19
REMARK H PARENT
REMARK Flexibility Score: 70.00
ROOT
ATOM      1  C   UNL     1     -62.414 -77.484 222.834  1.00  0.00     0.136 C 
ATOM      2  O   UNL     1     -61.250 -77.372 222.477  1.00  0.00    -0.299 OA
ENDROOT
BRANCH   1   3
ATOM      3  C   UNL     1     -63.526 -76.999 221.926  1.00  0.00     0.053 C 
ATOM      4  C   UNL     1     -63.482 -75.470 221.840  1.00  0.00     0.016 C 
BRANCH   3   5
ATOM      5  C   UNL     1     -64.922 -77.466 222.407  1.00  0.00     0.015 C 
BRANCH   5   6
ATOM      6  C   UNL     1     -65.384 -78.796 221.791  1.00  0.00     0.028 C 
BRANCH   6   7
ATOM      7  C   UNL     1     -66.338 -79.527 222.705  1.00  0.00    -0.028 C 
ATOM      8  C   UNL     1     -66.005 -80.566 223.506  1.00  0.00    -0.070 CG0
ATOM      9  C   UNL     1     -67.083 -81.167 224.371  1.00  0.00     0.039 C 
ATOM     10  G   UNL     1     -64.601 -81.139 223.572  1.00  0.00     0.000 G0
ENDBRANCH   6   7
ENDBRANCH   5   6
ENDBRANCH   3   5
ENDBRANCH   1   3
BRANCH   1  11
ATOM     11  C   UNL     1     -62.715 -78.151 224.157  1.00  0.00     0.087 C 
BRANCH  11  12
ATOM     12  C   UNL     1     -62.449 -79.677 224.153  1.00  0.00     0.066 C 
BRANCH  12  13
ATOM     13  C   UNL     1     -63.684 -80.463 224.582  1.00  0.00     0.140 C 
ATOM     14  O   UNL     1     -63.930 -80.577 225.774  1.00  0.00    -0.299 OA
BRANCH  13  15
ATOM     15  C   UNL     1     -64.607 -81.155 223.598  1.00  0.00     0.106 CG0
ATOM     16  G   UNL     1     -66.000 -80.556 223.522  1.00  0.00     0.000 G0
ENDBRANCH  13  15
ENDBRANCH  12  13
BRANCH  12  17
ATOM     17  C   UNL     1     -61.185 -80.040 224.994  1.00  0.00    -0.006 C 
ATOM     18  C   UNL     1     -60.032 -80.646 224.174  1.00  0.00     0.008 C 
ATOM     19  C   UNL     1     -60.675 -78.828 225.789  1.00  0.00     0.008 C 
ENDBRANCH  12  17
ENDBRANCH  11  12
ENDBRANCH   1  11
TORSDOF 1
ENDMDL
MODEL 8
REMARK VINA RESULT:    -3.601      1.879      4.211
REMARK INTER + INTRA:          -5.598
REMARK INTER:                  -5.345
REMARK INTRA:                  -0.253
REMARK UNBOUND:                -0.102
REMARK SMILES CC1=CCC[C@@H](C)C(=O)C[C@@H](C(C)C)C(=O)C1
REMARK SMILES IDX 8 1 9 2 6 3 7 4 5 5 4 6 3 7 2 8 1 9 10 11 11 12 15 13 16 14
REMARK SMILES IDX 17 15 12 17 13 18 14 19
REMARK H PARENT
REMARK Flexibility Score: 70.00
ROOT
ATOM      1  C   UNL     1     -62.784 -76.893 220.453  1.00  0.00     0.136 C 
ATOM      2  O   UNL     1     -63.019 -77.201 219.293  1.00  0.00    -0.299 OA
ENDROOT
BRANCH   1   3
ATOM      3  C   UNL     1     -63.883 -76.294 221.306  1.00  0.00     0.053 C 
ATOM      4  C   UNL     1     -63.288 -75.217 222.219  1.00  0.00     0.016 C 
BRANCH   3   5
ATOM      5  C   UNL     1     -64.618 -77.363 222.152  1.00  0.00     0.015 C 
BRANCH   5   6
ATOM      6  C   UNL     1     -64.042 -77.548 223.564  1.00  0.00     0.028 C 
BRANCH   6   7
ATOM      7  C   UNL     1     -63.766 -79.003 223.862  1.00  0.00    -0.028 C 
ATOM      8  C   UNL     1     -62.536 -79.544 224.017  1.00  0.00    -0.070 CG0
ATOM      9  C   UNL     1     -62.443 -81.015 224.332  1.00  0.00     0.039 C 
ATOM     10  G   UNL     1     -61.257 -78.734 223.893  1.00  0.00     0.000 G0
ENDBRANCH   6   7
ENDBRANCH   5   6
ENDBRANCH   3   5
ENDBRANCH   1   3
BRANCH   1  11
ATOM     11  C   UNL     1     -61.409 -77.167 221.020  1.00  0.00     0.087 C 
BRANCH  11  12
ATOM     12  C   UNL     1     -61.115 -78.674 221.223  1.00  0.00     0.066 C 
BRANCH  12  13
ATOM     13  C   UNL     1     -60.489 -78.945 222.587  1.00  0.00     0.140 C 
ATOM     14  O   UNL     1     -59.347 -79.378 222.641  1.00  0.00    -0.299 OA
BRANCH  13  15
ATOM     15  C   UNL     1     -61.234 -78.746 223.893  1.00  0.00     0.106 CG0
ATOM     16  G   UNL     1     -62.521 -79.543 224.004  1.00  0.00     0.000 G0
ENDBRANCH  13  15
ENDBRANCH  12  13
BRANCH  12  17
ATOM     17  C   UNL     1     -60.266 -79.253 220.048  1.00  0.00    -0.006 C 
ATOM     18  C   UNL     1     -61.026 -80.242 219.146  1.00  0.00     0.008 C 
ATOM     19  C   UNL     1     -59.657 -78.132 219.191  1.00  0.00     0.008 C 
ENDBRANCH  12  17
ENDBRANCH  11  12
ENDBRANCH   1  11
TORSDOF 1
ENDMDL
MODEL 9
REMARK VINA RESULT:    -3.463     11.143     13.075
REMARK INTER + INTRA:          -5.387
REMARK INTER:                  -5.080
REMARK INTRA:                  -0.307
REMARK UNBOUND:                -0.102
REMARK SMILES CC1=CCC[C@@H](C)C(=O)C[C@@H](C(C)C)C(=O)C1
REMARK SMILES IDX 8 1 9 2 6 3 7 4 5 5 4 6 3 7 2 8 1 9 10 11 11 12 15 13 16 14
REMARK SMILES IDX 17 15 12 17 13 18 14 19
REMARK H PARENT
REMARK Flexibility Score: 70.00
ROOT
ATOM      1  C   UNL     1     -72.220 -77.702 213.912  1.00  0.00     0.136 C 
ATOM      2  O   UNL     1     -72.125 -78.772 213.329  1.00  0.00    -0.299 OA
ENDROOT
BRANCH   1   3
ATOM      3  C   UNL     1     -73.415 -77.439 214.806  1.00  0.00     0.053 C 
ATOM      4  C   UNL     1     -74.423 -78.583 214.655  1.00  0.00     0.016 C 
BRANCH   3   5
ATOM      5  C   UNL     1     -74.095 -76.084 214.491  1.00  0.00     0.015 C 
BRANCH   5   6
ATOM      6  C   UNL     1     -73.938 -75.032 215.600  1.00  0.00     0.028 C 
BRANCH   6   7
ATOM      7  C   UNL     1     -73.256 -73.786 215.088  1.00  0.00    -0.028 C 
ATOM      8  C   UNL     1     -71.969 -73.449 215.333  1.00  0.00    -0.070 CG0
ATOM      9  C   UNL     1     -71.442 -72.175 214.725  1.00  0.00     0.039 C 
ATOM     10  G   UNL     1     -71.041 -74.299 216.184  1.00  0.00     0.000 G0
ENDBRANCH   6   7
ENDBRANCH   5   6
ENDBRANCH   3   5
ENDBRANCH   1   3
BRANCH   1  11
ATOM     11  C   UNL     1     -71.111 -76.685 213.763  1.00  0.00     0.087 C 
BRANCH  11  12
ATOM     12  C   UNL     1     -70.219 -76.556 215.023  1.00  0.00     0.066 C 
BRANCH  12  13
ATOM     13  C   UNL     1     -70.012 -75.096 215.416  1.00  0.00     0.140 C 
ATOM     14  O   UNL     1     -68.959 -74.547 215.127  1.00  0.00    -0.299 OA
BRANCH  13  15
ATOM     15  C   UNL     1     -71.037 -74.297 216.197  1.00  0.00     0.106 CG0
ATOM     16  G   UNL     1     -71.960 -73.455 215.333  1.00  0.00     0.000 G0
ENDBRANCH  13  15
ENDBRANCH  12  13
BRANCH  12  17
ATOM     17  C   UNL     1     -68.873 -77.328 214.852  1.00  0.00    -0.006 C 
ATOM     18  C   UNL     1     -68.868 -78.736 215.474  1.00  0.00     0.008 C 
ATOM     19  C   UNL     1     -68.460 -77.411 213.374  1.00  0.00     0.008 C 
ENDBRANCH  12  17
ENDBRANCH  11  12
ENDBRANCH   1  11
TORSDOF 1
ENDMDL
