MODEL 1
REMARK VINA RESULT:    -3.429      0.000      0.000
REMARK INTER + INTRA:          -4.332
REMARK INTER:                  -4.230
REMARK INTRA:                  -0.101
REMARK UNBOUND:                -0.101
REMARK SMILES CCCCCC(=O)[O-]
REMARK SMILES IDX 4 1 5 2 6 3 7 4 8 5 3 6 2 7 1 8
REMARK H PARENT
REMARK Flexibility Score: inf
ROOT
ATOM      1  C   UNL     1      32.491 144.637 107.788  1.00  0.00     0.006 C 
ENDROOT
BRANCH   1   2
ATOM      2  C   UNL     1      32.761 144.813 109.287  1.00  0.00     0.053 C 
BRANCH   2   3
ATOM      3  C   UNL     1      34.228 144.791 109.593  1.00  0.00     0.041 C 
ATOM      4  O   UNL     1      34.700 145.534 110.493  1.00  0.00    -0.550 OA
ATOM      5  O   UNL     1      35.079 143.975 108.858  1.00  0.00    -0.550 OA
ENDBRANCH   2   3
ENDBRANCH   1   2
BRANCH   1   6
ATOM      6  C   UNL     1      32.033 143.209 107.443  1.00  0.00     0.000 C 
BRANCH   6   7
ATOM      7  C   UNL     1      32.912 142.552 106.368  1.00  0.00    -0.003 C 
ATOM      8  C   UNL     1      32.091 141.900 105.254  1.00  0.00     0.004 C 
ENDBRANCH   6   7
ENDBRANCH   1   6
TORSDOF 4
ENDMDL
MODEL 2
REMARK VINA RESULT:    -3.320      2.720      4.381
REMARK INTER + INTRA:          -4.197
REMARK INTER:                  -4.064
REMARK INTRA:                  -0.133
REMARK UNBOUND:                -0.101
REMARK SMILES CCCCCC(=O)[O-]
REMARK SMILES IDX 4 1 5 2 6 3 7 4 8 5 3 6 2 7 1 8
REMARK H PARENT
REMARK Flexibility Score: inf
ROOT
ATOM      1  C   UNL     1      32.371 144.724 107.826  1.00  0.00     0.006 C 
ENDROOT
BRANCH   1   2
ATOM      2  C   UNL     1      33.072 143.581 107.081  1.00  0.00     0.053 C 
BRANCH   2   3
ATOM      3  C   UNL     1      32.090 142.583 106.546  1.00  0.00     0.041 C 
ATOM      4  O   UNL     1      31.229 142.069 107.307  1.00  0.00    -0.550 OA
ATOM      5  O   UNL     1      32.150 142.196 105.213  1.00  0.00    -0.550 OA
ENDBRANCH   2   3
ENDBRANCH   1   2
BRANCH   1   6
ATOM      6  C   UNL     1      32.768 144.781 109.311  1.00  0.00     0.000 C 
BRANCH   6   7
ATOM      7  C   UNL     1      34.273 144.563 109.528  1.00  0.00    -0.003 C 
ATOM      8  C   UNL     1      34.981 145.813 110.051  1.00  0.00     0.004 C 
ENDBRANCH   6   7
ENDBRANCH   1   6
TORSDOF 4
ENDMDL
MODEL 3
REMARK VINA RESULT:    -2.904     20.301     21.046
REMARK INTER + INTRA:          -3.685
REMARK INTER:                  -3.409
REMARK INTRA:                  -0.276
REMARK UNBOUND:                -0.101
REMARK SMILES CCCCCC(=O)[O-]
REMARK SMILES IDX 4 1 5 2 6 3 7 4 8 5 3 6 2 7 1 8
REMARK H PARENT
REMARK Flexibility Score: inf
ROOT
ATOM      1  C   UNL     1      42.763 159.500 115.908  1.00  0.00     0.006 C 
ENDROOT
BRANCH   1   2
ATOM      2  C   UNL     1      42.353 160.514 116.983  1.00  0.00     0.053 C 
BRANCH   2   3
ATOM      3  C   UNL     1      43.457 160.757 117.967  1.00  0.00     0.041 C 
ATOM      4  O   UNL     1      43.901 161.920 118.148  1.00  0.00    -0.550 OA
ATOM      5  O   UNL     1      44.018 159.690 118.658  1.00  0.00    -0.550 OA
ENDBRANCH   2   3
ENDBRANCH   1   2
BRANCH   1   6
ATOM      6  C   UNL     1      43.885 160.034 115.002  1.00  0.00     0.000 C 
BRANCH   6   7
ATOM      7  C   UNL     1      45.125 159.126 115.002  1.00  0.00    -0.003 C 
ATOM      8  C   UNL     1      44.912 157.836 115.795  1.00  0.00     0.004 C 
ENDBRANCH   6   7
ENDBRANCH   1   6
TORSDOF 4
ENDMDL
MODEL 4
REMARK VINA RESULT:    -2.891     18.193     19.234
REMARK INTER + INTRA:          -3.668
REMARK INTER:                  -3.511
REMARK INTRA:                  -0.157
REMARK UNBOUND:                -0.101
REMARK SMILES CCCCCC(=O)[O-]
REMARK SMILES IDX 4 1 5 2 6 3 7 4 8 5 3 6 2 7 1 8
REMARK H PARENT
REMARK Flexibility Score: inf
ROOT
ATOM      1  C   UNL     1      25.865 158.097 119.388  1.00  0.00     0.006 C 
ENDROOT
BRANCH   1   2
ATOM      2  C   UNL     1      26.774 159.003 118.548  1.00  0.00     0.053 C 
BRANCH   2   3
ATOM      3  C   UNL     1      26.066 159.533 117.338  1.00  0.00     0.041 C 
ATOM      4  O   UNL     1      24.939 160.080 117.453  1.00  0.00    -0.550 OA
ATOM      5  O   UNL     1      26.638 159.389 116.081  1.00  0.00    -0.550 OA
ENDBRANCH   2   3
ENDBRANCH   1   2
BRANCH   1   6
ATOM      6  C   UNL     1      25.588 156.750 118.698  1.00  0.00     0.000 C 
BRANCH   6   7
ATOM      7  C   UNL     1      26.034 155.550 119.546  1.00  0.00    -0.003 C 
ATOM      8  C   UNL     1      26.487 155.955 120.949  1.00  0.00     0.004 C 
ENDBRANCH   6   7
ENDBRANCH   1   6
TORSDOF 4
ENDMDL
MODEL 5
REMARK VINA RESULT:    -2.852     18.156     18.890
REMARK INTER + INTRA:          -3.621
REMARK INTER:                  -3.516
REMARK INTRA:                  -0.105
REMARK UNBOUND:                -0.101
REMARK SMILES CCCCCC(=O)[O-]
REMARK SMILES IDX 4 1 5 2 6 3 7 4 8 5 3 6 2 7 1 8
REMARK H PARENT
REMARK Flexibility Score: inf
ROOT
ATOM      1  C   UNL     1      25.525 157.336 117.881  1.00  0.00     0.006 C 
ENDROOT
BRANCH   1   2
ATOM      2  C   UNL     1      25.575 157.319 119.414  1.00  0.00     0.053 C 
BRANCH   2   3
ATOM      3  C   UNL     1      26.110 156.021 119.937  1.00  0.00     0.041 C 
ATOM      4  O   UNL     1      26.173 155.012 119.187  1.00  0.00    -0.550 OA
ATOM      5  O   UNL     1      26.506 155.918 121.265  1.00  0.00    -0.550 OA
ENDBRANCH   2   3
ENDBRANCH   1   2
BRANCH   1   6
ATOM      6  C   UNL     1      25.854 158.724 117.304  1.00  0.00     0.000 C 
BRANCH   6   7
ATOM      7  C   UNL     1      27.013 159.410 118.041  1.00  0.00    -0.003 C 
ATOM      8  C   UNL     1      27.907 160.225 117.106  1.00  0.00     0.004 C 
ENDBRANCH   6   7
ENDBRANCH   1   6
TORSDOF 4
ENDMDL
MODEL 6
REMARK VINA RESULT:    -2.838     18.125     18.944
REMARK INTER + INTRA:          -3.603
REMARK INTER:                  -3.507
REMARK INTRA:                  -0.096
REMARK UNBOUND:                -0.101
REMARK SMILES CCCCCC(=O)[O-]
REMARK SMILES IDX 4 1 5 2 6 3 7 4 8 5 3 6 2 7 1 8
REMARK H PARENT
REMARK Flexibility Score: inf
ROOT
ATOM      1  C   UNL     1      25.941 158.013 118.907  1.00  0.00     0.006 C 
ENDROOT
BRANCH   1   2
ATOM      2  C   UNL     1      25.623 159.087 117.860  1.00  0.00     0.053 C 
BRANCH   2   3
ATOM      3  C   UNL     1      26.853 159.525 117.123  1.00  0.00     0.041 C 
ATOM      4  O   UNL     1      26.824 159.673 115.873  1.00  0.00    -0.550 OA
ATOM      5  O   UNL     1      28.039 159.735 117.814  1.00  0.00    -0.550 OA
ENDBRANCH   2   3
ENDBRANCH   1   2
BRANCH   1   6
ATOM      6  C   UNL     1      25.529 156.606 118.441  1.00  0.00     0.000 C 
BRANCH   6   7
ATOM      7  C   UNL     1      26.005 155.504 119.399  1.00  0.00    -0.003 C 
ATOM      8  C   UNL     1      26.460 156.053 120.751  1.00  0.00     0.004 C 
ENDBRANCH   6   7
ENDBRANCH   1   6
TORSDOF 4
ENDMDL
MODEL 7
REMARK VINA RESULT:    -2.670     18.977     19.495
REMARK INTER + INTRA:          -3.396
REMARK INTER:                  -3.330
REMARK INTRA:                  -0.066
REMARK UNBOUND:                -0.101
REMARK SMILES CCCCCC(=O)[O-]
REMARK SMILES IDX 4 1 5 2 6 3 7 4 8 5 3 6 2 7 1 8
REMARK H PARENT
REMARK Flexibility Score: inf
ROOT
ATOM      1  C   UNL     1      28.294 159.917 118.498  1.00  0.00     0.006 C 
ENDROOT
BRANCH   1   2
ATOM      2  C   UNL     1      27.008 160.409 117.823  1.00  0.00     0.053 C 
BRANCH   2   3
ATOM      3  C   UNL     1      26.513 159.436 116.796  1.00  0.00     0.041 C 
ATOM      4  O   UNL     1      26.776 159.611 115.578  1.00  0.00    -0.550 OA
ATOM      5  O   UNL     1      25.730 158.355 117.184  1.00  0.00    -0.550 OA
ENDBRANCH   2   3
ENDBRANCH   1   2
BRANCH   1   6
ATOM      6  C   UNL     1      29.541 160.189 117.639  1.00  0.00     0.000 C 
BRANCH   6   7
ATOM      7  C   UNL     1      30.831 160.242 118.473  1.00  0.00    -0.003 C 
ATOM      8  C   UNL     1      32.093 160.185 117.611  1.00  0.00     0.004 C 
ENDBRANCH   6   7
ENDBRANCH   1   6
TORSDOF 4
ENDMDL
MODEL 8
REMARK VINA RESULT:    -2.617     18.853     19.191
REMARK INTER + INTRA:          -3.331
REMARK INTER:                  -3.251
REMARK INTRA:                  -0.080
REMARK UNBOUND:                -0.101
REMARK SMILES CCCCCC(=O)[O-]
REMARK SMILES IDX 4 1 5 2 6 3 7 4 8 5 3 6 2 7 1 8
REMARK H PARENT
REMARK Flexibility Score: inf
ROOT
ATOM      1  C   UNL     1      29.456 160.195 117.642  1.00  0.00     0.006 C 
ENDROOT
BRANCH   1   2
ATOM      2  C   UNL     1      30.452 160.480 118.773  1.00  0.00     0.053 C 
BRANCH   2   3
ATOM      3  C   UNL     1      31.827 159.984 118.441  1.00  0.00     0.041 C 
ATOM      4  O   UNL     1      32.306 160.167 117.292  1.00  0.00    -0.550 OA
ATOM      5  O   UNL     1      32.564 159.290 119.392  1.00  0.00    -0.550 OA
ENDBRANCH   2   3
ENDBRANCH   1   2
BRANCH   1   6
ATOM      6  C   UNL     1      28.033 159.945 118.169  1.00  0.00     0.000 C 
BRANCH   6   7
ATOM      7  C   UNL     1      27.010 159.755 117.039  1.00  0.00    -0.003 C 
ATOM      8  C   UNL     1      27.505 160.297 115.698  1.00  0.00     0.004 C 
ENDBRANCH   6   7
ENDBRANCH   1   6
TORSDOF 4
ENDMDL
MODEL 9
REMARK VINA RESULT:    -2.571     18.378     19.286
REMARK INTER + INTRA:          -3.274
REMARK INTER:                  -3.185
REMARK INTRA:                  -0.089
REMARK UNBOUND:                -0.101
REMARK SMILES CCCCCC(=O)[O-]
REMARK SMILES IDX 4 1 5 2 6 3 7 4 8 5 3 6 2 7 1 8
REMARK H PARENT
REMARK Flexibility Score: inf
ROOT
ATOM      1  C   UNL     1      26.085 159.394 117.978  1.00  0.00     0.006 C 
ENDROOT
BRANCH   1   2
ATOM      2  C   UNL     1      26.107 158.323 119.076  1.00  0.00     0.053 C 
BRANCH   2   3
ATOM      3  C   UNL     1      25.685 156.984 118.554  1.00  0.00     0.041 C 
ATOM      4  O   UNL     1      25.716 155.972 119.302  1.00  0.00    -0.550 OA
ATOM      5  O   UNL     1      25.289 156.848 117.229  1.00  0.00    -0.550 OA
ENDBRANCH   2   3
ENDBRANCH   1   2
BRANCH   1   6
ATOM      6  C   UNL     1      27.188 160.448 118.171  1.00  0.00     0.000 C 
BRANCH   6   7
ATOM      7  C   UNL     1      28.348 160.278 117.178  1.00  0.00    -0.003 C 
ATOM      8  C   UNL     1      29.715 160.266 117.862  1.00  0.00     0.004 C 
ENDBRANCH   6   7
ENDBRANCH   1   6
TORSDOF 4
ENDMDL
