MODEL 1
REMARK VINA RESULT:     3.098      0.000      0.000
REMARK INTER + INTRA:           3.401
REMARK INTER:                   3.732
REMARK INTRA:                  -0.331
REMARK UNBOUND:                -0.331
REMARK SMILES O=c1c(O)c(-c2ccc(O)c(O)c2)oc2cc(O)cc(O)c12
REMARK SMILES IDX 5 1 3 2 2 3 1 4 22 5 20 6 19 7 17 8 16 9 15 10 14 11 6 12
REMARK SMILES IDX 7 13 8 14 9 15 13 16 11 17 10 18 12 20 4 22 21 24 18 26
REMARK H PARENT 10 19 12 21 4 23 21 25 18 27
REMARK Flexibility Score: inf
ROOT
ATOM      1  C   UNL     1     156.881 162.366 156.014  1.00  0.00     0.180 A 
ATOM      2  C   UNL     1     156.376 163.198 157.032  1.00  0.00     0.208 A 
ATOM      3  C   UNL     1     155.237 162.787 157.742  1.00  0.00     0.238 A 
ATOM      4  O   UNL     1     154.784 163.518 158.663  1.00  0.00    -0.285 OA
ATOM      5  C   UNL     1     154.611 161.567 157.409  1.00  0.00     0.111 A 
ATOM      6  C   UNL     1     153.458 161.084 158.073  1.00  0.00     0.134 A 
ATOM      7  C   UNL     1     152.889 159.864 157.677  1.00  0.00     0.093 A 
ATOM      8  C   UNL     1     153.450 159.121 156.632  1.00  0.00     0.123 A 
ATOM      9  C   UNL     1     154.587 159.594 155.976  1.00  0.00     0.094 A 
ATOM     10  C   UNL     1     155.170 160.806 156.357  1.00  0.00     0.146 A 
ATOM     11  O   UNL     1     156.255 161.230 155.718  1.00  0.00    -0.452 OA
ENDROOT
BRANCH   1  12
ATOM     12  C   UNL     1     158.088 162.721 155.234  1.00  0.00     0.025 A 
ATOM     13  C   UNL     1     157.945 163.377 154.000  1.00  0.00     0.016 A 
ATOM     14  C   UNL     1     159.070 163.702 153.238  1.00  0.00     0.051 A 
ATOM     15  C   UNL     1     160.351 163.365 153.686  1.00  0.00     0.157 A 
ATOM     16  C   UNL     1     159.375 162.364 155.673  1.00  0.00     0.062 A 
ATOM     17  C   UNL     1     160.506 162.688 154.908  1.00  0.00     0.158 A 
BRANCH  15  18
ATOM     18  O   UNL     1     161.454 163.705 152.905  1.00  0.00    -0.504 OA
ATOM     19  H   UNL     1     161.577 164.635 152.524  1.00  0.00     0.293 HD
ENDBRANCH  15  18
BRANCH  17  20
ATOM     20  O   UNL     1     161.778 162.336 155.354  1.00  0.00    -0.504 OA
ATOM     21  H   UNL     1     162.603 162.494 154.786  1.00  0.00     0.293 HD
ENDBRANCH  17  20
ENDBRANCH   1  12
BRANCH   2  22
ATOM     22  O   UNL     1     156.986 164.424 157.309  1.00  0.00    -0.502 OA
ATOM     23  H   UNL     1     157.920 164.649 156.989  1.00  0.00     0.293 HD
ENDBRANCH   2  22
BRANCH   6  24
ATOM     24  O   UNL     1     152.875 161.802 159.118  1.00  0.00    -0.507 OA
ATOM     25  H   UNL     1     153.426 162.393 159.730  1.00  0.00     0.293 HD
ENDBRANCH   6  24
BRANCH   8  26
ATOM     26  O   UNL     1     152.884 157.911 156.238  1.00  0.00    -0.508 OA
ATOM     27  H   UNL     1     152.131 157.482 156.764  1.00  0.00     0.293 HD
ENDBRANCH   8  26
TORSDOF 6
ENDMDL
MODEL 2
REMARK VINA RESULT:     3.981     10.790     11.530
REMARK INTER + INTRA:           4.464
REMARK INTER:                   4.724
REMARK INTRA:                  -0.260
REMARK UNBOUND:                -0.331
REMARK SMILES O=c1c(O)c(-c2ccc(O)c(O)c2)oc2cc(O)cc(O)c12
REMARK SMILES IDX 5 1 3 2 2 3 1 4 22 5 20 6 19 7 17 8 16 9 15 10 14 11 6 12
REMARK SMILES IDX 7 13 8 14 9 15 13 16 11 17 10 18 12 20 4 22 21 24 18 26
REMARK H PARENT 10 19 12 21 4 23 21 25 18 27
REMARK Flexibility Score: inf
ROOT
ATOM      1  C   UNL     1     167.372 163.656 153.687  1.00  0.00     0.180 A 
ATOM      2  C   UNL     1     167.433 164.847 154.438  1.00  0.00     0.208 A 
ATOM      3  C   UNL     1     167.360 164.771 155.838  1.00  0.00     0.238 A 
ATOM      4  O   UNL     1     167.426 165.828 156.520  1.00  0.00    -0.285 OA
ATOM      5  C   UNL     1     167.206 163.514 156.460  1.00  0.00     0.111 A 
ATOM      6  C   UNL     1     167.120 163.352 157.864  1.00  0.00     0.134 A 
ATOM      7  C   UNL     1     166.958 162.069 158.407  1.00  0.00     0.093 A 
ATOM      8  C   UNL     1     166.880 160.948 157.573  1.00  0.00     0.123 A 
ATOM      9  C   UNL     1     166.965 161.103 156.190  1.00  0.00     0.094 A 
ATOM     10  C   UNL     1     167.128 162.373 155.629  1.00  0.00     0.146 A 
ATOM     11  O   UNL     1     167.211 162.491 154.309  1.00  0.00    -0.452 OA
ENDROOT
BRANCH   1  12
ATOM     12  C   UNL     1     167.461 163.653 152.209  1.00  0.00     0.025 A 
ATOM     13  C   UNL     1     168.665 163.277 151.591  1.00  0.00     0.016 A 
ATOM     14  C   UNL     1     168.777 163.287 150.199  1.00  0.00     0.051 A 
ATOM     15  C   UNL     1     167.699 163.686 149.404  1.00  0.00     0.157 A 
ATOM     16  C   UNL     1     166.384 164.073 151.410  1.00  0.00     0.062 A 
ATOM     17  C   UNL     1     166.496 164.086 150.011  1.00  0.00     0.158 A 
BRANCH  15  18
ATOM     18  O   UNL     1     167.840 163.683 148.017  1.00  0.00    -0.504 OA
ATOM     19  H   UNL     1     167.364 164.353 147.426  1.00  0.00     0.293 HD
ENDBRANCH  15  18
BRANCH  17  20
ATOM     20  O   UNL     1     165.421 164.499 149.226  1.00  0.00    -0.504 OA
ATOM     21  H   UNL     1     164.918 165.357 149.422  1.00  0.00     0.293 HD
ENDBRANCH  17  20
ENDBRANCH   1  12
BRANCH   2  22
ATOM     22  O   UNL     1     167.537 166.082 153.794  1.00  0.00    -0.502 OA
ATOM     23  H   UNL     1     168.235 166.267 153.084  1.00  0.00     0.293 HD
ENDBRANCH   2  22
BRANCH   6  24
ATOM     24  O   UNL     1     167.194 164.452 158.720  1.00  0.00    -0.507 OA
ATOM     25  H   UNL     1     168.077 164.896 158.942  1.00  0.00     0.293 HD
ENDBRANCH   6  24
BRANCH   8  26
ATOM     26  O   UNL     1     166.717 159.673 158.112  1.00  0.00    -0.508 OA
ATOM     27  H   UNL     1     166.109 158.987 157.678  1.00  0.00     0.293 HD
ENDBRANCH   8  26
TORSDOF 6
ENDMDL
MODEL 3
REMARK VINA RESULT:     4.200     11.183     13.249
REMARK INTER + INTRA:           4.728
REMARK INTER:                   4.807
REMARK INTRA:                  -0.078
REMARK UNBOUND:                -0.331
REMARK SMILES O=c1c(O)c(-c2ccc(O)c(O)c2)oc2cc(O)cc(O)c12
REMARK SMILES IDX 5 1 3 2 2 3 1 4 22 5 20 6 19 7 17 8 16 9 15 10 14 11 6 12
REMARK SMILES IDX 7 13 8 14 9 15 13 16 11 17 10 18 12 20 4 22 21 24 18 26
REMARK H PARENT 10 19 12 21 4 23 21 25 18 27
REMARK Flexibility Score: inf
ROOT
ATOM      1  C   UNL     1     167.450 163.992 152.060  1.00  0.00     0.180 A 
ATOM      2  C   UNL     1     168.445 163.312 151.330  1.00  0.00     0.208 A 
ATOM      3  C   UNL     1     168.439 163.403 149.929  1.00  0.00     0.238 A 
ATOM      4  O   UNL     1     169.332 162.808 149.267  1.00  0.00    -0.285 OA
ATOM      5  C   UNL     1     167.433 164.149 149.283  1.00  0.00     0.111 A 
ATOM      6  C   UNL     1     167.354 164.287 147.876  1.00  0.00     0.134 A 
ATOM      7  C   UNL     1     166.317 165.041 147.308  1.00  0.00     0.093 A 
ATOM      8  C   UNL     1     165.357 165.657 148.119  1.00  0.00     0.123 A 
ATOM      9  C   UNL     1     165.431 165.524 149.506  1.00  0.00     0.094 A 
ATOM     10  C   UNL     1     166.458 164.779 150.092  1.00  0.00     0.146 A 
ATOM     11  O   UNL     1     166.507 164.674 151.415  1.00  0.00    -0.452 OA
ENDROOT
BRANCH   1  12
ATOM     12  C   UNL     1     167.399 163.960 153.539  1.00  0.00     0.025 A 
ATOM     13  C   UNL     1     167.271 162.727 154.199  1.00  0.00     0.016 A 
ATOM     14  C   UNL     1     167.200 162.676 155.593  1.00  0.00     0.051 A 
ATOM     15  C   UNL     1     167.240 163.852 156.349  1.00  0.00     0.157 A 
ATOM     16  C   UNL     1     167.418 165.143 154.298  1.00  0.00     0.062 A 
ATOM     17  C   UNL     1     167.345 165.093 155.699  1.00  0.00     0.158 A 
BRANCH  15  18
ATOM     18  O   UNL     1     167.170 163.768 157.739  1.00  0.00    -0.504 OA
ATOM     19  H   UNL     1     167.960 163.992 158.331  1.00  0.00     0.293 HD
ENDBRANCH  15  18
BRANCH  17  20
ATOM     20  O   UNL     1     167.371 166.271 156.444  1.00  0.00    -0.504 OA
ATOM     21  H   UNL     1     166.634 166.500 157.101  1.00  0.00     0.293 HD
ENDBRANCH  17  20
ENDBRANCH   1  12
BRANCH   2  22
ATOM     22  O   UNL     1     169.402 162.539 151.992  1.00  0.00    -0.502 OA
ATOM     23  H   UNL     1     170.281 162.924 152.314  1.00  0.00     0.293 HD
ENDBRANCH   2  22
BRANCH   6  24
ATOM     24  O   UNL     1     168.296 163.684 147.041  1.00  0.00    -0.507 OA
ATOM     25  H   UNL     1     168.020 163.081 146.275  1.00  0.00     0.293 HD
ENDBRANCH   6  24
BRANCH   8  26
ATOM     26  O   UNL     1     164.325 166.404 147.555  1.00  0.00    -0.508 OA
ATOM     27  H   UNL     1     163.713 166.978 148.126  1.00  0.00     0.293 HD
ENDBRANCH   8  26
TORSDOF 6
ENDMDL
MODEL 4
REMARK VINA RESULT:     4.270     11.148     13.223
REMARK INTER + INTRA:           4.812
REMARK INTER:                   4.872
REMARK INTRA:                  -0.060
REMARK UNBOUND:                -0.331
REMARK SMILES O=c1c(O)c(-c2ccc(O)c(O)c2)oc2cc(O)cc(O)c12
REMARK SMILES IDX 5 1 3 2 2 3 1 4 22 5 20 6 19 7 17 8 16 9 15 10 14 11 6 12
REMARK SMILES IDX 7 13 8 14 9 15 13 16 11 17 10 18 12 20 4 22 21 24 18 26
REMARK H PARENT 10 19 12 21 4 23 21 25 18 27
REMARK Flexibility Score: inf
ROOT
ATOM      1  C   UNL     1     167.456 164.067 152.141  1.00  0.00     0.180 A 
ATOM      2  C   UNL     1     168.457 163.334 151.475  1.00  0.00     0.208 A 
ATOM      3  C   UNL     1     168.486 163.344 150.072  1.00  0.00     0.238 A 
ATOM      4  O   UNL     1     169.385 162.701 149.466  1.00  0.00    -0.285 OA
ATOM      5  C   UNL     1     167.506 164.066 149.360  1.00  0.00     0.111 A 
ATOM      6  C   UNL     1     167.463 164.124 147.946  1.00  0.00     0.134 A 
ATOM      7  C   UNL     1     166.450 164.858 147.311  1.00  0.00     0.093 A 
ATOM      8  C   UNL     1     165.481 165.532 148.063  1.00  0.00     0.123 A 
ATOM      9  C   UNL     1     165.520 165.479 149.456  1.00  0.00     0.094 A 
ATOM     10  C   UNL     1     166.523 164.755 150.108  1.00  0.00     0.146 A 
ATOM     11  O   UNL     1     166.539 164.724 151.436  1.00  0.00    -0.452 OA
ENDROOT
BRANCH   1  12
ATOM     12  C   UNL     1     167.371 164.121 153.618  1.00  0.00     0.025 A 
ATOM     13  C   UNL     1     167.438 165.363 154.269  1.00  0.00     0.016 A 
ATOM     14  C   UNL     1     167.381 165.435 155.663  1.00  0.00     0.051 A 
ATOM     15  C   UNL     1     167.272 164.270 156.428  1.00  0.00     0.157 A 
ATOM     16  C   UNL     1     167.282 162.948 154.389  1.00  0.00     0.062 A 
ATOM     17  C   UNL     1     167.226 163.018 155.789  1.00  0.00     0.158 A 
BRANCH  15  18
ATOM     18  O   UNL     1     167.214 164.373 157.817  1.00  0.00    -0.504 OA
ATOM     19  H   UNL     1     166.872 165.206 158.281  1.00  0.00     0.293 HD
ENDBRANCH  15  18
BRANCH  17  20
ATOM     20  O   UNL     1     167.132 161.852 156.546  1.00  0.00    -0.504 OA
ATOM     21  H   UNL     1     166.321 161.657 157.123  1.00  0.00     0.293 HD
ENDBRANCH  17  20
ENDBRANCH   1  12
BRANCH   2  22
ATOM     22  O   UNL     1     169.387 162.587 152.203  1.00  0.00    -0.502 OA
ATOM     23  H   UNL     1     169.120 162.001 152.984  1.00  0.00     0.293 HD
ENDBRANCH   2  22
BRANCH   6  24
ATOM     24  O   UNL     1     168.415 163.461 147.170  1.00  0.00    -0.507 OA
ATOM     25  H   UNL     1     168.160 162.965 146.324  1.00  0.00     0.293 HD
ENDBRANCH   6  24
BRANCH   8  26
ATOM     26  O   UNL     1     164.473 166.260 147.432  1.00  0.00    -0.508 OA
ATOM     27  H   UNL     1     164.547 166.534 146.459  1.00  0.00     0.293 HD
ENDBRANCH   8  26
TORSDOF 6
ENDMDL
MODEL 5
REMARK VINA RESULT:     4.399     11.342     12.599
REMARK INTER + INTRA:           4.968
REMARK INTER:                   5.142
REMARK INTRA:                  -0.174
REMARK UNBOUND:                -0.331
REMARK SMILES O=c1c(O)c(-c2ccc(O)c(O)c2)oc2cc(O)cc(O)c12
REMARK SMILES IDX 5 1 3 2 2 3 1 4 22 5 20 6 19 7 17 8 16 9 15 10 14 11 6 12
REMARK SMILES IDX 7 13 8 14 9 15 13 16 11 17 10 18 12 20 4 22 21 24 18 26
REMARK H PARENT 10 19 12 21 4 23 21 25 18 27
REMARK Flexibility Score: inf
ROOT
ATOM      1  C   UNL     1     167.385 164.490 152.440  1.00  0.00     0.180 A 
ATOM      2  C   UNL     1     167.286 163.448 153.383  1.00  0.00     0.208 A 
ATOM      3  C   UNL     1     167.235 163.771 154.748  1.00  0.00     0.238 A 
ATOM      4  O   UNL     1     167.135 162.847 155.600  1.00  0.00    -0.285 OA
ATOM      5  C   UNL     1     167.305 165.122 155.148  1.00  0.00     0.111 A 
ATOM      6  C   UNL     1     167.264 165.530 156.503  1.00  0.00     0.134 A 
ATOM      7  C   UNL     1     167.347 166.894 156.820  1.00  0.00     0.093 A 
ATOM      8  C   UNL     1     167.472 167.854 155.810  1.00  0.00     0.123 A 
ATOM      9  C   UNL     1     167.511 167.456 154.473  1.00  0.00     0.094 A 
ATOM     10  C   UNL     1     167.428 166.102 154.136  1.00  0.00     0.146 A 
ATOM     11  O   UNL     1     167.463 165.752 152.855  1.00  0.00    -0.452 OA
ENDROOT
BRANCH   1  12
ATOM     12  C   UNL     1     167.425 164.232 150.983  1.00  0.00     0.025 A 
ATOM     13  C   UNL     1     168.541 163.586 150.427  1.00  0.00     0.016 A 
ATOM     14  C   UNL     1     168.609 163.351 149.051  1.00  0.00     0.051 A 
ATOM     15  C   UNL     1     167.575 163.770 148.209  1.00  0.00     0.157 A 
ATOM     16  C   UNL     1     166.395 164.670 150.133  1.00  0.00     0.062 A 
ATOM     17  C   UNL     1     166.463 164.437 148.751  1.00  0.00     0.158 A 
BRANCH  15  18
ATOM     18  O   UNL     1     167.669 163.518 146.841  1.00  0.00    -0.504 OA
ATOM     19  H   UNL     1     167.880 162.598 146.477  1.00  0.00     0.293 HD
ENDBRANCH  15  18
BRANCH  17  20
ATOM     20  O   UNL     1     165.434 164.870 147.916  1.00  0.00    -0.504 OA
ATOM     21  H   UNL     1     164.467 164.617 148.089  1.00  0.00     0.293 HD
ENDBRANCH  17  20
ENDBRANCH   1  12
BRANCH   2  22
ATOM     22  O   UNL     1     167.268 162.116 152.963  1.00  0.00    -0.502 OA
ATOM     23  H   UNL     1     167.522 161.351 153.575  1.00  0.00     0.293 HD
ENDBRANCH   2  22
BRANCH   6  24
ATOM     24  O   UNL     1     167.142 164.596 157.532  1.00  0.00    -0.507 OA
ATOM     25  H   UNL     1     166.782 163.663 157.365  1.00  0.00     0.293 HD
ENDBRANCH   6  24
BRANCH   8  26
ATOM     26  O   UNL     1     167.556 169.209 156.125  1.00  0.00    -0.508 OA
ATOM     27  H   UNL     1     168.237 169.557 156.790  1.00  0.00     0.293 HD
ENDBRANCH   8  26
TORSDOF 6
ENDMDL
