MODEL 1
REMARK VINA RESULT:    -3.906      0.000      0.000
REMARK INTER + INTRA:          -6.050
REMARK INTER:                  -5.732
REMARK INTRA:                  -0.317
REMARK UNBOUND:                -0.317
REMARK SMILES O=C([O-])CCCCCCCC(=O)[O-]
REMARK SMILES IDX 7 1 6 2 5 3 4 4 2 5 1 6 3 7 8 8 9 9 10 10 11 11 12 12 13 13
REMARK H PARENT
REMARK Flexibility Score: inf
ROOT
ATOM      1  C   UNL     1     112.941  54.753 230.417  1.00  0.00     0.000 C 
ENDROOT
BRANCH   1   2
ATOM      2  C   UNL     1     113.197  54.772 228.900  1.00  0.00     0.000 C 
BRANCH   2   3
ATOM      3  C   UNL     1     112.954  53.408 228.231  1.00  0.00     0.006 C 
BRANCH   3   4
ATOM      4  C   UNL     1     113.456  53.330 226.779  1.00  0.00     0.053 C 
BRANCH   4   5
ATOM      5  C   UNL     1     112.342  53.416 225.779  1.00  0.00     0.041 C 
ATOM      6  O   UNL     1     111.196  52.985 226.069  1.00  0.00    -0.550 OA
ATOM      7  O   UNL     1     112.579  53.934 224.511  1.00  0.00    -0.550 OA
ENDBRANCH   4   5
ENDBRANCH   3   4
ENDBRANCH   2   3
ENDBRANCH   1   2
BRANCH   1   8
ATOM      8  C   UNL     1     112.587  53.353 230.945  1.00  0.00     0.000 C 
BRANCH   8   9
ATOM      9  C   UNL     1     111.931  53.329 232.340  1.00  0.00     0.006 C 
BRANCH   9  10
ATOM     10  C   UNL     1     110.398  53.469 232.314  1.00  0.00     0.053 C 
BRANCH  10  11
ATOM     11  C   UNL     1     109.709  52.391 233.095  1.00  0.00     0.041 C 
ATOM     12  O   UNL     1     109.250  52.635 234.242  1.00  0.00    -0.550 OA
ATOM     13  O   UNL     1     109.612  51.106 232.577  1.00  0.00    -0.550 OA
ENDBRANCH  10  11
ENDBRANCH   9  10
ENDBRANCH   8   9
ENDBRANCH   1   8
TORSDOF 8
ENDMDL
MODEL 2
REMARK VINA RESULT:    -3.821      0.309      6.598
REMARK INTER + INTRA:          -5.925
REMARK INTER:                  -5.620
REMARK INTRA:                  -0.305
REMARK UNBOUND:                -0.317
REMARK SMILES O=C([O-])CCCCCCCC(=O)[O-]
REMARK SMILES IDX 7 1 6 2 5 3 4 4 2 5 1 6 3 7 8 8 9 9 10 10 11 11 12 12 13 13
REMARK H PARENT
REMARK Flexibility Score: inf
ROOT
ATOM      1  C   UNL     1     112.307  54.522 230.445  1.00  0.00     0.000 C 
ENDROOT
BRANCH   1   2
ATOM      2  C   UNL     1     112.938  53.433 231.329  1.00  0.00     0.000 C 
BRANCH   2   3
ATOM      3  C   UNL     1     112.063  53.057 232.538  1.00  0.00     0.006 C 
BRANCH   3   4
ATOM      4  C   UNL     1     110.558  53.282 232.311  1.00  0.00     0.053 C 
BRANCH   4   5
ATOM      5  C   UNL     1     109.712  52.262 233.011  1.00  0.00     0.041 C 
ATOM      6  O   UNL     1     109.621  51.093 232.553  1.00  0.00    -0.550 OA
ATOM      7  O   UNL     1     108.990  52.613 234.145  1.00  0.00    -0.550 OA
ENDBRANCH   4   5
ENDBRANCH   3   4
ENDBRANCH   2   3
ENDBRANCH   1   2
BRANCH   1   8
ATOM      8  C   UNL     1     113.001  54.661 229.080  1.00  0.00     0.000 C 
BRANCH   8   9
ATOM      9  C   UNL     1     112.978  53.392 228.204  1.00  0.00     0.006 C 
BRANCH   9  10
ATOM     10  C   UNL     1     113.534  53.601 226.784  1.00  0.00     0.053 C 
BRANCH  10  11
ATOM     11  C   UNL     1     112.470  53.510 225.731  1.00  0.00     0.041 C 
ATOM     12  O   UNL     1     112.700  53.920 224.562  1.00  0.00    -0.550 OA
ATOM     13  O   UNL     1     111.212  53.014 226.049  1.00  0.00    -0.550 OA
ENDBRANCH  10  11
ENDBRANCH   9  10
ENDBRANCH   8   9
ENDBRANCH   1   8
TORSDOF 8
ENDMDL
MODEL 3
REMARK VINA RESULT:    -3.491      2.289      6.326
REMARK INTER + INTRA:          -5.441
REMARK INTER:                  -5.170
REMARK INTRA:                  -0.271
REMARK UNBOUND:                -0.317
REMARK SMILES O=C([O-])CCCCCCCC(=O)[O-]
REMARK SMILES IDX 7 1 6 2 5 3 4 4 2 5 1 6 3 7 8 8 9 9 10 10 11 11 12 12 13 13
REMARK H PARENT
REMARK Flexibility Score: inf
ROOT
ATOM      1  C   UNL     1     112.563  54.496 228.087  1.00  0.00     0.000 C 
ENDROOT
BRANCH   1   2
ATOM      2  C   UNL     1     113.684  55.250 228.821  1.00  0.00     0.000 C 
BRANCH   2   3
ATOM      3  C   UNL     1     113.651  55.043 230.346  1.00  0.00     0.006 C 
BRANCH   3   4
ATOM      4  C   UNL     1     112.853  53.804 230.788  1.00  0.00     0.053 C 
BRANCH   4   5
ATOM      5  C   UNL     1     112.908  53.582 232.269  1.00  0.00     0.041 C 
ATOM      6  O   UNL     1     112.673  54.531 233.061  1.00  0.00    -0.550 OA
ATOM      7  O   UNL     1     113.259  52.336 232.776  1.00  0.00    -0.550 OA
ENDBRANCH   4   5
ENDBRANCH   3   4
ENDBRANCH   2   3
ENDBRANCH   1   2
BRANCH   1   8
ATOM      8  C   UNL     1     113.093  53.381 227.171  1.00  0.00     0.000 C 
BRANCH   8   9
ATOM      9  C   UNL     1     112.363  53.243 225.820  1.00  0.00     0.006 C 
BRANCH   9  10
ATOM     10  C   UNL     1     110.906  53.741 225.842  1.00  0.00     0.053 C 
BRANCH  10  11
ATOM     11  C   UNL     1     109.985  52.856 225.056  1.00  0.00     0.041 C 
ATOM     12  O   UNL     1     109.508  51.815 225.579  1.00  0.00    -0.550 OA
ATOM     13  O   UNL     1     109.687  53.157 223.733  1.00  0.00    -0.550 OA
ENDBRANCH  10  11
ENDBRANCH   9  10
ENDBRANCH   8   9
ENDBRANCH   1   8
TORSDOF 8
ENDMDL
MODEL 4
REMARK VINA RESULT:    -3.447      2.063      3.030
REMARK INTER + INTRA:          -5.376
REMARK INTER:                  -4.980
REMARK INTRA:                  -0.396
REMARK UNBOUND:                -0.317
REMARK SMILES O=C([O-])CCCCCCCC(=O)[O-]
REMARK SMILES IDX 7 1 6 2 5 3 4 4 2 5 1 6 3 7 8 8 9 9 10 10 11 11 12 12 13 13
REMARK H PARENT
REMARK Flexibility Score: inf
ROOT
ATOM      1  C   UNL     1     112.915  53.496 228.102  1.00  0.00     0.000 C 
ENDROOT
BRANCH   1   2
ATOM      2  C   UNL     1     113.542  53.308 226.710  1.00  0.00     0.000 C 
BRANCH   2   3
ATOM      3  C   UNL     1     112.518  53.426 225.568  1.00  0.00     0.006 C 
BRANCH   3   4
ATOM      4  C   UNL     1     111.246  54.202 225.951  1.00  0.00     0.053 C 
BRANCH   4   5
ATOM      5  C   UNL     1     109.992  53.491 225.540  1.00  0.00     0.041 C 
ATOM      6  O   UNL     1     109.933  52.235 225.584  1.00  0.00    -0.550 OA
ATOM      7  O   UNL     1     108.902  54.213 225.070  1.00  0.00    -0.550 OA
ENDBRANCH   4   5
ENDBRANCH   3   4
ENDBRANCH   2   3
ENDBRANCH   1   2
BRANCH   1   8
ATOM      8  C   UNL     1     113.434  54.749 228.826  1.00  0.00     0.000 C 
BRANCH   8   9
ATOM      9  C   UNL     1     112.769  55.040 230.187  1.00  0.00     0.006 C 
BRANCH   9  10
ATOM     10  C   UNL     1     113.563  54.515 231.397  1.00  0.00     0.053 C 
BRANCH  10  11
ATOM     11  C   UNL     1     112.947  53.288 232.000  1.00  0.00     0.041 C 
ATOM     12  O   UNL     1     113.648  52.503 232.690  1.00  0.00    -0.550 OA
ATOM     13  O   UNL     1     111.611  52.989 231.765  1.00  0.00    -0.550 OA
ENDBRANCH  10  11
ENDBRANCH   9  10
ENDBRANCH   8   9
ENDBRANCH   1   8
TORSDOF 8
ENDMDL
MODEL 5
REMARK VINA RESULT:    -3.383     19.126     19.739
REMARK INTER + INTRA:          -5.283
REMARK INTER:                  -4.571
REMARK INTRA:                  -0.712
REMARK UNBOUND:                -0.317
REMARK SMILES O=C([O-])CCCCCCCC(=O)[O-]
REMARK SMILES IDX 7 1 6 2 5 3 4 4 2 5 1 6 3 7 8 8 9 9 10 10 11 11 12 12 13 13
REMARK H PARENT
REMARK Flexibility Score: inf
ROOT
ATOM      1  C   UNL     1      97.902  63.235 225.631  1.00  0.00     0.000 C 
ENDROOT
BRANCH   1   2
ATOM      2  C   UNL     1      97.566  64.545 224.897  1.00  0.00     0.000 C 
BRANCH   2   3
ATOM      3  C   UNL     1      96.384  64.402 223.923  1.00  0.00     0.006 C 
BRANCH   3   4
ATOM      4  C   UNL     1      95.320  65.503 224.072  1.00  0.00     0.053 C 
BRANCH   4   5
ATOM      5  C   UNL     1      94.708  65.532 225.440  1.00  0.00     0.041 C 
ATOM      6  O   UNL     1      94.097  64.525 225.882  1.00  0.00    -0.550 OA
ATOM      7  O   UNL     1      94.777  66.686 226.212  1.00  0.00    -0.550 OA
ENDBRANCH   4   5
ENDBRANCH   3   4
ENDBRANCH   2   3
ENDBRANCH   1   2
BRANCH   1   8
ATOM      8  C   UNL     1      97.001  62.986 226.852  1.00  0.00     0.000 C 
BRANCH   8   9
ATOM      9  C   UNL     1      97.548  63.525 228.189  1.00  0.00     0.006 C 
BRANCH   9  10
ATOM     10  C   UNL     1      96.977  64.897 228.591  1.00  0.00     0.053 C 
BRANCH  10  11
ATOM     11  C   UNL     1      95.839  64.784 229.561  1.00  0.00     0.041 C 
ATOM     12  O   UNL     1      95.988  64.151 230.639  1.00  0.00    -0.550 OA
ATOM     13  O   UNL     1      94.603  65.340 229.256  1.00  0.00    -0.550 OA
ENDBRANCH  10  11
ENDBRANCH   9  10
ENDBRANCH   8   9
ENDBRANCH   1   8
TORSDOF 8
ENDMDL
MODEL 6
REMARK VINA RESULT:    -3.365     18.712     19.257
REMARK INTER + INTRA:          -5.256
REMARK INTER:                  -4.467
REMARK INTRA:                  -0.789
REMARK UNBOUND:                -0.317
REMARK SMILES O=C([O-])CCCCCCCC(=O)[O-]
REMARK SMILES IDX 7 1 6 2 5 3 4 4 2 5 1 6 3 7 8 8 9 9 10 10 11 11 12 12 13 13
REMARK H PARENT
REMARK Flexibility Score: inf
ROOT
ATOM      1  C   UNL     1      96.218  64.872 224.249  1.00  0.00     0.000 C 
ENDROOT
BRANCH   1   2
ATOM      2  C   UNL     1      97.002  63.642 224.736  1.00  0.00     0.000 C 
BRANCH   2   3
ATOM      3  C   UNL     1      98.454  63.969 225.127  1.00  0.00     0.006 C 
BRANCH   3   4
ATOM      4  C   UNL     1      98.962  65.309 224.567  1.00  0.00     0.053 C 
BRANCH   4   5
ATOM      5  C   UNL     1     100.171  65.149 223.696  1.00  0.00     0.041 C 
ATOM      6  O   UNL     1     100.468  64.020 223.227  1.00  0.00    -0.550 OA
ATOM      7  O   UNL     1     100.995  66.238 223.436  1.00  0.00    -0.550 OA
ENDBRANCH   4   5
ENDBRANCH   3   4
ENDBRANCH   2   3
ENDBRANCH   1   2
BRANCH   1   8
ATOM      8  C   UNL     1      95.097  65.288 225.217  1.00  0.00     0.000 C 
BRANCH   8   9
ATOM      9  C   UNL     1      95.351  66.602 225.983  1.00  0.00     0.006 C 
BRANCH   9  10
ATOM     10  C   UNL     1      96.292  66.450 227.192  1.00  0.00     0.053 C 
BRANCH  10  11
ATOM     11  C   UNL     1      95.848  65.371 228.134  1.00  0.00     0.041 C 
ATOM     12  O   UNL     1      96.506  64.302 228.226  1.00  0.00    -0.550 OA
ATOM     13  O   UNL     1      94.686  65.527 228.878  1.00  0.00    -0.550 OA
ENDBRANCH  10  11
ENDBRANCH   9  10
ENDBRANCH   8   9
ENDBRANCH   1   8
TORSDOF 8
ENDMDL
MODEL 7
REMARK VINA RESULT:    -3.312      1.969      2.580
REMARK INTER + INTRA:          -5.178
REMARK INTER:                  -4.939
REMARK INTRA:                  -0.239
REMARK UNBOUND:                -0.317
REMARK SMILES O=C([O-])CCCCCCCC(=O)[O-]
REMARK SMILES IDX 7 1 6 2 5 3 4 4 2 5 1 6 3 7 8 8 9 9 10 10 11 11 12 12 13 13
REMARK H PARENT
REMARK Flexibility Score: inf
ROOT
ATOM      1  C   UNL     1     112.397  54.461 230.561  1.00  0.00     0.000 C 
ENDROOT
BRANCH   1   2
ATOM      2  C   UNL     1     113.367  54.334 229.373  1.00  0.00     0.000 C 
BRANCH   2   3
ATOM      3  C   UNL     1     112.673  54.491 228.009  1.00  0.00     0.006 C 
BRANCH   3   4
ATOM      4  C   UNL     1     113.078  53.424 226.979  1.00  0.00     0.053 C 
BRANCH   4   5
ATOM      5  C   UNL     1     112.132  53.355 225.818  1.00  0.00     0.041 C 
ATOM      6  O   UNL     1     112.512  53.706 224.670  1.00  0.00    -0.550 OA
ATOM      7  O   UNL     1     110.819  52.942 226.009  1.00  0.00    -0.550 OA
ENDBRANCH   4   5
ENDBRANCH   3   4
ENDBRANCH   2   3
ENDBRANCH   1   2
BRANCH   1   8
ATOM      8  C   UNL     1     112.639  53.399 231.646  1.00  0.00     0.000 C 
BRANCH   8   9
ATOM      9  C   UNL     1     113.925  53.592 232.474  1.00  0.00     0.006 C 
BRANCH   9  10
ATOM     10  C   UNL     1     113.794  53.158 233.945  1.00  0.00     0.053 C 
BRANCH  10  11
ATOM     11  C   UNL     1     112.864  54.041 234.723  1.00  0.00     0.041 C 
ATOM     12  O   UNL     1     113.252  55.170 235.125  1.00  0.00    -0.550 OA
ATOM     13  O   UNL     1     111.586  53.600 235.043  1.00  0.00    -0.550 OA
ENDBRANCH  10  11
ENDBRANCH   9  10
ENDBRANCH   8   9
ENDBRANCH   1   8
TORSDOF 8
ENDMDL
MODEL 8
REMARK VINA RESULT:    -3.219      2.353      6.767
REMARK INTER + INTRA:          -5.041
REMARK INTER:                  -4.731
REMARK INTRA:                  -0.310
REMARK UNBOUND:                -0.317
REMARK SMILES O=C([O-])CCCCCCCC(=O)[O-]
REMARK SMILES IDX 7 1 6 2 5 3 4 4 2 5 1 6 3 7 8 8 9 9 10 10 11 11 12 12 13 13
REMARK H PARENT
REMARK Flexibility Score: inf
ROOT
ATOM      1  C   UNL     1     113.288  54.566 229.979  1.00  0.00     0.000 C 
ENDROOT
BRANCH   1   2
ATOM      2  C   UNL     1     112.180  54.359 231.026  1.00  0.00     0.000 C 
BRANCH   2   3
ATOM      3  C   UNL     1     112.423  53.135 231.926  1.00  0.00     0.006 C 
BRANCH   3   4
ATOM      4  C   UNL     1     113.801  53.129 232.609  1.00  0.00     0.053 C 
BRANCH   4   5
ATOM      5  C   UNL     1     113.743  53.608 234.028  1.00  0.00     0.041 C 
ATOM      6  O   UNL     1     113.383  54.786 234.284  1.00  0.00    -0.550 OA
ATOM      7  O   UNL     1     114.125  52.766 235.066  1.00  0.00    -0.550 OA
ENDBRANCH   4   5
ENDBRANCH   3   4
ENDBRANCH   2   3
ENDBRANCH   1   2
BRANCH   1   8
ATOM      8  C   UNL     1     112.998  53.846 228.652  1.00  0.00     0.000 C 
BRANCH   8   9
ATOM      9  C   UNL     1     112.994  54.753 227.405  1.00  0.00     0.006 C 
BRANCH   9  10
ATOM     10  C   UNL     1     111.658  54.758 226.639  1.00  0.00     0.053 C 
BRANCH  10  11
ATOM     11  C   UNL     1     111.556  53.630 225.656  1.00  0.00     0.041 C 
ATOM     12  O   UNL     1     112.371  53.548 224.699  1.00  0.00    -0.550 OA
ATOM     13  O   UNL     1     110.536  52.694 225.770  1.00  0.00    -0.550 OA
ENDBRANCH  10  11
ENDBRANCH   9  10
ENDBRANCH   8   9
ENDBRANCH   1   8
TORSDOF 8
ENDMDL
