MODEL 1
REMARK VINA RESULT:    -3.607      0.000      0.000
REMARK INTER + INTRA:          -4.643
REMARK INTER:                  -4.451
REMARK INTRA:                  -0.193
REMARK UNBOUND:                -0.193
REMARK SMILES CCCCCC(=O)[O-]
REMARK SMILES IDX 4 1 5 2 6 3 7 4 8 5 3 6 2 7 1 8
REMARK H PARENT
REMARK Flexibility Score: inf
ROOT
ATOM      1  C   UNL     1      11.619  40.098   1.687  1.00  0.00     0.006 C 
ENDROOT
BRANCH   1   2
ATOM      2  C   UNL     1      11.528  39.522   3.105  1.00  0.00     0.053 C 
BRANCH   2   3
ATOM      3  C   UNL     1      12.828  38.923   3.548  1.00  0.00     0.041 C 
ATOM      4  O   UNL     1      13.250  37.863   3.015  1.00  0.00    -0.550 OA
ATOM      5  O   UNL     1      13.590  39.554   4.523  1.00  0.00    -0.550 OA
ENDBRANCH   2   3
ENDBRANCH   1   2
BRANCH   1   6
ATOM      6  C   UNL     1      10.833  39.262   0.666  1.00  0.00     0.000 C 
BRANCH   6   7
ATOM      7  C   UNL     1       9.818  38.353   1.367  1.00  0.00    -0.003 C 
ATOM      8  C   UNL     1       9.797  36.962   0.738  1.00  0.00     0.004 C 
ENDBRANCH   6   7
ENDBRANCH   1   6
TORSDOF 4
ENDMDL
MODEL 2
REMARK VINA RESULT:    -3.549      3.029      4.033
REMARK INTER + INTRA:          -4.571
REMARK INTER:                  -4.364
REMARK INTRA:                  -0.207
REMARK UNBOUND:                -0.193
REMARK SMILES CCCCCC(=O)[O-]
REMARK SMILES IDX 4 1 5 2 6 3 7 4 8 5 3 6 2 7 1 8
REMARK H PARENT
REMARK Flexibility Score: inf
ROOT
ATOM      1  C   UNL     1      10.930  39.611   1.751  1.00  0.00     0.006 C 
ENDROOT
BRANCH   1   2
ATOM      2  C   UNL     1      11.028  38.174   1.225  1.00  0.00     0.053 C 
BRANCH   2   3
ATOM      3  C   UNL     1       9.676  37.594   0.937  1.00  0.00     0.041 C 
ATOM      4  O   UNL     1       8.655  38.330   0.958  1.00  0.00    -0.550 OA
ATOM      5  O   UNL     1       9.550  36.250   0.611  1.00  0.00    -0.550 OA
ENDBRANCH   2   3
ENDBRANCH   1   2
BRANCH   1   6
ATOM      6  C   UNL     1      11.905  40.561   1.039  1.00  0.00     0.000 C 
BRANCH   6   7
ATOM      7  C   UNL     1      11.506  40.756  -0.428  1.00  0.00    -0.003 C 
ATOM      8  C   UNL     1      10.175  41.495  -0.544  1.00  0.00     0.004 C 
ENDBRANCH   6   7
ENDBRANCH   1   6
TORSDOF 4
ENDMDL
MODEL 3
REMARK VINA RESULT:    -3.505      3.444      4.065
REMARK INTER + INTRA:          -4.517
REMARK INTER:                  -4.360
REMARK INTRA:                  -0.157
REMARK UNBOUND:                -0.193
REMARK SMILES CCCCCC(=O)[O-]
REMARK SMILES IDX 4 1 5 2 6 3 7 4 8 5 3 6 2 7 1 8
REMARK H PARENT
REMARK Flexibility Score: inf
ROOT
ATOM      1  C   UNL     1      11.514  40.162   1.334  1.00  0.00     0.006 C 
ENDROOT
BRANCH   1   2
ATOM      2  C   UNL     1      11.300  40.263  -0.181  1.00  0.00     0.053 C 
BRANCH   2   3
ATOM      3  C   UNL     1      10.671  41.566  -0.569  1.00  0.00     0.041 C 
ATOM      4  O   UNL     1      11.394  42.560  -0.845  1.00  0.00    -0.550 OA
ATOM      5  O   UNL     1       9.290  41.674  -0.660  1.00  0.00    -0.550 OA
ENDBRANCH   2   3
ENDBRANCH   1   2
BRANCH   1   6
ATOM      6  C   UNL     1      10.900  38.885   1.926  1.00  0.00     0.000 C 
BRANCH   6   7
ATOM      7  C   UNL     1       9.692  38.423   1.103  1.00  0.00    -0.003 C 
ATOM      8  C   UNL     1       9.794  36.940   0.758  1.00  0.00     0.004 C 
ENDBRANCH   6   7
ENDBRANCH   1   6
TORSDOF 4
ENDMDL
MODEL 4
REMARK VINA RESULT:    -3.447      2.167      3.735
REMARK INTER + INTRA:          -4.446
REMARK INTER:                  -4.295
REMARK INTRA:                  -0.151
REMARK UNBOUND:                -0.193
REMARK SMILES CCCCCC(=O)[O-]
REMARK SMILES IDX 4 1 5 2 6 3 7 4 8 5 3 6 2 7 1 8
REMARK H PARENT
REMARK Flexibility Score: inf
ROOT
ATOM      1  C   UNL     1      11.949  39.956   1.856  1.00  0.00     0.006 C 
ENDROOT
BRANCH   1   2
ATOM      2  C   UNL     1      10.788  39.800   0.866  1.00  0.00     0.053 C 
BRANCH   2   3
ATOM      3  C   UNL     1      10.134  38.456   0.982  1.00  0.00     0.041 C 
ATOM      4  O   UNL     1      10.838  37.415   1.060  1.00  0.00    -0.550 OA
ATOM      5  O   UNL     1       8.751  38.357   1.039  1.00  0.00    -0.550 OA
ENDBRANCH   2   3
ENDBRANCH   1   2
BRANCH   1   6
ATOM      6  C   UNL     1      11.517  39.702   3.307  1.00  0.00     0.000 C 
BRANCH   6   7
ATOM      7  C   UNL     1      12.641  39.033   4.106  1.00  0.00    -0.003 C 
ATOM      8  C   UNL     1      13.515  38.164   3.205  1.00  0.00     0.004 C 
ENDBRANCH   6   7
ENDBRANCH   1   6
TORSDOF 4
ENDMDL
MODEL 5
REMARK VINA RESULT:    -3.415      2.822      4.136
REMARK INTER + INTRA:          -4.406
REMARK INTER:                  -4.285
REMARK INTRA:                  -0.121
REMARK UNBOUND:                -0.193
REMARK SMILES CCCCCC(=O)[O-]
REMARK SMILES IDX 4 1 5 2 6 3 7 4 8 5 3 6 2 7 1 8
REMARK H PARENT
REMARK Flexibility Score: inf
ROOT
ATOM      1  C   UNL     1      11.127  39.913   0.614  1.00  0.00     0.006 C 
ENDROOT
BRANCH   1   2
ATOM      2  C   UNL     1      10.958  38.652   1.471  1.00  0.00     0.053 C 
BRANCH   2   3
ATOM      3  C   UNL     1       9.759  37.854   1.056  1.00  0.00     0.041 C 
ATOM      4  O   UNL     1       8.639  38.415   0.930  1.00  0.00    -0.550 OA
ATOM      5  O   UNL     1       9.886  36.500   0.776  1.00  0.00    -0.550 OA
ENDBRANCH   2   3
ENDBRANCH   1   2
BRANCH   1   6
ATOM      6  C   UNL     1      12.077  40.933   1.259  1.00  0.00     0.000 C 
BRANCH   6   7
ATOM      7  C   UNL     1      12.726  40.356   2.522  1.00  0.00    -0.003 C 
ATOM      8  C   UNL     1      14.244  40.277   2.374  1.00  0.00     0.004 C 
ENDBRANCH   6   7
ENDBRANCH   1   6
TORSDOF 4
ENDMDL
MODEL 6
REMARK VINA RESULT:    -3.374      3.679      4.262
REMARK INTER + INTRA:          -4.355
REMARK INTER:                  -4.162
REMARK INTRA:                  -0.193
REMARK UNBOUND:                -0.193
REMARK SMILES CCCCCC(=O)[O-]
REMARK SMILES IDX 4 1 5 2 6 3 7 4 8 5 3 6 2 7 1 8
REMARK H PARENT
REMARK Flexibility Score: inf
ROOT
ATOM      1  C   UNL     1      11.817  40.682   1.047  1.00  0.00     0.006 C 
ENDROOT
BRANCH   1   2
ATOM      2  C   UNL     1      11.399  40.729  -0.428  1.00  0.00     0.053 C 
BRANCH   2   3
ATOM      3  C   UNL     1      10.464  41.867  -0.706  1.00  0.00     0.041 C 
ATOM      4  O   UNL     1       9.219  41.679  -0.699  1.00  0.00    -0.550 OA
ATOM      5  O   UNL     1      10.966  43.141  -0.937  1.00  0.00    -0.550 OA
ENDBRANCH   2   3
ENDBRANCH   1   2
BRANCH   1   6
ATOM      6  C   UNL     1      11.185  39.498   1.794  1.00  0.00     0.000 C 
BRANCH   6   7
ATOM      7  C   UNL     1      10.666  38.443   0.811  1.00  0.00    -0.003 C 
ATOM      8  C   UNL     1       9.242  38.016   1.162  1.00  0.00     0.004 C 
ENDBRANCH   6   7
ENDBRANCH   1   6
TORSDOF 4
ENDMDL
MODEL 7
REMARK VINA RESULT:    -3.243      2.823      3.894
REMARK INTER + INTRA:          -4.194
REMARK INTER:                  -4.085
REMARK INTRA:                  -0.108
REMARK UNBOUND:                -0.193
REMARK SMILES CCCCCC(=O)[O-]
REMARK SMILES IDX 4 1 5 2 6 3 7 4 8 5 3 6 2 7 1 8
REMARK H PARENT
REMARK Flexibility Score: inf
ROOT
ATOM      1  C   UNL     1      11.453  40.693  -0.090  1.00  0.00     0.006 C 
ENDROOT
BRANCH   1   2
ATOM      2  C   UNL     1      10.361  39.900   0.638  1.00  0.00     0.053 C 
BRANCH   2   3
ATOM      3  C   UNL     1      10.919  38.696   1.334  1.00  0.00     0.041 C 
ATOM      4  O   UNL     1      11.708  38.835   2.306  1.00  0.00    -0.550 OA
ATOM      5  O   UNL     1      10.540  37.421   0.933  1.00  0.00    -0.550 OA
ENDBRANCH   2   3
ENDBRANCH   1   2
BRANCH   1   6
ATOM      6  C   UNL     1      10.874  41.811  -0.969  1.00  0.00     0.000 C 
BRANCH   6   7
ATOM      7  C   UNL     1       9.350  41.889  -0.824  1.00  0.00    -0.003 C 
ATOM      8  C   UNL     1       8.853  43.323  -0.992  1.00  0.00     0.004 C 
ENDBRANCH   6   7
ENDBRANCH   1   6
TORSDOF 4
ENDMDL
MODEL 8
REMARK VINA RESULT:    -3.211     10.852     11.775
REMARK INTER + INTRA:          -4.154
REMARK INTER:                  -3.912
REMARK INTRA:                  -0.242
REMARK UNBOUND:                -0.193
REMARK SMILES CCCCCC(=O)[O-]
REMARK SMILES IDX 4 1 5 2 6 3 7 4 8 5 3 6 2 7 1 8
REMARK H PARENT
REMARK Flexibility Score: inf
ROOT
ATOM      1  C   UNL     1       5.694  38.074  -6.437  1.00  0.00     0.006 C 
ENDROOT
BRANCH   1   2
ATOM      2  C   UNL     1       5.834  39.430  -7.141  1.00  0.00     0.053 C 
BRANCH   2   3
ATOM      3  C   UNL     1       4.503  39.990  -7.539  1.00  0.00     0.041 C 
ATOM      4  O   UNL     1       4.328  41.237  -7.579  1.00  0.00    -0.550 OA
ATOM      5  O   UNL     1       3.468  39.138  -7.900  1.00  0.00    -0.550 OA
ENDBRANCH   2   3
ENDBRANCH   1   2
BRANCH   1   6
ATOM      6  C   UNL     1       5.267  38.221  -4.970  1.00  0.00     0.000 C 
BRANCH   6   7
ATOM      7  C   UNL     1       4.065  37.323  -4.656  1.00  0.00    -0.003 C 
ATOM      8  C   UNL     1       2.776  38.136  -4.575  1.00  0.00     0.004 C 
ENDBRANCH   6   7
ENDBRANCH   1   6
TORSDOF 4
ENDMDL
MODEL 9
REMARK VINA RESULT:    -3.201     10.791     11.420
REMARK INTER + INTRA:          -4.142
REMARK INTER:                  -3.980
REMARK INTRA:                  -0.162
REMARK UNBOUND:                -0.193
REMARK SMILES CCCCCC(=O)[O-]
REMARK SMILES IDX 4 1 5 2 6 3 7 4 8 5 3 6 2 7 1 8
REMARK H PARENT
REMARK Flexibility Score: inf
ROOT
ATOM      1  C   UNL     1       5.222  38.142  -5.025  1.00  0.00     0.006 C 
ENDROOT
BRANCH   1   2
ATOM      2  C   UNL     1       5.595  38.920  -6.294  1.00  0.00     0.053 C 
BRANCH   2   3
ATOM      3  C   UNL     1       4.411  39.624  -6.883  1.00  0.00     0.041 C 
ATOM      4  O   UNL     1       4.554  40.745  -7.439  1.00  0.00    -0.550 OA
ATOM      5  O   UNL     1       3.157  39.028  -6.849  1.00  0.00    -0.550 OA
ENDBRANCH   2   3
ENDBRANCH   1   2
BRANCH   1   6
ATOM      6  C   UNL     1       5.268  36.622  -5.239  1.00  0.00     0.000 C 
BRANCH   6   7
ATOM      7  C   UNL     1       6.033  36.271  -6.520  1.00  0.00    -0.003 C 
ATOM      8  C   UNL     1       6.745  34.927  -6.385  1.00  0.00     0.004 C 
ENDBRANCH   6   7
ENDBRANCH   1   6
TORSDOF 4
ENDMDL
