MODEL 1
REMARK VINA RESULT:    -3.740      0.000      0.000
REMARK INTER + INTRA:          -5.551
REMARK INTER:                  -5.052
REMARK INTRA:                  -0.500
REMARK UNBOUND:                -0.500
REMARK SMILES [NH3+]CCCC[C@H]([NH3+])C(=O)[O-]
REMARK SMILES IDX 4 1 3 2 2 3 1 4 5 8 6 9 7 10 8 14 9 15 10 16
REMARK H PARENT 1 5 1 6 1 7 7 11 7 12 7 13
REMARK Flexibility Score: inf
ROOT
ATOM      1  C   UNL     1       7.000   2.560   2.851  1.00  0.00     0.012 C 
ENDROOT
BRANCH   1   2
ATOM      2  C   UNL     1       8.176   1.658   2.446  1.00  0.00     0.061 C 
BRANCH   2   3
ATOM      3  C   UNL     1       8.714   2.046   1.061  1.00  0.00     0.258 C 
BRANCH   3   4
ATOM      4  N   UNL     1       7.648   2.021   0.060  1.00  0.00    -0.358 N 
ATOM      5  H   UNL     1       6.736   1.834   0.538  1.00  0.00     0.344 HD
ATOM      6  H   UNL     1       7.827   1.263  -0.637  1.00  0.00     0.344 HD
ATOM      7  H   UNL     1       7.591   2.945  -0.427  1.00  0.00     0.344 HD
ENDBRANCH   3   4
ENDBRANCH   2   3
ENDBRANCH   1   2
BRANCH   1   8
ATOM      8  C   UNL     1       7.421   4.011   3.151  1.00  0.00     0.072 C 
BRANCH   8   9
ATOM      9  C   UNL     1       6.389   5.076   2.699  1.00  0.00     0.227 C 
BRANCH   9  10
ATOM     10  N   UNL     1       5.160   4.967   3.494  1.00  0.00    -0.350 N 
ATOM     11  H   UNL     1       5.385   4.741   4.491  1.00  0.00     0.345 HD
ATOM     12  H   UNL     1       4.547   4.216   3.100  1.00  0.00     0.345 HD
ATOM     13  H   UNL     1       4.631   5.869   3.458  1.00  0.00     0.345 HD
ENDBRANCH   9  10
BRANCH   9  14
ATOM     14  C   UNL     1       6.057   4.949   1.236  1.00  0.00     0.099 C 
ATOM     15  O   UNL     1       4.870   4.754   0.862  1.00  0.00    -0.544 OA
ATOM     16  O   UNL     1       7.060   5.089   0.284  1.00  0.00    -0.544 OA
ENDBRANCH   9  14
ENDBRANCH   8   9
ENDBRANCH   1   8
TORSDOF 7
ENDMDL
MODEL 2
REMARK VINA RESULT:    -3.632      7.794      8.893
REMARK INTER + INTRA:          -5.406
REMARK INTER:                  -4.900
REMARK INTRA:                  -0.506
REMARK UNBOUND:                -0.500
REMARK SMILES [NH3+]CCCC[C@H]([NH3+])C(=O)[O-]
REMARK SMILES IDX 4 1 3 2 2 3 1 4 5 8 6 9 7 10 8 14 9 15 10 16
REMARK H PARENT 1 5 1 6 1 7 7 11 7 12 7 13
REMARK Flexibility Score: inf
ROOT
ATOM      1  C   UNL     1       6.471  -6.833   2.256  1.00  0.00     0.012 C 
ENDROOT
BRANCH   1   2
ATOM      2  C   UNL     1       6.045  -7.260   0.842  1.00  0.00     0.061 C 
BRANCH   2   3
ATOM      3  C   UNL     1       7.023  -6.723  -0.212  1.00  0.00     0.258 C 
BRANCH   3   4
ATOM      4  N   UNL     1       6.355  -5.788  -1.117  1.00  0.00    -0.358 N 
ATOM      5  H   UNL     1       6.368  -4.833  -0.690  1.00  0.00     0.344 HD
ATOM      6  H   UNL     1       5.362  -6.079  -1.266  1.00  0.00     0.344 HD
ATOM      7  H   UNL     1       6.856  -5.755  -2.034  1.00  0.00     0.344 HD
ENDBRANCH   3   4
ENDBRANCH   2   3
ENDBRANCH   1   2
BRANCH   1   8
ATOM      8  C   UNL     1       7.503  -5.689   2.262  1.00  0.00     0.072 C 
BRANCH   8   9
ATOM      9  C   UNL     1       6.992  -4.377   2.909  1.00  0.00     0.227 C 
BRANCH   9  10
ATOM     10  N   UNL     1       5.741  -4.620   3.638  1.00  0.00    -0.350 N 
ATOM     11  H   UNL     1       5.549  -5.646   3.707  1.00  0.00     0.345 HD
ATOM     12  H   UNL     1       4.945  -4.152   3.146  1.00  0.00     0.345 HD
ATOM     13  H   UNL     1       5.807  -4.218   4.602  1.00  0.00     0.345 HD
ENDBRANCH   9  10
BRANCH   9  14
ATOM     14  C   UNL     1       6.777  -3.294   1.885  1.00  0.00     0.099 C 
ATOM     15  O   UNL     1       6.146  -3.534   0.821  1.00  0.00    -0.544 OA
ATOM     16  O   UNL     1       7.241  -2.007   2.130  1.00  0.00    -0.544 OA
ENDBRANCH   9  14
ENDBRANCH   8   9
ENDBRANCH   1   8
TORSDOF 7
ENDMDL
MODEL 3
REMARK VINA RESULT:    -3.564      5.589      7.924
REMARK INTER + INTRA:          -5.313
REMARK INTER:                  -4.930
REMARK INTRA:                  -0.383
REMARK UNBOUND:                -0.500
REMARK SMILES [NH3+]CCCC[C@H]([NH3+])C(=O)[O-]
REMARK SMILES IDX 4 1 3 2 2 3 1 4 5 8 6 9 7 10 8 14 9 15 10 16
REMARK H PARENT 1 5 1 6 1 7 7 11 7 12 7 13
REMARK Flexibility Score: inf
ROOT
ATOM      1  C   UNL     1       1.635   9.753  -0.858  1.00  0.00     0.012 C 
ENDROOT
BRANCH   1   2
ATOM      2  C   UNL     1       1.799  10.851   0.203  1.00  0.00     0.061 C 
BRANCH   2   3
ATOM      3  C   UNL     1       0.815  10.647   1.364  1.00  0.00     0.258 C 
BRANCH   3   4
ATOM      4  N   UNL     1       1.507  10.164   2.558  1.00  0.00    -0.358 N 
ATOM      5  H   UNL     1       0.967   9.368   2.967  1.00  0.00     0.344 HD
ATOM      6  H   UNL     1       1.574  10.929   3.269  1.00  0.00     0.344 HD
ATOM      7  H   UNL     1       2.466   9.830   2.307  1.00  0.00     0.344 HD
ENDBRANCH   3   4
ENDBRANCH   2   3
ENDBRANCH   1   2
BRANCH   1   8
ATOM      8  C   UNL     1       1.878   8.334  -0.308  1.00  0.00     0.072 C 
BRANCH   8   9
ATOM      9  C   UNL     1       3.364   7.894  -0.325  1.00  0.00     0.227 C 
BRANCH   9  10
ATOM     10  N   UNL     1       3.528   6.677  -1.130  1.00  0.00    -0.350 N 
ATOM     11  H   UNL     1       3.093   5.856  -0.649  1.00  0.00     0.345 HD
ATOM     12  H   UNL     1       4.546   6.487  -1.284  1.00  0.00     0.345 HD
ATOM     13  H   UNL     1       3.079   6.806  -2.066  1.00  0.00     0.345 HD
ENDBRANCH   9  10
BRANCH   9  14
ATOM     14  C   UNL     1       3.893   7.655   1.065  1.00  0.00     0.099 C 
ATOM     15  O   UNL     1       4.442   6.561   1.363  1.00  0.00    -0.544 OA
ATOM     16  O   UNL     1       3.814   8.662   2.019  1.00  0.00    -0.544 OA
ENDBRANCH   9  14
ENDBRANCH   8   9
ENDBRANCH   1   8
TORSDOF 7
ENDMDL
MODEL 4
REMARK VINA RESULT:    -3.540      2.823      4.618
REMARK INTER + INTRA:          -5.281
REMARK INTER:                  -5.160
REMARK INTRA:                  -0.121
REMARK UNBOUND:                -0.500
REMARK SMILES [NH3+]CCCC[C@H]([NH3+])C(=O)[O-]
REMARK SMILES IDX 4 1 3 2 2 3 1 4 5 8 6 9 7 10 8 14 9 15 10 16
REMARK H PARENT 1 5 1 6 1 7 7 11 7 12 7 13
REMARK Flexibility Score: inf
ROOT
ATOM      1  C   UNL     1       5.710   5.885   1.326  1.00  0.00     0.012 C 
ENDROOT
BRANCH   1   2
ATOM      2  C   UNL     1       5.554   6.677   0.019  1.00  0.00     0.061 C 
BRANCH   2   3
ATOM      3  C   UNL     1       4.153   7.296  -0.085  1.00  0.00     0.258 C 
BRANCH   3   4
ATOM      4  N   UNL     1       3.380   6.662  -1.154  1.00  0.00    -0.358 N 
ATOM      5  H   UNL     1       2.383   6.968  -1.081  1.00  0.00     0.344 HD
ATOM      6  H   UNL     1       3.423   5.622  -1.060  1.00  0.00     0.344 HD
ATOM      7  H   UNL     1       3.755   6.950  -2.087  1.00  0.00     0.344 HD
ENDBRANCH   3   4
ENDBRANCH   2   3
ENDBRANCH   1   2
BRANCH   1   8
ATOM      8  C   UNL     1       5.677   4.358   1.119  1.00  0.00     0.072 C 
BRANCH   8   9
ATOM      9  C   UNL     1       7.010   3.643   1.459  1.00  0.00     0.227 C 
BRANCH   9  10
ATOM     10  N   UNL     1       7.328   2.641   0.435  1.00  0.00    -0.350 N 
ATOM     11  H   UNL     1       8.077   2.993  -0.206  1.00  0.00     0.345 HD
ATOM     12  H   UNL     1       6.471   2.419  -0.125  1.00  0.00     0.345 HD
ATOM     13  H   UNL     1       7.653   1.757   0.891  1.00  0.00     0.345 HD
ENDBRANCH   9  10
BRANCH   9  14
ATOM     14  C   UNL     1       6.965   2.986   2.813  1.00  0.00     0.099 C 
ATOM     15  O   UNL     1       6.592   1.788   2.931  1.00  0.00    -0.544 OA
ATOM     16  O   UNL     1       7.374   3.690   3.939  1.00  0.00    -0.544 OA
ENDBRANCH   9  14
ENDBRANCH   8   9
ENDBRANCH   1   8
TORSDOF 7
ENDMDL
MODEL 5
REMARK VINA RESULT:    -3.485      2.226      4.419
REMARK INTER + INTRA:          -5.208
REMARK INTER:                  -4.736
REMARK INTRA:                  -0.471
REMARK UNBOUND:                -0.500
REMARK SMILES [NH3+]CCCC[C@H]([NH3+])C(=O)[O-]
REMARK SMILES IDX 4 1 3 2 2 3 1 4 5 8 6 9 7 10 8 14 9 15 10 16
REMARK H PARENT 1 5 1 6 1 7 7 11 7 12 7 13
REMARK Flexibility Score: inf
ROOT
ATOM      1  C   UNL     1       5.916   5.909   1.037  1.00  0.00     0.012 C 
ENDROOT
BRANCH   1   2
ATOM      2  C   UNL     1       5.334   6.646   2.253  1.00  0.00     0.061 C 
BRANCH   2   3
ATOM      3  C   UNL     1       6.438   7.011   3.255  1.00  0.00     0.258 C 
BRANCH   3   4
ATOM      4  N   UNL     1       6.346   6.184   4.458  1.00  0.00    -0.358 N 
ATOM      5  H   UNL     1       5.981   5.239   4.196  1.00  0.00     0.344 HD
ATOM      6  H   UNL     1       5.689   6.621   5.145  1.00  0.00     0.344 HD
ATOM      7  H   UNL     1       7.291   6.073   4.892  1.00  0.00     0.344 HD
ENDBRANCH   3   4
ENDBRANCH   2   3
ENDBRANCH   1   2
BRANCH   1   8
ATOM      8  C   UNL     1       5.774   4.377   1.129  1.00  0.00     0.072 C 
BRANCH   8   9
ATOM      9  C   UNL     1       7.095   3.637   1.459  1.00  0.00     0.227 C 
BRANCH   9  10
ATOM     10  N   UNL     1       7.377   2.616   0.443  1.00  0.00    -0.350 N 
ATOM     11  H   UNL     1       6.568   1.960   0.345  1.00  0.00     0.345 HD
ATOM     12  H   UNL     1       8.231   2.073   0.711  1.00  0.00     0.345 HD
ATOM     13  H   UNL     1       7.562   3.073  -0.480  1.00  0.00     0.345 HD
ENDBRANCH   9  10
BRANCH   9  14
ATOM     14  C   UNL     1       7.053   2.995   2.821  1.00  0.00     0.099 C 
ATOM     15  O   UNL     1       7.402   3.642   3.845  1.00  0.00    -0.544 OA
ATOM     16  O   UNL     1       6.586   1.694   2.959  1.00  0.00    -0.544 OA
ENDBRANCH   9  14
ENDBRANCH   8   9
ENDBRANCH   1   8
TORSDOF 7
ENDMDL
MODEL 6
REMARK VINA RESULT:    -3.475      2.769      4.566
REMARK INTER + INTRA:          -5.193
REMARK INTER:                  -5.036
REMARK INTRA:                  -0.158
REMARK UNBOUND:                -0.500
REMARK SMILES [NH3+]CCCC[C@H]([NH3+])C(=O)[O-]
REMARK SMILES IDX 4 1 3 2 2 3 1 4 5 8 6 9 7 10 8 14 9 15 10 16
REMARK H PARENT 1 5 1 6 1 7 7 11 7 12 7 13
REMARK Flexibility Score: inf
ROOT
ATOM      1  C   UNL     1       5.537   6.854   0.423  1.00  0.00     0.012 C 
ENDROOT
BRANCH   1   2
ATOM      2  C   UNL     1       4.340   7.690   0.901  1.00  0.00     0.061 C 
BRANCH   2   3
ATOM      3  C   UNL     1       3.235   7.727  -0.165  1.00  0.00     0.258 C 
BRANCH   3   4
ATOM      4  N   UNL     1       3.379   6.617  -1.105  1.00  0.00    -0.358 N 
ATOM      5  H   UNL     1       2.633   6.690  -1.836  1.00  0.00     0.344 HD
ATOM      6  H   UNL     1       3.273   5.705  -0.604  1.00  0.00     0.344 HD
ATOM      7  H   UNL     1       4.314   6.659  -1.571  1.00  0.00     0.344 HD
ENDBRANCH   3   4
ENDBRANCH   2   3
ENDBRANCH   1   2
BRANCH   1   8
ATOM      8  C   UNL     1       6.277   6.139   1.571  1.00  0.00     0.072 C 
BRANCH   8   9
ATOM      9  C   UNL     1       5.629   4.800   2.005  1.00  0.00     0.227 C 
BRANCH   9  10
ATOM     10  N   UNL     1       5.300   4.831   3.436  1.00  0.00    -0.350 N 
ATOM     11  H   UNL     1       5.921   4.179   3.970  1.00  0.00     0.345 HD
ATOM     12  H   UNL     1       4.302   4.551   3.578  1.00  0.00     0.345 HD
ATOM     13  H   UNL     1       5.420   5.801   3.807  1.00  0.00     0.345 HD
ENDBRANCH   9  10
BRANCH   9  14
ATOM     14  C   UNL     1       6.526   3.624   1.718  1.00  0.00     0.099 C 
ATOM     15  O   UNL     1       6.534   2.623   2.483  1.00  0.00    -0.544 OA
ATOM     16  O   UNL     1       7.323   3.623   0.580  1.00  0.00    -0.544 OA
ENDBRANCH   9  14
ENDBRANCH   8   9
ENDBRANCH   1   8
TORSDOF 7
ENDMDL
MODEL 7
REMARK VINA RESULT:    -3.473      3.716      4.895
REMARK INTER + INTRA:          -5.191
REMARK INTER:                  -5.070
REMARK INTRA:                  -0.121
REMARK UNBOUND:                -0.500
REMARK SMILES [NH3+]CCCC[C@H]([NH3+])C(=O)[O-]
REMARK SMILES IDX 4 1 3 2 2 3 1 4 5 8 6 9 7 10 8 14 9 15 10 16
REMARK H PARENT 1 5 1 6 1 7 7 11 7 12 7 13
REMARK Flexibility Score: inf
ROOT
ATOM      1  C   UNL     1       5.575   7.257   1.119  1.00  0.00     0.012 C 
ENDROOT
BRANCH   1   2
ATOM      2  C   UNL     1       5.771   5.903   0.421  1.00  0.00     0.061 C 
BRANCH   2   3
ATOM      3  C   UNL     1       6.375   4.870   1.383  1.00  0.00     0.258 C 
BRANCH   3   4
ATOM      4  N   UNL     1       5.501   3.705   1.515  1.00  0.00    -0.358 N 
ATOM      5  H   UNL     1       6.048   2.912   1.921  1.00  0.00     0.344 HD
ATOM      6  H   UNL     1       5.137   3.420   0.577  1.00  0.00     0.344 HD
ATOM      7  H   UNL     1       4.701   3.925   2.153  1.00  0.00     0.344 HD
ENDBRANCH   3   4
ENDBRANCH   2   3
ENDBRANCH   1   2
BRANCH   1   8
ATOM      8  C   UNL     1       4.158   7.446   1.696  1.00  0.00     0.072 C 
BRANCH   8   9
ATOM      9  C   UNL     1       3.359   8.604   1.046  1.00  0.00     0.227 C 
BRANCH   9  10
ATOM     10  N   UNL     1       2.516   9.268   2.048  1.00  0.00    -0.350 N 
ATOM     11  H   UNL     1       1.676   9.699   1.595  1.00  0.00     0.345 HD
ATOM     12  H   UNL     1       3.064  10.013   2.538  1.00  0.00     0.345 HD
ATOM     13  H   UNL     1       2.201   8.574   2.765  1.00  0.00     0.345 HD
ENDBRANCH   9  10
BRANCH   9  14
ATOM     14  C   UNL     1       2.502   8.122  -0.095  1.00  0.00     0.099 C 
ATOM     15  O   UNL     1       3.016   7.502  -1.065  1.00  0.00    -0.544 OA
ATOM     16  O   UNL     1       1.128   8.325  -0.063  1.00  0.00    -0.544 OA
ENDBRANCH   9  14
ENDBRANCH   8   9
ENDBRANCH   1   8
TORSDOF 7
ENDMDL
MODEL 8
REMARK VINA RESULT:    -3.371      3.653      4.813
REMARK INTER + INTRA:          -5.054
REMARK INTER:                  -4.851
REMARK INTRA:                  -0.203
REMARK UNBOUND:                -0.500
REMARK SMILES [NH3+]CCCC[C@H]([NH3+])C(=O)[O-]
REMARK SMILES IDX 4 1 3 2 2 3 1 4 5 8 6 9 7 10 8 14 9 15 10 16
REMARK H PARENT 1 5 1 6 1 7 7 11 7 12 7 13
REMARK Flexibility Score: inf
ROOT
ATOM      1  C   UNL     1       6.212   7.362   1.133  1.00  0.00     0.012 C 
ENDROOT
BRANCH   1   2
ATOM      2  C   UNL     1       5.702   6.080   1.810  1.00  0.00     0.061 C 
BRANCH   2   3
ATOM      3  C   UNL     1       6.322   4.833   1.164  1.00  0.00     0.258 C 
BRANCH   3   4
ATOM      4  N   UNL     1       5.583   3.628   1.539  1.00  0.00    -0.358 N 
ATOM      5  H   UNL     1       6.192   2.792   1.385  1.00  0.00     0.344 HD
ATOM      6  H   UNL     1       4.724   3.535   0.949  1.00  0.00     0.344 HD
ATOM      7  H   UNL     1       5.315   3.670   2.549  1.00  0.00     0.344 HD
ENDBRANCH   3   4
ENDBRANCH   2   3
ENDBRANCH   1   2
BRANCH   1   8
ATOM      8  C   UNL     1       5.179   8.001   0.185  1.00  0.00     0.072 C 
BRANCH   8   9
ATOM      9  C   UNL     1       3.784   7.326   0.219  1.00  0.00     0.227 C 
BRANCH   9  10
ATOM     10  N   UNL     1       3.402   6.873  -1.124  1.00  0.00    -0.350 N 
ATOM     11  H   UNL     1       2.810   6.012  -1.068  1.00  0.00     0.345 HD
ATOM     12  H   UNL     1       4.259   6.667  -1.688  1.00  0.00     0.345 HD
ATOM     13  H   UNL     1       2.867   7.626  -1.615  1.00  0.00     0.345 HD
ENDBRANCH   9  10
BRANCH   9  14
ATOM     14  C   UNL     1       2.727   8.252   0.760  1.00  0.00     0.099 C 
ATOM     15  O   UNL     1       1.581   8.292   0.237  1.00  0.00    -0.544 OA
ATOM     16  O   UNL     1       3.000   9.041   1.870  1.00  0.00    -0.544 OA
ENDBRANCH   9  14
ENDBRANCH   8   9
ENDBRANCH   1   8
TORSDOF 7
ENDMDL
MODEL 9
REMARK VINA RESULT:    -3.294      3.417      5.225
REMARK INTER + INTRA:          -4.950
REMARK INTER:                  -4.361
REMARK INTRA:                  -0.589
REMARK UNBOUND:                -0.500
REMARK SMILES [NH3+]CCCC[C@H]([NH3+])C(=O)[O-]
REMARK SMILES IDX 4 1 3 2 2 3 1 4 5 8 6 9 7 10 8 14 9 15 10 16
REMARK H PARENT 1 5 1 6 1 7 7 11 7 12 7 13
REMARK Flexibility Score: inf
ROOT
ATOM      1  C   UNL     1       4.263   8.386   1.653  1.00  0.00     0.012 C 
ENDROOT
BRANCH   1   2
ATOM      2  C   UNL     1       3.003   8.106   0.821  1.00  0.00     0.061 C 
BRANCH   2   3
ATOM      3  C   UNL     1       3.335   8.044  -0.677  1.00  0.00     0.258 C 
BRANCH   3   4
ATOM      4  N   UNL     1       3.342   6.661  -1.154  1.00  0.00    -0.358 N 
ATOM      5  H   UNL     1       3.199   6.657  -2.190  1.00  0.00     0.344 HD
ATOM      6  H   UNL     1       2.567   6.122  -0.703  1.00  0.00     0.344 HD
ATOM      7  H   UNL     1       4.260   6.211  -0.937  1.00  0.00     0.344 HD
ENDBRANCH   3   4
ENDBRANCH   2   3
ENDBRANCH   1   2
BRANCH   1   8
ATOM      8  C   UNL     1       4.896   7.112   2.247  1.00  0.00     0.072 C 
BRANCH   8   9
ATOM      9  C   UNL     1       6.228   6.694   1.575  1.00  0.00     0.227 C 
BRANCH   9  10
ATOM     10  N   UNL     1       6.682   7.736   0.646  1.00  0.00    -0.350 N 
ATOM     11  H   UNL     1       5.932   8.453   0.503  1.00  0.00     0.345 HD
ATOM     12  H   UNL     1       6.930   7.308  -0.276  1.00  0.00     0.345 HD
ATOM     13  H   UNL     1       7.537   8.205   1.025  1.00  0.00     0.345 HD
ENDBRANCH   9  10
BRANCH   9  14
ATOM     14  C   UNL     1       6.100   5.385   0.841  1.00  0.00     0.099 C 
ATOM     15  O   UNL     1       7.116   4.819   0.356  1.00  0.00    -0.544 OA
ATOM     16  O   UNL     1       4.857   4.772   0.732  1.00  0.00    -0.544 OA
ENDBRANCH   9  14
ENDBRANCH   8   9
ENDBRANCH   1   8
TORSDOF 7
ENDMDL
