MODEL 1
REMARK VINA RESULT:    -3.461      0.000      0.000
REMARK INTER + INTRA:          -3.880
REMARK INTER:                  -3.866
REMARK INTRA:                  -0.014
REMARK UNBOUND:                -0.014
REMARK SMILES CCCC(=O)[O-]
REMARK SMILES IDX 3 1 4 2 5 3 6 4 2 5 1 6
REMARK H PARENT
REMARK Flexibility Score: inf
ROOT
ATOM      1  C   UNL     1      -2.772   3.853  30.965  1.00  0.00     0.052 C 
ENDROOT
BRANCH   1   2
ATOM      2  C   UNL     1      -1.485   3.223  31.401  1.00  0.00     0.041 C 
ATOM      3  O   UNL     1      -0.643   2.843  30.545  1.00  0.00    -0.550 OA
ATOM      4  O   UNL     1      -1.202   3.087  32.755  1.00  0.00    -0.550 OA
ENDBRANCH   1   2
BRANCH   1   5
ATOM      5  C   UNL     1      -3.441   4.628  32.108  1.00  0.00     0.003 C 
ATOM      6  C   UNL     1      -3.946   6.000  31.662  1.00  0.00     0.004 C 
ENDBRANCH   1   5
TORSDOF 2
ENDMDL
MODEL 2
REMARK VINA RESULT:    -3.400     15.700     16.570
REMARK INTER + INTRA:          -3.812
REMARK INTER:                  -3.794
REMARK INTRA:                  -0.018
REMARK UNBOUND:                -0.014
REMARK SMILES CCCC(=O)[O-]
REMARK SMILES IDX 3 1 4 2 5 3 6 4 2 5 1 6
REMARK H PARENT
REMARK Flexibility Score: inf
ROOT
ATOM      1  C   UNL     1       4.349   2.082  15.811  1.00  0.00     0.052 C 
ENDROOT
BRANCH   1   2
ATOM      2  C   UNL     1       3.460   1.761  16.972  1.00  0.00     0.041 C 
ATOM      3  O   UNL     1       3.913   1.791  18.147  1.00  0.00    -0.550 OA
ATOM      4  O   UNL     1       2.119   1.460  16.759  1.00  0.00    -0.550 OA
ENDBRANCH   1   2
BRANCH   1   5
ATOM      5  C   UNL     1       4.303   3.574  15.457  1.00  0.00     0.003 C 
ATOM      6  C   UNL     1       3.100   3.929  14.584  1.00  0.00     0.004 C 
ENDBRANCH   1   5
TORSDOF 2
ENDMDL
MODEL 3
REMARK VINA RESULT:    -3.364     15.719     16.565
REMARK INTER + INTRA:          -3.772
REMARK INTER:                  -3.753
REMARK INTRA:                  -0.019
REMARK UNBOUND:                -0.014
REMARK SMILES CCCC(=O)[O-]
REMARK SMILES IDX 3 1 4 2 5 3 6 4 2 5 1 6
REMARK H PARENT
REMARK Flexibility Score: inf
ROOT
ATOM      1  C   UNL     1       4.322   2.064  15.789  1.00  0.00     0.052 C 
ENDROOT
BRANCH   1   2
ATOM      2  C   UNL     1       3.385   1.751  16.914  1.00  0.00     0.041 C 
ATOM      3  O   UNL     1       2.183   1.458  16.677  1.00  0.00    -0.550 OA
ATOM      4  O   UNL     1       3.848   1.750  18.225  1.00  0.00    -0.550 OA
ENDBRANCH   1   2
BRANCH   1   5
ATOM      5  C   UNL     1       4.346   3.564  15.470  1.00  0.00     0.003 C 
ATOM      6  C   UNL     1       3.191   3.984  14.560  1.00  0.00     0.004 C 
ENDBRANCH   1   5
TORSDOF 2
ENDMDL
MODEL 4
REMARK VINA RESULT:    -3.302     15.065     15.982
REMARK INTER + INTRA:          -3.702
REMARK INTER:                  -3.669
REMARK INTRA:                  -0.033
REMARK UNBOUND:                -0.014
REMARK SMILES CCCC(=O)[O-]
REMARK SMILES IDX 3 1 4 2 5 3 6 4 2 5 1 6
REMARK H PARENT
REMARK Flexibility Score: inf
ROOT
ATOM      1  C   UNL     1       5.424   0.722  17.309  1.00  0.00     0.052 C 
ENDROOT
BRANCH   1   2
ATOM      2  C   UNL     1       4.192   1.378  17.850  1.00  0.00     0.041 C 
ATOM      3  O   UNL     1       3.252   1.701  17.076  1.00  0.00    -0.550 OA
ATOM      4  O   UNL     1       4.067   1.601  19.216  1.00  0.00    -0.550 OA
ENDBRANCH   1   2
BRANCH   1   5
ATOM      5  C   UNL     1       5.420  -0.791  17.560  1.00  0.00     0.003 C 
ATOM      6  C   UNL     1       6.196  -1.174  18.820  1.00  0.00     0.004 C 
ENDBRANCH   1   5
TORSDOF 2
ENDMDL
MODEL 5
REMARK VINA RESULT:    -3.287      2.566      3.406
REMARK INTER + INTRA:          -3.686
REMARK INTER:                  -3.680
REMARK INTRA:                  -0.006
REMARK UNBOUND:                -0.014
REMARK SMILES CCCC(=O)[O-]
REMARK SMILES IDX 3 1 4 2 5 3 6 4 2 5 1 6
REMARK H PARENT
REMARK Flexibility Score: inf
ROOT
ATOM      1  C   UNL     1      -3.209   4.152  31.029  1.00  0.00     0.052 C 
ENDROOT
BRANCH   1   2
ATOM      2  C   UNL     1      -3.825   5.217  31.883  1.00  0.00     0.041 C 
ATOM      3  O   UNL     1      -3.820   6.418  31.503  1.00  0.00    -0.550 OA
ATOM      4  O   UNL     1      -4.435   4.878  33.085  1.00  0.00    -0.550 OA
ENDBRANCH   1   2
BRANCH   1   5
ATOM      5  C   UNL     1      -1.999   3.504  31.714  1.00  0.00     0.003 C 
ATOM      6  C   UNL     1      -0.925   3.076  30.714  1.00  0.00     0.004 C 
ENDBRANCH   1   5
TORSDOF 2
ENDMDL
MODEL 6
REMARK VINA RESULT:    -3.270     15.555     16.351
REMARK INTER + INTRA:          -3.667
REMARK INTER:                  -3.629
REMARK INTRA:                  -0.037
REMARK UNBOUND:                -0.014
REMARK SMILES CCCC(=O)[O-]
REMARK SMILES IDX 3 1 4 2 5 3 6 4 2 5 1 6
REMARK H PARENT
REMARK Flexibility Score: inf
ROOT
ATOM      1  C   UNL     1       4.258   2.018  16.609  1.00  0.00     0.052 C 
ENDROOT
BRANCH   1   2
ATOM      2  C   UNL     1       2.856   2.004  16.083  1.00  0.00     0.041 C 
ATOM      3  O   UNL     1       1.996   1.235  16.587  1.00  0.00    -0.550 OA
ATOM      4  O   UNL     1       2.491   2.866  15.055  1.00  0.00    -0.550 OA
ENDBRANCH   1   2
BRANCH   1   5
ATOM      5  C   UNL     1       4.314   1.607  18.086  1.00  0.00     0.003 C 
ATOM      6  C   UNL     1       5.147   0.344  18.307  1.00  0.00     0.004 C 
ENDBRANCH   1   5
TORSDOF 2
ENDMDL
MODEL 7
REMARK VINA RESULT:    -3.220     15.905     16.992
REMARK INTER + INTRA:          -3.611
REMARK INTER:                  -3.604
REMARK INTRA:                  -0.007
REMARK UNBOUND:                -0.014
REMARK SMILES CCCC(=O)[O-]
REMARK SMILES IDX 3 1 4 2 5 3 6 4 2 5 1 6
REMARK H PARENT
REMARK Flexibility Score: inf
ROOT
ATOM      1  C   UNL     1       4.670   2.025  16.048  1.00  0.00     0.052 C 
ENDROOT
BRANCH   1   2
ATOM      2  C   UNL     1       3.648   1.750  17.107  1.00  0.00     0.041 C 
ATOM      3  O   UNL     1       3.994   1.650  18.314  1.00  0.00    -0.550 OA
ATOM      4  O   UNL     1       2.305   1.638  16.764  1.00  0.00    -0.550 OA
ENDBRANCH   1   2
BRANCH   1   5
ATOM      5  C   UNL     1       5.828   1.020  16.103  1.00  0.00     0.003 C 
ATOM      6  C   UNL     1       6.217   0.506  14.717  1.00  0.00     0.004 C 
ENDBRANCH   1   5
TORSDOF 2
ENDMDL
MODEL 8
REMARK VINA RESULT:    -3.145     16.485     17.442
REMARK INTER + INTRA:          -3.526
REMARK INTER:                  -3.473
REMARK INTRA:                  -0.054
REMARK UNBOUND:                -0.014
REMARK SMILES CCCC(=O)[O-]
REMARK SMILES IDX 3 1 4 2 5 3 6 4 2 5 1 6
REMARK H PARENT
REMARK Flexibility Score: inf
ROOT
ATOM      1  C   UNL     1       3.296   2.473  15.132  1.00  0.00     0.052 C 
ENDROOT
BRANCH   1   2
ATOM      2  C   UNL     1       2.851   1.645  16.298  1.00  0.00     0.041 C 
ATOM      3  O   UNL     1       3.553   1.590  17.342  1.00  0.00    -0.550 OA
ATOM      4  O   UNL     1       1.643   0.960  16.243  1.00  0.00    -0.550 OA
ENDBRANCH   1   2
BRANCH   1   5
ATOM      5  C   UNL     1       4.441   1.803  14.363  1.00  0.00     0.003 C 
ATOM      6  C   UNL     1       3.947   0.697  13.431  1.00  0.00     0.004 C 
ENDBRANCH   1   5
TORSDOF 2
ENDMDL
MODEL 9
REMARK VINA RESULT:    -3.105     17.097     18.026
REMARK INTER + INTRA:          -3.482
REMARK INTER:                  -3.471
REMARK INTRA:                  -0.010
REMARK UNBOUND:                -0.014
REMARK SMILES CCCC(=O)[O-]
REMARK SMILES IDX 3 1 4 2 5 3 6 4 2 5 1 6
REMARK H PARENT
REMARK Flexibility Score: inf
ROOT
ATOM      1  C   UNL     1       2.858   0.149  14.249  1.00  0.00     0.052 C 
ENDROOT
BRANCH   1   2
ATOM      2  C   UNL     1       1.582   0.139  15.031  1.00  0.00     0.041 C 
ATOM      3  O   UNL     1       0.599  -0.541  14.635  1.00  0.00    -0.550 OA
ATOM      4  O   UNL     1       1.489   0.856  16.219  1.00  0.00    -0.550 OA
ENDBRANCH   1   2
BRANCH   1   5
ATOM      5  C   UNL     1       3.650   1.444  14.470  1.00  0.00     0.003 C 
ATOM      6  C   UNL     1       5.111   1.312  14.040  1.00  0.00     0.004 C 
ENDBRANCH   1   5
TORSDOF 2
ENDMDL
