MODEL 1
REMARK VINA RESULT:    -3.322      0.000      0.000
REMARK INTER + INTRA:         -14.423
REMARK INTER:                  -8.759
REMARK INTRA:                  -5.664
REMARK UNBOUND:                -5.664
REMARK SMILES CCCCCCCCCCCCCCCCCCCCCCCCCCCCCC(=O)[O-]
REMARK SMILES IDX 16 1 17 2 18 3 19 4 20 5 21 6 22 7 23 8 24 9 25 10 26 11
REMARK SMILES IDX 27 12 28 13 29 14 30 15 31 16 32 17 15 18 14 19 13 20 12 21
REMARK SMILES IDX 11 22 10 23 9 24 8 25 7 26 6 27 5 28 4 29 3 30 2 31 1 32
REMARK H PARENT
REMARK Flexibility Score: inf
ROOT
ATOM      1  C   UNL     1       2.446 107.976 180.245  1.00  0.00     0.000 C 
ENDROOT
BRANCH   1   2
ATOM      2  C   UNL     1       1.079 108.055 179.546  1.00  0.00     0.000 C 
BRANCH   2   3
ATOM      3  C   UNL     1       0.651 106.678 179.014  1.00  0.00     0.000 C 
BRANCH   3   4
ATOM      4  C   UNL     1       1.746 105.612 179.207  1.00  0.00     0.000 C 
BRANCH   4   5
ATOM      5  C   UNL     1       1.953 104.710 177.970  1.00  0.00     0.000 C 
BRANCH   5   6
ATOM      6  C   UNL     1       1.592 105.394 176.637  1.00  0.00     0.000 C 
BRANCH   6   7
ATOM      7  C   UNL     1       2.796 105.912 175.830  1.00  0.00     0.000 C 
BRANCH   7   8
ATOM      8  C   UNL     1       3.427 107.173 176.445  1.00  0.00     0.000 C 
BRANCH   8   9
ATOM      9  C   UNL     1       4.928 107.002 176.732  1.00  0.00     0.000 C 
BRANCH   9  10
ATOM     10  C   UNL     1       5.226 106.786 178.224  1.00  0.00     0.000 C 
BRANCH  10  11
ATOM     11  C   UNL     1       5.400 105.295 178.539  1.00  0.00     0.000 C 
BRANCH  11  12
ATOM     12  C   UNL     1       6.017 104.548 177.347  1.00  0.00     0.000 C 
BRANCH  12  13
ATOM     13  C   UNL     1       5.311 103.213 177.048  1.00  0.00     0.006 C 
BRANCH  13  14
ATOM     14  C   UNL     1       5.127 102.918 175.551  1.00  0.00     0.053 C 
BRANCH  14  15
ATOM     15  C   UNL     1       5.707 101.592 175.167  1.00  0.00     0.041 C 
ATOM     16  O   UNL     1       6.955 101.425 175.157  1.00  0.00    -0.550 OA
ATOM     17  O   UNL     1       4.870 100.551 174.787  1.00  0.00    -0.550 OA
ENDBRANCH  14  15
ENDBRANCH  13  14
ENDBRANCH  12  13
ENDBRANCH  11  12
ENDBRANCH  10  11
ENDBRANCH   9  10
ENDBRANCH   8   9
ENDBRANCH   7   8
ENDBRANCH   6   7
ENDBRANCH   5   6
ENDBRANCH   4   5
ENDBRANCH   3   4
ENDBRANCH   2   3
ENDBRANCH   1   2
BRANCH   1  18
ATOM     18  C   UNL     1       2.442 108.624 181.642  1.00  0.00     0.000 C 
BRANCH  18  19
ATOM     19  C   UNL     1       3.433 108.007 182.645  1.00  0.00     0.000 C 
BRANCH  19  20
ATOM     20  C   UNL     1       4.533 107.178 181.966  1.00  0.00     0.000 C 
BRANCH  20  21
ATOM     21  C   UNL     1       5.549 106.667 182.999  1.00  0.00     0.000 C 
BRANCH  21  22
ATOM     22  C   UNL     1       6.803 107.562 183.089  1.00  0.00     0.000 C 
BRANCH  22  23
ATOM     23  C   UNL     1       6.792 108.534 184.286  1.00  0.00     0.000 C 
BRANCH  23  24
ATOM     24  C   UNL     1       7.074 110.004 183.934  1.00  0.00    -0.000 C 
BRANCH  24  25
ATOM     25  C   UNL     1       6.587 111.031 184.976  1.00  0.00    -0.000 C 
BRANCH  25  26
ATOM     26  C   UNL     1       5.511 112.003 184.444  1.00  0.00    -0.000 C 
BRANCH  26  27
ATOM     27  C   UNL     1       4.453 111.293 183.581  1.00  0.00    -0.000 C 
BRANCH  27  28
ATOM     28  C   UNL     1       4.149 112.050 182.278  1.00  0.00    -0.000 C 
BRANCH  28  29
ATOM     29  C   UNL     1       5.358 112.117 181.333  1.00  0.00    -0.000 C 
BRANCH  29  30
ATOM     30  C   UNL     1       4.975 111.649 179.921  1.00  0.00    -0.000 C 
BRANCH  30  31
ATOM     31  C   UNL     1       5.262 110.156 179.697  1.00  0.00    -0.003 C 
ATOM     32  C   UNL     1       6.675 109.759 180.127  1.00  0.00     0.004 C 
ENDBRANCH  30  31
ENDBRANCH  29  30
ENDBRANCH  28  29
ENDBRANCH  27  28
ENDBRANCH  26  27
ENDBRANCH  25  26
ENDBRANCH  24  25
ENDBRANCH  23  24
ENDBRANCH  22  23
ENDBRANCH  21  22
ENDBRANCH  20  21
ENDBRANCH  19  20
ENDBRANCH  18  19
ENDBRANCH   1  18
TORSDOF 28
ENDMDL
MODEL 2
REMARK VINA RESULT:    -3.241      1.362      2.860
REMARK INTER + INTRA:         -14.210
REMARK INTER:                  -8.469
REMARK INTRA:                  -5.741
REMARK UNBOUND:                -5.664
REMARK SMILES CCCCCCCCCCCCCCCCCCCCCCCCCCCCCC(=O)[O-]
REMARK SMILES IDX 16 1 17 2 18 3 19 4 20 5 21 6 22 7 23 8 24 9 25 10 26 11
REMARK SMILES IDX 27 12 28 13 29 14 30 15 31 16 32 17 15 18 14 19 13 20 12 21
REMARK SMILES IDX 11 22 10 23 9 24 8 25 7 26 6 27 5 28 4 29 3 30 2 31 1 32
REMARK H PARENT
REMARK Flexibility Score: inf
ROOT
ATOM      1  C   UNL     1       2.329 108.441 179.134  1.00  0.00     0.000 C 
ENDROOT
BRANCH   1   2
ATOM      2  C   UNL     1       0.918 107.991 179.547  1.00  0.00     0.000 C 
BRANCH   2   3
ATOM      3  C   UNL     1       0.532 106.676 178.852  1.00  0.00     0.000 C 
BRANCH   3   4
ATOM      4  C   UNL     1       1.647 105.618 178.946  1.00  0.00     0.000 C 
BRANCH   4   5
ATOM      5  C   UNL     1       1.768 104.735 177.684  1.00  0.00     0.000 C 
BRANCH   5   6
ATOM      6  C   UNL     1       1.276 105.424 176.397  1.00  0.00     0.000 C 
BRANCH   6   7
ATOM      7  C   UNL     1       2.381 105.754 175.378  1.00  0.00     0.000 C 
BRANCH   7   8
ATOM      8  C   UNL     1       3.137 107.051 175.718  1.00  0.00     0.000 C 
BRANCH   8   9
ATOM      9  C   UNL     1       4.653 106.833 175.847  1.00  0.00     0.000 C 
BRANCH   9  10
ATOM     10  C   UNL     1       5.133 106.852 177.307  1.00  0.00     0.000 C 
BRANCH  10  11
ATOM     11  C   UNL     1       5.244 105.428 177.867  1.00  0.00     0.000 C 
BRANCH  11  12
ATOM     12  C   UNL     1       5.910 104.487 176.852  1.00  0.00     0.000 C 
BRANCH  12  13
ATOM     13  C   UNL     1       5.082 103.216 176.584  1.00  0.00     0.006 C 
BRANCH  13  14
ATOM     14  C   UNL     1       5.043 102.790 175.107  1.00  0.00     0.053 C 
BRANCH  14  15
ATOM     15  C   UNL     1       5.678 101.451 174.895  1.00  0.00     0.041 C 
ATOM     16  O   UNL     1       4.981 100.404 174.944  1.00  0.00    -0.550 OA
ATOM     17  O   UNL     1       7.046 101.357 174.675  1.00  0.00    -0.550 OA
ENDBRANCH  14  15
ENDBRANCH  13  14
ENDBRANCH  12  13
ENDBRANCH  11  12
ENDBRANCH  10  11
ENDBRANCH   9  10
ENDBRANCH   8   9
ENDBRANCH   7   8
ENDBRANCH   6   7
ENDBRANCH   5   6
ENDBRANCH   4   5
ENDBRANCH   3   4
ENDBRANCH   2   3
ENDBRANCH   1   2
BRANCH   1  18
ATOM     18  C   UNL     1       3.286 108.588 180.332  1.00  0.00     0.000 C 
BRANCH  18  19
ATOM     19  C   UNL     1       2.618 108.465 181.713  1.00  0.00     0.000 C 
BRANCH  19  20
ATOM     20  C   UNL     1       3.605 108.658 182.873  1.00  0.00     0.000 C 
BRANCH  20  21
ATOM     21  C   UNL     1       4.184 110.082 182.867  1.00  0.00     0.000 C 
BRANCH  21  22
ATOM     22  C   UNL     1       5.539 110.174 183.601  1.00  0.00     0.000 C 
BRANCH  22  23
ATOM     23  C   UNL     1       6.071 108.816 184.102  1.00  0.00     0.000 C 
BRANCH  23  24
ATOM     24  C   UNL     1       7.580 108.775 184.397  1.00  0.00    -0.000 C 
BRANCH  24  25
ATOM     25  C   UNL     1       8.275 107.438 184.070  1.00  0.00    -0.000 C 
BRANCH  25  26
ATOM     26  C   UNL     1       7.321 106.351 183.530  1.00  0.00    -0.000 C 
BRANCH  26  27
ATOM     27  C   UNL     1       7.981 105.471 182.454  1.00  0.00    -0.000 C 
BRANCH  27  28
ATOM     28  C   UNL     1       7.322 105.631 181.075  1.00  0.00    -0.000 C 
BRANCH  28  29
ATOM     29  C   UNL     1       6.470 106.905 180.968  1.00  0.00    -0.000 C 
BRANCH  29  30
ATOM     30  C   UNL     1       7.128 107.925 180.026  1.00  0.00    -0.000 C 
BRANCH  30  31
ATOM     31  C   UNL     1       7.432 109.260 180.722  1.00  0.00    -0.003 C 
ATOM     32  C   UNL     1       8.928 109.473 180.957  1.00  0.00     0.004 C 
ENDBRANCH  30  31
ENDBRANCH  29  30
ENDBRANCH  28  29
ENDBRANCH  27  28
ENDBRANCH  26  27
ENDBRANCH  25  26
ENDBRANCH  24  25
ENDBRANCH  23  24
ENDBRANCH  22  23
ENDBRANCH  21  22
ENDBRANCH  20  21
ENDBRANCH  19  20
ENDBRANCH  18  19
ENDBRANCH   1  18
TORSDOF 28
ENDMDL
MODEL 3
REMARK VINA RESULT:    -3.223      1.360      2.572
REMARK INTER + INTRA:         -14.164
REMARK INTER:                  -8.907
REMARK INTRA:                  -5.256
REMARK UNBOUND:                -5.664
REMARK SMILES CCCCCCCCCCCCCCCCCCCCCCCCCCCCCC(=O)[O-]
REMARK SMILES IDX 16 1 17 2 18 3 19 4 20 5 21 6 22 7 23 8 24 9 25 10 26 11
REMARK SMILES IDX 27 12 28 13 29 14 30 15 31 16 32 17 15 18 14 19 13 20 12 21
REMARK SMILES IDX 11 22 10 23 9 24 8 25 7 26 6 27 5 28 4 29 3 30 2 31 1 32
REMARK H PARENT
REMARK Flexibility Score: inf
ROOT
ATOM      1  C   UNL     1       2.759 104.866 179.204  1.00  0.00     0.000 C 
ENDROOT
BRANCH   1   2
ATOM      2  C   UNL     1       1.962 104.858 177.889  1.00  0.00     0.000 C 
BRANCH   2   3
ATOM      3  C   UNL     1       0.997 106.052 177.822  1.00  0.00     0.000 C 
BRANCH   3   4
ATOM      4  C   UNL     1       0.710 106.650 179.212  1.00  0.00     0.000 C 
BRANCH   4   5
ATOM      5  C   UNL     1       1.159 108.121 179.356  1.00  0.00     0.000 C 
BRANCH   5   6
ATOM      6  C   UNL     1       1.881 108.673 178.112  1.00  0.00     0.000 C 
BRANCH   6   7
ATOM      7  C   UNL     1       3.408 108.801 178.255  1.00  0.00     0.000 C 
BRANCH   7   8
ATOM      8  C   UNL     1       4.151 108.578 176.926  1.00  0.00     0.000 C 
BRANCH   8   9
ATOM      9  C   UNL     1       3.196 108.278 175.759  1.00  0.00     0.000 C 
BRANCH   9  10
ATOM     10  C   UNL     1       3.447 106.899 175.127  1.00  0.00     0.000 C 
BRANCH  10  11
ATOM     11  C   UNL     1       4.695 106.239 175.728  1.00  0.00     0.000 C 
BRANCH  11  12
ATOM     12  C   UNL     1       5.355 105.288 174.719  1.00  0.00     0.000 C 
BRANCH  12  13
ATOM     13  C   UNL     1       5.718 103.924 175.334  1.00  0.00     0.006 C 
BRANCH  13  14
ATOM     14  C   UNL     1       5.061 102.723 174.635  1.00  0.00     0.053 C 
BRANCH  14  15
ATOM     15  C   UNL     1       5.552 101.419 175.183  1.00  0.00     0.041 C 
ATOM     16  O   UNL     1       4.956 100.347 174.900  1.00  0.00    -0.550 OA
ATOM     17  O   UNL     1       6.649 101.392 176.035  1.00  0.00    -0.550 OA
ENDBRANCH  14  15
ENDBRANCH  13  14
ENDBRANCH  12  13
ENDBRANCH  11  12
ENDBRANCH  10  11
ENDBRANCH   9  10
ENDBRANCH   8   9
ENDBRANCH   7   8
ENDBRANCH   6   7
ENDBRANCH   5   6
ENDBRANCH   4   5
ENDBRANCH   3   4
ENDBRANCH   2   3
ENDBRANCH   1   2
BRANCH   1  18
ATOM     18  C   UNL     1       4.261 105.134 178.992  1.00  0.00     0.000 C 
BRANCH  18  19
ATOM     19  C   UNL     1       4.911 106.048 180.046  1.00  0.00     0.000 C 
BRANCH  19  20
ATOM     20  C   UNL     1       3.940 106.455 181.164  1.00  0.00     0.000 C 
BRANCH  20  21
ATOM     21  C   UNL     1       4.693 106.685 182.485  1.00  0.00     0.000 C 
BRANCH  21  22
ATOM     22  C   UNL     1       6.222 106.545 182.327  1.00  0.00     0.000 C 
BRANCH  22  23
ATOM     23  C   UNL     1       7.029 107.588 183.124  1.00  0.00     0.000 C 
BRANCH  23  24
ATOM     24  C   UNL     1       6.185 108.581 183.942  1.00  0.00    -0.000 C 
BRANCH  24  25
ATOM     25  C   UNL     1       6.972 109.418 184.970  1.00  0.00    -0.000 C 
BRANCH  25  26
ATOM     26  C   UNL     1       7.161 110.896 184.563  1.00  0.00    -0.000 C 
BRANCH  26  27
ATOM     27  C   UNL     1       5.837 111.679 184.562  1.00  0.00    -0.000 C 
BRANCH  27  28
ATOM     28  C   UNL     1       5.723 112.645 183.372  1.00  0.00    -0.000 C 
BRANCH  28  29
ATOM     29  C   UNL     1       5.830 111.930 182.016  1.00  0.00    -0.000 C 
BRANCH  29  30
ATOM     30  C   UNL     1       4.435 111.639 181.441  1.00  0.00    -0.000 C 
BRANCH  30  31
ATOM     31  C   UNL     1       4.015 110.173 181.626  1.00  0.00    -0.003 C 
ATOM     32  C   UNL     1       2.973 109.995 182.731  1.00  0.00     0.004 C 
ENDBRANCH  30  31
ENDBRANCH  29  30
ENDBRANCH  28  29
ENDBRANCH  27  28
ENDBRANCH  26  27
ENDBRANCH  25  26
ENDBRANCH  24  25
ENDBRANCH  23  24
ENDBRANCH  22  23
ENDBRANCH  21  22
ENDBRANCH  20  21
ENDBRANCH  19  20
ENDBRANCH  18  19
ENDBRANCH   1  18
TORSDOF 28
ENDMDL
MODEL 4
REMARK VINA RESULT:    -3.221      2.140      4.212
REMARK INTER + INTRA:         -14.157
REMARK INTER:                  -8.438
REMARK INTRA:                  -5.719
REMARK UNBOUND:                -5.664
REMARK SMILES CCCCCCCCCCCCCCCCCCCCCCCCCCCCCC(=O)[O-]
REMARK SMILES IDX 16 1 17 2 18 3 19 4 20 5 21 6 22 7 23 8 24 9 25 10 26 11
REMARK SMILES IDX 27 12 28 13 29 14 30 15 31 16 32 17 15 18 14 19 13 20 12 21
REMARK SMILES IDX 11 22 10 23 9 24 8 25 7 26 6 27 5 28 4 29 3 30 2 31 1 32
REMARK H PARENT
REMARK Flexibility Score: inf
ROOT
ATOM      1  C   UNL     1       1.879 105.504 178.877  1.00  0.00     0.000 C 
ENDROOT
BRANCH   1   2
ATOM      2  C   UNL     1       1.648 104.645 177.624  1.00  0.00     0.000 C 
BRANCH   2   3
ATOM      3  C   UNL     1       1.755 105.492 176.346  1.00  0.00     0.000 C 
BRANCH   3   4
ATOM      4  C   UNL     1       2.383 106.873 176.613  1.00  0.00     0.000 C 
BRANCH   4   5
ATOM      5  C   UNL     1       3.754 107.069 175.928  1.00  0.00     0.000 C 
BRANCH   5   6
ATOM      6  C   UNL     1       4.380 105.761 175.408  1.00  0.00     0.000 C 
BRANCH   6   7
ATOM      7  C   UNL     1       5.797 105.470 175.932  1.00  0.00     0.000 C 
BRANCH   7   8
ATOM      8  C   UNL     1       5.796 104.602 177.202  1.00  0.00     0.000 C 
BRANCH   8   9
ATOM      9  C   UNL     1       5.145 103.227 176.976  1.00  0.00     0.000 C 
BRANCH   9  10
ATOM     10  C   UNL     1       6.178 102.103 176.802  1.00  0.00     0.000 C 
BRANCH  10  11
ATOM     11  C   UNL     1       6.314 101.706 175.326  1.00  0.00     0.000 C 
BRANCH  11  12
ATOM     12  C   UNL     1       4.950 101.735 174.620  1.00  0.00     0.000 C 
BRANCH  12  13
ATOM     13  C   UNL     1       5.000 102.446 173.255  1.00  0.00     0.006 C 
BRANCH  13  14
ATOM     14  C   UNL     1       6.320 103.183 172.976  1.00  0.00     0.053 C 
BRANCH  14  15
ATOM     15  C   UNL     1       6.490 103.496 171.522  1.00  0.00     0.041 C 
ATOM     16  O   UNL     1       7.309 104.378 171.155  1.00  0.00    -0.550 OA
ATOM     17  O   UNL     1       5.717 102.837 170.574  1.00  0.00    -0.550 OA
ENDBRANCH  14  15
ENDBRANCH  13  14
ENDBRANCH  12  13
ENDBRANCH  11  12
ENDBRANCH  10  11
ENDBRANCH   9  10
ENDBRANCH   8   9
ENDBRANCH   7   8
ENDBRANCH   6   7
ENDBRANCH   5   6
ENDBRANCH   4   5
ENDBRANCH   3   4
ENDBRANCH   2   3
ENDBRANCH   1   2
BRANCH   1  18
ATOM     18  C   UNL     1       3.149 105.105 179.651  1.00  0.00     0.000 C 
BRANCH  18  19
ATOM     19  C   UNL     1       3.753 106.220 180.523  1.00  0.00     0.000 C 
BRANCH  19  20
ATOM     20  C   UNL     1       4.354 107.366 179.696  1.00  0.00     0.000 C 
BRANCH  20  21
ATOM     21  C   UNL     1       3.528 108.651 179.862  1.00  0.00     0.000 C 
BRANCH  21  22
ATOM     22  C   UNL     1       2.512 108.557 181.020  1.00  0.00     0.000 C 
BRANCH  22  23
ATOM     23  C   UNL     1       2.940 109.319 182.290  1.00  0.00     0.000 C 
BRANCH  23  24
ATOM     24  C   UNL     1       4.333 109.968 182.223  1.00  0.00    -0.000 C 
BRANCH  24  25
ATOM     25  C   UNL     1       5.466 109.156 182.884  1.00  0.00    -0.000 C 
BRANCH  25  26
ATOM     26  C   UNL     1       4.978 107.902 183.641  1.00  0.00    -0.000 C 
BRANCH  26  27
ATOM     27  C   UNL     1       5.974 106.732 183.544  1.00  0.00    -0.000 C 
BRANCH  27  28
ATOM     28  C   UNL     1       6.924 106.864 182.343  1.00  0.00    -0.000 C 
BRANCH  28  29
ATOM     29  C   UNL     1       7.419 105.505 181.825  1.00  0.00    -0.000 C 
BRANCH  29  30
ATOM     30  C   UNL     1       7.451 105.484 180.290  1.00  0.00    -0.000 C 
BRANCH  30  31
ATOM     31  C   UNL     1       7.865 106.837 179.691  1.00  0.00    -0.003 C 
ATOM     32  C   UNL     1       8.386 106.710 178.259  1.00  0.00     0.004 C 
ENDBRANCH  30  31
ENDBRANCH  29  30
ENDBRANCH  28  29
ENDBRANCH  27  28
ENDBRANCH  26  27
ENDBRANCH  25  26
ENDBRANCH  24  25
ENDBRANCH  23  24
ENDBRANCH  22  23
ENDBRANCH  21  22
ENDBRANCH  20  21
ENDBRANCH  19  20
ENDBRANCH  18  19
ENDBRANCH   1  18
TORSDOF 28
ENDMDL
MODEL 5
REMARK VINA RESULT:    -3.189      1.384      3.696
REMARK INTER + INTRA:         -14.073
REMARK INTER:                  -7.425
REMARK INTRA:                  -6.648
REMARK UNBOUND:                -5.664
REMARK SMILES CCCCCCCCCCCCCCCCCCCCCCCCCCCCCC(=O)[O-]
REMARK SMILES IDX 16 1 17 2 18 3 19 4 20 5 21 6 22 7 23 8 24 9 25 10 26 11
REMARK SMILES IDX 27 12 28 13 29 14 30 15 31 16 32 17 15 18 14 19 13 20 12 21
REMARK SMILES IDX 11 22 10 23 9 24 8 25 7 26 6 27 5 28 4 29 3 30 2 31 1 32
REMARK H PARENT
REMARK Flexibility Score: inf
ROOT
ATOM      1  C   UNL     1       3.515 105.527 180.002  1.00  0.00     0.000 C 
ENDROOT
BRANCH   1   2
ATOM      2  C   UNL     1       2.145 105.240 179.368  1.00  0.00     0.000 C 
BRANCH   2   3
ATOM      3  C   UNL     1       2.286 104.921 177.872  1.00  0.00     0.000 C 
BRANCH   3   4
ATOM      4  C   UNL     1       1.286 105.715 177.010  1.00  0.00     0.000 C 
BRANCH   4   5
ATOM      5  C   UNL     1       0.295 106.563 177.838  1.00  0.00     0.000 C 
BRANCH   5   6
ATOM      6  C   UNL     1       0.520 108.081 177.708  1.00  0.00     0.000 C 
BRANCH   6   7
ATOM      7  C   UNL     1       1.641 108.488 176.737  1.00  0.00     0.000 C 
BRANCH   7   8
ATOM      8  C   UNL     1       2.846 109.125 177.451  1.00  0.00     0.000 C 
BRANCH   8   9
ATOM      9  C   UNL     1       4.077 108.204 177.468  1.00  0.00     0.000 C 
BRANCH   9  10
ATOM     10  C   UNL     1       4.556 107.827 176.057  1.00  0.00     0.000 C 
BRANCH  10  11
ATOM     11  C   UNL     1       5.139 106.409 176.036  1.00  0.00     0.000 C 
BRANCH  11  12
ATOM     12  C   UNL     1       6.380 106.310 176.935  1.00  0.00     0.000 C 
BRANCH  12  13
ATOM     13  C   UNL     1       6.287 105.162 177.957  1.00  0.00     0.006 C 
BRANCH  13  14
ATOM     14  C   UNL     1       7.169 103.948 177.624  1.00  0.00     0.053 C 
BRANCH  14  15
ATOM     15  C   UNL     1       6.509 103.030 176.643  1.00  0.00     0.041 C 
ATOM     16  O   UNL     1       5.686 102.164 177.039  1.00  0.00    -0.550 OA
ATOM     17  O   UNL     1       6.829 103.108 175.294  1.00  0.00    -0.550 OA
ENDBRANCH  14  15
ENDBRANCH  13  14
ENDBRANCH  12  13
ENDBRANCH  11  12
ENDBRANCH  10  11
ENDBRANCH   9  10
ENDBRANCH   8   9
ENDBRANCH   7   8
ENDBRANCH   6   7
ENDBRANCH   5   6
ENDBRANCH   4   5
ENDBRANCH   3   4
ENDBRANCH   2   3
ENDBRANCH   1   2
BRANCH   1  18
ATOM     18  C   UNL     1       3.479 106.700 181.000  1.00  0.00     0.000 C 
BRANCH  18  19
ATOM     19  C   UNL     1       2.348 107.717 180.764  1.00  0.00     0.000 C 
BRANCH  19  20
ATOM     20  C   UNL     1       2.152 108.678 181.945  1.00  0.00     0.000 C 
BRANCH  20  21
ATOM     21  C   UNL     1       3.500 109.021 182.600  1.00  0.00     0.000 C 
BRANCH  21  22
ATOM     22  C   UNL     1       3.737 110.542 182.708  1.00  0.00     0.000 C 
BRANCH  22  23
ATOM     23  C   UNL     1       4.592 111.123 181.564  1.00  0.00     0.000 C 
BRANCH  23  24
ATOM     24  C   UNL     1       5.042 110.104 180.503  1.00  0.00    -0.000 C 
BRANCH  24  25
ATOM     25  C   UNL     1       6.505 109.632 180.628  1.00  0.00    -0.000 C 
BRANCH  25  26
ATOM     26  C   UNL     1       6.748 108.199 180.106  1.00  0.00    -0.000 C 
BRANCH  26  27
ATOM     27  C   UNL     1       7.686 107.391 181.020  1.00  0.00    -0.000 C 
BRANCH  27  28
ATOM     28  C   UNL     1       6.950 106.282 181.789  1.00  0.00    -0.000 C 
BRANCH  28  29
ATOM     29  C   UNL     1       6.446 106.746 183.164  1.00  0.00    -0.000 C 
BRANCH  29  30
ATOM     30  C   UNL     1       7.411 107.769 183.783  1.00  0.00    -0.000 C 
BRANCH  30  31
ATOM     31  C   UNL     1       6.678 108.938 184.457  1.00  0.00    -0.003 C 
ATOM     32  C   UNL     1       7.327 110.290 184.158  1.00  0.00     0.004 C 
ENDBRANCH  30  31
ENDBRANCH  29  30
ENDBRANCH  28  29
ENDBRANCH  27  28
ENDBRANCH  26  27
ENDBRANCH  25  26
ENDBRANCH  24  25
ENDBRANCH  23  24
ENDBRANCH  22  23
ENDBRANCH  21  22
ENDBRANCH  20  21
ENDBRANCH  19  20
ENDBRANCH  18  19
ENDBRANCH   1  18
TORSDOF 28
ENDMDL
MODEL 6
REMARK VINA RESULT:    -3.175      4.091      8.360
REMARK INTER + INTRA:         -14.036
REMARK INTER:                  -7.977
REMARK INTRA:                  -6.059
REMARK UNBOUND:                -5.664
REMARK SMILES CCCCCCCCCCCCCCCCCCCCCCCCCCCCCC(=O)[O-]
REMARK SMILES IDX 16 1 17 2 18 3 19 4 20 5 21 6 22 7 23 8 24 9 25 10 26 11
REMARK SMILES IDX 27 12 28 13 29 14 30 15 31 16 32 17 15 18 14 19 13 20 12 21
REMARK SMILES IDX 11 22 10 23 9 24 8 25 7 26 6 27 5 28 4 29 3 30 2 31 1 32
REMARK H PARENT
REMARK Flexibility Score: inf
ROOT
ATOM      1  C   UNL     1       2.454 108.171 180.449  1.00  0.00     0.000 C 
ENDROOT
BRANCH   1   2
ATOM      2  C   UNL     1       2.380 108.798 181.851  1.00  0.00     0.000 C 
BRANCH   2   3
ATOM      3  C   UNL     1       3.276 108.040 182.843  1.00  0.00     0.000 C 
BRANCH   3   4
ATOM      4  C   UNL     1       3.928 106.798 182.207  1.00  0.00     0.000 C 
BRANCH   4   5
ATOM      5  C   UNL     1       5.430 106.652 182.539  1.00  0.00     0.000 C 
BRANCH   5   6
ATOM      6  C   UNL     1       6.315 106.392 181.305  1.00  0.00     0.000 C 
BRANCH   6   7
ATOM      7  C   UNL     1       5.759 106.949 179.983  1.00  0.00     0.000 C 
BRANCH   7   8
ATOM      8  C   UNL     1       6.388 108.299 179.594  1.00  0.00     0.000 C 
BRANCH   8   9
ATOM      9  C   UNL     1       6.181 109.378 180.670  1.00  0.00     0.000 C 
BRANCH   9  10
ATOM     10  C   UNL     1       5.295 110.537 180.185  1.00  0.00     0.000 C 
BRANCH  10  11
ATOM     11  C   UNL     1       4.899 111.450 181.353  1.00  0.00     0.000 C 
BRANCH  11  12
ATOM     12  C   UNL     1       5.541 110.975 182.665  1.00  0.00     0.000 C 
BRANCH  12  13
ATOM     13  C   UNL     1       6.055 112.139 183.533  1.00  0.00     0.006 C 
BRANCH  13  14
ATOM     14  C   UNL     1       5.266 112.351 184.835  1.00  0.00     0.053 C 
BRANCH  14  15
ATOM     15  C   UNL     1       4.060 113.212 184.624  1.00  0.00     0.041 C 
ATOM     16  O   UNL     1       4.192 114.445 184.405  1.00  0.00    -0.550 OA
ATOM     17  O   UNL     1       2.788 112.659 184.704  1.00  0.00    -0.550 OA
ENDBRANCH  14  15
ENDBRANCH  13  14
ENDBRANCH  12  13
ENDBRANCH  11  12
ENDBRANCH  10  11
ENDBRANCH   9  10
ENDBRANCH   8   9
ENDBRANCH   7   8
ENDBRANCH   6   7
ENDBRANCH   5   6
ENDBRANCH   4   5
ENDBRANCH   3   4
ENDBRANCH   2   3
ENDBRANCH   1   2
BRANCH   1  18
ATOM     18  C   UNL     1       1.066 107.916 179.832  1.00  0.00     0.000 C 
BRANCH  18  19
ATOM     19  C   UNL     1       0.905 106.550 179.144  1.00  0.00     0.000 C 
BRANCH  19  20
ATOM     20  C   UNL     1       2.035 105.569 179.489  1.00  0.00     0.000 C 
BRANCH  20  21
ATOM     21  C   UNL     1       2.437 104.741 178.258  1.00  0.00     0.000 C 
BRANCH  21  22
ATOM     22  C   UNL     1       1.610 105.104 177.005  1.00  0.00     0.000 C 
BRANCH  22  23
ATOM     23  C   UNL     1       2.441 105.738 175.871  1.00  0.00     0.000 C 
BRANCH  23  24
ATOM     24  C   UNL     1       1.932 107.102 175.374  1.00  0.00    -0.000 C 
BRANCH  24  25
ATOM     25  C   UNL     1       2.377 108.313 176.218  1.00  0.00    -0.000 C 
BRANCH  25  26
ATOM     26  C   UNL     1       3.693 108.087 176.994  1.00  0.00    -0.000 C 
BRANCH  26  27
ATOM     27  C   UNL     1       4.906 108.723 176.292  1.00  0.00    -0.000 C 
BRANCH  27  28
ATOM     28  C   UNL     1       5.652 107.730 175.386  1.00  0.00    -0.000 C 
BRANCH  28  29
ATOM     29  C   UNL     1       6.514 106.735 176.178  1.00  0.00    -0.000 C 
BRANCH  29  30
ATOM     30  C   UNL     1       6.074 105.290 175.901  1.00  0.00    -0.000 C 
BRANCH  30  31
ATOM     31  C   UNL     1       5.932 104.460 177.186  1.00  0.00    -0.003 C 
ATOM     32  C   UNL     1       5.411 103.048 176.919  1.00  0.00     0.004 C 
ENDBRANCH  30  31
ENDBRANCH  29  30
ENDBRANCH  28  29
ENDBRANCH  27  28
ENDBRANCH  26  27
ENDBRANCH  25  26
ENDBRANCH  24  25
ENDBRANCH  23  24
ENDBRANCH  22  23
ENDBRANCH  21  22
ENDBRANCH  20  21
ENDBRANCH  19  20
ENDBRANCH  18  19
ENDBRANCH   1  18
TORSDOF 28
ENDMDL
MODEL 7
REMARK VINA RESULT:    -3.155      1.981      4.689
REMARK INTER + INTRA:         -13.984
REMARK INTER:                  -8.387
REMARK INTRA:                  -5.597
REMARK UNBOUND:                -5.664
REMARK SMILES CCCCCCCCCCCCCCCCCCCCCCCCCCCCCC(=O)[O-]
REMARK SMILES IDX 16 1 17 2 18 3 19 4 20 5 21 6 22 7 23 8 24 9 25 10 26 11
REMARK SMILES IDX 27 12 28 13 29 14 30 15 31 16 32 17 15 18 14 19 13 20 12 21
REMARK SMILES IDX 11 22 10 23 9 24 8 25 7 26 6 27 5 28 4 29 3 30 2 31 1 32
REMARK H PARENT
REMARK Flexibility Score: inf
ROOT
ATOM      1  C   UNL     1       1.968 104.650 177.978  1.00  0.00     0.000 C 
ENDROOT
BRANCH   1   2
ATOM      2  C   UNL     1       2.367 105.354 176.671  1.00  0.00     0.000 C 
BRANCH   2   3
ATOM      3  C   UNL     1       3.833 105.063 176.313  1.00  0.00     0.000 C 
BRANCH   3   4
ATOM      4  C   UNL     1       4.803 106.062 176.972  1.00  0.00     0.000 C 
BRANCH   4   5
ATOM      5  C   UNL     1       5.609 105.458 178.144  1.00  0.00     0.000 C 
BRANCH   5   6
ATOM      6  C   UNL     1       6.251 106.514 179.063  1.00  0.00     0.000 C 
BRANCH   6   7
ATOM      7  C   UNL     1       7.767 106.352 179.273  1.00  0.00     0.000 C 
BRANCH   7   8
ATOM      8  C   UNL     1       8.120 105.153 180.170  1.00  0.00     0.000 C 
BRANCH   8   9
ATOM      9  C   UNL     1       8.865 104.046 179.408  1.00  0.00     0.000 C 
BRANCH   9  10
ATOM     10  C   UNL     1       9.200 104.443 177.961  1.00  0.00     0.000 C 
BRANCH  10  11
ATOM     11  C   UNL     1       8.601 103.442 176.965  1.00  0.00     0.000 C 
BRANCH  11  12
ATOM     12  C   UNL     1       7.860 102.313 177.697  1.00  0.00     0.000 C 
BRANCH  12  13
ATOM     13  C   UNL     1       6.668 101.761 176.892  1.00  0.00     0.006 C 
BRANCH  13  14
ATOM     14  C   UNL     1       6.394 102.512 175.579  1.00  0.00     0.053 C 
BRANCH  14  15
ATOM     15  C   UNL     1       5.415 101.782 174.712  1.00  0.00     0.041 C 
ATOM     16  O   UNL     1       5.114 100.586 174.964  1.00  0.00    -0.550 OA
ATOM     17  O   UNL     1       4.861 102.413 173.606  1.00  0.00    -0.550 OA
ENDBRANCH  14  15
ENDBRANCH  13  14
ENDBRANCH  12  13
ENDBRANCH  11  12
ENDBRANCH  10  11
ENDBRANCH   9  10
ENDBRANCH   8   9
ENDBRANCH   7   8
ENDBRANCH   6   7
ENDBRANCH   5   6
ENDBRANCH   4   5
ENDBRANCH   3   4
ENDBRANCH   2   3
ENDBRANCH   1   2
BRANCH   1  18
ATOM     18  C   UNL     1       1.772 105.630 179.150  1.00  0.00     0.000 C 
BRANCH  18  19
ATOM     19  C   UNL     1       0.760 106.759 178.888  1.00  0.00     0.000 C 
BRANCH  19  20
ATOM     20  C   UNL     1       1.239 108.123 179.408  1.00  0.00     0.000 C 
BRANCH  20  21
ATOM     21  C   UNL     1       2.690 108.393 178.979  1.00  0.00     0.000 C 
BRANCH  21  22
ATOM     22  C   UNL     1       3.573 108.876 180.149  1.00  0.00     0.000 C 
BRANCH  22  23
ATOM     23  C   UNL     1       2.829 108.967 181.497  1.00  0.00     0.000 C 
BRANCH  23  24
ATOM     24  C   UNL     1       3.289 107.960 182.565  1.00  0.00    -0.000 C 
BRANCH  24  25
ATOM     25  C   UNL     1       3.959 106.684 182.016  1.00  0.00    -0.000 C 
BRANCH  25  26
ATOM     26  C   UNL     1       5.398 106.461 182.530  1.00  0.00    -0.000 C 
BRANCH  26  27
ATOM     27  C   UNL     1       5.989 107.720 183.189  1.00  0.00    -0.000 C 
BRANCH  27  28
ATOM     28  C   UNL     1       7.016 108.429 182.293  1.00  0.00    -0.000 C 
BRANCH  28  29
ATOM     29  C   UNL     1       8.465 108.044 182.630  1.00  0.00    -0.000 C 
BRANCH  29  30
ATOM     30  C   UNL     1       8.554 107.432 184.036  1.00  0.00    -0.000 C 
BRANCH  30  31
ATOM     31  C   UNL     1       9.278 106.077 184.045  1.00  0.00    -0.003 C 
ATOM     32  C   UNL     1       8.310 104.894 184.062  1.00  0.00     0.004 C 
ENDBRANCH  30  31
ENDBRANCH  29  30
ENDBRANCH  28  29
ENDBRANCH  27  28
ENDBRANCH  26  27
ENDBRANCH  25  26
ENDBRANCH  24  25
ENDBRANCH  23  24
ENDBRANCH  22  23
ENDBRANCH  21  22
ENDBRANCH  20  21
ENDBRANCH  19  20
ENDBRANCH  18  19
ENDBRANCH   1  18
TORSDOF 28
ENDMDL
MODEL 8
REMARK VINA RESULT:    -3.147      1.605      4.313
REMARK INTER + INTRA:         -13.961
REMARK INTER:                  -8.243
REMARK INTRA:                  -5.719
REMARK UNBOUND:                -5.664
REMARK SMILES CCCCCCCCCCCCCCCCCCCCCCCCCCCCCC(=O)[O-]
REMARK SMILES IDX 16 1 17 2 18 3 19 4 20 5 21 6 22 7 23 8 24 9 25 10 26 11
REMARK SMILES IDX 27 12 28 13 29 14 30 15 31 16 32 17 15 18 14 19 13 20 12 21
REMARK SMILES IDX 11 22 10 23 9 24 8 25 7 26 6 27 5 28 4 29 3 30 2 31 1 32
REMARK H PARENT
REMARK Flexibility Score: inf
ROOT
ATOM      1  C   UNL     1       6.804 109.240 179.631  1.00  0.00     0.000 C 
ENDROOT
BRANCH   1   2
ATOM      2  C   UNL     1       5.946 108.516 178.581  1.00  0.00     0.000 C 
BRANCH   2   3
ATOM      3  C   UNL     1       4.470 108.932 178.693  1.00  0.00     0.000 C 
BRANCH   3   4
ATOM      4  C   UNL     1       3.602 108.304 177.587  1.00  0.00     0.000 C 
BRANCH   4   5
ATOM      5  C   UNL     1       2.086 108.503 177.806  1.00  0.00     0.000 C 
BRANCH   5   6
ATOM      6  C   UNL     1       1.423 107.371 178.614  1.00  0.00     0.000 C 
BRANCH   6   7
ATOM      7  C   UNL     1       0.658 106.337 177.769  1.00  0.00     0.000 C 
BRANCH   7   8
ATOM      8  C   UNL     1       1.385 104.983 177.682  1.00  0.00     0.000 C 
BRANCH   8   9
ATOM      9  C   UNL     1       2.493 104.840 178.737  1.00  0.00     0.000 C 
BRANCH   9  10
ATOM     10  C   UNL     1       3.823 104.354 178.139  1.00  0.00     0.000 C 
BRANCH  10  11
ATOM     11  C   UNL     1       3.947 104.768 176.668  1.00  0.00     0.000 C 
BRANCH  11  12
ATOM     12  C   UNL     1       4.742 103.726 175.866  1.00  0.00     0.000 C 
BRANCH  12  13
ATOM     13  C   UNL     1       5.545 102.769 176.766  1.00  0.00     0.006 C 
BRANCH  13  14
ATOM     14  C   UNL     1       6.204 101.601 176.014  1.00  0.00     0.053 C 
BRANCH  14  15
ATOM     15  C   UNL     1       7.577 101.951 175.530  1.00  0.00     0.041 C 
ATOM     16  O   UNL     1       8.211 102.902 176.056  1.00  0.00    -0.550 OA
ATOM     17  O   UNL     1       8.143 101.247 174.475  1.00  0.00    -0.550 OA
ENDBRANCH  14  15
ENDBRANCH  13  14
ENDBRANCH  12  13
ENDBRANCH  11  12
ENDBRANCH  10  11
ENDBRANCH   9  10
ENDBRANCH   8   9
ENDBRANCH   7   8
ENDBRANCH   6   7
ENDBRANCH   5   6
ENDBRANCH   4   5
ENDBRANCH   3   4
ENDBRANCH   2   3
ENDBRANCH   1   2
BRANCH   1  18
ATOM     18  C   UNL     1       5.984 110.191 180.522  1.00  0.00     0.000 C 
BRANCH  18  19
ATOM     19  C   UNL     1       6.548 110.397 181.939  1.00  0.00     0.000 C 
BRANCH  19  20
ATOM     20  C   UNL     1       5.458 110.711 182.976  1.00  0.00     0.000 C 
BRANCH  20  21
ATOM     21  C   UNL     1       4.074 110.776 182.311  1.00  0.00     0.000 C 
BRANCH  21  22
ATOM     22  C   UNL     1       2.933 110.402 183.281  1.00  0.00     0.000 C 
BRANCH  22  23
ATOM     23  C   UNL     1       2.265 109.048 182.967  1.00  0.00     0.000 C 
BRANCH  23  24
ATOM     24  C   UNL     1       2.713 108.390 181.651  1.00  0.00    -0.000 C 
BRANCH  24  25
ATOM     25  C   UNL     1       3.278 106.962 181.793  1.00  0.00    -0.000 C 
BRANCH  25  26
ATOM     26  C   UNL     1       4.821 106.893 181.759  1.00  0.00    -0.000 C 
BRANCH  26  27
ATOM     27  C   UNL     1       5.441 106.909 183.167  1.00  0.00    -0.000 C 
BRANCH  27  28
ATOM     28  C   UNL     1       6.976 106.836 183.137  1.00  0.00    -0.000 C 
BRANCH  28  29
ATOM     29  C   UNL     1       7.529 106.535 181.735  1.00  0.00    -0.000 C 
BRANCH  29  30
ATOM     30  C   UNL     1       7.918 105.054 181.609  1.00  0.00    -0.000 C 
BRANCH  30  31
ATOM     31  C   UNL     1       8.334 104.674 180.180  1.00  0.00    -0.003 C 
ATOM     32  C   UNL     1       7.360 105.200 179.125  1.00  0.00     0.004 C 
ENDBRANCH  30  31
ENDBRANCH  29  30
ENDBRANCH  28  29
ENDBRANCH  27  28
ENDBRANCH  26  27
ENDBRANCH  25  26
ENDBRANCH  24  25
ENDBRANCH  23  24
ENDBRANCH  22  23
ENDBRANCH  21  22
ENDBRANCH  20  21
ENDBRANCH  19  20
ENDBRANCH  18  19
ENDBRANCH   1  18
TORSDOF 28
ENDMDL
MODEL 9
REMARK VINA RESULT:    -3.144      3.974      8.697
REMARK INTER + INTRA:         -13.955
REMARK INTER:                  -8.888
REMARK INTRA:                  -5.067
REMARK UNBOUND:                -5.664
REMARK SMILES CCCCCCCCCCCCCCCCCCCCCCCCCCCCCC(=O)[O-]
REMARK SMILES IDX 16 1 17 2 18 3 19 4 20 5 21 6 22 7 23 8 24 9 25 10 26 11
REMARK SMILES IDX 27 12 28 13 29 14 30 15 31 16 32 17 15 18 14 19 13 20 12 21
REMARK SMILES IDX 11 22 10 23 9 24 8 25 7 26 6 27 5 28 4 29 3 30 2 31 1 32
REMARK H PARENT
REMARK Flexibility Score: inf
ROOT
ATOM      1  C   UNL     1       1.539 107.575 179.768  1.00  0.00     0.000 C 
ENDROOT
BRANCH   1   2
ATOM      2  C   UNL     1       2.652 108.526 179.298  1.00  0.00     0.000 C 
BRANCH   2   3
ATOM      3  C   UNL     1       3.758 108.648 180.358  1.00  0.00     0.000 C 
BRANCH   3   4
ATOM      4  C   UNL     1       3.375 107.962 181.682  1.00  0.00     0.000 C 
BRANCH   4   5
ATOM      5  C   UNL     1       4.170 106.666 181.958  1.00  0.00     0.000 C 
BRANCH   5   6
ATOM      6  C   UNL     1       5.292 106.398 180.938  1.00  0.00     0.000 C 
BRANCH   6   7
ATOM      7  C   UNL     1       6.674 106.121 181.555  1.00  0.00     0.000 C 
BRANCH   7   8
ATOM      8  C   UNL     1       6.666 106.194 183.092  1.00  0.00     0.000 C 
BRANCH   8   9
ATOM      9  C   UNL     1       7.610 107.278 183.636  1.00  0.00     0.000 C 
BRANCH   9  10
ATOM     10  C   UNL     1       7.151 108.700 183.277  1.00  0.00     0.000 C 
BRANCH  10  11
ATOM     11  C   UNL     1       6.330 109.315 184.418  1.00  0.00     0.000 C 
BRANCH  11  12
ATOM     12  C   UNL     1       5.936 110.764 184.094  1.00  0.00     0.000 C 
BRANCH  12  13
ATOM     13  C   UNL     1       5.459 110.942 182.641  1.00  0.00     0.006 C 
BRANCH  13  14
ATOM     14  C   UNL     1       4.391 112.032 182.457  1.00  0.00     0.053 C 
BRANCH  14  15
ATOM     15  C   UNL     1       3.991 112.649 183.762  1.00  0.00     0.041 C 
ATOM     16  O   UNL     1       2.986 112.219 184.385  1.00  0.00    -0.550 OA
ATOM     17  O   UNL     1       4.710 113.722 184.273  1.00  0.00    -0.550 OA
ENDBRANCH  14  15
ENDBRANCH  13  14
ENDBRANCH  12  13
ENDBRANCH  11  12
ENDBRANCH  10  11
ENDBRANCH   9  10
ENDBRANCH   8   9
ENDBRANCH   7   8
ENDBRANCH   6   7
ENDBRANCH   5   6
ENDBRANCH   4   5
ENDBRANCH   3   4
ENDBRANCH   2   3
ENDBRANCH   1   2
BRANCH   1  18
ATOM     18  C   UNL     1       1.391 106.334 178.868  1.00  0.00     0.000 C 
BRANCH  18  19
ATOM     19  C   UNL     1       2.144 105.085 179.359  1.00  0.00     0.000 C 
BRANCH  19  20
ATOM     20  C   UNL     1       3.325 104.705 178.454  1.00  0.00     0.000 C 
BRANCH  20  21
ATOM     21  C   UNL     1       2.910 104.731 176.974  1.00  0.00     0.000 C 
BRANCH  21  22
ATOM     22  C   UNL     1       3.944 105.450 176.081  1.00  0.00     0.000 C 
BRANCH  22  23
ATOM     23  C   UNL     1       4.132 106.942 176.421  1.00  0.00     0.000 C 
BRANCH  23  24
ATOM     24  C   UNL     1       5.463 107.292 177.108  1.00  0.00    -0.000 C 
BRANCH  24  25
ATOM     25  C   UNL     1       6.697 106.546 176.563  1.00  0.00    -0.000 C 
BRANCH  25  26
ATOM     26  C   UNL     1       7.586 105.920 177.660  1.00  0.00    -0.000 C 
BRANCH  26  27
ATOM     27  C   UNL     1       7.033 104.577 178.170  1.00  0.00    -0.000 C 
BRANCH  27  28
ATOM     28  C   UNL     1       7.353 103.409 177.223  1.00  0.00    -0.000 C 
BRANCH  28  29
ATOM     29  C   UNL     1       6.106 102.595 176.842  1.00  0.00    -0.000 C 
BRANCH  29  30
ATOM     30  C   UNL     1       6.461 101.495 175.830  1.00  0.00    -0.000 C 
BRANCH  30  31
ATOM     31  C   UNL     1       5.272 101.110 174.937  1.00  0.00    -0.003 C 
ATOM     32  C   UNL     1       4.986 102.154 173.857  1.00  0.00     0.004 C 
ENDBRANCH  30  31
ENDBRANCH  29  30
ENDBRANCH  28  29
ENDBRANCH  27  28
ENDBRANCH  26  27
ENDBRANCH  25  26
ENDBRANCH  24  25
ENDBRANCH  23  24
ENDBRANCH  22  23
ENDBRANCH  21  22
ENDBRANCH  20  21
ENDBRANCH  19  20
ENDBRANCH  18  19
ENDBRANCH   1  18
TORSDOF 28
ENDMDL
