MODEL 1
REMARK VINA RESULT:    -4.696      0.000      0.000
REMARK INTER + INTRA:          -5.108
REMARK INTER:                  -5.108
REMARK INTRA:                   0.000
REMARK UNBOUND:                 0.000
REMARK SMILES Cc1cc(O)c2c(c1)C(=O)c1cc(O)cc(O)c1C2=O
REMARK SMILES IDX 1 1 2 2 8 3 7 4 6 5 4 6 3 7 19 8 20 9 18 10 11 11 9 12 10 13
REMARK SMILES IDX 12 14 13 15 15 16 16 17 5 18 17 20 14 22
REMARK H PARENT 5 19 17 21 14 23
REMARK Flexibility Score: inf
ROOT
ATOM      1  C   UNL     1      19.719  22.375   4.373  1.00  0.00     0.044 C 
ATOM      2  C   UNL     1      20.272  23.769   4.320  1.00  0.00    -0.047 A 
ATOM      3  C   UNL     1      21.399  24.109   5.075  1.00  0.00     0.016 A 
ATOM      4  C   UNL     1      21.906  25.419   5.055  1.00  0.00     0.038 A 
ATOM      5  C   UNL     1      21.274  26.406   4.266  1.00  0.00     0.076 A 
ATOM      6  C   UNL     1      20.084  26.076   3.569  1.00  0.00     0.127 A 
ATOM      7  C   UNL     1      19.609  24.761   3.588  1.00  0.00     0.050 A 
ATOM      8  C   UNL     1      21.924  27.737   4.152  1.00  0.00     0.201 C 
ATOM      9  O   UNL     1      21.780  28.418   3.103  1.00  0.00    -0.288 OA
ATOM     10  C   UNL     1      22.890  28.178   5.193  1.00  0.00     0.076 A 
ATOM     11  C   UNL     1      23.518  27.189   5.983  1.00  0.00     0.041 A 
ATOM     12  C   UNL     1      23.098  25.772   5.864  1.00  0.00     0.194 C 
ATOM     13  O   UNL     1      23.739  24.871   6.472  1.00  0.00    -0.289 OA
ATOM     14  C   UNL     1      24.536  27.554   6.880  1.00  0.00     0.059 A 
ATOM     15  C   UNL     1      24.922  28.890   7.009  1.00  0.00     0.120 A 
ATOM     16  C   UNL     1      24.277  29.874   6.262  1.00  0.00     0.093 A 
ATOM     17  C   UNL     1      23.246  29.540   5.376  1.00  0.00     0.131 A 
ENDROOT
BRANCH   6  18
ATOM     18  O   UNL     1      19.324  27.025   2.881  1.00  0.00    -0.507 OA
ATOM     19  H   UNL     1      18.507  27.475   3.269  1.00  0.00     0.293 HD
ENDBRANCH   6  18
BRANCH  17  20
ATOM     20  O   UNL     1      22.587  30.588   4.731  1.00  0.00    -0.507 OA
ATOM     21  H   UNL     1      23.058  31.283   4.169  1.00  0.00     0.293 HD
ENDBRANCH  17  20
BRANCH  15  22
ATOM     22  O   UNL     1      25.939  29.254   7.889  1.00  0.00    -0.508 OA
ATOM     23  H   UNL     1      25.989  28.874   8.828  1.00  0.00     0.293 HD
ENDBRANCH  15  22
TORSDOF 3
ENDMDL
MODEL 2
REMARK VINA RESULT:    -4.621      3.841      4.774
REMARK INTER + INTRA:          -5.027
REMARK INTER:                  -5.027
REMARK INTRA:                   0.000
REMARK UNBOUND:                 0.000
REMARK SMILES Cc1cc(O)c2c(c1)C(=O)c1cc(O)cc(O)c1C2=O
REMARK SMILES IDX 1 1 2 2 8 3 7 4 6 5 4 6 3 7 19 8 20 9 18 10 11 11 9 12 10 13
REMARK SMILES IDX 12 14 13 15 15 16 16 17 5 18 17 20 14 22
REMARK H PARENT 5 19 17 21 14 23
REMARK Flexibility Score: inf
ROOT
ATOM      1  C   UNL     1      28.125  24.765   5.990  1.00  0.00     0.044 C 
ATOM      2  C   UNL     1      27.161  25.857   5.628  1.00  0.00    -0.047 A 
ATOM      3  C   UNL     1      26.889  26.886   6.535  1.00  0.00     0.016 A 
ATOM      4  C   UNL     1      25.967  27.897   6.217  1.00  0.00     0.038 A 
ATOM      5  C   UNL     1      25.304  27.877   4.970  1.00  0.00     0.076 A 
ATOM      6  C   UNL     1      25.521  26.786   4.089  1.00  0.00     0.127 A 
ATOM      7  C   UNL     1      26.459  25.802   4.419  1.00  0.00     0.050 A 
ATOM      8  C   UNL     1      24.451  29.038   4.609  1.00  0.00     0.201 C 
ATOM      9  O   UNL     1      24.315  29.365   3.400  1.00  0.00    -0.288 OA
ATOM     10  C   UNL     1      23.915  29.920   5.678  1.00  0.00     0.076 A 
ATOM     11  C   UNL     1      24.578  29.936   6.926  1.00  0.00     0.041 A 
ATOM     12  C   UNL     1      25.680  28.980   7.188  1.00  0.00     0.194 C 
ATOM     13  O   UNL     1      26.357  29.073   8.249  1.00  0.00    -0.289 OA
ATOM     14  C   UNL     1      24.187  30.856   7.913  1.00  0.00     0.059 A 
ATOM     15  C   UNL     1      23.136  31.746   7.677  1.00  0.00     0.120 A 
ATOM     16  C   UNL     1      22.453  31.706   6.463  1.00  0.00     0.093 A 
ATOM     17  C   UNL     1      22.809  30.786   5.471  1.00  0.00     0.131 A 
ENDROOT
BRANCH   6  18
ATOM     18  O   UNL     1      24.803  26.620   2.902  1.00  0.00    -0.507 OA
ATOM     19  H   UNL     1      25.206  26.250   2.053  1.00  0.00     0.293 HD
ENDBRANCH   6  18
BRANCH  17  20
ATOM     20  O   UNL     1      22.021  30.745   4.319  1.00  0.00    -0.507 OA
ATOM     21  H   UNL     1      21.867  31.542   3.718  1.00  0.00     0.293 HD
ENDBRANCH  17  20
BRANCH  15  22
ATOM     22  O   UNL     1      22.754  32.667   8.651  1.00  0.00    -0.508 OA
ATOM     23  H   UNL     1      21.877  32.575   9.152  1.00  0.00     0.293 HD
ENDBRANCH  15  22
TORSDOF 3
ENDMDL
MODEL 3
REMARK VINA RESULT:    -4.493      2.459      6.220
REMARK INTER + INTRA:          -4.887
REMARK INTER:                  -4.887
REMARK INTRA:                   0.000
REMARK UNBOUND:                 0.000
REMARK SMILES Cc1cc(O)c2c(c1)C(=O)c1cc(O)cc(O)c1C2=O
REMARK SMILES IDX 1 1 2 2 8 3 7 4 6 5 4 6 3 7 19 8 20 9 18 10 11 11 9 12 10 13
REMARK SMILES IDX 12 14 13 15 15 16 16 17 5 18 17 20 14 22
REMARK H PARENT 5 19 17 21 14 23
REMARK Flexibility Score: inf
ROOT
ATOM      1  C   UNL     1      22.519  31.557   5.989  1.00  0.00     0.044 C 
ATOM      2  C   UNL     1      23.344  30.309   6.103  1.00  0.00    -0.047 A 
ATOM      3  C   UNL     1      22.996  29.165   5.378  1.00  0.00     0.016 A 
ATOM      4  C   UNL     1      23.745  27.982   5.500  1.00  0.00     0.038 A 
ATOM      5  C   UNL     1      24.861  27.944   6.365  1.00  0.00     0.076 A 
ATOM      6  C   UNL     1      25.159  29.081   7.160  1.00  0.00     0.127 A 
ATOM      7  C   UNL     1      24.411  30.252   7.006  1.00  0.00     0.050 A 
ATOM      8  C   UNL     1      25.715  26.729   6.356  1.00  0.00     0.201 C 
ATOM      9  O   UNL     1      26.945  26.824   6.613  1.00  0.00    -0.288 OA
ATOM     10  C   UNL     1      25.160  25.441   5.864  1.00  0.00     0.076 A 
ATOM     11  C   UNL     1      24.041  25.482   5.002  1.00  0.00     0.041 A 
ATOM     12  C   UNL     1      23.364  26.773   4.733  1.00  0.00     0.194 C 
ATOM     13  O   UNL     1      22.446  26.836   3.869  1.00  0.00    -0.289 OA
ATOM     14  C   UNL     1      23.574  24.298   4.406  1.00  0.00     0.059 A 
ATOM     15  C   UNL     1      24.197  23.076   4.672  1.00  0.00     0.120 A 
ATOM     16  C   UNL     1      25.276  23.025   5.554  1.00  0.00     0.093 A 
ATOM     17  C   UNL     1      25.748  24.187   6.175  1.00  0.00     0.131 A 
ENDROOT
BRANCH   6  18
ATOM     18  O   UNL     1      26.158  29.077   8.137  1.00  0.00    -0.507 OA
ATOM     19  H   UNL     1      26.353  28.285   8.734  1.00  0.00     0.293 HD
ENDBRANCH   6  18
BRANCH  17  20
ATOM     20  O   UNL     1      26.772  24.044   7.114  1.00  0.00    -0.507 OA
ATOM     21  H   UNL     1      27.683  24.470   7.017  1.00  0.00     0.293 HD
ENDBRANCH  17  20
BRANCH  15  22
ATOM     22  O   UNL     1      23.743  21.903   4.075  1.00  0.00    -0.508 OA
ATOM     23  H   UNL     1      23.430  21.885   3.110  1.00  0.00     0.293 HD
ENDBRANCH  15  22
TORSDOF 3
ENDMDL
MODEL 4
REMARK VINA RESULT:    -4.242      2.476      4.302
REMARK INTER + INTRA:          -4.613
REMARK INTER:                  -4.613
REMARK INTRA:                   0.000
REMARK UNBOUND:                 0.000
REMARK SMILES Cc1cc(O)c2c(c1)C(=O)c1cc(O)cc(O)c1C2=O
REMARK SMILES IDX 1 1 2 2 8 3 7 4 6 5 4 6 3 7 19 8 20 9 18 10 11 11 9 12 10 13
REMARK SMILES IDX 12 14 13 15 15 16 16 17 5 18 17 20 14 22
REMARK H PARENT 5 19 17 21 14 23
REMARK Flexibility Score: inf
ROOT
ATOM      1  C   UNL     1      21.888  20.130   3.064  1.00  0.00     0.044 C 
ATOM      2  C   UNL     1      22.653  21.215   3.763  1.00  0.00    -0.047 A 
ATOM      3  C   UNL     1      22.067  22.467   3.974  1.00  0.00     0.016 A 
ATOM      4  C   UNL     1      22.786  23.499   4.601  1.00  0.00     0.038 A 
ATOM      5  C   UNL     1      24.115  23.274   5.023  1.00  0.00     0.076 A 
ATOM      6  C   UNL     1      24.731  22.030   4.731  1.00  0.00     0.127 A 
ATOM      7  C   UNL     1      23.989  21.012   4.124  1.00  0.00     0.050 A 
ATOM      8  C   UNL     1      24.791  24.335   5.813  1.00  0.00     0.201 C 
ATOM      9  O   UNL     1      25.664  24.023   6.665  1.00  0.00    -0.288 OA
ATOM     10  C   UNL     1      24.304  25.737   5.733  1.00  0.00     0.076 A 
ATOM     11  C   UNL     1      22.975  25.960   5.307  1.00  0.00     0.041 A 
ATOM     12  C   UNL     1      22.158  24.825   4.815  1.00  0.00     0.194 C 
ATOM     13  O   UNL     1      20.935  24.995   4.553  1.00  0.00    -0.289 OA
ATOM     14  C   UNL     1      22.436  27.256   5.349  1.00  0.00     0.059 A 
ATOM     15  C   UNL     1      23.208  28.332   5.795  1.00  0.00     0.120 A 
ATOM     16  C   UNL     1      24.532  28.123   6.177  1.00  0.00     0.093 A 
ATOM     17  C   UNL     1      25.100  26.845   6.125  1.00  0.00     0.131 A 
ENDROOT
BRANCH   6  18
ATOM     18  O   UNL     1      26.081  21.778   4.990  1.00  0.00    -0.507 OA
ATOM     19  H   UNL     1      26.837  22.165   4.442  1.00  0.00     0.293 HD
ENDBRANCH   6  18
BRANCH  17  20
ATOM     20  O   UNL     1      26.456  26.730   6.436  1.00  0.00    -0.507 OA
ATOM     21  H   UNL     1      27.097  27.511   6.442  1.00  0.00     0.293 HD
ENDBRANCH  17  20
BRANCH  15  22
ATOM     22  O   UNL     1      22.673  29.617   5.849  1.00  0.00    -0.508 OA
ATOM     23  H   UNL     1      23.049  30.323   6.472  1.00  0.00     0.293 HD
ENDBRANCH  15  22
TORSDOF 3
ENDMDL
MODEL 5
REMARK VINA RESULT:    -4.162      4.507      6.065
REMARK INTER + INTRA:          -4.527
REMARK INTER:                  -4.527
REMARK INTRA:                   0.000
REMARK UNBOUND:                 0.000
REMARK SMILES Cc1cc(O)c2c(c1)C(=O)c1cc(O)cc(O)c1C2=O
REMARK SMILES IDX 1 1 2 2 8 3 7 4 6 5 4 6 3 7 19 8 20 9 18 10 11 11 9 12 10 13
REMARK SMILES IDX 12 14 13 15 15 16 16 17 5 18 17 20 14 22
REMARK H PARENT 5 19 17 21 14 23
REMARK Flexibility Score: inf
ROOT
ATOM      1  C   UNL     1      20.998  32.500   4.578  1.00  0.00     0.044 C 
ATOM      2  C   UNL     1      22.116  31.716   5.200  1.00  0.00    -0.047 A 
ATOM      3  C   UNL     1      22.945  30.919   4.405  1.00  0.00     0.016 A 
ATOM      4  C   UNL     1      23.976  30.159   4.982  1.00  0.00     0.038 A 
ATOM      5  C   UNL     1      24.180  30.197   6.380  1.00  0.00     0.076 A 
ATOM      6  C   UNL     1      23.283  30.941   7.189  1.00  0.00     0.127 A 
ATOM      7  C   UNL     1      22.277  31.705   6.590  1.00  0.00     0.050 A 
ATOM      8  C   UNL     1      25.369  29.500   6.936  1.00  0.00     0.201 C 
ATOM      9  O   UNL     1      25.918  29.934   7.982  1.00  0.00    -0.288 OA
ATOM     10  C   UNL     1      26.017  28.412   6.157  1.00  0.00     0.076 A 
ATOM     11  C   UNL     1      25.809  28.375   4.760  1.00  0.00     0.041 A 
ATOM     12  C   UNL     1      24.846  29.311   4.132  1.00  0.00     0.194 C 
ATOM     13  O   UNL     1      24.750  29.368   2.875  1.00  0.00    -0.289 OA
ATOM     14  C   UNL     1      26.513  27.448   3.973  1.00  0.00     0.059 A 
ATOM     15  C   UNL     1      27.406  26.551   4.564  1.00  0.00     0.120 A 
ATOM     16  C   UNL     1      27.584  26.557   5.946  1.00  0.00     0.093 A 
ATOM     17  C   UNL     1      26.880  27.456   6.754  1.00  0.00     0.131 A 
ENDROOT
BRANCH   6  18
ATOM     18  O   UNL     1      23.332  30.918   8.585  1.00  0.00    -0.507 OA
ATOM     19  H   UNL     1      24.192  30.932   9.114  1.00  0.00     0.293 HD
ENDBRANCH   6  18
BRANCH  17  20
ATOM     20  O   UNL     1      27.042  27.342   8.137  1.00  0.00    -0.507 OA
ATOM     21  H   UNL     1      26.290  27.472   8.800  1.00  0.00     0.293 HD
ENDBRANCH  17  20
BRANCH  15  22
ATOM     22  O   UNL     1      28.115  25.638   3.785  1.00  0.00    -0.508 OA
ATOM     23  H   UNL     1      27.712  24.748   3.512  1.00  0.00     0.293 HD
ENDBRANCH  15  22
TORSDOF 3
ENDMDL
MODEL 6
REMARK VINA RESULT:    -4.150      1.940      2.850
REMARK INTER + INTRA:          -4.514
REMARK INTER:                  -4.514
REMARK INTRA:                   0.000
REMARK UNBOUND:                 0.000
REMARK SMILES Cc1cc(O)c2c(c1)C(=O)c1cc(O)cc(O)c1C2=O
REMARK SMILES IDX 1 1 2 2 8 3 7 4 6 5 4 6 3 7 19 8 20 9 18 10 11 11 9 12 10 13
REMARK SMILES IDX 12 14 13 15 15 16 16 17 5 18 17 20 14 22
REMARK H PARENT 5 19 17 21 14 23
REMARK Flexibility Score: inf
ROOT
ATOM      1  C   UNL     1      18.015  20.860   2.875  1.00  0.00     0.044 C 
ATOM      2  C   UNL     1      18.748  22.125   3.216  1.00  0.00    -0.047 A 
ATOM      3  C   UNL     1      20.084  22.075   3.627  1.00  0.00     0.016 A 
ATOM      4  C   UNL     1      20.771  23.251   3.975  1.00  0.00     0.038 A 
ATOM      5  C   UNL     1      20.108  24.497   3.911  1.00  0.00     0.076 A 
ATOM      6  C   UNL     1      18.730  24.531   3.575  1.00  0.00     0.127 A 
ATOM      7  C   UNL     1      18.074  23.350   3.212  1.00  0.00     0.050 A 
ATOM      8  C   UNL     1      20.905  25.729   4.142  1.00  0.00     0.201 C 
ATOM      9  O   UNL     1      20.579  26.803   3.572  1.00  0.00    -0.288 OA
ATOM     10  C   UNL     1      22.187  25.649   4.891  1.00  0.00     0.076 A 
ATOM     11  C   UNL     1      22.846  24.401   4.956  1.00  0.00     0.041 A 
ATOM     12  C   UNL     1      22.185  23.188   4.417  1.00  0.00     0.194 C 
ATOM     13  O   UNL     1      22.817  22.098   4.358  1.00  0.00    -0.289 OA
ATOM     14  C   UNL     1      24.123  24.314   5.534  1.00  0.00     0.059 A 
ATOM     15  C   UNL     1      24.742  25.451   6.061  1.00  0.00     0.120 A 
ATOM     16  C   UNL     1      24.078  26.676   6.035  1.00  0.00     0.093 A 
ATOM     17  C   UNL     1      22.797  26.786   5.483  1.00  0.00     0.131 A 
ENDROOT
BRANCH   6  18
ATOM     18  O   UNL     1      17.971  25.702   3.624  1.00  0.00    -0.507 OA
ATOM     19  H   UNL     1      17.074  25.806   3.169  1.00  0.00     0.293 HD
ENDBRANCH   6  18
BRANCH  17  20
ATOM     20  O   UNL     1      22.160  28.025   5.576  1.00  0.00    -0.507 OA
ATOM     21  H   UNL     1      22.130  28.695   4.821  1.00  0.00     0.293 HD
ENDBRANCH  17  20
BRANCH  15  22
ATOM     22  O   UNL     1      26.013  25.370   6.624  1.00  0.00    -0.508 OA
ATOM     23  H   UNL     1      26.408  26.139   7.155  1.00  0.00     0.293 HD
ENDBRANCH  15  22
TORSDOF 3
ENDMDL
MODEL 7
REMARK VINA RESULT:    -4.028      3.686      5.692
REMARK INTER + INTRA:          -4.381
REMARK INTER:                  -4.381
REMARK INTRA:                   0.000
REMARK UNBOUND:                 0.000
REMARK SMILES Cc1cc(O)c2c(c1)C(=O)c1cc(O)cc(O)c1C2=O
REMARK SMILES IDX 1 1 2 2 8 3 7 4 6 5 4 6 3 7 19 8 20 9 18 10 11 11 9 12 10 13
REMARK SMILES IDX 12 14 13 15 15 16 16 17 5 18 17 20 14 22
REMARK H PARENT 5 19 17 21 14 23
REMARK Flexibility Score: inf
ROOT
ATOM      1  C   UNL     1      25.272  18.595   2.947  1.00  0.00     0.044 C 
ATOM      2  C   UNL     1      25.206  19.919   3.650  1.00  0.00    -0.047 A 
ATOM      3  C   UNL     1      24.000  20.624   3.715  1.00  0.00     0.016 A 
ATOM      4  C   UNL     1      23.935  21.878   4.346  1.00  0.00     0.038 A 
ATOM      5  C   UNL     1      25.098  22.436   4.921  1.00  0.00     0.076 A 
ATOM      6  C   UNL     1      26.335  21.755   4.779  1.00  0.00     0.127 A 
ATOM      7  C   UNL     1      26.371  20.500   4.165  1.00  0.00     0.050 A 
ATOM      8  C   UNL     1      24.961  23.689   5.707  1.00  0.00     0.201 C 
ATOM      9  O   UNL     1      25.745  23.917   6.666  1.00  0.00    -0.288 OA
ATOM     10  C   UNL     1      23.790  24.576   5.483  1.00  0.00     0.076 A 
ATOM     11  C   UNL     1      22.629  24.015   4.904  1.00  0.00     0.041 A 
ATOM     12  C   UNL     1      22.653  22.620   4.403  1.00  0.00     0.194 C 
ATOM     13  O   UNL     1      21.588  22.075   4.002  1.00  0.00    -0.289 OA
ATOM     14  C   UNL     1      21.457  24.784   4.803  1.00  0.00     0.059 A 
ATOM     15  C   UNL     1      21.435  26.106   5.257  1.00  0.00     0.120 A 
ATOM     16  C   UNL     1      22.589  26.675   5.791  1.00  0.00     0.093 A 
ATOM     17  C   UNL     1      23.774  25.937   5.884  1.00  0.00     0.131 A 
ENDROOT
BRANCH   6  18
ATOM     18  O   UNL     1      27.550  22.304   5.197  1.00  0.00    -0.507 OA
ATOM     19  H   UNL     1      28.449  21.892   4.990  1.00  0.00     0.293 HD
ENDBRANCH   6  18
BRANCH  17  20
ATOM     20  O   UNL     1      24.913  26.603   6.345  1.00  0.00    -0.507 OA
ATOM     21  H   UNL     1      25.097  27.581   6.173  1.00  0.00     0.293 HD
ENDBRANCH  17  20
BRANCH  15  22
ATOM     22  O   UNL     1      20.271  26.867   5.169  1.00  0.00    -0.508 OA
ATOM     23  H   UNL     1      19.507  26.600   4.558  1.00  0.00     0.293 HD
ENDBRANCH  15  22
TORSDOF 3
ENDMDL
MODEL 8
REMARK VINA RESULT:    -4.009      3.994      5.641
REMARK INTER + INTRA:          -4.361
REMARK INTER:                  -4.361
REMARK INTRA:                   0.000
REMARK UNBOUND:                 0.000
REMARK SMILES Cc1cc(O)c2c(c1)C(=O)c1cc(O)cc(O)c1C2=O
REMARK SMILES IDX 1 1 2 2 8 3 7 4 6 5 4 6 3 7 19 8 20 9 18 10 11 11 9 12 10 13
REMARK SMILES IDX 12 14 13 15 15 16 16 17 5 18 17 20 14 22
REMARK H PARENT 5 19 17 21 14 23
REMARK Flexibility Score: inf
ROOT
ATOM      1  C   UNL     1      18.035  21.491   2.910  1.00  0.00     0.044 C 
ATOM      2  C   UNL     1      19.354  22.029   3.381  1.00  0.00    -0.047 A 
ATOM      3  C   UNL     1      20.513  21.255   3.263  1.00  0.00     0.016 A 
ATOM      4  C   UNL     1      21.748  21.738   3.728  1.00  0.00     0.038 A 
ATOM      5  C   UNL     1      21.824  23.018   4.321  1.00  0.00     0.076 A 
ATOM      6  C   UNL     1      20.632  23.762   4.514  1.00  0.00     0.127 A 
ATOM      7  C   UNL     1      19.418  23.269   4.025  1.00  0.00     0.050 A 
ATOM      8  C   UNL     1      23.166  23.555   4.664  1.00  0.00     0.201 C 
ATOM      9  O   UNL     1      23.369  24.797   4.640  1.00  0.00    -0.288 OA
ATOM     10  C   UNL     1      24.308  22.622   4.850  1.00  0.00     0.076 A 
ATOM     11  C   UNL     1      24.228  21.341   4.258  1.00  0.00     0.041 A 
ATOM     12  C   UNL     1      22.970  20.907   3.605  1.00  0.00     0.194 C 
ATOM     13  O   UNL     1      22.933  19.819   2.967  1.00  0.00    -0.289 OA
ATOM     14  C   UNL     1      25.341  20.484   4.294  1.00  0.00     0.059 A 
ATOM     15  C   UNL     1      26.522  20.882   4.925  1.00  0.00     0.120 A 
ATOM     16  C   UNL     1      26.592  22.128   5.545  1.00  0.00     0.093 A 
ATOM     17  C   UNL     1      25.492  22.992   5.541  1.00  0.00     0.131 A 
ENDROOT
BRANCH   6  18
ATOM     18  O   UNL     1      20.602  24.971   5.214  1.00  0.00    -0.507 OA
ATOM     19  H   UNL     1      20.095  25.103   6.078  1.00  0.00     0.293 HD
ENDBRANCH   6  18
BRANCH  17  20
ATOM     20  O   UNL     1      25.606  24.184   6.261  1.00  0.00    -0.507 OA
ATOM     21  H   UNL     1      24.944  24.944   6.192  1.00  0.00     0.293 HD
ENDBRANCH  17  20
BRANCH  15  22
ATOM     22  O   UNL     1      27.631  20.038   4.952  1.00  0.00    -0.508 OA
ATOM     23  H   UNL     1      27.930  19.582   5.807  1.00  0.00     0.293 HD
ENDBRANCH  15  22
TORSDOF 3
ENDMDL
