MODEL 1
REMARK VINA RESULT:    -5.306      0.000      0.000
REMARK INTER + INTRA:          -5.306
REMARK INTER:                  -5.306
REMARK INTRA:                   0.000
REMARK UNBOUND:                 0.000
REMARK SMILES C=C1[C@H]2CC[C@H](C2)C1(C)C
REMARK SMILES IDX 9 1 8 2 6 3 5 4 4 5 3 6 7 7 2 8 1 9 10 10
REMARK H PARENT
REMARK Flexibility Score: inf
ROOT
ATOM      1  C   UNL     1       8.991  31.577  22.302  1.00  0.00     0.016 C 
ATOM      2  C   UNL     1       8.565  32.843  23.079  1.00  0.00    -0.012 C 
ATOM      3  C   UNL     1       9.704  33.913  23.227  1.00  0.00    -0.001 C 
ATOM      4  C   UNL     1      11.019  33.263  23.722  1.00  0.00     0.005 C 
ATOM      5  C   UNL     1      10.675  32.847  25.168  1.00  0.00     0.008 C 
ATOM      6  C   UNL     1       9.253  33.404  25.357  1.00  0.00     0.015 C 
ATOM      7  C   UNL     1       9.303  34.650  24.500  1.00  0.00     0.012 C 
ATOM      8  C   UNL     1       8.321  32.550  24.540  1.00  0.00    -0.068 C 
ATOM      9  C   UNL     1       7.466  31.648  25.038  1.00  0.00     0.008 C 
ATOM     10  C   UNL     1       7.312  33.448  22.407  1.00  0.00     0.016 C 
ENDROOT
TORSDOF 0
ENDMDL
MODEL 2
REMARK VINA RESULT:    -5.224      1.157      2.665
REMARK INTER + INTRA:          -5.224
REMARK INTER:                  -5.224
REMARK INTRA:                   0.000
REMARK UNBOUND:                 0.000
REMARK SMILES C=C1[C@H]2CC[C@H](C2)C1(C)C
REMARK SMILES IDX 9 1 8 2 6 3 5 4 4 5 3 6 7 7 2 8 1 9 10 10
REMARK H PARENT
REMARK Flexibility Score: inf
ROOT
ATOM      1  C   UNL     1       9.713  31.508  22.325  1.00  0.00     0.016 C 
ATOM      2  C   UNL     1      10.283  32.757  23.036  1.00  0.00    -0.012 C 
ATOM      3  C   UNL     1      10.345  32.627  24.599  1.00  0.00    -0.001 C 
ATOM      4  C   UNL     1       9.000  32.116  25.170  1.00  0.00     0.005 C 
ATOM      5  C   UNL     1       8.043  33.299  24.907  1.00  0.00     0.008 C 
ATOM      6  C   UNL     1       8.977  34.374  24.322  1.00  0.00     0.015 C 
ATOM      7  C   UNL     1      10.267  34.080  25.055  1.00  0.00     0.012 C 
ATOM      8  C   UNL     1       9.349  33.939  22.930  1.00  0.00    -0.068 C 
ATOM      9  C   UNL     1       8.880  34.483  21.801  1.00  0.00     0.008 C 
ATOM     10  C   UNL     1      11.674  33.080  22.444  1.00  0.00     0.016 C 
ENDROOT
TORSDOF 0
ENDMDL
MODEL 3
REMARK VINA RESULT:    -5.176      0.794      2.986
REMARK INTER + INTRA:          -5.176
REMARK INTER:                  -5.176
REMARK INTRA:                   0.000
REMARK UNBOUND:                 0.000
REMARK SMILES C=C1[C@H]2CC[C@H](C2)C1(C)C
REMARK SMILES IDX 9 1 8 2 6 3 5 4 4 5 3 6 7 7 2 8 1 9 10 10
REMARK H PARENT
REMARK Flexibility Score: inf
ROOT
ATOM      1  C   UNL     1       9.393  34.732  24.884  1.00  0.00     0.016 C 
ATOM      2  C   UNL     1       9.619  33.327  24.282  1.00  0.00    -0.012 C 
ATOM      3  C   UNL     1       9.969  33.339  22.752  1.00  0.00    -0.001 C 
ATOM      4  C   UNL     1       8.981  34.230  21.960  1.00  0.00     0.005 C 
ATOM      5  C   UNL     1       7.656  33.445  22.058  1.00  0.00     0.008 C 
ATOM      6  C   UNL     1       8.071  32.159  22.794  1.00  0.00     0.015 C 
ATOM      7  C   UNL     1       9.485  31.969  22.291  1.00  0.00     0.012 C 
ATOM      8  C   UNL     1       8.340  32.526  24.229  1.00  0.00    -0.068 C 
ATOM      9  C   UNL     1       7.542  32.232  25.262  1.00  0.00     0.008 C 
ATOM     10  C   UNL     1      10.708  32.599  25.101  1.00  0.00     0.016 C 
ENDROOT
TORSDOF 0
ENDMDL
MODEL 4
REMARK VINA RESULT:    -5.149      0.988      3.284
REMARK INTER + INTRA:          -5.149
REMARK INTER:                  -5.149
REMARK INTRA:                   0.000
REMARK UNBOUND:                 0.000
REMARK SMILES C=C1[C@H]2CC[C@H](C2)C1(C)C
REMARK SMILES IDX 9 1 8 2 6 3 5 4 4 5 3 6 7 7 2 8 1 9 10 10
REMARK H PARENT
REMARK Flexibility Score: inf
ROOT
ATOM      1  C   UNL     1      10.027  32.426  26.069  1.00  0.00     0.016 C 
ATOM      2  C   UNL     1       9.268  33.152  24.934  1.00  0.00    -0.012 C 
ATOM      3  C   UNL     1       7.714  32.936  24.971  1.00  0.00    -0.001 C 
ATOM      4  C   UNL     1       7.361  31.436  25.129  1.00  0.00     0.005 C 
ATOM      5  C   UNL     1       7.815  30.833  23.782  1.00  0.00     0.008 C 
ATOM      6  C   UNL     1       8.266  32.069  22.985  1.00  0.00     0.015 C 
ATOM      7  C   UNL     1       7.319  33.126  23.510  1.00  0.00     0.012 C 
ATOM      8  C   UNL     1       9.563  32.545  23.584  1.00  0.00    -0.068 C 
ATOM      9  C   UNL     1      10.770  32.397  23.025  1.00  0.00     0.008 C 
ATOM     10  C   UNL     1       9.627  34.654  24.970  1.00  0.00     0.016 C 
ENDROOT
TORSDOF 0
ENDMDL
MODEL 5
REMARK VINA RESULT:    -5.079      1.155      2.270
REMARK INTER + INTRA:          -5.079
REMARK INTER:                  -5.079
REMARK INTRA:                   0.000
REMARK UNBOUND:                 0.000
REMARK SMILES C=C1[C@H]2CC[C@H](C2)C1(C)C
REMARK SMILES IDX 9 1 8 2 6 3 5 4 4 5 3 6 7 7 2 8 1 9 10 10
REMARK H PARENT
REMARK Flexibility Score: inf
ROOT
ATOM      1  C   UNL     1       8.883  34.327  21.971  1.00  0.00     0.016 C 
ATOM      2  C   UNL     1       8.682  33.147  22.949  1.00  0.00    -0.012 C 
ATOM      3  C   UNL     1       8.320  33.588  24.412  1.00  0.00    -0.001 C 
ATOM      4  C   UNL     1       9.283  34.690  24.917  1.00  0.00     0.005 C 
ATOM      5  C   UNL     1      10.625  33.940  25.049  1.00  0.00     0.008 C 
ATOM      6  C   UNL     1      10.243  32.488  24.711  1.00  0.00     0.015 C 
ATOM      7  C   UNL     1       8.830  32.418  25.246  1.00  0.00     0.012 C 
ATOM      8  C   UNL     1       9.977  32.424  23.231  1.00  0.00    -0.068 C 
ATOM      9  C   UNL     1      10.789  31.865  22.325  1.00  0.00     0.008 C 
ATOM     10  C   UNL     1       7.614  32.191  22.371  1.00  0.00     0.016 C 
ENDROOT
TORSDOF 0
ENDMDL
MODEL 6
REMARK VINA RESULT:    -4.943      0.863      2.395
REMARK INTER + INTRA:          -4.943
REMARK INTER:                  -4.943
REMARK INTRA:                   0.000
REMARK UNBOUND:                 0.000
REMARK SMILES C=C1[C@H]2CC[C@H](C2)C1(C)C
REMARK SMILES IDX 9 1 8 2 6 3 5 4 4 5 3 6 7 7 2 8 1 9 10 10
REMARK H PARENT
REMARK Flexibility Score: inf
ROOT
ATOM      1  C   UNL     1       7.750  31.437  24.209  1.00  0.00     0.016 C 
ATOM      2  C   UNL     1       8.711  31.980  23.126  1.00  0.00    -0.012 C 
ATOM      3  C   UNL     1      10.099  32.452  23.687  1.00  0.00    -0.001 C 
ATOM      4  C   UNL     1       9.919  33.379  24.915  1.00  0.00     0.005 C 
ATOM      5  C   UNL     1       9.286  34.646  24.300  1.00  0.00     0.008 C 
ATOM      6  C   UNL     1       9.283  34.333  22.793  1.00  0.00     0.015 C 
ATOM      7  C   UNL     1      10.534  33.492  22.659  1.00  0.00     0.012 C 
ATOM      8  C   UNL     1       8.226  33.289  22.550  1.00  0.00    -0.068 C 
ATOM      9  C   UNL     1       7.041  33.512  21.970  1.00  0.00     0.008 C 
ATOM     10  C   UNL     1       8.886  30.908  22.027  1.00  0.00     0.016 C 
ENDROOT
TORSDOF 0
ENDMDL
MODEL 7
REMARK VINA RESULT:    -4.846      0.924      2.109
REMARK INTER + INTRA:          -4.846
REMARK INTER:                  -4.846
REMARK INTRA:                   0.000
REMARK UNBOUND:                 0.000
REMARK SMILES C=C1[C@H]2CC[C@H](C2)C1(C)C
REMARK SMILES IDX 9 1 8 2 6 3 5 4 4 5 3 6 7 7 2 8 1 9 10 10
REMARK H PARENT
REMARK Flexibility Score: inf
ROOT
ATOM      1  C   UNL     1       7.837  31.140  24.355  1.00  0.00     0.016 C 
ATOM      2  C   UNL     1       8.291  32.618  24.355  1.00  0.00    -0.012 C 
ATOM      3  C   UNL     1       8.580  33.194  22.923  1.00  0.00    -0.001 C 
ATOM      4  C   UNL     1       9.487  32.239  22.109  1.00  0.00     0.005 C 
ATOM      5  C   UNL     1      10.837  32.329  22.854  1.00  0.00     0.008 C 
ATOM      6  C   UNL     1      10.568  33.399  23.927  1.00  0.00     0.015 C 
ATOM      7  C   UNL     1       9.588  34.302  23.210  1.00  0.00     0.012 C 
ATOM      8  C   UNL     1       9.664  32.784  24.961  1.00  0.00    -0.068 C 
ATOM      9  C   UNL     1      10.043  32.404  26.188  1.00  0.00     0.008 C 
ATOM     10  C   UNL     1       7.237  33.467  25.099  1.00  0.00     0.016 C 
ENDROOT
TORSDOF 0
ENDMDL
MODEL 8
REMARK VINA RESULT:    -4.795      0.840      3.146
REMARK INTER + INTRA:          -4.795
REMARK INTER:                  -4.795
REMARK INTRA:                   0.000
REMARK UNBOUND:                 0.000
REMARK SMILES C=C1[C@H]2CC[C@H](C2)C1(C)C
REMARK SMILES IDX 9 1 8 2 6 3 5 4 4 5 3 6 7 7 2 8 1 9 10 10
REMARK H PARENT
REMARK Flexibility Score: inf
ROOT
ATOM      1  C   UNL     1      11.112  32.931  23.283  1.00  0.00     0.016 C 
ATOM      2  C   UNL     1       9.982  32.777  24.327  1.00  0.00    -0.012 C 
ATOM      3  C   UNL     1       8.923  31.678  23.960  1.00  0.00    -0.001 C 
ATOM      4  C   UNL     1       8.436  31.839  22.499  1.00  0.00     0.005 C 
ATOM      5  C   UNL     1       7.639  33.160  22.545  1.00  0.00     0.008 C 
ATOM      6  C   UNL     1       7.676  33.532  24.038  1.00  0.00     0.015 C 
ATOM      7  C   UNL     1       7.675  32.166  24.687  1.00  0.00     0.012 C 
ATOM      8  C   UNL     1       9.076  33.983  24.356  1.00  0.00    -0.068 C 
ATOM      9  C   UNL     1       9.446  35.252  24.572  1.00  0.00     0.008 C 
ATOM     10  C   UNL     1      10.612  32.508  25.712  1.00  0.00     0.016 C 
ENDROOT
TORSDOF 0
ENDMDL
MODEL 9
REMARK VINA RESULT:    -4.757      1.161      2.971
REMARK INTER + INTRA:          -4.757
REMARK INTER:                  -4.757
REMARK INTRA:                   0.000
REMARK UNBOUND:                 0.000
REMARK SMILES C=C1[C@H]2CC[C@H](C2)C1(C)C
REMARK SMILES IDX 9 1 8 2 6 3 5 4 4 5 3 6 7 7 2 8 1 9 10 10
REMARK H PARENT
REMARK Flexibility Score: inf
ROOT
ATOM      1  C   UNL     1      11.156  32.356  24.042  1.00  0.00     0.016 C 
ATOM      2  C   UNL     1      10.499  33.063  22.835  1.00  0.00    -0.012 C 
ATOM      3  C   UNL     1       9.645  34.322  23.222  1.00  0.00    -0.001 C 
ATOM      4  C   UNL     1       8.679  34.004  24.390  1.00  0.00     0.005 C 
ATOM      5  C   UNL     1       7.674  33.025  23.747  1.00  0.00     0.008 C 
ATOM      6  C   UNL     1       8.120  32.989  22.275  1.00  0.00     0.015 C 
ATOM      7  C   UNL     1       8.634  34.400  22.084  1.00  0.00     0.012 C 
ATOM      8  C   UNL     1       9.412  32.219  22.213  1.00  0.00    -0.068 C 
ATOM      9  C   UNL     1       9.546  30.976  21.735  1.00  0.00     0.008 C 
ATOM     10  C   UNL     1      11.594  33.423  21.806  1.00  0.00     0.016 C 
ENDROOT
TORSDOF 0
ENDMDL
