MODEL 1
REMARK VINA RESULT:    -3.149      0.000      0.000
REMARK INTER + INTRA:          -3.512
REMARK INTER:                  -3.517
REMARK INTRA:                   0.005
REMARK UNBOUND:                 0.005
REMARK SMILES CCCC(=O)[O-]
REMARK SMILES IDX 3 1 4 2 5 3 6 4 2 5 1 6
REMARK H PARENT
REMARK Flexibility Score: inf
ROOT
ATOM      1  C   UNL     1      45.327  12.834  11.675  1.00  0.00     0.052 C 
ENDROOT
BRANCH   1   2
ATOM      2  C   UNL     1      46.069  14.136  11.653  1.00  0.00     0.041 C 
ATOM      3  O   UNL     1      47.125  14.251  10.977  1.00  0.00    -0.550 OA
ATOM      4  O   UNL     1      45.612  15.210  12.406  1.00  0.00    -0.550 OA
ENDBRANCH   1   2
BRANCH   1   5
ATOM      5  C   UNL     1      46.131  11.734  12.380  1.00  0.00     0.003 C 
ATOM      6  C   UNL     1      46.953  10.895  11.400  1.00  0.00     0.004 C 
ENDBRANCH   1   5
TORSDOF 2
ENDMDL
MODEL 2
REMARK VINA RESULT:    -3.016     15.950     17.127
REMARK INTER + INTRA:          -3.364
REMARK INTER:                  -3.339
REMARK INTRA:                  -0.024
REMARK UNBOUND:                 0.005
REMARK SMILES CCCC(=O)[O-]
REMARK SMILES IDX 3 1 4 2 5 3 6 4 2 5 1 6
REMARK H PARENT
REMARK Flexibility Score: inf
ROOT
ATOM      1  C   UNL     1      43.708  27.126   2.058  1.00  0.00     0.052 C 
ENDROOT
BRANCH   1   2
ATOM      2  C   UNL     1      44.690  26.876   3.162  1.00  0.00     0.041 C 
ATOM      3  O   UNL     1      45.235  27.844   3.754  1.00  0.00    -0.550 OA
ATOM      4  O   UNL     1      45.028  25.575   3.511  1.00  0.00    -0.550 OA
ENDBRANCH   1   2
BRANCH   1   5
ATOM      5  C   UNL     1      42.920  28.423   2.281  1.00  0.00     0.003 C 
ATOM      6  C   UNL     1      41.447  28.163   2.595  1.00  0.00     0.004 C 
ENDBRANCH   1   5
TORSDOF 2
ENDMDL
MODEL 3
REMARK VINA RESULT:    -3.008     16.026     17.154
REMARK INTER + INTRA:          -3.355
REMARK INTER:                  -3.334
REMARK INTRA:                  -0.021
REMARK UNBOUND:                 0.005
REMARK SMILES CCCC(=O)[O-]
REMARK SMILES IDX 3 1 4 2 5 3 6 4 2 5 1 6
REMARK H PARENT
REMARK Flexibility Score: inf
ROOT
ATOM      1  C   UNL     1      43.729  27.177   2.016  1.00  0.00     0.052 C 
ENDROOT
BRANCH   1   2
ATOM      2  C   UNL     1      44.710  26.905   3.117  1.00  0.00     0.041 C 
ATOM      3  O   UNL     1      44.961  25.721   3.461  1.00  0.00    -0.550 OA
ATOM      4  O   UNL     1      45.318  27.960   3.784  1.00  0.00    -0.550 OA
ENDBRANCH   1   2
BRANCH   1   5
ATOM      5  C   UNL     1      42.907  28.443   2.288  1.00  0.00     0.003 C 
ATOM      6  C   UNL     1      41.441  28.132   2.588  1.00  0.00     0.004 C 
ENDBRANCH   1   5
TORSDOF 2
ENDMDL
MODEL 4
REMARK VINA RESULT:    -2.998      2.144      3.400
REMARK INTER + INTRA:          -3.344
REMARK INTER:                  -3.329
REMARK INTRA:                  -0.015
REMARK UNBOUND:                 0.005
REMARK SMILES CCCC(=O)[O-]
REMARK SMILES IDX 3 1 4 2 5 3 6 4 2 5 1 6
REMARK H PARENT
REMARK Flexibility Score: inf
ROOT
ATOM      1  C   UNL     1      47.124  13.316  11.232  1.00  0.00     0.052 C 
ENDROOT
BRANCH   1   2
ATOM      2  C   UNL     1      46.438  12.024  11.553  1.00  0.00     0.041 C 
ATOM      3  O   UNL     1      45.246  12.025  11.960  1.00  0.00    -0.550 OA
ATOM      4  O   UNL     1      47.124  10.822  11.437  1.00  0.00    -0.550 OA
ENDBRANCH   1   2
BRANCH   1   5
ATOM      5  C   UNL     1      47.036  14.312  12.395  1.00  0.00     0.003 C 
ATOM      6  C   UNL     1      45.971  15.384  12.165  1.00  0.00     0.004 C 
ENDBRANCH   1   5
TORSDOF 2
ENDMDL
MODEL 5
REMARK VINA RESULT:    -2.946     17.355     17.944
REMARK INTER + INTRA:          -3.286
REMARK INTER:                  -3.281
REMARK INTRA:                  -0.005
REMARK UNBOUND:                 0.005
REMARK SMILES CCCC(=O)[O-]
REMARK SMILES IDX 3 1 4 2 5 3 6 4 2 5 1 6
REMARK H PARENT
REMARK Flexibility Score: inf
ROOT
ATOM      1  C   UNL     1      44.154  28.363   2.101  1.00  0.00     0.052 C 
ENDROOT
BRANCH   1   2
ATOM      2  C   UNL     1      45.330  27.678   1.472  1.00  0.00     0.041 C 
ATOM      3  O   UNL     1      45.537  27.785   0.235  1.00  0.00    -0.550 OA
ATOM      4  O   UNL     1      46.175  26.894   2.247  1.00  0.00    -0.550 OA
ENDBRANCH   1   2
BRANCH   1   5
ATOM      5  C   UNL     1      42.912  27.464   2.113  1.00  0.00     0.003 C 
ATOM      6  C   UNL     1      41.658  28.210   2.570  1.00  0.00     0.004 C 
ENDBRANCH   1   5
TORSDOF 2
ENDMDL
MODEL 6
REMARK VINA RESULT:    -2.888     19.044     20.056
REMARK INTER + INTRA:          -3.221
REMARK INTER:                  -3.213
REMARK INTRA:                  -0.008
REMARK UNBOUND:                 0.005
REMARK SMILES CCCC(=O)[O-]
REMARK SMILES IDX 3 1 4 2 5 3 6 4 2 5 1 6
REMARK H PARENT
REMARK Flexibility Score: inf
ROOT
ATOM      1  C   UNL     1      34.749  26.018   0.722  1.00  0.00     0.052 C 
ENDROOT
BRANCH   1   2
ATOM      2  C   UNL     1      35.344  24.891   1.510  1.00  0.00     0.041 C 
ATOM      3  O   UNL     1      36.381  24.309   1.096  1.00  0.00    -0.550 OA
ATOM      4  O   UNL     1      34.735  24.461   2.682  1.00  0.00    -0.550 OA
ENDBRANCH   1   2
BRANCH   1   5
ATOM      5  C   UNL     1      35.645  27.262   0.743  1.00  0.00     0.003 C 
ATOM      6  C   UNL     1      35.318  28.235  -0.390  1.00  0.00     0.004 C 
ENDBRANCH   1   5
TORSDOF 2
ENDMDL
MODEL 7
REMARK VINA RESULT:    -2.681     23.544     23.958
REMARK INTER + INTRA:          -2.989
REMARK INTER:                  -2.960
REMARK INTRA:                  -0.029
REMARK UNBOUND:                 0.005
REMARK SMILES CCCC(=O)[O-]
REMARK SMILES IDX 3 1 4 2 5 3 6 4 2 5 1 6
REMARK H PARENT
REMARK Flexibility Score: inf
ROOT
ATOM      1  C   UNL     1      29.198  10.096  -4.964  1.00  0.00     0.052 C 
ENDROOT
BRANCH   1   2
ATOM      2  C   UNL     1      28.286  10.890  -4.079  1.00  0.00     0.041 C 
ATOM      3  O   UNL     1      28.402  12.142  -4.012  1.00  0.00    -0.550 OA
ATOM      4  O   UNL     1      27.333  10.244  -3.302  1.00  0.00    -0.550 OA
ENDBRANCH   1   2
BRANCH   1   5
ATOM      5  C   UNL     1      29.951  10.992  -5.955  1.00  0.00     0.003 C 
ATOM      6  C   UNL     1      31.456  10.726  -5.954  1.00  0.00     0.004 C 
ENDBRANCH   1   5
TORSDOF 2
ENDMDL
MODEL 8
REMARK VINA RESULT:    -2.627     15.935     16.998
REMARK INTER + INTRA:          -2.930
REMARK INTER:                  -2.862
REMARK INTRA:                  -0.067
REMARK UNBOUND:                 0.005
REMARK SMILES CCCC(=O)[O-]
REMARK SMILES IDX 3 1 4 2 5 3 6 4 2 5 1 6
REMARK H PARENT
REMARK Flexibility Score: inf
ROOT
ATOM      1  C   UNL     1      44.866  28.027   3.005  1.00  0.00     0.052 C 
ENDROOT
BRANCH   1   2
ATOM      2  C   UNL     1      44.231  27.526   1.743  1.00  0.00     0.041 C 
ATOM      3  O   UNL     1      42.995  27.291   1.707  1.00  0.00    -0.550 OA
ATOM      4  O   UNL     1      45.010  27.287   0.619  1.00  0.00    -0.550 OA
ENDBRANCH   1   2
BRANCH   1   5
ATOM      5  C   UNL     1      45.867  27.016   3.577  1.00  0.00     0.003 C 
ATOM      6  C   UNL     1      45.197  25.709   4.001  1.00  0.00     0.004 C 
ENDBRANCH   1   5
TORSDOF 2
ENDMDL
MODEL 9
REMARK VINA RESULT:    -2.592     16.863     17.998
REMARK INTER + INTRA:          -2.890
REMARK INTER:                  -2.819
REMARK INTRA:                  -0.071
REMARK UNBOUND:                 0.005
REMARK SMILES CCCC(=O)[O-]
REMARK SMILES IDX 3 1 4 2 5 3 6 4 2 5 1 6
REMARK H PARENT
REMARK Flexibility Score: inf
ROOT
ATOM      1  C   UNL     1      43.101  28.193   2.259  1.00  0.00     0.052 C 
ENDROOT
BRANCH   1   2
ATOM      2  C   UNL     1      44.200  27.201   2.027  1.00  0.00     0.041 C 
ATOM      3  O   UNL     1      44.795  27.164   0.919  1.00  0.00    -0.550 OA
ATOM      4  O   UNL     1      44.542  26.295   3.023  1.00  0.00    -0.550 OA
ENDBRANCH   1   2
BRANCH   1   5
ATOM      5  C   UNL     1      43.621  29.636   2.224  1.00  0.00     0.003 C 
ATOM      6  C   UNL     1      44.745  29.874   3.233  1.00  0.00     0.004 C 
ENDBRANCH   1   5
TORSDOF 2
ENDMDL
