MODEL 1
REMARK VINA RESULT:    -4.755      0.000      0.000
REMARK INTER + INTRA:          -5.851
REMARK INTER:                  -5.588
REMARK INTRA:                  -0.262
REMARK UNBOUND:                -0.262
REMARK SMILES O=c1cc(-c2ccc(O)c(O)c2)oc2cc(O)cc(O)c12
REMARK SMILES IDX 4 1 3 2 2 3 1 4 21 5 19 6 18 7 16 8 15 9 14 10 13 11 5 12
REMARK SMILES IDX 6 13 7 14 8 15 12 16 10 17 9 18 11 20 20 22 17 24
REMARK H PARENT 9 19 11 21 20 23 17 25
REMARK Flexibility Score: inf
ROOT
ATOM      1  C   UNL     1      21.034  48.549  88.133  1.00  0.00     0.138 A 
ATOM      2  C   UNL     1      21.719  48.564  86.911  1.00  0.00     0.100 A 
ATOM      3  C   UNL     1      22.409  47.427  86.491  1.00  0.00     0.197 A 
ATOM      4  O   UNL     1      22.967  47.453  85.364  1.00  0.00    -0.289 OA
ATOM      5  C   UNL     1      22.443  46.279  87.319  1.00  0.00     0.107 A 
ATOM      6  C   UNL     1      23.143  45.073  87.011  1.00  0.00     0.134 A 
ATOM      7  C   UNL     1      23.021  43.968  87.864  1.00  0.00     0.093 A 
ATOM      8  C   UNL     1      22.276  44.043  89.039  1.00  0.00     0.123 A 
ATOM      9  C   UNL     1      21.629  45.233  89.376  1.00  0.00     0.094 A 
ATOM     10  C   UNL     1      21.701  46.341  88.529  1.00  0.00     0.146 A 
ATOM     11  O   UNL     1      21.056  47.449  88.877  1.00  0.00    -0.456 OA
ENDROOT
BRANCH   1  12
ATOM     12  C   UNL     1      20.287  49.733  88.629  1.00  0.00     0.021 A 
ATOM     13  C   UNL     1      18.884  49.685  88.696  1.00  0.00     0.016 A 
ATOM     14  C   UNL     1      18.156  50.787  89.153  1.00  0.00     0.051 A 
ATOM     15  C   UNL     1      18.817  51.959  89.540  1.00  0.00     0.157 A 
ATOM     16  C   UNL     1      20.944  50.919  89.009  1.00  0.00     0.062 A 
ATOM     17  C   UNL     1      20.214  52.026  89.464  1.00  0.00     0.158 A 
BRANCH  15  18
ATOM     18  O   UNL     1      18.095  53.060  89.996  1.00  0.00    -0.504 OA
ATOM     19  H   UNL     1      18.444  53.650  90.743  1.00  0.00     0.293 HD
ENDBRANCH  15  18
BRANCH  17  20
ATOM     20  O   UNL     1      20.868  53.198  89.840  1.00  0.00    -0.504 OA
ATOM     21  H   UNL     1      20.726  54.069  89.343  1.00  0.00     0.293 HD
ENDBRANCH  17  20
ENDBRANCH   1  12
BRANCH   6  22
ATOM     22  O   UNL     1      23.981  44.914  85.904  1.00  0.00    -0.507 OA
ATOM     23  H   UNL     1      23.772  44.346  85.097  1.00  0.00     0.293 HD
ENDBRANCH   6  22
BRANCH   8  24
ATOM     24  O   UNL     1      22.190  42.928  89.871  1.00  0.00    -0.508 OA
ATOM     25  H   UNL     1      22.001  42.004  89.499  1.00  0.00     0.293 HD
ENDBRANCH   8  24
TORSDOF 5
ENDMDL
MODEL 2
REMARK VINA RESULT:    -4.629      2.623      7.371
REMARK INTER + INTRA:          -5.703
REMARK INTER:                  -5.414
REMARK INTRA:                  -0.288
REMARK UNBOUND:                -0.262
REMARK SMILES O=c1cc(-c2ccc(O)c(O)c2)oc2cc(O)cc(O)c12
REMARK SMILES IDX 4 1 3 2 2 3 1 4 21 5 19 6 18 7 16 8 15 9 14 10 13 11 5 12
REMARK SMILES IDX 6 13 7 14 8 15 12 16 10 17 9 18 11 20 20 22 17 24
REMARK H PARENT 9 19 11 21 20 23 17 25
REMARK Flexibility Score: inf
ROOT
ATOM      1  C   UNL     1      23.506  46.287  87.018  1.00  0.00     0.138 A 
ATOM      2  C   UNL     1      22.887  45.450  87.957  1.00  0.00     0.100 A 
ATOM      3  C   UNL     1      21.756  45.895  88.641  1.00  0.00     0.197 A 
ATOM      4  O   UNL     1      21.191  45.100  89.436  1.00  0.00    -0.289 OA
ATOM      5  C   UNL     1      21.262  47.201  88.409  1.00  0.00     0.107 A 
ATOM      6  C   UNL     1      20.137  47.776  89.072  1.00  0.00     0.134 A 
ATOM      7  C   UNL     1      19.682  49.044  88.687  1.00  0.00     0.093 A 
ATOM      8  C   UNL     1      20.344  49.780  87.706  1.00  0.00     0.123 A 
ATOM      9  C   UNL     1      21.476  49.249  87.086  1.00  0.00     0.094 A 
ATOM     10  C   UNL     1      21.934  47.973  87.423  1.00  0.00     0.146 A 
ATOM     11  O   UNL     1      23.004  47.496  86.796  1.00  0.00    -0.456 OA
ENDROOT
BRANCH   1  12
ATOM     12  C   UNL     1      24.713  45.865  86.265  1.00  0.00     0.021 A 
ATOM     13  C   UNL     1      24.735  44.603  85.646  1.00  0.00     0.016 A 
ATOM     14  C   UNL     1      25.862  44.179  84.937  1.00  0.00     0.051 A 
ATOM     15  C   UNL     1      26.990  45.003  84.844  1.00  0.00     0.157 A 
ATOM     16  C   UNL     1      25.857  46.683  86.178  1.00  0.00     0.062 A 
ATOM     17  C   UNL     1      26.988  46.256  85.469  1.00  0.00     0.158 A 
BRANCH  15  18
ATOM     18  O   UNL     1      28.116  44.584  84.138  1.00  0.00    -0.504 OA
ATOM     19  H   UNL     1      29.049  44.678  84.523  1.00  0.00     0.293 HD
ENDBRANCH  15  18
BRANCH  17  20
ATOM     20  O   UNL     1      28.117  47.070  85.384  1.00  0.00    -0.504 OA
ATOM     21  H   UNL     1      28.638  47.343  86.209  1.00  0.00     0.293 HD
ENDBRANCH  17  20
ENDBRANCH   1  12
BRANCH   6  22
ATOM     22  O   UNL     1      19.447  47.162  90.122  1.00  0.00    -0.507 OA
ATOM     23  H   UNL     1      18.784  47.622  90.727  1.00  0.00     0.293 HD
ENDBRANCH   6  22
BRANCH   8  24
ATOM     24  O   UNL     1      19.872  51.045  87.360  1.00  0.00    -0.508 OA
ATOM     25  H   UNL     1      20.501  51.780  87.056  1.00  0.00     0.293 HD
ENDBRANCH   8  24
TORSDOF 5
ENDMDL
MODEL 3
REMARK VINA RESULT:    -4.496      3.255      7.134
REMARK INTER + INTRA:          -5.547
REMARK INTER:                  -5.229
REMARK INTRA:                  -0.318
REMARK UNBOUND:                -0.262
REMARK SMILES O=c1cc(-c2ccc(O)c(O)c2)oc2cc(O)cc(O)c12
REMARK SMILES IDX 4 1 3 2 2 3 1 4 21 5 19 6 18 7 16 8 15 9 14 10 13 11 5 12
REMARK SMILES IDX 6 13 7 14 8 15 12 16 10 17 9 18 11 20 20 22 17 24
REMARK H PARENT 9 19 11 21 20 23 17 25
REMARK Flexibility Score: inf
ROOT
ATOM      1  C   UNL     1      18.615  48.835  89.828  1.00  0.00     0.138 A 
ATOM      2  C   UNL     1      17.623  49.824  89.802  1.00  0.00     0.100 A 
ATOM      3  C   UNL     1      17.987  51.171  89.830  1.00  0.00     0.197 A 
ATOM      4  O   UNL     1      17.076  52.034  89.749  1.00  0.00    -0.289 OA
ATOM      5  C   UNL     1      19.354  51.528  89.921  1.00  0.00     0.107 A 
ATOM      6  C   UNL     1      19.843  52.867  89.991  1.00  0.00     0.134 A 
ATOM      7  C   UNL     1      21.225  53.099  89.979  1.00  0.00     0.093 A 
ATOM      8  C   UNL     1      22.133  52.041  89.959  1.00  0.00     0.123 A 
ATOM      9  C   UNL     1      21.666  50.727  89.941  1.00  0.00     0.094 A 
ATOM     10  C   UNL     1      20.295  50.463  89.917  1.00  0.00     0.146 A 
ATOM     11  O   UNL     1      19.892  49.197  89.882  1.00  0.00    -0.456 OA
ENDROOT
BRANCH   1  12
ATOM     12  C   UNL     1      18.283  47.389  89.804  1.00  0.00     0.021 A 
ATOM     13  C   UNL     1      16.936  46.989  89.829  1.00  0.00     0.016 A 
ATOM     14  C   UNL     1      16.596  45.633  89.815  1.00  0.00     0.051 A 
ATOM     15  C   UNL     1      17.597  44.655  89.786  1.00  0.00     0.157 A 
ATOM     16  C   UNL     1      19.285  46.398  89.788  1.00  0.00     0.062 A 
ATOM     17  C   UNL     1      18.943  45.038  89.777  1.00  0.00     0.158 A 
BRANCH  15  18
ATOM     18  O   UNL     1      17.262  43.302  89.771  1.00  0.00    -0.504 OA
ATOM     19  H   UNL     1      16.991  42.814  90.617  1.00  0.00     0.293 HD
ENDBRANCH  15  18
BRANCH  17  20
ATOM     20  O   UNL     1      19.937  44.060  89.759  1.00  0.00    -0.504 OA
ATOM     21  H   UNL     1      19.711  43.073  89.773  1.00  0.00     0.293 HD
ENDBRANCH  17  20
ENDBRANCH   1  12
BRANCH   6  22
ATOM     22  O   UNL     1      19.025  53.996  90.095  1.00  0.00    -0.507 OA
ATOM     23  H   UNL     1      18.293  54.120  90.778  1.00  0.00     0.293 HD
ENDBRANCH   6  22
BRANCH   8  24
ATOM     24  O   UNL     1      23.500  52.310  89.963  1.00  0.00    -0.508 OA
ATOM     25  H   UNL     1      23.954  52.733  90.765  1.00  0.00     0.293 HD
ENDBRANCH   8  24
TORSDOF 5
ENDMDL
MODEL 4
REMARK VINA RESULT:    -4.468      3.302      7.870
REMARK INTER + INTRA:          -5.514
REMARK INTER:                  -5.212
REMARK INTRA:                  -0.301
REMARK UNBOUND:                -0.262
REMARK SMILES O=c1cc(-c2ccc(O)c(O)c2)oc2cc(O)cc(O)c12
REMARK SMILES IDX 4 1 3 2 2 3 1 4 21 5 19 6 18 7 16 8 15 9 14 10 13 11 5 12
REMARK SMILES IDX 6 13 7 14 8 15 12 16 10 17 9 18 11 20 20 22 17 24
REMARK H PARENT 9 19 11 21 20 23 17 25
REMARK Flexibility Score: inf
ROOT
ATOM      1  C   UNL     1      25.023  48.342  87.033  1.00  0.00     0.138 A 
ATOM      2  C   UNL     1      25.641  49.175  87.975  1.00  0.00     0.100 A 
ATOM      3  C   UNL     1      24.881  50.114  88.672  1.00  0.00     0.197 A 
ATOM      4  O   UNL     1      25.455  50.808  89.551  1.00  0.00    -0.289 OA
ATOM      5  C   UNL     1      23.498  50.244  88.398  1.00  0.00     0.107 A 
ATOM      6  C   UNL     1      22.629  51.189  89.021  1.00  0.00     0.134 A 
ATOM      7  C   UNL     1      21.258  51.157  88.739  1.00  0.00     0.093 A 
ATOM      8  C   UNL     1      20.733  50.255  87.814  1.00  0.00     0.123 A 
ATOM      9  C   UNL     1      21.581  49.360  87.161  1.00  0.00     0.094 A 
ATOM     10  C   UNL     1      22.948  49.343  87.446  1.00  0.00     0.146 A 
ATOM     11  O   UNL     1      23.718  48.463  86.816  1.00  0.00    -0.456 OA
ENDROOT
BRANCH   1  12
ATOM     12  C   UNL     1      25.784  47.329  86.260  1.00  0.00     0.021 A 
ATOM     13  C   UNL     1      27.099  47.615  85.854  1.00  0.00     0.016 A 
ATOM     14  C   UNL     1      27.836  46.682  85.120  1.00  0.00     0.051 A 
ATOM     15  C   UNL     1      27.268  45.451  84.770  1.00  0.00     0.157 A 
ATOM     16  C   UNL     1      25.215  46.093  85.893  1.00  0.00     0.062 A 
ATOM     17  C   UNL     1      25.954  45.158  85.154  1.00  0.00     0.158 A 
BRANCH  15  18
ATOM     18  O   UNL     1      27.999  44.517  84.038  1.00  0.00    -0.504 OA
ATOM     19  H   UNL     1      27.969  43.529  84.261  1.00  0.00     0.293 HD
ENDBRANCH  15  18
BRANCH  17  20
ATOM     20  O   UNL     1      25.387  43.936  84.795  1.00  0.00    -0.504 OA
ATOM     21  H   UNL     1      25.634  43.077  85.270  1.00  0.00     0.293 HD
ENDBRANCH  17  20
ENDBRANCH   1  12
BRANCH   6  22
ATOM     22  O   UNL     1      23.058  52.187  89.901  1.00  0.00    -0.507 OA
ATOM     23  H   UNL     1      24.004  52.301  90.232  1.00  0.00     0.293 HD
ENDBRANCH   6  22
BRANCH   8  24
ATOM     24  O   UNL     1      19.366  50.262  87.547  1.00  0.00    -0.508 OA
ATOM     25  H   UNL     1      18.734  49.610  87.999  1.00  0.00     0.293 HD
ENDBRANCH   8  24
TORSDOF 5
ENDMDL
MODEL 5
REMARK VINA RESULT:    -4.405      2.588      3.459
REMARK INTER + INTRA:          -5.440
REMARK INTER:                  -5.129
REMARK INTRA:                  -0.311
REMARK UNBOUND:                -0.262
REMARK SMILES O=c1cc(-c2ccc(O)c(O)c2)oc2cc(O)cc(O)c12
REMARK SMILES IDX 4 1 3 2 2 3 1 4 21 5 19 6 18 7 16 8 15 9 14 10 13 11 5 12
REMARK SMILES IDX 6 13 7 14 8 15 12 16 10 17 9 18 11 20 20 22 17 24
REMARK H PARENT 9 19 11 21 20 23 17 25
REMARK Flexibility Score: inf
ROOT
ATOM      1  C   UNL     1      22.955  49.615  87.897  1.00  0.00     0.138 A 
ATOM      2  C   UNL     1      24.243  50.092  88.175  1.00  0.00     0.100 A 
ATOM      3  C   UNL     1      25.356  49.361  87.758  1.00  0.00     0.197 A 
ATOM      4  O   UNL     1      26.498  49.842  87.973  1.00  0.00    -0.289 OA
ATOM      5  C   UNL     1      25.176  48.126  87.088  1.00  0.00     0.107 A 
ATOM      6  C   UNL     1      26.235  47.278  86.646  1.00  0.00     0.134 A 
ATOM      7  C   UNL     1      25.934  46.127  85.906  1.00  0.00     0.093 A 
ATOM      8  C   UNL     1      24.614  45.763  85.643  1.00  0.00     0.123 A 
ATOM      9  C   UNL     1      23.569  46.559  86.114  1.00  0.00     0.094 A 
ATOM     10  C   UNL     1      23.837  47.731  86.825  1.00  0.00     0.146 A 
ATOM     11  O   UNL     1      22.813  48.470  87.240  1.00  0.00    -0.456 OA
ENDROOT
BRANCH   1  12
ATOM     12  C   UNL     1      21.737  50.351  88.321  1.00  0.00     0.021 A 
ATOM     13  C   UNL     1      21.816  51.254  89.395  1.00  0.00     0.016 A 
ATOM     14  C   UNL     1      20.682  51.954  89.820  1.00  0.00     0.051 A 
ATOM     15  C   UNL     1      19.451  51.755  89.184  1.00  0.00     0.157 A 
ATOM     16  C   UNL     1      20.492  50.147  87.695  1.00  0.00     0.062 A 
ATOM     17  C   UNL     1      19.355  50.847  88.123  1.00  0.00     0.158 A 
BRANCH  15  18
ATOM     18  O   UNL     1      18.319  52.451  89.604  1.00  0.00    -0.504 OA
ATOM     19  H   UNL     1      18.367  53.145  90.342  1.00  0.00     0.293 HD
ENDBRANCH  15  18
BRANCH  17  20
ATOM     20  O   UNL     1      18.124  50.643  87.500  1.00  0.00    -0.504 OA
ATOM     21  H   UNL     1      17.269  50.546  88.034  1.00  0.00     0.293 HD
ENDBRANCH  17  20
ENDBRANCH   1  12
BRANCH   6  22
ATOM     22  O   UNL     1      27.587  47.502  86.921  1.00  0.00    -0.507 OA
ATOM     23  H   UNL     1      28.013  48.410  87.029  1.00  0.00     0.293 HD
ENDBRANCH   6  22
BRANCH   8  24
ATOM     24  O   UNL     1      24.353  44.603  84.917  1.00  0.00    -0.508 OA
ATOM     25  H   UNL     1      23.763  44.616  84.093  1.00  0.00     0.293 HD
ENDBRANCH   8  24
TORSDOF 5
ENDMDL
MODEL 6
REMARK VINA RESULT:    -4.337      2.825      7.300
REMARK INTER + INTRA:          -5.360
REMARK INTER:                  -5.044
REMARK INTRA:                  -0.316
REMARK UNBOUND:                -0.262
REMARK SMILES O=c1cc(-c2ccc(O)c(O)c2)oc2cc(O)cc(O)c12
REMARK SMILES IDX 4 1 3 2 2 3 1 4 21 5 19 6 18 7 16 8 15 9 14 10 13 11 5 12
REMARK SMILES IDX 6 13 7 14 8 15 12 16 10 17 9 18 11 20 20 22 17 24
REMARK H PARENT 9 19 11 21 20 23 17 25
REMARK Flexibility Score: inf
ROOT
ATOM      1  C   UNL     1      24.193  47.670  86.923  1.00  0.00     0.138 A 
ATOM      2  C   UNL     1      24.435  49.007  87.265  1.00  0.00     0.100 A 
ATOM      3  C   UNL     1      23.449  49.741  87.927  1.00  0.00     0.197 A 
ATOM      4  O   UNL     1      23.717  50.921  88.270  1.00  0.00    -0.289 OA
ATOM      5  C   UNL     1      22.200  49.140  88.214  1.00  0.00     0.107 A 
ATOM      6  C   UNL     1      21.107  49.800  88.854  1.00  0.00     0.134 A 
ATOM      7  C   UNL     1      19.954  49.072  89.174  1.00  0.00     0.093 A 
ATOM      8  C   UNL     1      19.830  47.727  88.828  1.00  0.00     0.123 A 
ATOM      9  C   UNL     1      20.872  47.085  88.157  1.00  0.00     0.094 A 
ATOM     10  C   UNL     1      22.049  47.774  87.855  1.00  0.00     0.146 A 
ATOM     11  O   UNL     1      23.024  47.121  87.232  1.00  0.00    -0.456 OA
ENDROOT
BRANCH   1  12
ATOM     12  C   UNL     1      25.205  46.845  86.216  1.00  0.00     0.021 A 
ATOM     13  C   UNL     1      26.509  47.344  86.051  1.00  0.00     0.016 A 
ATOM     14  C   UNL     1      27.479  46.591  85.383  1.00  0.00     0.051 A 
ATOM     15  C   UNL     1      27.159  45.333  84.860  1.00  0.00     0.157 A 
ATOM     16  C   UNL     1      24.888  45.584  85.675  1.00  0.00     0.062 A 
ATOM     17  C   UNL     1      25.861  44.830  85.003  1.00  0.00     0.158 A 
BRANCH  15  18
ATOM     18  O   UNL     1      28.124  44.579  84.193  1.00  0.00    -0.504 OA
ATOM     19  H   UNL     1      28.576  44.920  83.353  1.00  0.00     0.293 HD
ENDBRANCH  15  18
BRANCH  17  20
ATOM     20  O   UNL     1      25.543  43.581  84.471  1.00  0.00    -0.504 OA
ATOM     21  H   UNL     1      24.751  43.047  84.808  1.00  0.00     0.293 HD
ENDBRANCH  17  20
ENDBRANCH   1  12
BRANCH   6  22
ATOM     22  O   UNL     1      21.091  51.160  89.174  1.00  0.00    -0.507 OA
ATOM     23  H   UNL     1      20.559  51.573  89.925  1.00  0.00     0.293 HD
ENDBRANCH   6  22
BRANCH   8  24
ATOM     24  O   UNL     1      18.662  47.040  89.149  1.00  0.00    -0.508 OA
ATOM     25  H   UNL     1      17.755  47.356  88.825  1.00  0.00     0.293 HD
ENDBRANCH   8  24
TORSDOF 5
ENDMDL
MODEL 7
REMARK VINA RESULT:    -4.307      2.885      3.843
REMARK INTER + INTRA:          -5.324
REMARK INTER:                  -5.060
REMARK INTRA:                  -0.264
REMARK UNBOUND:                -0.262
REMARK SMILES O=c1cc(-c2ccc(O)c(O)c2)oc2cc(O)cc(O)c12
REMARK SMILES IDX 4 1 3 2 2 3 1 4 21 5 19 6 18 7 16 8 15 9 14 10 13 11 5 12
REMARK SMILES IDX 6 13 7 14 8 15 12 16 10 17 9 18 11 20 20 22 17 24
REMARK H PARENT 9 19 11 21 20 23 17 25
REMARK Flexibility Score: inf
ROOT
ATOM      1  C   UNL     1      23.221  48.302  87.443  1.00  0.00     0.138 A 
ATOM      2  C   UNL     1      24.303  49.191  87.491  1.00  0.00     0.100 A 
ATOM      3  C   UNL     1      25.531  48.817  86.946  1.00  0.00     0.197 A 
ATOM      4  O   UNL     1      26.466  49.658  86.955  1.00  0.00    -0.289 OA
ATOM      5  C   UNL     1      25.686  47.528  86.380  1.00  0.00     0.107 A 
ATOM      6  C   UNL     1      26.900  47.023  85.825  1.00  0.00     0.134 A 
ATOM      7  C   UNL     1      26.905  45.767  85.204  1.00  0.00     0.093 A 
ATOM      8  C   UNL     1      25.758  44.975  85.169  1.00  0.00     0.123 A 
ATOM      9  C   UNL     1      24.578  45.438  85.753  1.00  0.00     0.094 A 
ATOM     10  C   UNL     1      24.531  46.701  86.349  1.00  0.00     0.146 A 
ATOM     11  O   UNL     1      23.383  47.111  86.878  1.00  0.00    -0.456 OA
ENDROOT
BRANCH   1  12
ATOM     12  C   UNL     1      21.894  48.648  88.011  1.00  0.00     0.021 A 
ATOM     13  C   UNL     1      21.401  47.919  89.107  1.00  0.00     0.016 A 
ATOM     14  C   UNL     1      20.152  48.220  89.657  1.00  0.00     0.051 A 
ATOM     15  C   UNL     1      19.370  49.246  89.114  1.00  0.00     0.157 A 
ATOM     16  C   UNL     1      21.096  49.671  87.462  1.00  0.00     0.062 A 
ATOM     17  C   UNL     1      19.841  49.970  88.012  1.00  0.00     0.158 A 
BRANCH  15  18
ATOM     18  O   UNL     1      18.123  49.549  89.659  1.00  0.00    -0.504 OA
ATOM     19  H   UNL     1      17.486  50.190  89.200  1.00  0.00     0.293 HD
ENDBRANCH  15  18
BRANCH  17  20
ATOM     20  O   UNL     1      19.055  50.984  87.467  1.00  0.00    -0.504 OA
ATOM     21  H   UNL     1      18.061  50.861  87.315  1.00  0.00     0.293 HD
ENDBRANCH  17  20
ENDBRANCH   1  12
BRANCH   6  22
ATOM     22  O   UNL     1      28.124  47.696  85.874  1.00  0.00    -0.507 OA
ATOM     23  H   UNL     1      28.783  47.756  85.112  1.00  0.00     0.293 HD
ENDBRANCH   6  22
BRANCH   8  24
ATOM     24  O   UNL     1      25.804  43.725  84.556  1.00  0.00    -0.508 OA
ATOM     25  H   UNL     1      24.972  43.292  84.172  1.00  0.00     0.293 HD
ENDBRANCH   8  24
TORSDOF 5
ENDMDL
MODEL 8
REMARK VINA RESULT:    -4.264      2.305      6.583
REMARK INTER + INTRA:          -5.274
REMARK INTER:                  -4.992
REMARK INTRA:                  -0.282
REMARK UNBOUND:                -0.262
REMARK SMILES O=c1cc(-c2ccc(O)c(O)c2)oc2cc(O)cc(O)c12
REMARK SMILES IDX 4 1 3 2 2 3 1 4 21 5 19 6 18 7 16 8 15 9 14 10 13 11 5 12
REMARK SMILES IDX 6 13 7 14 8 15 12 16 10 17 9 18 11 20 20 22 17 24
REMARK H PARENT 9 19 11 21 20 23 17 25
REMARK Flexibility Score: inf
ROOT
ATOM      1  C   UNL     1      21.914  47.658  88.120  1.00  0.00     0.138 A 
ATOM      2  C   UNL     1      21.776  49.043  88.290  1.00  0.00     0.100 A 
ATOM      3  C   UNL     1      20.575  49.563  88.775  1.00  0.00     0.197 A 
ATOM      4  O   UNL     1      20.501  50.803  88.969  1.00  0.00    -0.289 OA
ATOM      5  C   UNL     1      19.494  48.693  89.057  1.00  0.00     0.107 A 
ATOM      6  C   UNL     1      18.212  49.112  89.524  1.00  0.00     0.134 A 
ATOM      7  C   UNL     1      17.253  48.149  89.863  1.00  0.00     0.093 A 
ATOM      8  C   UNL     1      17.507  46.788  89.698  1.00  0.00     0.123 A 
ATOM      9  C   UNL     1      18.739  46.369  89.195  1.00  0.00     0.094 A 
ATOM     10  C   UNL     1      19.730  47.303  88.881  1.00  0.00     0.146 A 
ATOM     11  O   UNL     1      20.896  46.861  88.422  1.00  0.00    -0.456 OA
ENDROOT
BRANCH   1  12
ATOM     12  C   UNL     1      23.168  47.052  87.604  1.00  0.00     0.021 A 
ATOM     13  C   UNL     1      24.387  47.341  88.241  1.00  0.00     0.016 A 
ATOM     14  C   UNL     1      25.582  46.789  87.772  1.00  0.00     0.051 A 
ATOM     15  C   UNL     1      25.580  45.949  86.652  1.00  0.00     0.157 A 
ATOM     16  C   UNL     1      23.175  46.216  86.471  1.00  0.00     0.062 A 
ATOM     17  C   UNL     1      24.375  45.665  85.998  1.00  0.00     0.158 A 
BRANCH  15  18
ATOM     18  O   UNL     1      26.770  45.396  86.181  1.00  0.00    -0.504 OA
ATOM     19  H   UNL     1      26.795  44.832  85.339  1.00  0.00     0.293 HD
ENDBRANCH  15  18
BRANCH  17  20
ATOM     20  O   UNL     1      24.378  44.837  84.877  1.00  0.00    -0.504 OA
ATOM     21  H   UNL     1      25.040  44.969  84.121  1.00  0.00     0.293 HD
ENDBRANCH  17  20
ENDBRANCH   1  12
BRANCH   6  22
ATOM     22  O   UNL     1      17.822  50.448  89.651  1.00  0.00    -0.507 OA
ATOM     23  H   UNL     1      18.138  51.203  89.061  1.00  0.00     0.293 HD
ENDBRANCH   6  22
BRANCH   8  24
ATOM     24  O   UNL     1      16.523  45.860  90.031  1.00  0.00    -0.508 OA
ATOM     25  H   UNL     1      16.720  45.076  90.643  1.00  0.00     0.293 HD
ENDBRANCH   8  24
TORSDOF 5
ENDMDL
MODEL 9
REMARK VINA RESULT:    -4.238      2.842      4.305
REMARK INTER + INTRA:          -5.244
REMARK INTER:                  -4.933
REMARK INTRA:                  -0.311
REMARK UNBOUND:                -0.262
REMARK SMILES O=c1cc(-c2ccc(O)c(O)c2)oc2cc(O)cc(O)c12
REMARK SMILES IDX 4 1 3 2 2 3 1 4 21 5 19 6 18 7 16 8 15 9 14 10 13 11 5 12
REMARK SMILES IDX 6 13 7 14 8 15 12 16 10 17 9 18 11 20 20 22 17 24
REMARK H PARENT 9 19 11 21 20 23 17 25
REMARK Flexibility Score: inf
ROOT
ATOM      1  C   UNL     1      22.572  47.534  87.851  1.00  0.00     0.138 A 
ATOM      2  C   UNL     1      23.504  48.552  88.096  1.00  0.00     0.100 A 
ATOM      3  C   UNL     1      24.795  48.445  87.578  1.00  0.00     0.197 A 
ATOM      4  O   UNL     1      25.592  49.400  87.768  1.00  0.00    -0.289 OA
ATOM      5  C   UNL     1      25.165  47.294  86.842  1.00  0.00     0.107 A 
ATOM      6  C   UNL     1      26.463  47.059  86.295  1.00  0.00     0.134 A 
ATOM      7  C   UNL     1      26.682  45.927  85.499  1.00  0.00     0.093 A 
ATOM      8  C   UNL     1      25.670  44.994  85.279  1.00  0.00     0.123 A 
ATOM      9  C   UNL     1      24.411  45.187  85.850  1.00  0.00     0.094 A 
ATOM     10  C   UNL     1      24.151  46.324  86.619  1.00  0.00     0.146 A 
ATOM     11  O   UNL     1      22.934  46.479  87.130  1.00  0.00    -0.456 OA
ENDROOT
BRANCH   1  12
ATOM     12  C   UNL     1      21.186  47.595  88.381  1.00  0.00     0.021 A 
ATOM     13  C   UNL     1      20.639  48.839  88.742  1.00  0.00     0.016 A 
ATOM     14  C   UNL     1      19.340  48.924  89.249  1.00  0.00     0.051 A 
ATOM     15  C   UNL     1      18.570  47.766  89.414  1.00  0.00     0.157 A 
ATOM     16  C   UNL     1      20.409  46.434  88.562  1.00  0.00     0.062 A 
ATOM     17  C   UNL     1      19.107  46.519  89.074  1.00  0.00     0.158 A 
BRANCH  15  18
ATOM     18  O   UNL     1      17.273  47.846  89.920  1.00  0.00    -0.504 OA
ATOM     19  H   UNL     1      17.092  47.836  90.917  1.00  0.00     0.293 HD
ENDBRANCH  15  18
BRANCH  17  20
ATOM     20  O   UNL     1      18.341  45.368  89.250  1.00  0.00    -0.504 OA
ATOM     21  H   UNL     1      17.917  45.144  90.142  1.00  0.00     0.293 HD
ENDBRANCH  17  20
ENDBRANCH   1  12
BRANCH   6  22
ATOM     22  O   UNL     1      27.569  47.885  86.517  1.00  0.00    -0.507 OA
ATOM     23  H   UNL     1      28.263  48.122  85.825  1.00  0.00     0.293 HD
ENDBRANCH   6  22
BRANCH   8  24
ATOM     24  O   UNL     1      25.929  43.872  84.494  1.00  0.00    -0.508 OA
ATOM     25  H   UNL     1      26.426  43.070  84.865  1.00  0.00     0.293 HD
ENDBRANCH   8  24
TORSDOF 5
ENDMDL
