MODEL 1
REMARK VINA RESULT:    -4.570      0.000      0.000
REMARK INTER + INTRA:          -6.971
REMARK INTER:                  -6.440
REMARK INTRA:                  -0.531
REMARK UNBOUND:                -0.531
REMARK SMILES CCCCCCCCC(=O)[O-]
REMARK SMILES IDX 6 1 7 2 8 3 9 4 10 5 11 6 5 7 4 8 3 9 2 10 1 11
REMARK H PARENT
REMARK Flexibility Score: inf
ROOT
ATOM      1  C   UNL     1       4.598 -37.611  21.196  1.00  0.00     0.000 C 
ENDROOT
BRANCH   1   2
ATOM      2  C   UNL     1       5.194 -37.038  22.488  1.00  0.00     0.006 C 
BRANCH   2   3
ATOM      3  C   UNL     1       4.789 -37.880  23.701  1.00  0.00     0.053 C 
BRANCH   3   4
ATOM      4  C   UNL     1       4.845 -37.059  24.950  1.00  0.00     0.041 C 
ATOM      5  O   UNL     1       4.106 -37.342  25.929  1.00  0.00    -0.550 OA
ATOM      6  O   UNL     1       5.749 -36.008  25.051  1.00  0.00    -0.550 OA
ENDBRANCH   3   4
ENDBRANCH   2   3
ENDBRANCH   1   2
BRANCH   1   7
ATOM      7  C   UNL     1       4.799 -36.647  20.021  1.00  0.00     0.000 C 
BRANCH   7   8
ATOM      8  C   UNL     1       5.532 -35.378  20.468  1.00  0.00    -0.000 C 
BRANCH   8   9
ATOM      9  C   UNL     1       4.680 -34.130  20.210  1.00  0.00    -0.000 C 
BRANCH   9  10
ATOM     10  C   UNL     1       3.981 -33.666  21.494  1.00  0.00    -0.003 C 
ATOM     11  C   UNL     1       4.978 -33.508  22.638  1.00  0.00     0.004 C 
ENDBRANCH   9  10
ENDBRANCH   8   9
ENDBRANCH   7   8
ENDBRANCH   1   7
TORSDOF 7
ENDMDL
MODEL 2
REMARK VINA RESULT:    -4.567      1.273      2.854
REMARK INTER + INTRA:          -6.967
REMARK INTER:                  -6.438
REMARK INTRA:                  -0.529
REMARK UNBOUND:                -0.531
REMARK SMILES CCCCCCCCC(=O)[O-]
REMARK SMILES IDX 6 1 7 2 8 3 9 4 10 5 11 6 5 7 4 8 3 9 2 10 1 11
REMARK H PARENT
REMARK Flexibility Score: inf
ROOT
ATOM      1  C   UNL     1       5.699 -33.832  23.370  1.00  0.00     0.000 C 
ENDROOT
BRANCH   1   2
ATOM      2  C   UNL     1       6.124 -35.304  23.305  1.00  0.00     0.006 C 
BRANCH   2   3
ATOM      3  C   UNL     1       5.993 -35.976  24.675  1.00  0.00     0.053 C 
BRANCH   3   4
ATOM      4  C   UNL     1       4.908 -37.004  24.653  1.00  0.00     0.041 C 
ATOM      5  O   UNL     1       4.651 -37.632  23.592  1.00  0.00    -0.550 OA
ATOM      6  O   UNL     1       4.211 -37.306  25.816  1.00  0.00    -0.550 OA
ENDBRANCH   3   4
ENDBRANCH   2   3
ENDBRANCH   1   2
BRANCH   1   7
ATOM      7  C   UNL     1       4.666 -33.507  22.286  1.00  0.00     0.000 C 
BRANCH   7   8
ATOM      8  C   UNL     1       4.352 -34.743  21.435  1.00  0.00    -0.000 C 
BRANCH   8   9
ATOM      9  C   UNL     1       4.741 -34.516  19.969  1.00  0.00    -0.000 C 
BRANCH   9  10
ATOM     10  C   UNL     1       4.457 -35.764  19.125  1.00  0.00    -0.003 C 
ATOM     11  C   UNL     1       4.828 -37.037  19.881  1.00  0.00     0.004 C 
ENDBRANCH   9  10
ENDBRANCH   8   9
ENDBRANCH   7   8
ENDBRANCH   1   7
TORSDOF 7
ENDMDL
MODEL 3
REMARK VINA RESULT:    -4.530      2.718      5.089
REMARK INTER + INTRA:          -6.915
REMARK INTER:                  -6.398
REMARK INTRA:                  -0.517
REMARK UNBOUND:                -0.531
REMARK SMILES CCCCCCCCC(=O)[O-]
REMARK SMILES IDX 6 1 7 2 8 3 9 4 10 5 11 6 5 7 4 8 3 9 2 10 1 11
REMARK H PARENT
REMARK Flexibility Score: inf
ROOT
ATOM      1  C   UNL     1       5.417 -33.496  22.909  1.00  0.00     0.000 C 
ENDROOT
BRANCH   1   2
ATOM      2  C   UNL     1       4.417 -34.373  22.145  1.00  0.00     0.006 C 
BRANCH   2   3
ATOM      3  C   UNL     1       4.244 -33.884  20.705  1.00  0.00     0.053 C 
BRANCH   3   4
ATOM      4  C   UNL     1       5.011 -34.753  19.760  1.00  0.00     0.041 C 
ATOM      5  O   UNL     1       5.884 -34.252  19.004  1.00  0.00    -0.550 OA
ATOM      6  O   UNL     1       4.797 -36.126  19.749  1.00  0.00    -0.550 OA
ENDBRANCH   3   4
ENDBRANCH   2   3
ENDBRANCH   1   2
BRANCH   1   7
ATOM      7  C   UNL     1       6.125 -34.295  24.009  1.00  0.00     0.000 C 
BRANCH   7   8
ATOM      8  C   UNL     1       6.010 -35.802  23.756  1.00  0.00    -0.000 C 
BRANCH   8   9
ATOM      9  C   UNL     1       5.278 -36.500  24.908  1.00  0.00    -0.000 C 
BRANCH   9  10
ATOM     10  C   UNL     1       4.634 -37.810  24.438  1.00  0.00    -0.003 C 
ATOM     11  C   UNL     1       4.872 -38.037  22.948  1.00  0.00     0.004 C 
ENDBRANCH   9  10
ENDBRANCH   8   9
ENDBRANCH   7   8
ENDBRANCH   1   7
TORSDOF 7
ENDMDL
MODEL 4
REMARK VINA RESULT:    -4.522      3.095      4.578
REMARK INTER + INTRA:          -6.903
REMARK INTER:                  -6.583
REMARK INTRA:                  -0.320
REMARK UNBOUND:                -0.531
REMARK SMILES CCCCCCCCC(=O)[O-]
REMARK SMILES IDX 6 1 7 2 8 3 9 4 10 5 11 6 5 7 4 8 3 9 2 10 1 11
REMARK H PARENT
REMARK Flexibility Score: inf
ROOT
ATOM      1  C   UNL     1       4.946 -36.910  19.875  1.00  0.00     0.000 C 
ENDROOT
BRANCH   1   2
ATOM      2  C   UNL     1       4.917 -36.292  21.279  1.00  0.00     0.006 C 
BRANCH   2   3
ATOM      3  C   UNL     1       5.561 -34.903  21.282  1.00  0.00     0.053 C 
BRANCH   3   4
ATOM      4  C   UNL     1       4.736 -33.945  22.080  1.00  0.00     0.041 C 
ATOM      5  O   UNL     1       5.179 -33.470  23.158  1.00  0.00    -0.550 OA
ATOM      6  O   UNL     1       3.494 -33.537  21.608  1.00  0.00    -0.550 OA
ENDBRANCH   3   4
ENDBRANCH   2   3
ENDBRANCH   1   2
BRANCH   1   7
ATOM      7  C   UNL     1       3.853 -36.308  18.985  1.00  0.00     0.000 C 
BRANCH   7   8
ATOM      8  C   UNL     1       2.888 -37.391  18.490  1.00  0.00    -0.000 C 
BRANCH   8   9
ATOM      9  C   UNL     1       2.114 -36.916  17.254  1.00  0.00    -0.000 C 
BRANCH   9  10
ATOM     10  C   UNL     1       3.009 -36.079  16.333  1.00  0.00    -0.003 C 
ATOM     11  C   UNL     1       3.194 -36.757  14.978  1.00  0.00     0.004 C 
ENDBRANCH   9  10
ENDBRANCH   8   9
ENDBRANCH   7   8
ENDBRANCH   1   7
TORSDOF 7
ENDMDL
MODEL 5
REMARK VINA RESULT:    -4.476      3.627      5.054
REMARK INTER + INTRA:          -6.838
REMARK INTER:                  -6.259
REMARK INTRA:                  -0.579
REMARK UNBOUND:                -0.531
REMARK SMILES CCCCCCCCC(=O)[O-]
REMARK SMILES IDX 6 1 7 2 8 3 9 4 10 5 11 6 5 7 4 8 3 9 2 10 1 11
REMARK H PARENT
REMARK Flexibility Score: inf
ROOT
ATOM      1  C   UNL     1       5.172 -34.869  20.260  1.00  0.00     0.000 C 
ENDROOT
BRANCH   1   2
ATOM      2  C   UNL     1       4.368 -35.449  19.090  1.00  0.00     0.006 C 
BRANCH   2   3
ATOM      3  C   UNL     1       3.951 -36.895  19.373  1.00  0.00     0.053 C 
BRANCH   3   4
ATOM      4  C   UNL     1       2.919 -37.345  18.389  1.00  0.00     0.041 C 
ATOM      5  O   UNL     1       3.169 -37.327  17.155  1.00  0.00    -0.550 OA
ATOM      6  O   UNL     1       1.696 -37.830  18.837  1.00  0.00    -0.550 OA
ENDBRANCH   3   4
ENDBRANCH   2   3
ENDBRANCH   1   2
BRANCH   1   7
ATOM      7  C   UNL     1       4.253 -34.159  21.261  1.00  0.00     0.000 C 
BRANCH   7   8
ATOM      8  C   UNL     1       4.952 -33.970  22.613  1.00  0.00    -0.000 C 
BRANCH   8   9
ATOM      9  C   UNL     1       5.833 -35.179  22.951  1.00  0.00    -0.000 C 
BRANCH   9  10
ATOM     10  C   UNL     1       5.031 -36.255  23.691  1.00  0.00    -0.003 C 
ATOM     11  C   UNL     1       5.011 -37.564  22.908  1.00  0.00     0.004 C 
ENDBRANCH   9  10
ENDBRANCH   8   9
ENDBRANCH   7   8
ENDBRANCH   1   7
TORSDOF 7
ENDMDL
MODEL 6
REMARK VINA RESULT:    -4.465      2.126      3.162
REMARK INTER + INTRA:          -6.822
REMARK INTER:                  -6.243
REMARK INTRA:                  -0.580
REMARK UNBOUND:                -0.531
REMARK SMILES CCCCCCCCC(=O)[O-]
REMARK SMILES IDX 6 1 7 2 8 3 9 4 10 5 11 6 5 7 4 8 3 9 2 10 1 11
REMARK H PARENT
REMARK Flexibility Score: inf
ROOT
ATOM      1  C   UNL     1       5.450 -35.092  24.004  1.00  0.00     0.000 C 
ENDROOT
BRANCH   1   2
ATOM      2  C   UNL     1       5.914 -36.495  23.594  1.00  0.00     0.006 C 
BRANCH   2   3
ATOM      3  C   UNL     1       4.785 -37.517  23.756  1.00  0.00     0.053 C 
BRANCH   3   4
ATOM      4  C   UNL     1       4.730 -38.429  22.571  1.00  0.00     0.041 C 
ATOM      5  O   UNL     1       4.354 -37.992  21.452  1.00  0.00    -0.550 OA
ATOM      6  O   UNL     1       5.142 -39.751  22.691  1.00  0.00    -0.550 OA
ENDBRANCH   3   4
ENDBRANCH   2   3
ENDBRANCH   1   2
BRANCH   1   7
ATOM      7  C   UNL     1       5.806 -34.058  22.930  1.00  0.00     0.000 C 
BRANCH   7   8
ATOM      8  C   UNL     1       4.550 -33.547  22.217  1.00  0.00    -0.000 C 
BRANCH   8   9
ATOM      9  C   UNL     1       4.194 -34.440  21.021  1.00  0.00    -0.000 C 
BRANCH   9  10
ATOM     10  C   UNL     1       5.446 -34.801  20.214  1.00  0.00    -0.003 C 
ATOM     11  C   UNL     1       5.405 -34.176  18.822  1.00  0.00     0.004 C 
ENDBRANCH   9  10
ENDBRANCH   8   9
ENDBRANCH   7   8
ENDBRANCH   1   7
TORSDOF 7
ENDMDL
MODEL 7
REMARK VINA RESULT:    -4.421      2.782      4.647
REMARK INTER + INTRA:          -6.761
REMARK INTER:                  -6.200
REMARK INTRA:                  -0.561
REMARK UNBOUND:                -0.531
REMARK SMILES CCCCCCCCC(=O)[O-]
REMARK SMILES IDX 6 1 7 2 8 3 9 4 10 5 11 6 5 7 4 8 3 9 2 10 1 11
REMARK H PARENT
REMARK Flexibility Score: inf
ROOT
ATOM      1  C   UNL     1       4.392 -34.076  21.500  1.00  0.00     0.000 C 
ENDROOT
BRANCH   1   2
ATOM      2  C   UNL     1       5.347 -34.798  20.541  1.00  0.00     0.006 C 
BRANCH   2   3
ATOM      3  C   UNL     1       4.605 -35.296  19.298  1.00  0.00     0.053 C 
BRANCH   3   4
ATOM      4  C   UNL     1       4.241 -36.738  19.448  1.00  0.00     0.041 C 
ATOM      5  O   UNL     1       3.102 -37.145  19.097  1.00  0.00    -0.550 OA
ATOM      6  O   UNL     1       5.177 -37.645  19.930  1.00  0.00    -0.550 OA
ENDBRANCH   3   4
ENDBRANCH   2   3
ENDBRANCH   1   2
BRANCH   1   7
ATOM      7  C   UNL     1       5.039 -33.875  22.875  1.00  0.00     0.000 C 
BRANCH   7   8
ATOM      8  C   UNL     1       6.125 -34.925  23.133  1.00  0.00    -0.000 C 
BRANCH   8   9
ATOM      9  C   UNL     1       6.055 -35.448  24.573  1.00  0.00    -0.000 C 
BRANCH   9  10
ATOM     10  C   UNL     1       5.014 -36.566  24.703  1.00  0.00    -0.003 C 
ATOM     11  C   UNL     1       5.006 -37.458  23.465  1.00  0.00     0.004 C 
ENDBRANCH   9  10
ENDBRANCH   8   9
ENDBRANCH   7   8
ENDBRANCH   1   7
TORSDOF 7
ENDMDL
MODEL 8
REMARK VINA RESULT:    -4.358      1.707      3.294
REMARK INTER + INTRA:          -6.672
REMARK INTER:                  -6.183
REMARK INTRA:                  -0.488
REMARK UNBOUND:                -0.531
REMARK SMILES CCCCCCCCC(=O)[O-]
REMARK SMILES IDX 6 1 7 2 8 3 9 4 10 5 11 6 5 7 4 8 3 9 2 10 1 11
REMARK H PARENT
REMARK Flexibility Score: inf
ROOT
ATOM      1  C   UNL     1       4.298 -34.151  21.482  1.00  0.00     0.000 C 
ENDROOT
BRANCH   1   2
ATOM      2  C   UNL     1       5.018 -34.078  22.834  1.00  0.00     0.006 C 
BRANCH   2   3
ATOM      3  C   UNL     1       5.905 -35.307  23.052  1.00  0.00     0.053 C 
BRANCH   3   4
ATOM      4  C   UNL     1       5.133 -36.398  23.724  1.00  0.00     0.041 C 
ATOM      5  O   UNL     1       4.912 -36.348  24.962  1.00  0.00    -0.550 OA
ATOM      6  O   UNL     1       4.615 -37.447  22.973  1.00  0.00    -0.550 OA
ENDBRANCH   3   4
ENDBRANCH   2   3
ENDBRANCH   1   2
BRANCH   1   7
ATOM      7  C   UNL     1       5.283 -34.461  20.349  1.00  0.00     0.000 C 
BRANCH   7   8
ATOM      8  C   UNL     1       4.592 -35.218  19.210  1.00  0.00    -0.000 C 
BRANCH   8   9
ATOM      9  C   UNL     1       4.411 -36.699  19.562  1.00  0.00    -0.000 C 
BRANCH   9  10
ATOM     10  C   UNL     1       3.095 -37.243  18.994  1.00  0.00    -0.003 C 
ATOM     11  C   UNL     1       3.042 -37.088  17.477  1.00  0.00     0.004 C 
ENDBRANCH   9  10
ENDBRANCH   8   9
ENDBRANCH   7   8
ENDBRANCH   1   7
TORSDOF 7
ENDMDL
